MODEL 1
REMARK VINA RESULT:    -4.635      0.000      0.000
REMARK INTER + INTRA:          -6.455
REMARK INTER:                  -5.990
REMARK INTRA:                  -0.465
REMARK UNBOUND:                -0.465
REMARK SMILES CO[C@]1(CO)O[C@H](CO)[C@@H](O)[C@@H]1O
REMARK SMILES IDX 3 1 12 2 10 3 7 4 6 5 2 6 1 7 4 8 5 9 13 11 11 13 8 15 9 16
REMARK H PARENT 5 10 13 12 11 14 9 17
REMARK Flexibility Score: inf
ROOT
ATOM      1  C   UNL     1     -23.859  21.917 -29.115  1.00  0.00     0.221 C 
ATOM      2  C   UNL     1     -24.777  23.162 -29.022  1.00  0.00     0.207 C 
ATOM      3  C   UNL     1     -23.812  24.318 -29.130  1.00  0.00     0.180 C 
ATOM      4  C   UNL     1     -22.622  23.695 -29.849  1.00  0.00     0.179 C 
ATOM      5  O   UNL     1     -22.556  22.331 -29.500  1.00  0.00    -0.337 OA
ENDROOT
BRANCH   1   6
ATOM      6  O   UNL     1     -23.840  21.189 -27.887  1.00  0.00    -0.349 OA
ATOM      7  C   UNL     1     -23.790  19.789 -28.077  1.00  0.00     0.198 C 
ENDBRANCH   1   6
BRANCH   1   8
ATOM      8  C   UNL     1     -24.388  20.962 -30.199  1.00  0.00     0.224 C 
BRANCH   8   9
ATOM      9  O   UNL     1     -25.711  21.293 -30.523  1.00  0.00    -0.391 OA
ATOM     10  H   UNL     1     -25.829  21.055 -31.479  1.00  0.00     0.210 HD
ENDBRANCH   8   9
ENDBRANCH   1   8
BRANCH   2  11
ATOM     11  O   UNL     1     -25.484  23.223 -27.811  1.00  0.00    -0.385 OA
ATOM     12  H   UNL     1     -25.756  24.171 -27.694  1.00  0.00     0.211 HD
ENDBRANCH   2  11
BRANCH   3  13
ATOM     13  O   UNL     1     -24.353  25.370 -29.887  1.00  0.00    -0.387 OA
ATOM     14  H   UNL     1     -24.812  24.951 -30.661  1.00  0.00     0.211 HD
ENDBRANCH   3  13
BRANCH   4  15
ATOM     15  C   UNL     1     -21.295  24.376 -29.489  1.00  0.00     0.191 C 
BRANCH  15  16
ATOM     16  O   UNL     1     -21.526  25.620 -28.880  1.00  0.00    -0.394 OA
ATOM     17  H   UNL     1     -20.647  26.075 -28.813  1.00  0.00     0.210 HD
ENDBRANCH  15  16
ENDBRANCH   4  15
TORSDOF 7
ENDMDL
MODEL 2
REMARK VINA RESULT:    -4.610      1.050      4.237
REMARK INTER + INTRA:          -6.423
REMARK INTER:                  -5.978
REMARK INTRA:                  -0.445
REMARK UNBOUND:                -0.465
REMARK SMILES CO[C@]1(CO)O[C@H](CO)[C@@H](O)[C@@H]1O
REMARK SMILES IDX 3 1 12 2 10 3 7 4 6 5 2 6 1 7 4 8 5 9 13 11 11 13 8 15 9 16
REMARK H PARENT 5 10 13 12 11 14 9 17
REMARK Flexibility Score: inf
ROOT
ATOM      1  C   UNL     1     -22.655  24.204 -30.124  1.00  0.00     0.221 C 
ATOM      2  C   UNL     1     -23.881  24.637 -29.281  1.00  0.00     0.207 C 
ATOM      3  C   UNL     1     -24.706  23.377 -29.188  1.00  0.00     0.180 C 
ATOM      4  C   UNL     1     -23.672  22.282 -29.416  1.00  0.00     0.179 C 
ATOM      5  O   UNL     1     -22.665  22.790 -30.261  1.00  0.00    -0.337 OA
ENDROOT
BRANCH   1   6
ATOM      6  O   UNL     1     -22.637  24.856 -31.394  1.00  0.00    -0.349 OA
ATOM      7  C   UNL     1     -21.407  24.707 -32.073  1.00  0.00     0.198 C 
ENDBRANCH   1   6
BRANCH   1   8
ATOM      8  C   UNL     1     -21.359  24.596 -29.396  1.00  0.00     0.224 C 
BRANCH   8   9
ATOM      9  O   UNL     1     -21.509  25.857 -28.800  1.00  0.00    -0.391 OA
ATOM     10  H   UNL     1     -22.362  26.226 -29.147  1.00  0.00     0.210 HD
ENDBRANCH   8   9
ENDBRANCH   1   8
BRANCH   2  11
ATOM     11  O   UNL     1     -24.620  25.665 -29.889  1.00  0.00    -0.385 OA
ATOM     12  H   UNL     1     -25.531  25.302 -30.041  1.00  0.00     0.211 HD
ENDBRANCH   2  11
BRANCH   3  13
ATOM     13  O   UNL     1     -25.299  23.243 -27.922  1.00  0.00    -0.387 OA
ATOM     14  H   UNL     1     -25.188  22.292 -27.659  1.00  0.00     0.211 HD
ENDBRANCH   3  13
BRANCH   4  15
ATOM     15  C   UNL     1     -24.279  21.023 -30.049  1.00  0.00     0.191 C 
BRANCH  15  16
ATOM     16  O   UNL     1     -25.654  21.194 -30.272  1.00  0.00    -0.394 OA
ATOM     17  H   UNL     1     -25.874  22.125 -30.009  1.00  0.00     0.210 HD
ENDBRANCH  15  16
ENDBRANCH   4  15
TORSDOF 7
ENDMDL
MODEL 3
REMARK VINA RESULT:    -4.481      2.206      3.820
REMARK INTER + INTRA:          -6.257
REMARK INTER:                  -5.774
REMARK INTRA:                  -0.483
REMARK UNBOUND:                -0.465
REMARK SMILES CO[C@]1(CO)O[C@H](CO)[C@@H](O)[C@@H]1O
REMARK SMILES IDX 3 1 12 2 10 3 7 4 6 5 2 6 1 7 4 8 5 9 13 11 11 13 8 15 9 16
REMARK H PARENT 5 10 13 12 11 14 9 17
REMARK Flexibility Score: inf
ROOT
ATOM      1  C   UNL     1     -23.243  19.864 -29.996  1.00  0.00     0.221 C 
ATOM      2  C   UNL     1     -23.708  19.408 -28.590  1.00  0.00     0.207 C 
ATOM      3  C   UNL     1     -24.282  20.667 -27.985  1.00  0.00     0.180 C 
ATOM      4  C   UNL     1     -24.644  21.493 -29.212  1.00  0.00     0.179 C 
ATOM      5  O   UNL     1     -23.744  21.169 -30.248  1.00  0.00    -0.337 OA
ENDROOT
BRANCH   1   6
ATOM      6  O   UNL     1     -21.822  19.813 -30.119  1.00  0.00    -0.349 OA
ATOM      7  C   UNL     1     -21.244  21.080 -30.360  1.00  0.00     0.198 C 
ENDBRANCH   1   6
BRANCH   1   8
ATOM      8  C   UNL     1     -23.824  18.924 -31.065  1.00  0.00     0.224 C 
BRANCH   8   9
ATOM      9  O   UNL     1     -23.661  17.589 -30.667  1.00  0.00    -0.391 OA
ATOM     10  H   UNL     1     -22.708  17.367 -30.832  1.00  0.00     0.210 HD
ENDBRANCH   8   9
ENDBRANCH   1   8
BRANCH   2  11
ATOM     11  O   UNL     1     -22.652  18.922 -27.803  1.00  0.00    -0.385 OA
ATOM     12  H   UNL     1     -23.056  18.624 -26.946  1.00  0.00     0.211 HD
ENDBRANCH   2  11
BRANCH   3  13
ATOM     13  O   UNL     1     -25.425  20.392 -27.217  1.00  0.00    -0.387 OA
ATOM     14  H   UNL     1     -26.089  19.989 -27.836  1.00  0.00     0.211 HD
ENDBRANCH   3  13
BRANCH   4  15
ATOM     15  C   UNL     1     -24.587  23.002 -28.943  1.00  0.00     0.191 C 
BRANCH  15  16
ATOM     16  O   UNL     1     -25.402  23.342 -27.851  1.00  0.00    -0.394 OA
ATOM     17  H   UNL     1     -25.013  24.160 -27.446  1.00  0.00     0.210 HD
ENDBRANCH  15  16
ENDBRANCH   4  15
TORSDOF 7
ENDMDL
MODEL 4
REMARK VINA RESULT:    -4.351     12.989     14.079
REMARK INTER + INTRA:          -6.087
REMARK INTER:                  -5.580
REMARK INTRA:                  -0.507
REMARK UNBOUND:                -0.465
REMARK SMILES CO[C@]1(CO)O[C@H](CO)[C@@H](O)[C@@H]1O
REMARK SMILES IDX 3 1 12 2 10 3 7 4 6 5 2 6 1 7 4 8 5 9 13 11 11 13 8 15 9 16
REMARK H PARENT 5 10 13 12 11 14 9 17
REMARK Flexibility Score: inf
ROOT
ATOM      1  C   UNL     1     -28.464  28.548 -40.664  1.00  0.00     0.221 C 
ATOM      2  C   UNL     1     -27.871  28.039 -42.002  1.00  0.00     0.207 C 
ATOM      3  C   UNL     1     -26.460  28.575 -41.988  1.00  0.00     0.180 C 
ATOM      4  C   UNL     1     -26.194  28.777 -40.501  1.00  0.00     0.179 C 
ATOM      5  O   UNL     1     -27.416  29.083 -39.868  1.00  0.00    -0.337 OA
ENDROOT
BRANCH   1   6
ATOM      6  O   UNL     1     -29.501  29.504 -40.881  1.00  0.00    -0.349 OA
ATOM      7  C   UNL     1     -29.392  30.636 -40.041  1.00  0.00     0.198 C 
ENDBRANCH   1   6
BRANCH   1   8
ATOM      8  C   UNL     1     -29.086  27.373 -39.892  1.00  0.00     0.224 C 
BRANCH   8   9
ATOM      9  O   UNL     1     -29.698  26.484 -40.787  1.00  0.00    -0.391 OA
ATOM     10  H   UNL     1     -29.452  25.572 -40.481  1.00  0.00     0.210 HD
ENDBRANCH   8   9
ENDBRANCH   1   8
BRANCH   2  11
ATOM     11  O   UNL     1     -28.569  28.522 -43.121  1.00  0.00    -0.385 OA
ATOM     12  H   UNL     1     -27.882  28.847 -43.760  1.00  0.00     0.211 HD
ENDBRANCH   2  11
BRANCH   3  13
ATOM     13  O   UNL     1     -25.554  27.651 -42.533  1.00  0.00    -0.387 OA
ATOM     14  H   UNL     1     -26.034  27.188 -43.269  1.00  0.00     0.211 HD
ENDBRANCH   3  13
BRANCH   4  15
ATOM     15  C   UNL     1     -25.186  29.902 -40.232  1.00  0.00     0.191 C 
BRANCH  15  16
ATOM     16  O   UNL     1     -24.640  30.376 -41.435  1.00  0.00    -0.394 OA
ATOM     17  H   UNL     1     -24.334  29.582 -41.945  1.00  0.00     0.210 HD
ENDBRANCH  15  16
ENDBRANCH   4  15
TORSDOF 7
ENDMDL
MODEL 5
REMARK VINA RESULT:    -4.308      2.047      4.484
REMARK INTER + INTRA:          -6.032
REMARK INTER:                  -5.724
REMARK INTRA:                  -0.308
REMARK UNBOUND:                -0.465
REMARK SMILES CO[C@]1(CO)O[C@H](CO)[C@@H](O)[C@@H]1O
REMARK SMILES IDX 3 1 12 2 10 3 7 4 6 5 2 6 1 7 4 8 5 9 13 11 11 13 8 15 9 16
REMARK H PARENT 5 10 13 12 11 14 9 17
REMARK Flexibility Score: inf
ROOT
ATOM      1  C   UNL     1     -21.861  25.007 -30.320  1.00  0.00     0.221 C 
ATOM      2  C   UNL     1     -22.926  26.046 -30.753  1.00  0.00     0.207 C 
ATOM      3  C   UNL     1     -24.225  25.428 -30.296  1.00  0.00     0.180 C 
ATOM      4  C   UNL     1     -23.776  24.490 -29.182  1.00  0.00     0.179 C 
ATOM      5  O   UNL     1     -22.473  24.041 -29.477  1.00  0.00    -0.337 OA
ENDROOT
BRANCH   1   6
ATOM      6  O   UNL     1     -21.235  24.399 -31.449  1.00  0.00    -0.349 OA
ATOM      7  C   UNL     1     -21.518  23.018 -31.559  1.00  0.00     0.198 C 
ENDBRANCH   1   6
BRANCH   1   8
ATOM      8  C   UNL     1     -20.755  25.704 -29.510  1.00  0.00     0.224 C 
BRANCH   8   9
ATOM      9  O   UNL     1     -20.581  27.017 -29.970  1.00  0.00    -0.391 OA
ATOM     10  H   UNL     1     -19.719  27.025 -30.462  1.00  0.00     0.210 HD
ENDBRANCH   8   9
ENDBRANCH   1   8
BRANCH   2  11
ATOM     11  O   UNL     1     -22.943  26.256 -32.141  1.00  0.00    -0.385 OA
ATOM     12  H   UNL     1     -22.794  27.228 -32.279  1.00  0.00     0.211 HD
ENDBRANCH   2  11
BRANCH   3  13
ATOM     13  O   UNL     1     -25.110  26.400 -29.800  1.00  0.00    -0.387 OA
ATOM     14  H   UNL     1     -25.430  26.065 -28.921  1.00  0.00     0.211 HD
ENDBRANCH   3  13
BRANCH   4  15
ATOM     15  C   UNL     1     -24.707  23.281 -29.021  1.00  0.00     0.191 C 
BRANCH  15  16
ATOM     16  O   UNL     1     -25.419  23.361 -27.814  1.00  0.00    -0.394 OA
ATOM     17  H   UNL     1     -25.396  24.312 -27.530  1.00  0.00     0.210 HD
ENDBRANCH  15  16
ENDBRANCH   4  15
TORSDOF 7
ENDMDL
MODEL 6
REMARK VINA RESULT:    -4.166     12.635     14.150
REMARK INTER + INTRA:          -5.848
REMARK INTER:                  -5.406
REMARK INTRA:                  -0.442
REMARK UNBOUND:                -0.465
REMARK SMILES CO[C@]1(CO)O[C@H](CO)[C@@H](O)[C@@H]1O
REMARK SMILES IDX 3 1 12 2 10 3 7 4 6 5 2 6 1 7 4 8 5 9 13 11 11 13 8 15 9 16
REMARK H PARENT 5 10 13 12 11 14 9 17
REMARK Flexibility Score: inf
ROOT
ATOM      1  C   UNL     1     -25.972  29.495 -40.726  1.00  0.00     0.221 C 
ATOM      2  C   UNL     1     -25.862  28.547 -41.947  1.00  0.00     0.207 C 
ATOM      3  C   UNL     1     -27.128  27.727 -41.870  1.00  0.00     0.180 C 
ATOM      4  C   UNL     1     -28.060  28.626 -41.067  1.00  0.00     0.179 C 
ATOM      5  O   UNL     1     -27.280  29.397 -40.181  1.00  0.00    -0.337 OA
ENDROOT
BRANCH   1   6
ATOM      6  O   UNL     1     -24.972  29.207 -39.749  1.00  0.00    -0.349 OA
ATOM      7  C   UNL     1     -25.455  29.296 -38.423  1.00  0.00     0.198 C 
ENDBRANCH   1   6
BRANCH   1   8
ATOM      8  C   UNL     1     -25.758  30.949 -41.177  1.00  0.00     0.224 C 
BRANCH   8   9
ATOM      9  O   UNL     1     -24.413  31.151 -41.517  1.00  0.00    -0.391 OA
ATOM     10  H   UNL     1     -23.908  30.405 -41.099  1.00  0.00     0.210 HD
ENDBRANCH   8   9
ENDBRANCH   1   8
BRANCH   2  11
ATOM     11  O   UNL     1     -24.733  27.714 -41.885  1.00  0.00    -0.385 OA
ATOM     12  H   UNL     1     -24.055  28.119 -42.486  1.00  0.00     0.211 HD
ENDBRANCH   2  11
BRANCH   3  13
ATOM     13  O   UNL     1     -27.657  27.478 -43.147  1.00  0.00    -0.387 OA
ATOM     14  H   UNL     1     -26.945  27.718 -43.797  1.00  0.00     0.211 HD
ENDBRANCH   3  13
BRANCH   4  15
ATOM     15  C   UNL     1     -29.099  27.829 -40.267  1.00  0.00     0.191 C 
BRANCH  15  16
ATOM     16  O   UNL     1     -29.486  26.676 -40.968  1.00  0.00    -0.394 OA
ATOM     17  H   UNL     1     -28.738  26.447 -41.579  1.00  0.00     0.210 HD
ENDBRANCH  15  16
ENDBRANCH   4  15
TORSDOF 7
ENDMDL
MODEL 7
REMARK VINA RESULT:    -4.072     12.629     13.707
REMARK INTER + INTRA:          -5.728
REMARK INTER:                  -5.526
REMARK INTRA:                  -0.201
REMARK UNBOUND:                -0.465
REMARK SMILES CO[C@]1(CO)O[C@H](CO)[C@@H](O)[C@@H]1O
REMARK SMILES IDX 3 1 12 2 10 3 7 4 6 5 2 6 1 7 4 8 5 9 13 11 11 13 8 15 9 16
REMARK H PARENT 5 10 13 12 11 14 9 17
REMARK Flexibility Score: inf
ROOT
ATOM      1  C   UNL     1     -28.541  28.400 -39.765  1.00  0.00     0.221 C 
ATOM      2  C   UNL     1     -29.260  29.114 -40.937  1.00  0.00     0.207 C 
ATOM      3  C   UNL     1     -28.145  29.392 -41.917  1.00  0.00     0.180 C 
ATOM      4  C   UNL     1     -27.104  28.344 -41.544  1.00  0.00     0.179 C 
ATOM      5  O   UNL     1     -27.217  28.076 -40.165  1.00  0.00    -0.337 OA
ENDROOT
BRANCH   1   6
ATOM      6  O   UNL     1     -28.554  29.196 -38.581  1.00  0.00    -0.349 OA
ATOM      7  C   UNL     1     -27.285  29.289 -37.965  1.00  0.00     0.198 C 
ENDBRANCH   1   6
BRANCH   1   8
ATOM      8  C   UNL     1     -29.267  27.085 -39.435  1.00  0.00     0.224 C 
BRANCH   8   9
ATOM      9  O   UNL     1     -29.810  26.533 -40.604  1.00  0.00    -0.391 OA
ATOM     10  H   UNL     1     -29.723  27.230 -41.305  1.00  0.00     0.210 HD
ENDBRANCH   8   9
ENDBRANCH   1   8
BRANCH   2  11
ATOM     11  O   UNL     1     -29.877  30.313 -40.543  1.00  0.00    -0.385 OA
ATOM     12  H   UNL     1     -30.848  30.197 -40.716  1.00  0.00     0.211 HD
ENDBRANCH   2  11
BRANCH   3  13
ATOM     13  O   UNL     1     -28.572  29.217 -43.243  1.00  0.00    -0.387 OA
ATOM     14  H   UNL     1     -29.565  29.221 -43.221  1.00  0.00     0.211 HD
ENDBRANCH   3  13
BRANCH   4  15
ATOM     15  C   UNL     1     -25.673  28.799 -41.859  1.00  0.00     0.191 C 
BRANCH  15  16
ATOM     16  O   UNL     1     -24.803  27.699 -41.909  1.00  0.00    -0.394 OA
ATOM     17  H   UNL     1     -24.490  27.538 -40.981  1.00  0.00     0.210 HD
ENDBRANCH  15  16
ENDBRANCH   4  15
TORSDOF 7
ENDMDL
MODEL 8
REMARK VINA RESULT:    -4.059     13.158     14.556
REMARK INTER + INTRA:          -5.710
REMARK INTER:                  -5.243
REMARK INTRA:                  -0.468
REMARK UNBOUND:                -0.465
REMARK SMILES CO[C@]1(CO)O[C@H](CO)[C@@H](O)[C@@H]1O
REMARK SMILES IDX 3 1 12 2 10 3 7 4 6 5 2 6 1 7 4 8 5 9 13 11 11 13 8 15 9 16
REMARK H PARENT 5 10 13 12 11 14 9 17
REMARK Flexibility Score: inf
ROOT
ATOM      1  C   UNL     1     -27.649  29.541 -41.775  1.00  0.00     0.221 C 
ATOM      2  C   UNL     1     -28.028  28.110 -42.234  1.00  0.00     0.207 C 
ATOM      3  C   UNL     1     -28.461  27.434 -40.956  1.00  0.00     0.180 C 
ATOM      4  C   UNL     1     -28.863  28.610 -40.075  1.00  0.00     0.179 C 
ATOM      5  O   UNL     1     -28.077  29.723 -40.432  1.00  0.00    -0.337 OA
ENDROOT
BRANCH   1   6
ATOM      6  O   UNL     1     -26.250  29.783 -41.920  1.00  0.00    -0.349 OA
ATOM      7  C   UNL     1     -25.640  30.222 -40.722  1.00  0.00     0.198 C 
ENDBRANCH   1   6
BRANCH   1   8
ATOM      8  C   UNL     1     -28.381  30.576 -42.645  1.00  0.00     0.224 C 
BRANCH   8   9
ATOM      9  O   UNL     1     -29.483  29.979 -43.273  1.00  0.00    -0.391 OA
ATOM     10  H   UNL     1     -29.114  29.283 -43.876  1.00  0.00     0.210 HD
ENDBRANCH   8   9
ENDBRANCH   1   8
BRANCH   2  11
ATOM     11  O   UNL     1     -26.948  27.424 -42.812  1.00  0.00    -0.385 OA
ATOM     12  H   UNL     1     -27.306  26.968 -43.618  1.00  0.00     0.211 HD
ENDBRANCH   2  11
BRANCH   3  13
ATOM     13  O   UNL     1     -29.554  26.579 -41.172  1.00  0.00    -0.387 OA
ATOM     14  H   UNL     1     -29.273  25.680 -40.858  1.00  0.00     0.211 HD
ENDBRANCH   3  13
BRANCH   4  15
ATOM     15  C   UNL     1     -28.678  28.315 -38.581  1.00  0.00     0.191 C 
BRANCH  15  16
ATOM     16  O   UNL     1     -29.367  27.147 -38.217  1.00  0.00    -0.394 OA
ATOM     17  H   UNL     1     -29.813  26.810 -39.037  1.00  0.00     0.210 HD
ENDBRANCH  15  16
ENDBRANCH   4  15
TORSDOF 7
ENDMDL
MODEL 9
REMARK VINA RESULT:    -3.966      2.056      4.362
REMARK INTER + INTRA:          -5.590
REMARK INTER:                  -5.070
REMARK INTRA:                  -0.520
REMARK UNBOUND:                -0.465
REMARK SMILES CO[C@]1(CO)O[C@H](CO)[C@@H](O)[C@@H]1O
REMARK SMILES IDX 3 1 12 2 10 3 7 4 6 5 2 6 1 7 4 8 5 9 13 11 11 13 8 15 9 16
REMARK H PARENT 5 10 13 12 11 14 9 17
REMARK Flexibility Score: inf
ROOT
ATOM      1  C   UNL     1     -23.138  20.780 -30.317  1.00  0.00     0.221 C 
ATOM      2  C   UNL     1     -24.426  21.241 -29.590  1.00  0.00     0.207 C 
ATOM      3  C   UNL     1     -24.550  20.267 -28.443  1.00  0.00     0.180 C 
ATOM      4  C   UNL     1     -23.117  19.783 -28.259  1.00  0.00     0.179 C 
ATOM      5  O   UNL     1     -22.471  19.819 -29.511  1.00  0.00    -0.337 OA
ENDROOT
BRANCH   1   6
ATOM      6  O   UNL     1     -23.427  20.266 -31.617  1.00  0.00    -0.349 OA
ATOM      7  C   UNL     1     -22.677  19.110 -31.932  1.00  0.00     0.198 C 
ENDBRANCH   1   6
BRANCH   1   8
ATOM      8  C   UNL     1     -22.190  21.976 -30.503  1.00  0.00     0.224 C 
BRANCH   8   9
ATOM      9  O   UNL     1     -22.927  23.168 -30.537  1.00  0.00    -0.391 OA
ATOM     10  H   UNL     1     -23.881  22.905 -30.459  1.00  0.00     0.210 HD
ENDBRANCH   8   9
ENDBRANCH   1   8
BRANCH   2  11
ATOM     11  O   UNL     1     -25.563  21.180 -30.412  1.00  0.00    -0.385 OA
ATOM     12  H   UNL     1     -26.324  20.943 -29.820  1.00  0.00     0.211 HD
ENDBRANCH   2  11
BRANCH   3  13
ATOM     13  O   UNL     1     -25.014  20.900 -27.279  1.00  0.00    -0.387 OA
ATOM     14  H   UNL     1     -24.266  21.466 -26.951  1.00  0.00     0.211 HD
ENDBRANCH   3  13
BRANCH   4  15
ATOM     15  C   UNL     1     -23.046  18.360 -27.690  1.00  0.00     0.191 C 
BRANCH  15  16
ATOM     16  O   UNL     1     -24.271  17.997 -27.109  1.00  0.00    -0.394 OA
ATOM     17  H   UNL     1     -24.363  18.530 -26.276  1.00  0.00     0.210 HD
ENDBRANCH  15  16
ENDBRANCH   4  15
TORSDOF 7
ENDMDL
