MODEL 1
REMARK VINA RESULT:    -4.233      0.000      0.000
REMARK INTER + INTRA:          -5.648
REMARK INTER:                  -5.594
REMARK INTRA:                  -0.054
REMARK UNBOUND:                -0.054
REMARK SMILES CCCCCCCO
REMARK SMILES IDX 5 1 4 2 3 3 2 4 1 5 6 6 7 7 8 8
REMARK H PARENT 8 9
REMARK Flexibility Score: inf
ROOT
ATOM      1  C   UNL     1     -32.812  51.626 -52.110  1.00  0.00     0.002 C 
ENDROOT
BRANCH   1   2
ATOM      2  C   UNL     1     -34.254  51.126 -51.963  1.00  0.00     0.000 C 
BRANCH   2   3
ATOM      3  C   UNL     1     -34.400  49.698 -52.500  1.00  0.00    -0.000 C 
BRANCH   3   4
ATOM      4  C   UNL     1     -35.853  49.401 -52.889  1.00  0.00    -0.003 C 
ATOM      5  C   UNL     1     -36.334  48.092 -52.270  1.00  0.00     0.004 C 
ENDBRANCH   3   4
ENDBRANCH   2   3
ENDBRANCH   1   2
BRANCH   1   6
ATOM      6  C   UNL     1     -32.390  52.456 -50.890  1.00  0.00     0.028 C 
BRANCH   6   7
ATOM      7  C   UNL     1     -31.592  53.700 -51.292  1.00  0.00     0.156 C 
BRANCH   7   8
ATOM      8  O   UNL     1     -32.014  54.819 -50.557  1.00  0.00    -0.396 OA
ATOM      9  H   UNL     1     -31.225  55.413 -50.457  1.00  0.00     0.210 HD
ENDBRANCH   7   8
ENDBRANCH   6   7
ENDBRANCH   1   6
TORSDOF 6
ENDMDL
MODEL 2
REMARK VINA RESULT:    -4.065      1.898      2.047
REMARK INTER + INTRA:          -5.425
REMARK INTER:                  -5.313
REMARK INTRA:                  -0.112
REMARK UNBOUND:                -0.054
REMARK SMILES CCCCCCCO
REMARK SMILES IDX 5 1 4 2 3 3 2 4 1 5 6 6 7 7 8 8
REMARK H PARENT 8 9
REMARK Flexibility Score: inf
ROOT
ATOM      1  C   UNL     1     -33.486  51.454 -52.789  1.00  0.00     0.002 C 
ENDROOT
BRANCH   1   2
ATOM      2  C   UNL     1     -34.633  50.685 -52.124  1.00  0.00     0.000 C 
BRANCH   2   3
ATOM      3  C   UNL     1     -35.176  49.593 -53.054  1.00  0.00    -0.000 C 
BRANCH   3   4
ATOM      4  C   UNL     1     -36.572  49.138 -52.613  1.00  0.00    -0.003 C 
ATOM      5  C   UNL     1     -36.550  47.698 -52.109  1.00  0.00     0.004 C 
ENDBRANCH   3   4
ENDBRANCH   2   3
ENDBRANCH   1   2
BRANCH   1   6
ATOM      6  C   UNL     1     -32.475  51.945 -51.744  1.00  0.00     0.028 C 
BRANCH   6   7
ATOM      7  C   UNL     1     -32.637  51.218 -50.405  1.00  0.00     0.156 C 
BRANCH   7   8
ATOM      8  O   UNL     1     -31.662  50.219 -50.262  1.00  0.00    -0.396 OA
ATOM      9  H   UNL     1     -32.098  49.456 -49.799  1.00  0.00     0.210 HD
ENDBRANCH   7   8
ENDBRANCH   6   7
ENDBRANCH   1   6
TORSDOF 6
ENDMDL
MODEL 3
REMARK VINA RESULT:    -4.045     12.677     14.468
REMARK INTER + INTRA:          -5.399
REMARK INTER:                  -5.135
REMARK INTRA:                  -0.264
REMARK UNBOUND:                -0.054
REMARK SMILES CCCCCCCO
REMARK SMILES IDX 5 1 4 2 3 3 2 4 1 5 6 6 7 7 8 8
REMARK H PARENT 8 9
REMARK Flexibility Score: inf
ROOT
ATOM      1  C   UNL     1     -40.329  39.513 -50.714  1.00  0.00     0.002 C 
ENDROOT
BRANCH   1   2
ATOM      2  C   UNL     1     -41.270  38.581 -51.486  1.00  0.00     0.000 C 
BRANCH   2   3
ATOM      3  C   UNL     1     -41.712  37.399 -50.615  1.00  0.00    -0.000 C 
BRANCH   3   4
ATOM      4  C   UNL     1     -43.239  37.272 -50.592  1.00  0.00    -0.003 C 
ATOM      5  C   UNL     1     -43.902  38.468 -51.269  1.00  0.00     0.004 C 
ENDBRANCH   3   4
ENDBRANCH   2   3
ENDBRANCH   1   2
BRANCH   1   6
ATOM      6  C   UNL     1     -41.121  40.475 -49.818  1.00  0.00     0.028 C 
BRANCH   6   7
ATOM      7  C   UNL     1     -41.594  41.713 -50.585  1.00  0.00     0.156 C 
BRANCH   7   8
ATOM      8  O   UNL     1     -41.402  42.874 -49.820  1.00  0.00    -0.396 OA
ATOM      9  H   UNL     1     -42.302  43.254 -49.641  1.00  0.00     0.210 HD
ENDBRANCH   7   8
ENDBRANCH   6   7
ENDBRANCH   1   6
TORSDOF 6
ENDMDL
MODEL 4
REMARK VINA RESULT:    -4.026      3.509      5.567
REMARK INTER + INTRA:          -5.375
REMARK INTER:                  -5.262
REMARK INTRA:                  -0.112
REMARK UNBOUND:                -0.054
REMARK SMILES CCCCCCCO
REMARK SMILES IDX 5 1 4 2 3 3 2 4 1 5 6 6 7 7 8 8
REMARK H PARENT 8 9
REMARK Flexibility Score: inf
ROOT
ATOM      1  C   UNL     1     -35.446  48.886 -52.751  1.00  0.00     0.002 C 
ENDROOT
BRANCH   1   2
ATOM      2  C   UNL     1     -35.099  50.264 -52.176  1.00  0.00     0.000 C 
BRANCH   2   3
ATOM      3  C   UNL     1     -33.782  50.790 -52.759  1.00  0.00    -0.000 C 
BRANCH   3   4
ATOM      4  C   UNL     1     -33.124  51.800 -51.812  1.00  0.00    -0.003 C 
ATOM      5  C   UNL     1     -32.750  51.148 -50.485  1.00  0.00     0.004 C 
ENDBRANCH   3   4
ENDBRANCH   2   3
ENDBRANCH   1   2
BRANCH   1   6
ATOM      6  C   UNL     1     -36.714  48.321 -52.098  1.00  0.00     0.028 C 
BRANCH   6   7
ATOM      7  C   UNL     1     -37.985  48.955 -52.670  1.00  0.00     0.156 C 
BRANCH   7   8
ATOM      8  O   UNL     1     -39.066  48.782 -51.791  1.00  0.00    -0.396 OA
ATOM      9  H   UNL     1     -39.646  49.583 -51.885  1.00  0.00     0.210 HD
ENDBRANCH   7   8
ENDBRANCH   6   7
ENDBRANCH   1   6
TORSDOF 6
ENDMDL
MODEL 5
REMARK VINA RESULT:    -3.912      2.121      2.441
REMARK INTER + INTRA:          -5.223
REMARK INTER:                  -5.101
REMARK INTRA:                  -0.122
REMARK UNBOUND:                -0.054
REMARK SMILES CCCCCCCO
REMARK SMILES IDX 5 1 4 2 3 3 2 4 1 5 6 6 7 7 8 8
REMARK H PARENT 8 9
REMARK Flexibility Score: inf
ROOT
ATOM      1  C   UNL     1     -34.200  50.749 -52.658  1.00  0.00     0.002 C 
ENDROOT
BRANCH   1   2
ATOM      2  C   UNL     1     -35.552  50.079 -52.385  1.00  0.00     0.000 C 
BRANCH   2   3
ATOM      3  C   UNL     1     -35.445  48.554 -52.502  1.00  0.00    -0.000 C 
BRANCH   3   4
ATOM      4  C   UNL     1     -36.804  47.887 -52.264  1.00  0.00    -0.003 C 
ATOM      5  C   UNL     1     -37.948  48.874 -52.475  1.00  0.00     0.004 C 
ENDBRANCH   3   4
ENDBRANCH   2   3
ENDBRANCH   1   2
BRANCH   1   6
ATOM      6  C   UNL     1     -33.530  51.189 -51.349  1.00  0.00     0.028 C 
BRANCH   6   7
ATOM      7  C   UNL     1     -32.010  51.010 -51.395  1.00  0.00     0.156 C 
BRANCH   7   8
ATOM      8  O   UNL     1     -31.579  50.162 -50.363  1.00  0.00    -0.396 OA
ATOM      9  H   UNL     1     -31.790  50.619 -49.507  1.00  0.00     0.210 HD
ENDBRANCH   7   8
ENDBRANCH   6   7
ENDBRANCH   1   6
TORSDOF 6
ENDMDL
MODEL 6
REMARK VINA RESULT:    -3.895      3.638      5.628
REMARK INTER + INTRA:          -5.201
REMARK INTER:                  -5.095
REMARK INTRA:                  -0.106
REMARK UNBOUND:                -0.054
REMARK SMILES CCCCCCCO
REMARK SMILES IDX 5 1 4 2 3 3 2 4 1 5 6 6 7 7 8 8
REMARK H PARENT 8 9
REMARK Flexibility Score: inf
ROOT
ATOM      1  C   UNL     1     -35.386  49.667 -52.983  1.00  0.00     0.002 C 
ENDROOT
BRANCH   1   2
ATOM      2  C   UNL     1     -33.971  50.249 -52.883  1.00  0.00     0.000 C 
BRANCH   2   3
ATOM      3  C   UNL     1     -33.874  51.267 -51.740  1.00  0.00    -0.000 C 
BRANCH   3   4
ATOM      4  C   UNL     1     -32.468  51.275 -51.128  1.00  0.00    -0.003 C 
ATOM      5  C   UNL     1     -32.529  51.196 -49.606  1.00  0.00     0.004 C 
ENDBRANCH   3   4
ENDBRANCH   2   3
ENDBRANCH   1   2
BRANCH   1   6
ATOM      6  C   UNL     1     -35.432  48.237 -52.426  1.00  0.00     0.028 C 
BRANCH   6   7
ATOM      7  C   UNL     1     -36.864  47.786 -52.124  1.00  0.00     0.156 C 
BRANCH   7   8
ATOM      8  O   UNL     1     -36.884  46.451 -51.693  1.00  0.00    -0.396 OA
ATOM      9  H   UNL     1     -35.937  46.163 -51.602  1.00  0.00     0.210 HD
ENDBRANCH   7   8
ENDBRANCH   6   7
ENDBRANCH   1   6
TORSDOF 6
ENDMDL
MODEL 7
REMARK VINA RESULT:    -3.824     11.593     13.842
REMARK INTER + INTRA:          -5.107
REMARK INTER:                  -4.873
REMARK INTRA:                  -0.234
REMARK UNBOUND:                -0.054
REMARK SMILES CCCCCCCO
REMARK SMILES IDX 5 1 4 2 3 3 2 4 1 5 6 6 7 7 8 8
REMARK H PARENT 8 9
REMARK Flexibility Score: inf
ROOT
ATOM      1  C   UNL     1     -41.579  40.811 -49.881  1.00  0.00     0.002 C 
ENDROOT
BRANCH   1   2
ATOM      2  C   UNL     1     -40.956  39.412 -49.807  1.00  0.00     0.000 C 
BRANCH   2   3
ATOM      3  C   UNL     1     -41.021  38.708 -51.168  1.00  0.00    -0.000 C 
BRANCH   3   4
ATOM      4  C   UNL     1     -41.577  37.287 -51.028  1.00  0.00    -0.003 C 
ATOM      5  C   UNL     1     -42.713  37.237 -50.010  1.00  0.00     0.004 C 
ENDBRANCH   3   4
ENDBRANCH   2   3
ENDBRANCH   1   2
BRANCH   1   6
ATOM      6  C   UNL     1     -41.654  41.304 -51.332  1.00  0.00     0.028 C 
BRANCH   6   7
ATOM      7  C   UNL     1     -40.919  42.634 -51.524  1.00  0.00     0.156 C 
BRANCH   7   8
ATOM      8  O   UNL     1     -41.433  43.614 -50.661  1.00  0.00    -0.396 OA
ATOM      9  H   UNL     1     -42.420  43.606 -50.771  1.00  0.00     0.210 HD
ENDBRANCH   7   8
ENDBRANCH   6   7
ENDBRANCH   1   6
TORSDOF 6
ENDMDL
MODEL 8
REMARK VINA RESULT:    -3.805      1.736      2.284
REMARK INTER + INTRA:          -5.082
REMARK INTER:                  -4.840
REMARK INTRA:                  -0.242
REMARK UNBOUND:                -0.054
REMARK SMILES CCCCCCCO
REMARK SMILES IDX 5 1 4 2 3 3 2 4 1 5 6 6 7 7 8 8
REMARK H PARENT 8 9
REMARK Flexibility Score: inf
ROOT
ATOM      1  C   UNL     1     -32.682  51.955 -50.584  1.00  0.00     0.002 C 
ENDROOT
BRANCH   1   2
ATOM      2  C   UNL     1     -32.857  50.667 -51.397  1.00  0.00     0.000 C 
BRANCH   2   3
ATOM      3  C   UNL     1     -34.130  50.722 -52.250  1.00  0.00    -0.000 C 
BRANCH   3   4
ATOM      4  C   UNL     1     -33.790  50.793 -53.743  1.00  0.00    -0.003 C 
ATOM      5  C   UNL     1     -32.364  50.322 -54.007  1.00  0.00     0.004 C 
ENDBRANCH   3   4
ENDBRANCH   2   3
ENDBRANCH   1   2
BRANCH   1   6
ATOM      6  C   UNL     1     -31.955  53.028 -51.406  1.00  0.00     0.028 C 
BRANCH   6   7
ATOM      7  C   UNL     1     -31.447  54.176 -50.527  1.00  0.00     0.156 C 
BRANCH   7   8
ATOM      8  O   UNL     1     -31.408  53.789 -49.179  1.00  0.00    -0.396 OA
ATOM      9  H   UNL     1     -31.182  54.600 -48.652  1.00  0.00     0.210 HD
ENDBRANCH   7   8
ENDBRANCH   6   7
ENDBRANCH   1   6
TORSDOF 6
ENDMDL
MODEL 9
REMARK VINA RESULT:    -3.764     14.324     15.916
REMARK INTER + INTRA:          -5.028
REMARK INTER:                  -4.784
REMARK INTRA:                  -0.244
REMARK UNBOUND:                -0.054
REMARK SMILES CCCCCCCO
REMARK SMILES IDX 5 1 4 2 3 3 2 4 1 5 6 6 7 7 8 8
REMARK H PARENT 8 9
REMARK Flexibility Score: inf
ROOT
ATOM      1  C   UNL     1     -42.021  37.672 -50.205  1.00  0.00     0.002 C 
ENDROOT
BRANCH   1   2
ATOM      2  C   UNL     1     -41.084  38.356 -51.207  1.00  0.00     0.000 C 
BRANCH   2   3
ATOM      3  C   UNL     1     -40.509  39.653 -50.626  1.00  0.00    -0.000 C 
BRANCH   3   4
ATOM      4  C   UNL     1     -41.461  40.265 -49.593  1.00  0.00    -0.003 C 
ATOM      5  C   UNL     1     -40.754  40.503 -48.263  1.00  0.00     0.004 C 
ENDBRANCH   3   4
ENDBRANCH   2   3
ENDBRANCH   1   2
BRANCH   1   6
ATOM      6  C   UNL     1     -43.298  37.177 -50.897  1.00  0.00     0.028 C 
BRANCH   6   7
ATOM      7  C   UNL     1     -43.954  38.274 -51.742  1.00  0.00     0.156 C 
BRANCH   7   8
ATOM      8  O   UNL     1     -45.101  38.772 -51.104  1.00  0.00    -0.396 OA
ATOM      9  H   UNL     1     -45.225  38.239 -50.275  1.00  0.00     0.210 HD
ENDBRANCH   7   8
ENDBRANCH   6   7
ENDBRANCH   1   6
TORSDOF 6
ENDMDL
