MODEL 1
REMARK VINA RESULT:    -4.003      0.000      0.000
REMARK INTER + INTRA:          -6.670
REMARK INTER:                  -6.110
REMARK INTRA:                  -0.561
REMARK UNBOUND:                -0.561
REMARK SMILES CC(=O)CCC=C(C)CCC=C(C)CCC=C(C)C
REMARK SMILES IDX 10 1 11 2 12 3 13 4 14 5 15 6 16 7 18 8 17 9 19 10 9 11 7 12
REMARK SMILES IDX 6 13 8 14 5 15 4 16 2 17 3 18 1 19
REMARK H PARENT
REMARK Flexibility Score: inf
ROOT
ATOM      1  C   UNL     1      -3.703 -11.400  -8.383  1.00  0.00     0.032 C 
ENDROOT
BRANCH   1   2
ATOM      2  C   UNL     1      -3.096 -12.101  -7.193  1.00  0.00    -0.028 C 
ATOM      3  C   UNL     1      -2.381 -13.247  -7.263  1.00  0.00    -0.077 C 
ATOM      4  C   UNL     1      -2.164 -13.973  -8.571  1.00  0.00     0.039 C 
BRANCH   3   5
ATOM      5  C   UNL     1      -1.787 -13.819  -5.995  1.00  0.00     0.034 C 
BRANCH   5   6
ATOM      6  C   UNL     1      -1.150 -15.188  -6.257  1.00  0.00     0.032 C 
BRANCH   6   7
ATOM      7  C   UNL     1      -0.663 -15.809  -4.972  1.00  0.00    -0.028 C 
ATOM      8  C   UNL     1       0.917 -16.311  -3.158  1.00  0.00     0.039 C 
ATOM      9  C   UNL     1       0.558 -15.594  -4.434  1.00  0.00    -0.080 C 
ATOM     10  C   UNL     1       1.554 -14.644  -5.059  1.00  0.00     0.039 C 
ENDBRANCH   6   7
ENDBRANCH   5   6
ENDBRANCH   3   5
ENDBRANCH   1   2
BRANCH   1  11
ATOM     11  C   UNL     1      -5.225 -11.589  -8.405  1.00  0.00     0.034 C 
BRANCH  11  12
ATOM     12  C   UNL     1      -5.597 -13.007  -8.035  1.00  0.00    -0.077 C 
ATOM     13  C   UNL     1      -5.552 -13.378  -6.735  1.00  0.00    -0.028 C 
ATOM     14  C   UNL     1      -6.013 -13.968  -9.125  1.00  0.00     0.039 C 
BRANCH  13  15
ATOM     15  C   UNL     1      -5.851 -14.769  -6.229  1.00  0.00     0.035 C 
BRANCH  15  16
ATOM     16  C   UNL     1      -4.730 -15.757  -6.582  1.00  0.00     0.079 C 
BRANCH  16  17
ATOM     17  C   UNL     1      -4.336 -16.598  -5.395  1.00  0.00     0.130 C 
ATOM     18  O   UNL     1      -4.608 -16.216  -4.268  1.00  0.00    -0.300 OA
ATOM     19  C   UNL     1      -3.652 -17.919  -5.578  1.00  0.00     0.087 C 
ENDBRANCH  16  17
ENDBRANCH  15  16
ENDBRANCH  13  15
ENDBRANCH  11  12
ENDBRANCH   1  11
TORSDOF 9
ENDMDL
MODEL 2
REMARK VINA RESULT:    -3.292      1.609      5.600
REMARK INTER + INTRA:          -5.585
REMARK INTER:                  -4.395
REMARK INTRA:                  -1.190
REMARK UNBOUND:                -0.561
REMARK SMILES CC(=O)CCC=C(C)CCC=C(C)CCC=C(C)C
REMARK SMILES IDX 10 1 11 2 12 3 13 4 14 5 15 6 16 7 18 8 17 9 19 10 9 11 7 12
REMARK SMILES IDX 6 13 8 14 5 15 4 16 2 17 3 18 1 19
REMARK H PARENT
REMARK Flexibility Score: inf
ROOT
ATOM      1  C   UNL     1      -4.950 -15.897  -6.135  1.00  0.00     0.032 C 
ENDROOT
BRANCH   1   2
ATOM      2  C   UNL     1      -5.412 -14.733  -6.976  1.00  0.00    -0.028 C 
ATOM      3  C   UNL     1      -5.560 -14.772  -8.320  1.00  0.00    -0.077 C 
ATOM      4  C   UNL     1      -5.218 -16.005  -9.125  1.00  0.00     0.039 C 
BRANCH   3   5
ATOM      5  C   UNL     1      -6.077 -13.544  -9.037  1.00  0.00     0.034 C 
BRANCH   5   6
ATOM      6  C   UNL     1      -5.783 -12.274  -8.230  1.00  0.00     0.032 C 
BRANCH   6   7
ATOM      7  C   UNL     1      -4.667 -11.482  -8.865  1.00  0.00    -0.028 C 
ATOM      8  C   UNL     1      -2.395 -10.582  -9.124  1.00  0.00     0.039 C 
ATOM      9  C   UNL     1      -3.398 -11.446  -8.404  1.00  0.00    -0.080 C 
ATOM     10  C   UNL     1      -2.955 -12.262  -7.210  1.00  0.00     0.039 C 
ENDBRANCH   6   7
ENDBRANCH   5   6
ENDBRANCH   3   5
ENDBRANCH   1   2
BRANCH   1  11
ATOM     11  C   UNL     1      -3.495 -16.255  -6.457  1.00  0.00     0.034 C 
BRANCH  11  12
ATOM     12  C   UNL     1      -2.539 -15.402  -5.653  1.00  0.00    -0.077 C 
ATOM     13  C   UNL     1      -1.269 -15.251  -6.091  1.00  0.00    -0.028 C 
ATOM     14  C   UNL     1      -3.031 -14.740  -4.386  1.00  0.00     0.039 C 
BRANCH  13  15
ATOM     15  C   UNL     1      -0.199 -14.470  -5.365  1.00  0.00     0.035 C 
BRANCH  15  16
ATOM     16  C   UNL     1       1.012 -15.348  -5.019  1.00  0.00     0.079 C 
BRANCH  16  17
ATOM     17  C   UNL     1       0.697 -16.315  -3.908  1.00  0.00     0.130 C 
ATOM     18  O   UNL     1       0.185 -17.392  -4.171  1.00  0.00    -0.300 OA
ATOM     19  C   UNL     1       1.040 -15.994  -2.484  1.00  0.00     0.087 C 
ENDBRANCH  16  17
ENDBRANCH  15  16
ENDBRANCH  13  15
ENDBRANCH  11  12
ENDBRANCH   1  11
TORSDOF 9
ENDMDL
MODEL 3
REMARK VINA RESULT:    -2.946      1.512      4.391
REMARK INTER + INTRA:          -5.057
REMARK INTER:                  -4.156
REMARK INTRA:                  -0.901
REMARK UNBOUND:                -0.561
REMARK SMILES CC(=O)CCC=C(C)CCC=C(C)CCC=C(C)C
REMARK SMILES IDX 10 1 11 2 12 3 13 4 14 5 15 6 16 7 18 8 17 9 19 10 9 11 7 12
REMARK SMILES IDX 6 13 8 14 5 15 4 16 2 17 3 18 1 19
REMARK H PARENT
REMARK Flexibility Score: inf
ROOT
ATOM      1  C   UNL     1      -3.001 -12.261  -8.954  1.00  0.00     0.032 C 
ENDROOT
BRANCH   1   2
ATOM      2  C   UNL     1      -3.579 -13.655  -8.995  1.00  0.00    -0.028 C 
ATOM      3  C   UNL     1      -4.902 -13.936  -8.966  1.00  0.00    -0.077 C 
ATOM      4  C   UNL     1      -5.945 -12.850  -8.834  1.00  0.00     0.039 C 
BRANCH   3   5
ATOM      5  C   UNL     1      -5.347 -15.378  -9.061  1.00  0.00     0.034 C 
BRANCH   5   6
ATOM      6  C   UNL     1      -4.475 -16.281  -8.180  1.00  0.00     0.032 C 
BRANCH   6   7
ATOM      7  C   UNL     1      -4.600 -15.895  -6.727  1.00  0.00    -0.028 C 
ATOM      8  C   UNL     1      -4.478 -16.188  -4.291  1.00  0.00     0.039 C 
ATOM      9  C   UNL     1      -4.268 -16.698  -5.693  1.00  0.00    -0.080 C 
ATOM     10  C   UNL     1      -3.674 -18.072  -5.903  1.00  0.00     0.039 C 
ENDBRANCH   6   7
ENDBRANCH   5   6
ENDBRANCH   3   5
ENDBRANCH   1   2
BRANCH   1  11
ATOM     11  C   UNL     1      -2.760 -11.818  -7.506  1.00  0.00     0.034 C 
BRANCH  11  12
ATOM     12  C   UNL     1      -2.535 -13.013  -6.607  1.00  0.00    -0.077 C 
ATOM     13  C   UNL     1      -1.533 -13.872  -6.899  1.00  0.00    -0.028 C 
ATOM     14  C   UNL     1      -3.431 -13.210  -5.406  1.00  0.00     0.039 C 
BRANCH  13  15
ATOM     15  C   UNL     1      -1.226 -15.128  -6.118  1.00  0.00     0.035 C 
BRANCH  15  16
ATOM     16  C   UNL     1       0.091 -15.007  -5.338  1.00  0.00     0.079 C 
BRANCH  16  17
ATOM     17  C   UNL     1       0.281 -16.159  -4.386  1.00  0.00     0.130 C 
ATOM     18  O   UNL     1      -0.153 -17.262  -4.679  1.00  0.00    -0.300 OA
ATOM     19  C   UNL     1       1.033 -15.983  -3.101  1.00  0.00     0.087 C 
ENDBRANCH  16  17
ENDBRANCH  15  16
ENDBRANCH  13  15
ENDBRANCH  11  12
ENDBRANCH   1  11
TORSDOF 9
ENDMDL
MODEL 4
REMARK VINA RESULT:    -2.822      1.871      3.727
REMARK INTER + INTRA:          -4.868
REMARK INTER:                  -3.752
REMARK INTRA:                  -1.116
REMARK UNBOUND:                -0.561
REMARK SMILES CC(=O)CCC=C(C)CCC=C(C)CCC=C(C)C
REMARK SMILES IDX 10 1 11 2 12 3 13 4 14 5 15 6 16 7 18 8 17 9 19 10 9 11 7 12
REMARK SMILES IDX 6 13 8 14 5 15 4 16 2 17 3 18 1 19
REMARK H PARENT
REMARK Flexibility Score: inf
ROOT
ATOM      1  C   UNL     1      -3.739 -16.720  -6.130  1.00  0.00     0.032 C 
ENDROOT
BRANCH   1   2
ATOM      2  C   UNL     1      -2.542 -15.848  -6.421  1.00  0.00    -0.028 C 
ATOM      3  C   UNL     1      -2.226 -14.727  -5.734  1.00  0.00    -0.077 C 
ATOM      4  C   UNL     1      -3.097 -14.207  -4.613  1.00  0.00     0.039 C 
BRANCH   3   5
ATOM      5  C   UNL     1      -0.969 -13.971  -6.102  1.00  0.00     0.034 C 
BRANCH   5   6
ATOM      6  C   UNL     1       0.260 -14.885  -6.036  1.00  0.00     0.032 C 
BRANCH   6   7
ATOM      7  C   UNL     1       0.728 -15.053  -4.612  1.00  0.00    -0.028 C 
ATOM      8  C   UNL     1       1.075 -16.197  -2.465  1.00  0.00     0.039 C 
ATOM      9  C   UNL     1       0.586 -16.187  -3.890  1.00  0.00    -0.080 C 
ATOM     10  C   UNL     1      -0.021 -17.441  -4.478  1.00  0.00     0.039 C 
ENDBRANCH   6   7
ENDBRANCH   5   6
ENDBRANCH   3   5
ENDBRANCH   1   2
BRANCH   1  11
ATOM     11  C   UNL     1      -5.031 -15.896  -6.169  1.00  0.00     0.034 C 
BRANCH  11  12
ATOM     12  C   UNL     1      -5.135 -15.117  -7.462  1.00  0.00    -0.077 C 
ATOM     13  C   UNL     1      -5.512 -13.819  -7.415  1.00  0.00    -0.028 C 
ATOM     14  C   UNL     1      -4.810 -15.808  -8.766  1.00  0.00     0.039 C 
BRANCH  13  15
ATOM     15  C   UNL     1      -5.702 -12.937  -8.627  1.00  0.00     0.035 C 
BRANCH  15  16
ATOM     16  C   UNL     1      -4.979 -11.592  -8.472  1.00  0.00     0.079 C 
BRANCH  16  17
ATOM     17  C   UNL     1      -3.488 -11.772  -8.362  1.00  0.00     0.130 C 
ATOM     18  O   UNL     1      -2.845 -11.047  -7.618  1.00  0.00    -0.300 OA
ATOM     19  C   UNL     1      -2.782 -12.856  -9.121  1.00  0.00     0.087 C 
ENDBRANCH  16  17
ENDBRANCH  15  16
ENDBRANCH  13  15
ENDBRANCH  11  12
ENDBRANCH   1  11
TORSDOF 9
ENDMDL
MODEL 5
REMARK VINA RESULT:    -2.735      1.832      5.250
REMARK INTER + INTRA:          -4.734
REMARK INTER:                  -2.987
REMARK INTRA:                  -1.747
REMARK UNBOUND:                -0.561
REMARK SMILES CC(=O)CCC=C(C)CCC=C(C)CCC=C(C)C
REMARK SMILES IDX 10 1 11 2 12 3 13 4 14 5 15 6 16 7 18 8 17 9 19 10 9 11 7 12
REMARK SMILES IDX 6 13 8 14 5 15 4 16 2 17 3 18 1 19
REMARK H PARENT
REMARK Flexibility Score: inf
ROOT
ATOM      1  C   UNL     1      -5.727 -15.190  -5.910  1.00  0.00     0.032 C 
ENDROOT
BRANCH   1   2
ATOM      2  C   UNL     1      -5.765 -14.477  -7.240  1.00  0.00    -0.028 C 
ATOM      3  C   UNL     1      -5.991 -13.152  -7.391  1.00  0.00    -0.077 C 
ATOM      4  C   UNL     1      -6.282 -12.253  -6.212  1.00  0.00     0.039 C 
BRANCH   3   5
ATOM      5  C   UNL     1      -5.956 -12.557  -8.782  1.00  0.00     0.034 C 
BRANCH   5   6
ATOM      6  C   UNL     1      -4.656 -11.779  -9.013  1.00  0.00     0.032 C 
BRANCH   6   7
ATOM      7  C   UNL     1      -3.481 -12.719  -9.125  1.00  0.00    -0.028 C 
ATOM      8  C   UNL     1      -1.439 -13.884  -8.408  1.00  0.00     0.039 C 
ATOM      9  C   UNL     1      -2.583 -12.940  -8.140  1.00  0.00    -0.080 C 
ATOM     10  C   UNL     1      -2.707 -12.290  -6.780  1.00  0.00     0.039 C 
ENDBRANCH   6   7
ENDBRANCH   5   6
ENDBRANCH   3   5
ENDBRANCH   1   2
BRANCH   1  11
ATOM     11  C   UNL     1      -4.624 -16.255  -5.898  1.00  0.00     0.034 C 
BRANCH  11  12
ATOM     12  C   UNL     1      -3.338 -15.693  -5.334  1.00  0.00    -0.077 C 
ATOM     13  C   UNL     1      -2.168 -16.007  -5.934  1.00  0.00    -0.028 C 
ATOM     14  C   UNL     1      -3.397 -14.793  -4.121  1.00  0.00     0.039 C 
BRANCH  13  15
ATOM     15  C   UNL     1      -0.809 -15.557  -5.452  1.00  0.00     0.035 C 
BRANCH  15  16
ATOM     16  C   UNL     1      -0.149 -16.606  -4.547  1.00  0.00     0.079 C 
BRANCH  16  17
ATOM     17  C   UNL     1       0.886 -15.987  -3.643  1.00  0.00     0.130 C 
ATOM     18  O   UNL     1       1.675 -15.173  -4.096  1.00  0.00    -0.300 OA
ATOM     19  C   UNL     1       0.937 -16.326  -2.183  1.00  0.00     0.087 C 
ENDBRANCH  16  17
ENDBRANCH  15  16
ENDBRANCH  13  15
ENDBRANCH  11  12
ENDBRANCH   1  11
TORSDOF 9
ENDMDL
MODEL 6
REMARK VINA RESULT:    -2.511      1.748      5.349
REMARK INTER + INTRA:          -4.393
REMARK INTER:                  -4.428
REMARK INTRA:                   0.035
REMARK UNBOUND:                -0.561
REMARK SMILES CC(=O)CCC=C(C)CCC=C(C)CCC=C(C)C
REMARK SMILES IDX 10 1 11 2 12 3 13 4 14 5 15 6 16 7 18 8 17 9 19 10 9 11 7 12
REMARK SMILES IDX 6 13 8 14 5 15 4 16 2 17 3 18 1 19
REMARK H PARENT
REMARK Flexibility Score: inf
ROOT
ATOM      1  C   UNL     1      -3.953 -15.786  -8.454  1.00  0.00     0.032 C 
ENDROOT
BRANCH   1   2
ATOM      2  C   UNL     1      -3.723 -14.377  -8.941  1.00  0.00    -0.028 C 
ATOM      3  C   UNL     1      -2.720 -13.575  -8.517  1.00  0.00    -0.077 C 
ATOM      4  C   UNL     1      -1.744 -14.015  -7.450  1.00  0.00     0.039 C 
BRANCH   3   5
ATOM      5  C   UNL     1      -2.577 -12.197  -9.125  1.00  0.00     0.034 C 
BRANCH   5   6
ATOM      6  C   UNL     1      -3.871 -11.391  -8.967  1.00  0.00     0.032 C 
BRANCH   6   7
ATOM      7  C   UNL     1      -4.520 -11.673  -7.635  1.00  0.00    -0.028 C 
ATOM      8  C   UNL     1      -6.237 -12.504  -6.087  1.00  0.00     0.039 C 
ATOM      9  C   UNL     1      -5.694 -12.324  -7.480  1.00  0.00    -0.080 C 
ATOM     10  C   UNL     1      -6.457 -12.892  -8.656  1.00  0.00     0.039 C 
ENDBRANCH   6   7
ENDBRANCH   5   6
ENDBRANCH   3   5
ENDBRANCH   1   2
BRANCH   1  11
ATOM     11  C   UNL     1      -4.658 -15.780  -7.092  1.00  0.00     0.034 C 
BRANCH  11  12
ATOM     12  C   UNL     1      -3.769 -16.375  -6.022  1.00  0.00    -0.077 C 
ATOM     13  C   UNL     1      -2.890 -15.572  -5.381  1.00  0.00    -0.028 C 
ATOM     14  C   UNL     1      -3.892 -17.846  -5.697  1.00  0.00     0.039 C 
BRANCH  13  15
ATOM     15  C   UNL     1      -1.913 -16.039  -4.328  1.00  0.00     0.035 C 
BRANCH  15  16
ATOM     16  C   UNL     1      -0.597 -16.528  -4.949  1.00  0.00     0.079 C 
BRANCH  16  17
ATOM     17  C   UNL     1       0.597 -15.867  -4.311  1.00  0.00     0.130 C 
ATOM     18  O   UNL     1       1.161 -14.951  -4.888  1.00  0.00    -0.300 OA
ATOM     19  C   UNL     1       1.082 -16.291  -2.956  1.00  0.00     0.087 C 
ENDBRANCH  16  17
ENDBRANCH  15  16
ENDBRANCH  13  15
ENDBRANCH  11  12
ENDBRANCH   1  11
TORSDOF 9
ENDMDL
MODEL 7
REMARK VINA RESULT:    -2.078      1.204      1.850
REMARK INTER + INTRA:          -3.731
REMARK INTER:                  -3.478
REMARK INTRA:                  -0.253
REMARK UNBOUND:                -0.561
REMARK SMILES CC(=O)CCC=C(C)CCC=C(C)CCC=C(C)C
REMARK SMILES IDX 10 1 11 2 12 3 13 4 14 5 15 6 16 7 18 8 17 9 19 10 9 11 7 12
REMARK SMILES IDX 6 13 8 14 5 15 4 16 2 17 3 18 1 19
REMARK H PARENT
REMARK Flexibility Score: inf
ROOT
ATOM      1  C   UNL     1      -3.719 -13.509  -9.125  1.00  0.00     0.032 C 
ENDROOT
BRANCH   1   2
ATOM      2  C   UNL     1      -2.789 -13.879  -7.996  1.00  0.00    -0.028 C 
ATOM      3  C   UNL     1      -2.488 -13.069  -6.956  1.00  0.00    -0.077 C 
ATOM      4  C   UNL     1      -3.033 -11.662  -6.857  1.00  0.00     0.039 C 
BRANCH   3   5
ATOM      5  C   UNL     1      -1.575 -13.584  -5.865  1.00  0.00     0.034 C 
BRANCH   5   6
ATOM      6  C   UNL     1      -1.013 -14.964  -6.226  1.00  0.00     0.032 C 
BRANCH   6   7
ATOM      7  C   UNL     1      -0.565 -15.701  -4.989  1.00  0.00    -0.028 C 
ATOM      8  C   UNL     1       0.976 -16.408  -3.211  1.00  0.00     0.039 C 
ATOM      9  C   UNL     1       0.659 -15.582  -4.430  1.00  0.00    -0.080 C 
ATOM     10  C   UNL     1       1.701 -14.631  -4.976  1.00  0.00     0.039 C 
ENDBRANCH   6   7
ENDBRANCH   5   6
ENDBRANCH   3   5
ENDBRANCH   1   2
BRANCH   1  11
ATOM     11  C   UNL     1      -5.106 -14.125  -8.908  1.00  0.00     0.034 C 
BRANCH  11  12
ATOM     12  C   UNL     1      -5.028 -15.319  -7.983  1.00  0.00    -0.077 C 
ATOM     13  C   UNL     1      -4.948 -15.110  -6.649  1.00  0.00    -0.028 C 
ATOM     14  C   UNL     1      -5.046 -16.710  -8.573  1.00  0.00     0.039 C 
BRANCH  13  15
ATOM     15  C   UNL     1      -4.817 -16.203  -5.616  1.00  0.00     0.035 C 
BRANCH  15  16
ATOM     16  C   UNL     1      -3.643 -17.143  -5.926  1.00  0.00     0.079 C 
BRANCH  16  17
ATOM     17  C   UNL     1      -3.908 -18.543  -5.436  1.00  0.00     0.130 C 
ATOM     18  O   UNL     1      -5.030 -18.851  -5.066  1.00  0.00    -0.300 OA
ATOM     19  C   UNL     1      -2.823 -19.579  -5.435  1.00  0.00     0.087 C 
ENDBRANCH  16  17
ENDBRANCH  15  16
ENDBRANCH  13  15
ENDBRANCH  11  12
ENDBRANCH   1  11
TORSDOF 9
ENDMDL
MODEL 8
REMARK VINA RESULT:    -2.051      1.559      4.840
REMARK INTER + INTRA:          -3.691
REMARK INTER:                  -3.069
REMARK INTRA:                  -0.623
REMARK UNBOUND:                -0.561
REMARK SMILES CC(=O)CCC=C(C)CCC=C(C)CCC=C(C)C
REMARK SMILES IDX 10 1 11 2 12 3 13 4 14 5 15 6 16 7 18 8 17 9 19 10 9 11 7 12
REMARK SMILES IDX 6 13 8 14 5 15 4 16 2 17 3 18 1 19
REMARK H PARENT
REMARK Flexibility Score: inf
ROOT
ATOM      1  C   UNL     1      -2.047 -12.641  -6.438  1.00  0.00     0.032 C 
ENDROOT
BRANCH   1   2
ATOM      2  C   UNL     1      -3.223 -12.309  -7.323  1.00  0.00    -0.028 C 
ATOM      3  C   UNL     1      -3.227 -11.326  -8.252  1.00  0.00    -0.077 C 
ATOM      4  C   UNL     1      -2.037 -10.416  -8.455  1.00  0.00     0.039 C 
BRANCH   3   5
ATOM      5  C   UNL     1      -4.460 -11.129  -9.106  1.00  0.00     0.034 C 
BRANCH   5   6
ATOM      6  C   UNL     1      -5.564 -12.115  -8.709  1.00  0.00     0.032 C 
BRANCH   6   7
ATOM      7  C   UNL     1      -5.204 -13.520  -9.125  1.00  0.00    -0.028 C 
ATOM      8  C   UNL     1      -4.907 -15.947  -8.876  1.00  0.00     0.039 C 
ATOM      9  C   UNL     1      -5.339 -14.608  -8.335  1.00  0.00    -0.080 C 
ATOM     10  C   UNL     1      -5.929 -14.523  -6.946  1.00  0.00     0.039 C 
ENDBRANCH   6   7
ENDBRANCH   5   6
ENDBRANCH   3   5
ENDBRANCH   1   2
BRANCH   1  11
ATOM     11  C   UNL     1      -1.441 -13.995  -6.827  1.00  0.00     0.034 C 
BRANCH  11  12
ATOM     12  C   UNL     1      -1.845 -15.070  -5.843  1.00  0.00    -0.077 C 
ATOM     13  C   UNL     1      -3.159 -15.339  -5.671  1.00  0.00    -0.028 C 
ATOM     14  C   UNL     1      -0.771 -15.815  -5.084  1.00  0.00     0.039 C 
BRANCH  13  15
ATOM     15  C   UNL     1      -3.705 -16.350  -4.691  1.00  0.00     0.035 C 
BRANCH  15  16
ATOM     16  C   UNL     1      -4.522 -17.443  -5.394  1.00  0.00     0.079 C 
BRANCH  16  17
ATOM     17  C   UNL     1      -3.767 -18.744  -5.461  1.00  0.00     0.130 C 
ATOM     18  O   UNL     1      -4.381 -19.794  -5.568  1.00  0.00    -0.300 OA
ATOM     19  C   UNL     1      -2.268 -18.769  -5.439  1.00  0.00     0.087 C 
ENDBRANCH  16  17
ENDBRANCH  15  16
ENDBRANCH  13  15
ENDBRANCH  11  12
ENDBRANCH   1  11
TORSDOF 9
ENDMDL
MODEL 9
REMARK VINA RESULT:    -1.265      2.060      5.583
REMARK INTER + INTRA:          -2.491
REMARK INTER:                  -1.452
REMARK INTRA:                  -1.039
REMARK UNBOUND:                -0.561
REMARK SMILES CC(=O)CCC=C(C)CCC=C(C)CCC=C(C)C
REMARK SMILES IDX 10 1 11 2 12 3 13 4 14 5 15 6 16 7 18 8 17 9 19 10 9 11 7 12
REMARK SMILES IDX 6 13 8 14 5 15 4 16 2 17 3 18 1 19
REMARK H PARENT
REMARK Flexibility Score: inf
ROOT
ATOM      1  C   UNL     1      -3.811 -14.013  -4.882  1.00  0.00     0.032 C 
ENDROOT
BRANCH   1   2
ATOM      2  C   UNL     1      -3.934 -12.933  -5.928  1.00  0.00    -0.028 C 
ATOM      3  C   UNL     1      -2.976 -12.634  -6.834  1.00  0.00    -0.077 C 
ATOM      4  C   UNL     1      -1.640 -13.342  -6.846  1.00  0.00     0.039 C 
BRANCH   3   5
ATOM      5  C   UNL     1      -3.248 -11.556  -7.861  1.00  0.00     0.034 C 
BRANCH   5   6
ATOM      6  C   UNL     1      -3.920 -12.143  -9.107  1.00  0.00     0.032 C 
BRANCH   6   7
ATOM      7  C   UNL     1      -3.902 -13.651  -9.067  1.00  0.00    -0.028 C 
ATOM      8  C   UNL     1      -4.834 -15.923  -8.976  1.00  0.00     0.039 C 
ATOM      9  C   UNL     1      -5.007 -14.428  -9.049  1.00  0.00    -0.080 C 
ATOM     10  C   UNL     1      -6.400 -13.844  -9.125  1.00  0.00     0.039 C 
ENDBRANCH   6   7
ENDBRANCH   5   6
ENDBRANCH   3   5
ENDBRANCH   1   2
BRANCH   1  11
ATOM     11  C   UNL     1      -4.170 -15.382  -5.470  1.00  0.00     0.034 C 
BRANCH  11  12
ATOM     12  C   UNL     1      -3.030 -16.361  -5.295  1.00  0.00    -0.077 C 
ATOM     13  C   UNL     1      -1.818 -15.893  -4.920  1.00  0.00    -0.028 C 
ATOM     14  C   UNL     1      -3.278 -17.831  -5.538  1.00  0.00     0.039 C 
BRANCH  13  15
ATOM     15  C   UNL     1      -0.584 -16.747  -4.754  1.00  0.00     0.035 C 
BRANCH  15  16
ATOM     16  C   UNL     1       0.635 -15.912  -4.335  1.00  0.00     0.079 C 
BRANCH  16  17
ATOM     17  C   UNL     1       1.246 -16.424  -3.057  1.00  0.00     0.130 C 
ATOM     18  O   UNL     1       2.436 -16.697  -3.023  1.00  0.00    -0.300 OA
ATOM     19  C   UNL     1       0.424 -16.566  -1.811  1.00  0.00     0.087 C 
ENDBRANCH  16  17
ENDBRANCH  15  16
ENDBRANCH  13  15
ENDBRANCH  11  12
ENDBRANCH   1  11
TORSDOF 9
ENDMDL
