MODEL 1
REMARK VINA RESULT:    -5.301      0.000      0.000
REMARK INTER + INTRA:          -6.012
REMARK INTER:                  -5.766
REMARK INTRA:                  -0.247
REMARK UNBOUND:                -0.247
REMARK SMILES CC(=O)[C@H]1CC[C@@H]2[C@H]3CC=C4C[C@H](O)CC[C@@]4(C)[C@H]3CC[C@]12C
REMARK SMILES IDX 4 1 5 2 6 3 7 4 22 5 21 6 20 7 19 8 8 9 9 10 10 11 11 12
REMARK SMILES IDX 17 13 16 14 15 15 13 16 12 17 18 18 23 19 2 20 1 21 3 22
REMARK SMILES IDX 14 23
REMARK H PARENT 14 24
REMARK Flexibility Score: inf
ROOT
ATOM      1  C   UNL     1      -8.497  36.902  57.196  1.00  0.00     0.062 C 
ATOM      2  C   UNL     1      -9.620  36.816  58.242  1.00  0.00     0.012 C 
ATOM      3  C   UNL     1     -10.760  36.042  57.599  1.00  0.00     0.005 C 
ATOM      4  C   UNL     1     -10.156  35.207  56.458  1.00  0.00    -0.001 C 
ATOM      5  C   UNL     1      -8.945  36.048  55.958  1.00  0.00    -0.020 C 
ATOM      6  C   UNL     1      -7.784  35.160  55.442  1.00  0.00     0.008 C 
ATOM      7  C   UNL     1      -7.331  34.040  56.403  1.00  0.00     0.005 C 
ATOM      8  C   UNL     1      -8.381  33.597  57.463  1.00  0.00     0.003 C 
ATOM      9  C   UNL     1      -9.815  33.744  56.902  1.00  0.00     0.000 C 
ATOM     10  C   UNL     1     -10.057  32.728  55.765  1.00  0.00     0.031 C 
ATOM     11  C   UNL     1      -9.516  31.351  56.060  1.00  0.00    -0.027 C 
ATOM     12  C   UNL     1      -8.571  31.088  56.991  1.00  0.00    -0.065 C 
ATOM     13  C   UNL     1      -8.143  32.138  58.022  1.00  0.00    -0.008 C 
ATOM     14  C   UNL     1      -6.637  31.932  58.409  1.00  0.00     0.014 C 
ATOM     15  C   UNL     1      -6.259  30.470  58.694  1.00  0.00     0.033 C 
ATOM     16  C   UNL     1      -6.627  29.574  57.502  1.00  0.00     0.118 C 
ATOM     17  C   UNL     1      -8.128  29.651  57.189  1.00  0.00     0.063 C 
ATOM     18  C   UNL     1      -8.998  31.931  59.304  1.00  0.00     0.016 C 
ATOM     19  C   UNL     1      -9.421  36.929  54.771  1.00  0.00     0.012 C 
ENDROOT
BRANCH   1  20
ATOM     20  C   UNL     1      -8.044  38.325  56.892  1.00  0.00     0.133 C 
ATOM     21  C   UNL     1      -6.666  38.663  56.390  1.00  0.00     0.088 C 
ATOM     22  O   UNL     1      -8.824  39.244  57.095  1.00  0.00    -0.300 OA
ENDBRANCH   1  20
BRANCH  16  23
ATOM     23  O   UNL     1      -6.238  28.245  57.743  1.00  0.00    -0.393 OA
ATOM     24  H   UNL     1      -5.713  27.937  56.958  1.00  0.00     0.210 HD
ENDBRANCH  16  23
TORSDOF 2
ENDMDL
MODEL 2
REMARK VINA RESULT:    -5.226     11.975     13.807
REMARK INTER + INTRA:          -5.931
REMARK INTER:                  -5.723
REMARK INTRA:                  -0.208
REMARK UNBOUND:                -0.247
REMARK SMILES CC(=O)[C@H]1CC[C@@H]2[C@H]3CC=C4C[C@H](O)CC[C@@]4(C)[C@H]3CC[C@]12C
REMARK SMILES IDX 4 1 5 2 6 3 7 4 22 5 21 6 20 7 19 8 8 9 9 10 10 11 11 12
REMARK SMILES IDX 17 13 16 14 15 15 13 16 12 17 18 18 23 19 2 20 1 21 3 22
REMARK SMILES IDX 14 23
REMARK H PARENT 14 24
REMARK Flexibility Score: inf
ROOT
ATOM      1  C   UNL     1      -6.415  37.990  46.227  1.00  0.00     0.062 C 
ATOM      2  C   UNL     1      -7.732  37.814  45.453  1.00  0.00     0.012 C 
ATOM      3  C   UNL     1      -7.481  38.312  44.039  1.00  0.00     0.005 C 
ATOM      4  C   UNL     1      -5.964  38.249  43.797  1.00  0.00    -0.001 C 
ATOM      5  C   UNL     1      -5.335  38.486  45.202  1.00  0.00    -0.020 C 
ATOM      6  C   UNL     1      -3.998  37.723  45.385  1.00  0.00     0.008 C 
ATOM      7  C   UNL     1      -4.042  36.220  45.037  1.00  0.00     0.005 C 
ATOM      8  C   UNL     1      -5.184  35.785  44.074  1.00  0.00     0.003 C 
ATOM      9  C   UNL     1      -5.525  36.925  43.085  1.00  0.00     0.000 C 
ATOM     10  C   UNL     1      -4.353  37.160  42.108  1.00  0.00     0.031 C 
ATOM     11  C   UNL     1      -3.737  35.886  41.584  1.00  0.00    -0.027 C 
ATOM     12  C   UNL     1      -3.873  34.676  42.176  1.00  0.00    -0.065 C 
ATOM     13  C   UNL     1      -4.886  34.440  43.301  1.00  0.00    -0.008 C 
ATOM     14  C   UNL     1      -4.353  33.342  44.286  1.00  0.00     0.014 C 
ATOM     15  C   UNL     1      -3.775  32.101  43.586  1.00  0.00     0.033 C 
ATOM     16  C   UNL     1      -2.673  32.504  42.594  1.00  0.00     0.118 C 
ATOM     17  C   UNL     1      -3.206  33.476  41.532  1.00  0.00     0.063 C 
ATOM     18  C   UNL     1      -6.201  33.910  42.662  1.00  0.00     0.016 C 
ATOM     19  C   UNL     1      -5.030  40.002  45.348  1.00  0.00     0.012 C 
ENDROOT
BRANCH   1  20
ATOM     20  C   UNL     1      -6.552  38.818  47.499  1.00  0.00     0.133 C 
ATOM     21  C   UNL     1      -5.727  38.575  48.734  1.00  0.00     0.088 C 
ATOM     22  O   UNL     1      -7.395  39.703  47.535  1.00  0.00    -0.300 OA
ENDBRANCH   1  20
BRANCH  16  23
ATOM     23  O   UNL     1      -2.112  31.367  41.989  1.00  0.00    -0.393 OA
ATOM     24  H   UNL     1      -2.714  31.091  41.249  1.00  0.00     0.210 HD
ENDBRANCH  16  23
TORSDOF 2
ENDMDL
MODEL 3
REMARK VINA RESULT:    -5.090     14.685     17.094
REMARK INTER + INTRA:          -5.782
REMARK INTER:                  -5.591
REMARK INTRA:                  -0.191
REMARK UNBOUND:                -0.247
REMARK SMILES CC(=O)[C@H]1CC[C@@H]2[C@H]3CC=C4C[C@H](O)CC[C@@]4(C)[C@H]3CC[C@]12C
REMARK SMILES IDX 4 1 5 2 6 3 7 4 22 5 21 6 20 7 19 8 8 9 9 10 10 11 11 12
REMARK SMILES IDX 17 13 16 14 15 15 13 16 12 17 18 18 23 19 2 20 1 21 3 22
REMARK SMILES IDX 14 23
REMARK H PARENT 14 24
REMARK Flexibility Score: inf
ROOT
ATOM      1  C   UNL     1      -0.791  29.958  42.117  1.00  0.00     0.062 C 
ATOM      2  C   UNL     1      -2.138  29.283  42.421  1.00  0.00     0.012 C 
ATOM      3  C   UNL     1      -2.510  29.666  43.845  1.00  0.00     0.005 C 
ATOM      4  C   UNL     1      -1.744  30.956  44.183  1.00  0.00    -0.001 C 
ATOM      5  C   UNL     1      -0.432  30.860  43.350  1.00  0.00    -0.020 C 
ATOM      6  C   UNL     1       0.080  32.251  42.896  1.00  0.00     0.008 C 
ATOM      7  C   UNL     1      -0.965  33.143  42.194  1.00  0.00     0.005 C 
ATOM      8  C   UNL     1      -2.453  32.804  42.500  1.00  0.00     0.003 C 
ATOM      9  C   UNL     1      -2.600  32.244  43.934  1.00  0.00     0.000 C 
ATOM     10  C   UNL     1      -2.300  33.343  44.977  1.00  0.00     0.031 C 
ATOM     11  C   UNL     1      -2.912  34.680  44.639  1.00  0.00    -0.027 C 
ATOM     12  C   UNL     1      -3.323  35.038  43.401  1.00  0.00    -0.065 C 
ATOM     13  C   UNL     1      -3.441  34.015  42.266  1.00  0.00    -0.008 C 
ATOM     14  C   UNL     1      -3.156  34.704  40.886  1.00  0.00     0.014 C 
ATOM     15  C   UNL     1      -3.873  36.050  40.699  1.00  0.00     0.033 C 
ATOM     16  C   UNL     1      -3.533  37.009  41.850  1.00  0.00     0.118 C 
ATOM     17  C   UNL     1      -3.931  36.413  43.208  1.00  0.00     0.063 C 
ATOM     18  C   UNL     1      -4.904  33.489  42.243  1.00  0.00     0.016 C 
ATOM     19  C   UNL     1       0.668  30.228  44.247  1.00  0.00     0.012 C 
ENDROOT
BRANCH   1  20
ATOM     20  C   UNL     1       0.296  28.992  41.663  1.00  0.00     0.133 C 
ATOM     21  C   UNL     1       1.591  29.440  41.040  1.00  0.00     0.088 C 
ATOM     22  O   UNL     1       0.099  27.791  41.778  1.00  0.00    -0.300 OA
ENDBRANCH   1  20
BRANCH  16  23
ATOM     23  O   UNL     1      -4.150  38.256  41.656  1.00  0.00    -0.393 OA
ATOM     24  H   UNL     1      -5.084  38.185  41.984  1.00  0.00     0.210 HD
ENDBRANCH  16  23
TORSDOF 2
ENDMDL
MODEL 4
REMARK VINA RESULT:    -5.061     11.947     14.674
REMARK INTER + INTRA:          -5.752
REMARK INTER:                  -5.506
REMARK INTRA:                  -0.246
REMARK UNBOUND:                -0.247
REMARK SMILES CC(=O)[C@H]1CC[C@@H]2[C@H]3CC=C4C[C@H](O)CC[C@@]4(C)[C@H]3CC[C@]12C
REMARK SMILES IDX 4 1 5 2 6 3 7 4 22 5 21 6 20 7 19 8 8 9 9 10 10 11 11 12
REMARK SMILES IDX 17 13 16 14 15 15 13 16 12 17 18 18 23 19 2 20 1 21 3 22
REMARK SMILES IDX 14 23
REMARK H PARENT 14 24
REMARK Flexibility Score: inf
ROOT
ATOM      1  C   UNL     1      -2.755  34.356  42.898  1.00  0.00     0.062 C 
ATOM      2  C   UNL     1      -3.243  34.927  41.557  1.00  0.00     0.012 C 
ATOM      3  C   UNL     1      -4.699  34.515  41.407  1.00  0.00     0.005 C 
ATOM      4  C   UNL     1      -5.234  34.218  42.818  1.00  0.00    -0.001 C 
ATOM      5  C   UNL     1      -3.993  33.702  43.606  1.00  0.00    -0.020 C 
ATOM      6  C   UNL     1      -4.047  34.087  45.106  1.00  0.00     0.008 C 
ATOM      7  C   UNL     1      -4.316  35.578  45.397  1.00  0.00     0.005 C 
ATOM      8  C   UNL     1      -5.013  36.372  44.255  1.00  0.00     0.003 C 
ATOM      9  C   UNL     1      -5.963  35.451  43.453  1.00  0.00     0.000 C 
ATOM     10  C   UNL     1      -7.162  35.021  44.326  1.00  0.00     0.031 C 
ATOM     11  C   UNL     1      -7.743  36.143  45.150  1.00  0.00    -0.027 C 
ATOM     12  C   UNL     1      -7.086  37.288  45.446  1.00  0.00    -0.065 C 
ATOM     13  C   UNL     1      -5.773  37.666  44.752  1.00  0.00    -0.008 C 
ATOM     14  C   UNL     1      -4.868  38.500  45.724  1.00  0.00     0.014 C 
ATOM     15  C   UNL     1      -5.616  39.616  46.471  1.00  0.00     0.033 C 
ATOM     16  C   UNL     1      -6.823  39.043  47.231  1.00  0.00     0.118 C 
ATOM     17  C   UNL     1      -7.798  38.338  46.277  1.00  0.00     0.063 C 
ATOM     18  C   UNL     1      -6.116  38.564  43.530  1.00  0.00     0.016 C 
ATOM     19  C   UNL     1      -3.975  32.152  43.522  1.00  0.00     0.012 C 
ENDROOT
BRANCH   1  20
ATOM     20  C   UNL     1      -1.517  33.475  42.780  1.00  0.00     0.133 C 
ATOM     21  C   UNL     1      -0.577  33.216  43.927  1.00  0.00     0.088 C 
ATOM     22  O   UNL     1      -1.251  32.979  41.695  1.00  0.00    -0.300 OA
ENDBRANCH   1  20
BRANCH  16  23
ATOM     23  O   UNL     1      -7.479  40.055  47.952  1.00  0.00    -0.393 OA
ATOM     24  H   UNL     1      -6.785  40.595  48.414  1.00  0.00     0.210 HD
ENDBRANCH  16  23
TORSDOF 2
ENDMDL
MODEL 5
REMARK VINA RESULT:    -5.020     13.560     15.907
REMARK INTER + INTRA:          -5.707
REMARK INTER:                  -5.527
REMARK INTRA:                  -0.179
REMARK UNBOUND:                -0.247
REMARK SMILES CC(=O)[C@H]1CC[C@@H]2[C@H]3CC=C4C[C@H](O)CC[C@@]4(C)[C@H]3CC[C@]12C
REMARK SMILES IDX 4 1 5 2 6 3 7 4 22 5 21 6 20 7 19 8 8 9 9 10 10 11 11 12
REMARK SMILES IDX 17 13 16 14 15 15 13 16 12 17 18 18 23 19 2 20 1 21 3 22
REMARK SMILES IDX 14 23
REMARK H PARENT 14 24
REMARK Flexibility Score: inf
ROOT
ATOM      1  C   UNL     1      -7.370  34.202  43.318  1.00  0.00     0.062 C 
ATOM      2  C   UNL     1      -7.693  35.304  44.340  1.00  0.00     0.012 C 
ATOM      3  C   UNL     1      -6.614  35.241  45.410  1.00  0.00     0.005 C 
ATOM      4  C   UNL     1      -5.394  34.546  44.783  1.00  0.00    -0.001 C 
ATOM      5  C   UNL     1      -5.999  33.565  43.737  1.00  0.00    -0.020 C 
ATOM      6  C   UNL     1      -5.074  33.372  42.507  1.00  0.00     0.008 C 
ATOM      7  C   UNL     1      -4.584  34.673  41.838  1.00  0.00     0.005 C 
ATOM      8  C   UNL     1      -4.606  35.943  42.738  1.00  0.00     0.003 C 
ATOM      9  C   UNL     1      -4.349  35.566  44.217  1.00  0.00     0.000 C 
ATOM     10  C   UNL     1      -2.900  35.066  44.402  1.00  0.00     0.031 C 
ATOM     11  C   UNL     1      -1.877  35.889  43.660  1.00  0.00    -0.027 C 
ATOM     12  C   UNL     1      -2.166  36.708  42.623  1.00  0.00    -0.065 C 
ATOM     13  C   UNL     1      -3.610  37.074  42.265  1.00  0.00    -0.008 C 
ATOM     14  C   UNL     1      -3.740  37.316  40.721  1.00  0.00     0.014 C 
ATOM     15  C   UNL     1      -2.624  38.192  40.130  1.00  0.00     0.033 C 
ATOM     16  C   UNL     1      -1.244  37.605  40.460  1.00  0.00     0.118 C 
ATOM     17  C   UNL     1      -1.036  37.486  41.976  1.00  0.00     0.063 C 
ATOM     18  C   UNL     1      -3.962  38.406  42.989  1.00  0.00     0.016 C 
ATOM     19  C   UNL     1      -6.170  32.177  44.413  1.00  0.00     0.012 C 
ENDROOT
BRANCH   1  20
ATOM     20  C   UNL     1      -8.513  33.221  43.086  1.00  0.00     0.133 C 
ATOM     21  C   UNL     1      -8.817  32.611  41.743  1.00  0.00     0.088 C 
ATOM     22  O   UNL     1      -9.243  32.938  44.024  1.00  0.00    -0.300 OA
ENDBRANCH   1  20
BRANCH  16  23
ATOM     23  O   UNL     1      -0.224  38.379  39.879  1.00  0.00    -0.393 OA
ATOM     24  H   UNL     1      -0.657  39.077  39.321  1.00  0.00     0.210 HD
ENDBRANCH  16  23
TORSDOF 2
ENDMDL
MODEL 6
REMARK VINA RESULT:    -4.992     15.147     16.782
REMARK INTER + INTRA:          -5.676
REMARK INTER:                  -5.434
REMARK INTRA:                  -0.243
REMARK UNBOUND:                -0.247
REMARK SMILES CC(=O)[C@H]1CC[C@@H]2[C@H]3CC=C4C[C@H](O)CC[C@@]4(C)[C@H]3CC[C@]12C
REMARK SMILES IDX 4 1 5 2 6 3 7 4 22 5 21 6 20 7 19 8 8 9 9 10 10 11 11 12
REMARK SMILES IDX 17 13 16 14 15 15 13 16 12 17 18 18 23 19 2 20 1 21 3 22
REMARK SMILES IDX 14 23
REMARK H PARENT 14 24
REMARK Flexibility Score: inf
ROOT
ATOM      1  C   UNL     1       0.810  29.704  43.696  1.00  0.00     0.062 C 
ATOM      2  C   UNL     1       1.992  29.987  42.755  1.00  0.00     0.012 C 
ATOM      3  C   UNL     1       2.632  31.282  43.229  1.00  0.00     0.005 C 
ATOM      4  C   UNL     1       2.239  31.468  44.704  1.00  0.00    -0.001 C 
ATOM      5  C   UNL     1       0.840  30.794  44.824  1.00  0.00    -0.020 C 
ATOM      6  C   UNL     1       0.608  30.162  46.220  1.00  0.00     0.008 C 
ATOM      7  C   UNL     1       1.728  29.221  46.713  1.00  0.00     0.005 C 
ATOM      8  C   UNL     1       3.124  29.435  46.059  1.00  0.00     0.003 C 
ATOM      9  C   UNL     1       3.329  30.923  45.688  1.00  0.00     0.000 C 
ATOM     10  C   UNL     1       3.435  31.787  46.963  1.00  0.00     0.031 C 
ATOM     11  C   UNL     1       4.290  31.170  48.042  1.00  0.00    -0.027 C 
ATOM     12  C   UNL     1       4.602  29.855  48.107  1.00  0.00    -0.065 C 
ATOM     13  C   UNL     1       4.325  28.904  46.937  1.00  0.00    -0.008 C 
ATOM     14  C   UNL     1       4.024  27.462  47.474  1.00  0.00     0.014 C 
ATOM     15  C   UNL     1       5.002  26.980  48.557  1.00  0.00     0.033 C 
ATOM     16  C   UNL     1       5.052  27.979  49.723  1.00  0.00     0.118 C 
ATOM     17  C   UNL     1       5.481  29.374  49.245  1.00  0.00     0.063 C 
ATOM     18  C   UNL     1       5.609  28.830  46.063  1.00  0.00     0.016 C 
ATOM     19  C   UNL     1      -0.245  31.887  44.621  1.00  0.00     0.012 C 
ENDROOT
BRANCH   1  20
ATOM     20  C   UNL     1      -0.523  29.528  42.979  1.00  0.00     0.133 C 
ATOM     21  C   UNL     1      -1.698  28.807  43.585  1.00  0.00     0.088 C 
ATOM     22  O   UNL     1      -0.639  29.961  41.842  1.00  0.00    -0.300 OA
ENDBRANCH   1  20
BRANCH  16  23
ATOM     23  O   UNL     1       5.910  27.517  50.735  1.00  0.00    -0.393 OA
ATOM     24  H   UNL     1       5.592  27.895  51.596  1.00  0.00     0.210 HD
ENDBRANCH  16  23
TORSDOF 2
ENDMDL
MODEL 7
REMARK VINA RESULT:    -4.940     12.839     14.308
REMARK INTER + INTRA:          -5.620
REMARK INTER:                  -5.394
REMARK INTRA:                  -0.226
REMARK UNBOUND:                -0.247
REMARK SMILES CC(=O)[C@H]1CC[C@@H]2[C@H]3CC=C4C[C@H](O)CC[C@@]4(C)[C@H]3CC[C@]12C
REMARK SMILES IDX 4 1 5 2 6 3 7 4 22 5 21 6 20 7 19 8 8 9 9 10 10 11 11 12
REMARK SMILES IDX 17 13 16 14 15 15 13 16 12 17 18 18 23 19 2 20 1 21 3 22
REMARK SMILES IDX 14 23
REMARK H PARENT 14 24
REMARK Flexibility Score: inf
ROOT
ATOM      1  C   UNL     1      -6.562  32.567  43.974  1.00  0.00     0.062 C 
ATOM      2  C   UNL     1      -6.221  31.741  45.225  1.00  0.00     0.012 C 
ATOM      3  C   UNL     1      -7.400  31.876  46.175  1.00  0.00     0.005 C 
ATOM      4  C   UNL     1      -8.622  32.270  45.329  1.00  0.00    -0.001 C 
ATOM      5  C   UNL     1      -8.030  33.093  44.148  1.00  0.00    -0.020 C 
ATOM      6  C   UNL     1      -8.845  32.917  42.841  1.00  0.00     0.008 C 
ATOM      7  C   UNL     1      -9.120  31.457  42.425  1.00  0.00     0.005 C 
ATOM      8  C   UNL     1      -9.045  30.405  43.570  1.00  0.00     0.003 C 
ATOM      9  C   UNL     1      -9.487  31.032  44.914  1.00  0.00     0.000 C 
ATOM     10  C   UNL     1     -10.994  31.368  44.883  1.00  0.00     0.031 C 
ATOM     11  C   UNL     1     -11.842  30.289  44.257  1.00  0.00    -0.027 C 
ATOM     12  C   UNL     1     -11.363  29.325  43.438  1.00  0.00    -0.065 C 
ATOM     13  C   UNL     1      -9.859  29.083  43.272  1.00  0.00    -0.008 C 
ATOM     14  C   UNL     1      -9.551  28.558  41.827  1.00  0.00     0.014 C 
ATOM     15  C   UNL     1     -10.500  27.446  41.351  1.00  0.00     0.033 C 
ATOM     16  C   UNL     1     -11.963  27.905  41.448  1.00  0.00     0.118 C 
ATOM     17  C   UNL     1     -12.330  28.295  42.887  1.00  0.00     0.063 C 
ATOM     18  C   UNL     1      -9.435  27.979  44.282  1.00  0.00     0.016 C 
ATOM     19  C   UNL     1      -8.080  34.598  44.530  1.00  0.00     0.012 C 
ENDROOT
BRANCH   1  20
ATOM     20  C   UNL     1      -5.517  33.621  43.626  1.00  0.00     0.133 C 
ATOM     21  C   UNL     1      -5.230  34.064  42.216  1.00  0.00     0.088 C 
ATOM     22  O   UNL     1      -4.852  34.109  44.529  1.00  0.00    -0.300 OA
ENDBRANCH   1  20
BRANCH  16  23
ATOM     23  O   UNL     1     -12.828  26.907  40.969  1.00  0.00    -0.393 OA
ATOM     24  H   UNL     1     -13.312  26.527  41.749  1.00  0.00     0.210 HD
ENDBRANCH  16  23
TORSDOF 2
ENDMDL
MODEL 8
REMARK VINA RESULT:    -4.929     13.276     15.152
REMARK INTER + INTRA:          -5.608
REMARK INTER:                  -5.362
REMARK INTRA:                  -0.246
REMARK UNBOUND:                -0.247
REMARK SMILES CC(=O)[C@H]1CC[C@@H]2[C@H]3CC=C4C[C@H](O)CC[C@@]4(C)[C@H]3CC[C@]12C
REMARK SMILES IDX 4 1 5 2 6 3 7 4 22 5 21 6 20 7 19 8 8 9 9 10 10 11 11 12
REMARK SMILES IDX 17 13 16 14 15 15 13 16 12 17 18 18 23 19 2 20 1 21 3 22
REMARK SMILES IDX 14 23
REMARK H PARENT 14 24
REMARK Flexibility Score: inf
ROOT
ATOM      1  C   UNL     1      -1.974  36.452  41.775  1.00  0.00     0.062 C 
ATOM      2  C   UNL     1      -2.899  37.361  40.949  1.00  0.00     0.012 C 
ATOM      3  C   UNL     1      -3.887  36.451  40.236  1.00  0.00     0.005 C 
ATOM      4  C   UNL     1      -3.942  35.133  41.026  1.00  0.00    -0.001 C 
ATOM      5  C   UNL     1      -2.518  34.986  41.639  1.00  0.00    -0.020 C 
ATOM      6  C   UNL     1      -2.540  34.268  43.013  1.00  0.00     0.008 C 
ATOM      7  C   UNL     1      -3.538  34.840  44.042  1.00  0.00     0.005 C 
ATOM      8  C   UNL     1      -4.726  35.652  43.449  1.00  0.00     0.003 C 
ATOM      9  C   UNL     1      -5.120  35.101  42.058  1.00  0.00     0.000 C 
ATOM     10  C   UNL     1      -5.730  33.689  42.190  1.00  0.00     0.031 C 
ATOM     11  C   UNL     1      -6.696  33.552  43.340  1.00  0.00    -0.027 C 
ATOM     12  C   UNL     1      -6.743  34.394  44.398  1.00  0.00    -0.065 C 
ATOM     13  C   UNL     1      -5.984  35.725  44.402  1.00  0.00    -0.008 C 
ATOM     14  C   UNL     1      -5.551  36.097  45.862  1.00  0.00     0.014 C 
ATOM     15  C   UNL     1      -6.663  35.917  46.908  1.00  0.00     0.033 C 
ATOM     16  C   UNL     1      -7.217  34.485  46.868  1.00  0.00     0.118 C 
ATOM     17  C   UNL     1      -7.776  34.142  45.479  1.00  0.00     0.063 C 
ATOM     18  C   UNL     1      -6.951  36.833  43.894  1.00  0.00     0.016 C 
ATOM     19  C   UNL     1      -1.660  34.122  40.675  1.00  0.00     0.012 C 
ENDROOT
BRANCH   1  20
ATOM     20  C   UNL     1      -0.492  36.639  41.474  1.00  0.00     0.133 C 
ATOM     21  C   UNL     1       0.600  36.268  42.441  1.00  0.00     0.088 C 
ATOM     22  O   UNL     1      -0.170  37.148  40.410  1.00  0.00    -0.300 OA
ENDBRANCH   1  20
BRANCH  16  23
ATOM     23  O   UNL     1      -8.201  34.306  47.856  1.00  0.00    -0.393 OA
ATOM     24  H   UNL     1      -8.862  33.651  47.509  1.00  0.00     0.210 HD
ENDBRANCH  16  23
TORSDOF 2
ENDMDL
MODEL 9
REMARK VINA RESULT:    -4.920      4.973      9.205
REMARK INTER + INTRA:          -5.598
REMARK INTER:                  -5.353
REMARK INTRA:                  -0.246
REMARK UNBOUND:                -0.247
REMARK SMILES CC(=O)[C@H]1CC[C@@H]2[C@H]3CC=C4C[C@H](O)CC[C@@]4(C)[C@H]3CC[C@]12C
REMARK SMILES IDX 4 1 5 2 6 3 7 4 22 5 21 6 20 7 19 8 8 9 9 10 10 11 11 12
REMARK SMILES IDX 17 13 16 14 15 15 13 16 12 17 18 18 23 19 2 20 1 21 3 22
REMARK SMILES IDX 14 23
REMARK H PARENT 14 24
REMARK Flexibility Score: inf
ROOT
ATOM      1  C   UNL     1      -8.720  25.714  52.064  1.00  0.00     0.062 C 
ATOM      2  C   UNL     1     -10.131  25.469  52.622  1.00  0.00     0.012 C 
ATOM      3  C   UNL     1      -9.958  24.862  54.005  1.00  0.00     0.005 C 
ATOM      4  C   UNL     1      -8.554  25.251  54.499  1.00  0.00    -0.001 C 
ATOM      5  C   UNL     1      -7.700  25.357  53.202  1.00  0.00    -0.020 C 
ATOM      6  C   UNL     1      -6.589  26.433  53.314  1.00  0.00     0.008 C 
ATOM      7  C   UNL     1      -7.061  27.823  53.790  1.00  0.00     0.005 C 
ATOM      8  C   UNL     1      -8.397  27.843  54.588  1.00  0.00     0.003 C 
ATOM      9  C   UNL     1      -8.569  26.535  55.396  1.00  0.00     0.000 C 
ATOM     10  C   UNL     1      -7.520  26.458  56.526  1.00  0.00     0.031 C 
ATOM     11  C   UNL     1      -7.327  27.761  57.262  1.00  0.00    -0.027 C 
ATOM     12  C   UNL     1      -7.684  28.971  56.773  1.00  0.00    -0.065 C 
ATOM     13  C   UNL     1      -8.560  29.107  55.523  1.00  0.00    -0.008 C 
ATOM     14  C   UNL     1      -8.194  30.420  54.747  1.00  0.00     0.014 C 
ATOM     15  C   UNL     1      -8.053  31.658  55.647  1.00  0.00     0.033 C 
ATOM     16  C   UNL     1      -7.031  31.401  56.764  1.00  0.00     0.118 C 
ATOM     17  C   UNL     1      -7.439  30.199  57.628  1.00  0.00     0.063 C 
ATOM     18  C   UNL     1     -10.041  29.220  55.983  1.00  0.00     0.016 C 
ATOM     19  C   UNL     1      -7.002  23.990  52.965  1.00  0.00     0.012 C 
ENDROOT
BRANCH   1  20
ATOM     20  C   UNL     1      -8.466  25.053  50.715  1.00  0.00     0.133 C 
ATOM     21  C   UNL     1      -7.409  25.523  49.751  1.00  0.00     0.088 C 
ATOM     22  O   UNL     1      -9.175  24.116  50.378  1.00  0.00    -0.300 OA
ENDBRANCH   1  20
BRANCH  16  23
ATOM     23  O   UNL     1      -6.866  32.549  57.558  1.00  0.00    -0.393 OA
ATOM     24  H   UNL     1      -5.891  32.687  57.690  1.00  0.00     0.210 HD
ENDBRANCH  16  23
TORSDOF 2
ENDMDL
