MODEL 1
REMARK VINA RESULT:    -4.022      0.000      0.000
REMARK INTER + INTRA:          -7.206
REMARK INTER:                  -6.138
REMARK INTRA:                  -1.068
REMARK UNBOUND:                -1.068
REMARK SMILES CCCCCCCCCCC(=O)[O-]
REMARK SMILES IDX 7 1 8 2 9 3 10 4 11 5 12 6 13 7 6 8 5 9 4 10 3 11 2 12 1 13
REMARK H PARENT
REMARK Flexibility Score: inf
ROOT
ATOM      1  C   UNL     1      15.404   2.847   0.891  1.00  0.00     0.000 C 
ENDROOT
BRANCH   1   2
ATOM      2  C   UNL     1      14.470   3.366   1.999  1.00  0.00     0.000 C 
BRANCH   2   3
ATOM      3  C   UNL     1      13.757   4.669   1.606  1.00  0.00     0.006 C 
BRANCH   3   4
ATOM      4  C   UNL     1      12.231   4.569   1.734  1.00  0.00     0.053 C 
BRANCH   4   5
ATOM      5  C   UNL     1      11.705   3.485   0.848  1.00  0.00     0.041 C 
ATOM      6  O   UNL     1      11.007   2.555   1.330  1.00  0.00    -0.550 OA
ATOM      7  O   UNL     1      11.944   3.526  -0.520  1.00  0.00    -0.550 OA
ENDBRANCH   4   5
ENDBRANCH   3   4
ENDBRANCH   2   3
ENDBRANCH   1   2
BRANCH   1   8
ATOM      8  C   UNL     1      15.507   3.814  -0.299  1.00  0.00     0.000 C 
BRANCH   8   9
ATOM      9  C   UNL     1      15.480   3.086  -1.655  1.00  0.00    -0.000 C 
BRANCH   9  10
ATOM     10  C   UNL     1      16.267   1.766  -1.631  1.00  0.00    -0.000 C 
BRANCH  10  11
ATOM     11  C   UNL     1      15.463   0.586  -2.199  1.00  0.00    -0.000 C 
BRANCH  11  12
ATOM     12  C   UNL     1      13.968   0.918  -2.255  1.00  0.00    -0.003 C 
ATOM     13  C   UNL     1      13.210   0.251  -1.110  1.00  0.00     0.004 C 
ENDBRANCH  11  12
ENDBRANCH  10  11
ENDBRANCH   9  10
ENDBRANCH   8   9
ENDBRANCH   1   8
TORSDOF 9
ENDMDL
MODEL 2
REMARK VINA RESULT:    -4.016      0.874      3.859
REMARK INTER + INTRA:          -7.197
REMARK INTER:                  -6.015
REMARK INTRA:                  -1.181
REMARK UNBOUND:                -1.068
REMARK SMILES CCCCCCCCCCC(=O)[O-]
REMARK SMILES IDX 7 1 8 2 9 3 10 4 11 5 12 6 13 7 6 8 5 9 4 10 3 11 2 12 1 13
REMARK H PARENT
REMARK Flexibility Score: inf
ROOT
ATOM      1  C   UNL     1      15.711   1.483  -1.545  1.00  0.00     0.000 C 
ENDROOT
BRANCH   1   2
ATOM      2  C   UNL     1      14.724   0.568  -2.292  1.00  0.00     0.000 C 
BRANCH   2   3
ATOM      3  C   UNL     1      13.368   1.245  -2.543  1.00  0.00     0.006 C 
BRANCH   3   4
ATOM      4  C   UNL     1      12.287   0.781  -1.558  1.00  0.00     0.053 C 
BRANCH   4   5
ATOM      5  C   UNL     1      11.896   1.902  -0.647  1.00  0.00     0.041 C 
ATOM      6  O   UNL     1      11.629   1.673   0.561  1.00  0.00    -0.550 OA
ATOM      7  O   UNL     1      11.872   3.208  -1.122  1.00  0.00    -0.550 OA
ENDBRANCH   4   5
ENDBRANCH   3   4
ENDBRANCH   2   3
ENDBRANCH   1   2
BRANCH   1   8
ATOM      8  C   UNL     1      15.366   2.974  -1.692  1.00  0.00     0.000 C 
BRANCH   8   9
ATOM      9  C   UNL     1      15.472   3.739  -0.361  1.00  0.00    -0.000 C 
BRANCH   9  10
ATOM     10  C   UNL     1      15.369   2.811   0.861  1.00  0.00    -0.000 C 
BRANCH  10  11
ATOM     11  C   UNL     1      14.412   3.349   1.936  1.00  0.00    -0.000 C 
BRANCH  11  12
ATOM     12  C   UNL     1      13.803   4.689   1.506  1.00  0.00    -0.003 C 
ATOM     13  C   UNL     1      12.355   4.812   1.973  1.00  0.00     0.004 C 
ENDBRANCH  11  12
ENDBRANCH  10  11
ENDBRANCH   9  10
ENDBRANCH   8   9
ENDBRANCH   1   8
TORSDOF 9
ENDMDL
MODEL 3
REMARK VINA RESULT:    -3.947     14.029     15.398
REMARK INTER + INTRA:          -7.092
REMARK INTER:                  -6.164
REMARK INTRA:                  -0.927
REMARK UNBOUND:                -1.068
REMARK SMILES CCCCCCCCCCC(=O)[O-]
REMARK SMILES IDX 7 1 8 2 9 3 10 4 11 5 12 6 13 7 6 8 5 9 4 10 3 11 2 12 1 13
REMARK H PARENT
REMARK Flexibility Score: inf
ROOT
ATOM      1  C   UNL     1      14.334  16.347  -0.470  1.00  0.00     0.000 C 
ENDROOT
BRANCH   1   2
ATOM      2  C   UNL     1      14.062  17.678  -1.193  1.00  0.00     0.000 C 
BRANCH   2   3
ATOM      3  C   UNL     1      14.957  17.872  -2.427  1.00  0.00     0.006 C 
BRANCH   3   4
ATOM      4  C   UNL     1      14.320  18.788  -3.480  1.00  0.00     0.053 C 
BRANCH   4   5
ATOM      5  C   UNL     1      13.358  18.018  -4.327  1.00  0.00     0.041 C 
ATOM      6  O   UNL     1      13.760  17.041  -5.012  1.00  0.00    -0.550 OA
ATOM      7  O   UNL     1      12.009  18.348  -4.325  1.00  0.00    -0.550 OA
ENDBRANCH   4   5
ENDBRANCH   3   4
ENDBRANCH   2   3
ENDBRANCH   1   2
BRANCH   1   8
ATOM      8  C   UNL     1      14.467  16.516   1.052  1.00  0.00     0.000 C 
BRANCH   8   9
ATOM      9  C   UNL     1      15.165  17.831   1.441  1.00  0.00    -0.000 C 
BRANCH   9  10
ATOM     10  C   UNL     1      16.613  17.615   1.910  1.00  0.00    -0.000 C 
BRANCH  10  11
ATOM     11  C   UNL     1      17.648  18.033   0.855  1.00  0.00    -0.000 C 
BRANCH  11  12
ATOM     12  C   UNL     1      18.512  16.840   0.433  1.00  0.00    -0.003 C 
ATOM     13  C   UNL     1      17.793  15.972  -0.596  1.00  0.00     0.004 C 
ENDBRANCH  11  12
ENDBRANCH  10  11
ENDBRANCH   9  10
ENDBRANCH   8   9
ENDBRANCH   1   8
TORSDOF 9
ENDMDL
MODEL 4
REMARK VINA RESULT:    -3.931      1.298      2.328
REMARK INTER + INTRA:          -7.067
REMARK INTER:                  -5.840
REMARK INTRA:                  -1.227
REMARK UNBOUND:                -1.068
REMARK SMILES CCCCCCCCCCC(=O)[O-]
REMARK SMILES IDX 7 1 8 2 9 3 10 4 11 5 12 6 13 7 6 8 5 9 4 10 3 11 2 12 1 13
REMARK H PARENT
REMARK Flexibility Score: inf
ROOT
ATOM      1  C   UNL     1      15.388   3.964  -0.619  1.00  0.00     0.000 C 
ENDROOT
BRANCH   1   2
ATOM      2  C   UNL     1      15.751   2.650   0.096  1.00  0.00     0.000 C 
BRANCH   2   3
ATOM      3  C   UNL     1      14.892   2.403   1.346  1.00  0.00     0.006 C 
BRANCH   3   4
ATOM      4  C   UNL     1      14.378   3.705   1.974  1.00  0.00     0.053 C 
BRANCH   4   5
ATOM      5  C   UNL     1      12.886   3.771   1.887  1.00  0.00     0.041 C 
ATOM      6  O   UNL     1      12.291   4.871   2.029  1.00  0.00    -0.550 OA
ATOM      7  O   UNL     1      12.154   2.625   1.603  1.00  0.00    -0.550 OA
ENDBRANCH   4   5
ENDBRANCH   3   4
ENDBRANCH   2   3
ENDBRANCH   1   2
BRANCH   1   8
ATOM      8  C   UNL     1      14.719   3.732  -1.984  1.00  0.00     0.000 C 
BRANCH   8   9
ATOM      9  C   UNL     1      13.284   3.190  -1.852  1.00  0.00    -0.000 C 
BRANCH   9  10
ATOM     10  C   UNL     1      13.121   1.794  -2.474  1.00  0.00    -0.000 C 
BRANCH  10  11
ATOM     11  C   UNL     1      12.982   0.687  -1.418  1.00  0.00    -0.000 C 
BRANCH  11  12
ATOM     12  C   UNL     1      14.118  -0.335  -1.543  1.00  0.00    -0.003 C 
ATOM     13  C   UNL     1      14.974  -0.060  -2.776  1.00  0.00     0.004 C 
ENDBRANCH  11  12
ENDBRANCH  10  11
ENDBRANCH   9  10
ENDBRANCH   8   9
ENDBRANCH   1   8
TORSDOF 9
ENDMDL
MODEL 5
REMARK VINA RESULT:    -3.911      1.486      2.238
REMARK INTER + INTRA:          -7.036
REMARK INTER:                  -6.125
REMARK INTRA:                  -0.911
REMARK UNBOUND:                -1.068
REMARK SMILES CCCCCCCCCCC(=O)[O-]
REMARK SMILES IDX 7 1 8 2 9 3 10 4 11 5 12 6 13 7 6 8 5 9 4 10 3 11 2 12 1 13
REMARK H PARENT
REMARK Flexibility Score: inf
ROOT
ATOM      1  C   UNL     1      14.171   3.365   1.965  1.00  0.00     0.000 C 
ENDROOT
BRANCH   1   2
ATOM      2  C   UNL     1      13.597   4.761   1.662  1.00  0.00     0.000 C 
BRANCH   2   3
ATOM      3  C   UNL     1      12.091   4.853   1.949  1.00  0.00     0.006 C 
BRANCH   3   4
ATOM      4  C   UNL     1      11.244   4.127   0.895  1.00  0.00     0.053 C 
BRANCH   4   5
ATOM      5  C   UNL     1       9.892   4.758   0.788  1.00  0.00     0.041 C 
ATOM      6  O   UNL     1       9.770   5.922   0.325  1.00  0.00    -0.550 OA
ATOM      7  O   UNL     1       8.759   4.042   1.156  1.00  0.00    -0.550 OA
ENDBRANCH   4   5
ENDBRANCH   3   4
ENDBRANCH   2   3
ENDBRANCH   1   2
BRANCH   1   8
ATOM      8  C   UNL     1      15.229   2.924   0.940  1.00  0.00     0.000 C 
BRANCH   8   9
ATOM      9  C   UNL     1      15.436   3.961  -0.178  1.00  0.00    -0.000 C 
BRANCH   9  10
ATOM     10  C   UNL     1      15.092   3.404  -1.569  1.00  0.00    -0.000 C 
BRANCH  10  11
ATOM     11  C   UNL     1      13.662   2.850  -1.650  1.00  0.00    -0.000 C 
BRANCH  11  12
ATOM     12  C   UNL     1      13.648   1.463  -2.303  1.00  0.00    -0.003 C 
ATOM     13  C   UNL     1      14.947   0.710  -2.026  1.00  0.00     0.004 C 
ENDBRANCH  11  12
ENDBRANCH  10  11
ENDBRANCH   9  10
ENDBRANCH   8   9
ENDBRANCH   1   8
TORSDOF 9
ENDMDL
MODEL 6
REMARK VINA RESULT:    -3.901     15.268     16.429
REMARK INTER + INTRA:          -7.021
REMARK INTER:                  -6.011
REMARK INTRA:                  -1.010
REMARK UNBOUND:                -1.068
REMARK SMILES CCCCCCCCCCC(=O)[O-]
REMARK SMILES IDX 7 1 8 2 9 3 10 4 11 5 12 6 13 7 6 8 5 9 4 10 3 11 2 12 1 13
REMARK H PARENT
REMARK Flexibility Score: inf
ROOT
ATOM      1  C   UNL     1      27.492   7.714   9.579  1.00  0.00     0.000 C 
ENDROOT
BRANCH   1   2
ATOM      2  C   UNL     1      26.257   8.592   9.306  1.00  0.00     0.000 C 
BRANCH   2   3
ATOM      3  C   UNL     1      26.569   9.774   8.375  1.00  0.00     0.006 C 
BRANCH   3   4
ATOM      4  C   UNL     1      25.883  11.072   8.820  1.00  0.00     0.053 C 
BRANCH   4   5
ATOM      5  C   UNL     1      26.486  11.569  10.095  1.00  0.00     0.041 C 
ATOM      6  O   UNL     1      27.736  11.633  10.222  1.00  0.00    -0.550 OA
ATOM      7  O   UNL     1      25.666  12.007  11.127  1.00  0.00    -0.550 OA
ENDBRANCH   4   5
ENDBRANCH   3   4
ENDBRANCH   2   3
ENDBRANCH   1   2
BRANCH   1   8
ATOM      8  C   UNL     1      27.380   6.318   8.944  1.00  0.00     0.000 C 
BRANCH   8   9
ATOM      9  C   UNL     1      27.731   6.322   7.445  1.00  0.00    -0.000 C 
BRANCH   9  10
ATOM     10  C   UNL     1      26.718   5.533   6.600  1.00  0.00    -0.000 C 
BRANCH  10  11
ATOM     11  C   UNL     1      25.834   6.440   5.732  1.00  0.00    -0.000 C 
BRANCH  11  12
ATOM     12  C   UNL     1      24.534   6.798   6.462  1.00  0.00    -0.003 C 
ATOM     13  C   UNL     1      23.982   8.138   5.982  1.00  0.00     0.004 C 
ENDBRANCH  11  12
ENDBRANCH  10  11
ENDBRANCH   9  10
ENDBRANCH   8   9
ENDBRANCH   1   8
TORSDOF 9
ENDMDL
MODEL 7
REMARK VINA RESULT:    -3.887     14.220     15.430
REMARK INTER + INTRA:          -7.000
REMARK INTER:                  -5.919
REMARK INTRA:                  -1.081
REMARK UNBOUND:                -1.068
REMARK SMILES CCCCCCCCCCC(=O)[O-]
REMARK SMILES IDX 7 1 8 2 9 3 10 4 11 5 12 6 13 7 6 8 5 9 4 10 3 11 2 12 1 13
REMARK H PARENT
REMARK Flexibility Score: inf
ROOT
ATOM      1  C   UNL     1      14.714  19.011  -1.475  1.00  0.00     0.000 C 
ENDROOT
BRANCH   1   2
ATOM      2  C   UNL     1      15.771  18.020  -1.997  1.00  0.00     0.000 C 
BRANCH   2   3
ATOM      3  C   UNL     1      15.835  16.732  -1.162  1.00  0.00     0.006 C 
BRANCH   3   4
ATOM      4  C   UNL     1      17.252  16.151  -1.082  1.00  0.00     0.053 C 
BRANCH   4   5
ATOM      5  C   UNL     1      17.902  16.539   0.208  1.00  0.00     0.041 C 
ATOM      6  O   UNL     1      19.044  16.097   0.500  1.00  0.00    -0.550 OA
ATOM      7  O   UNL     1      17.267  17.426   1.068  1.00  0.00    -0.550 OA
ENDBRANCH   4   5
ENDBRANCH   3   4
ENDBRANCH   2   3
ENDBRANCH   1   2
BRANCH   1   8
ATOM      8  C   UNL     1      13.897  18.442  -0.304  1.00  0.00     0.000 C 
BRANCH   8   9
ATOM      9  C   UNL     1      12.465  18.057  -0.717  1.00  0.00    -0.000 C 
BRANCH   9  10
ATOM     10  C   UNL     1      12.097  18.570  -2.118  1.00  0.00    -0.000 C 
BRANCH  10  11
ATOM     11  C   UNL     1      11.602  17.452  -3.049  1.00  0.00    -0.000 C 
BRANCH  11  12
ATOM     12  C   UNL     1      12.747  16.505  -3.424  1.00  0.00    -0.003 C 
ATOM     13  C   UNL     1      13.434  16.953  -4.711  1.00  0.00     0.004 C 
ENDBRANCH  11  12
ENDBRANCH  10  11
ENDBRANCH   9  10
ENDBRANCH   8   9
ENDBRANCH   1   8
TORSDOF 9
ENDMDL
MODEL 8
REMARK VINA RESULT:    -3.866      2.292      4.254
REMARK INTER + INTRA:          -6.968
REMARK INTER:                  -5.780
REMARK INTRA:                  -1.188
REMARK UNBOUND:                -1.068
REMARK SMILES CCCCCCCCCCC(=O)[O-]
REMARK SMILES IDX 7 1 8 2 9 3 10 4 11 5 12 6 13 7 6 8 5 9 4 10 3 11 2 12 1 13
REMARK H PARENT
REMARK Flexibility Score: inf
ROOT
ATOM      1  C   UNL     1      14.610   3.372   2.019  1.00  0.00     0.000 C 
ENDROOT
BRANCH   1   2
ATOM      2  C   UNL     1      15.401   2.654   0.911  1.00  0.00     0.000 C 
BRANCH   2   3
ATOM      3  C   UNL     1      15.717   3.575  -0.278  1.00  0.00     0.006 C 
BRANCH   3   4
ATOM      4  C   UNL     1      15.478   2.893  -1.631  1.00  0.00     0.053 C 
BRANCH   4   5
ATOM      5  C   UNL     1      16.236   1.605  -1.707  1.00  0.00     0.041 C 
ATOM      6  O   UNL     1      17.494   1.607  -1.660  1.00  0.00    -0.550 OA
ATOM      7  O   UNL     1      15.552   0.399  -1.781  1.00  0.00    -0.550 OA
ENDBRANCH   4   5
ENDBRANCH   3   4
ENDBRANCH   2   3
ENDBRANCH   1   2
BRANCH   1   8
ATOM      8  C   UNL     1      13.895   4.636   1.514  1.00  0.00     0.000 C 
BRANCH   8   9
ATOM      9  C   UNL     1      12.362   4.499   1.545  1.00  0.00    -0.000 C 
BRANCH   9  10
ATOM     10  C   UNL     1      11.893   3.058   1.287  1.00  0.00    -0.000 C 
BRANCH  10  11
ATOM     11  C   UNL     1      11.645   2.773  -0.202  1.00  0.00    -0.000 C 
BRANCH  11  12
ATOM     12  C   UNL     1      12.220   1.409  -0.602  1.00  0.00    -0.003 C 
ATOM     13  C   UNL     1      12.056   1.157  -2.098  1.00  0.00     0.004 C 
ENDBRANCH  11  12
ENDBRANCH  10  11
ENDBRANCH   9  10
ENDBRANCH   8   9
ENDBRANCH   1   8
TORSDOF 9
ENDMDL
MODEL 9
REMARK VINA RESULT:    -3.837     14.064     15.329
REMARK INTER + INTRA:          -6.924
REMARK INTER:                  -6.224
REMARK INTRA:                  -0.700
REMARK UNBOUND:                -1.068
REMARK SMILES CCCCCCCCCCC(=O)[O-]
REMARK SMILES IDX 7 1 8 2 9 3 10 4 11 5 12 6 13 7 6 8 5 9 4 10 3 11 2 12 1 13
REMARK H PARENT
REMARK Flexibility Score: inf
ROOT
ATOM      1  C   UNL     1      14.501  16.276  -0.238  1.00  0.00     0.000 C 
ENDROOT
BRANCH   1   2
ATOM      2  C   UNL     1      14.581  16.632   1.257  1.00  0.00     0.000 C 
BRANCH   2   3
ATOM      3  C   UNL     1      15.344  17.942   1.511  1.00  0.00     0.006 C 
BRANCH   3   4
ATOM      4  C   UNL     1      16.778  17.703   2.001  1.00  0.00     0.053 C 
BRANCH   4   5
ATOM      5  C   UNL     1      17.742  17.804   0.862  1.00  0.00     0.041 C 
ATOM      6  O   UNL     1      18.030  16.784   0.184  1.00  0.00    -0.550 OA
ATOM      7  O   UNL     1      18.287  19.035   0.519  1.00  0.00    -0.550 OA
ENDBRANCH   4   5
ENDBRANCH   3   4
ENDBRANCH   2   3
ENDBRANCH   1   2
BRANCH   1   8
ATOM      8  C   UNL     1      14.023  17.454  -1.104  1.00  0.00     0.000 C 
BRANCH   8   9
ATOM      9  C   UNL     1      14.895  17.657  -2.356  1.00  0.00    -0.000 C 
BRANCH   9  10
ATOM     10  C   UNL     1      14.376  18.787  -3.259  1.00  0.00    -0.000 C 
BRANCH  10  11
ATOM     11  C   UNL     1      13.229  18.335  -4.176  1.00  0.00    -0.000 C 
BRANCH  11  12
ATOM     12  C   UNL     1      13.566  17.004  -4.858  1.00  0.00    -0.003 C 
ATOM     13  C   UNL     1      12.472  15.967  -4.614  1.00  0.00     0.004 C 
ENDBRANCH  11  12
ENDBRANCH  10  11
ENDBRANCH   9  10
ENDBRANCH   8   9
ENDBRANCH   1   8
TORSDOF 9
ENDMDL
