MODEL 1
REMARK VINA RESULT:    -4.312      0.000      0.000
REMARK INTER + INTRA:          -9.276
REMARK INTER:                  -7.337
REMARK INTRA:                  -1.939
REMARK UNBOUND:                -1.939
REMARK SMILES CCCCCCCCCCCCCC(=O)[O-]
REMARK SMILES IDX 8 1 9 2 10 3 11 4 12 5 13 6 14 7 15 8 16 9 7 10 6 11 5 12
REMARK SMILES IDX 4 13 3 14 2 15 1 16
REMARK H PARENT
REMARK Flexibility Score: inf
ROOT
ATOM      1  C   UNL     1      -4.364  10.669  21.926  1.00  0.00     0.000 C 
ENDROOT
BRANCH   1   2
ATOM      2  C   UNL     1      -4.059  12.001  22.636  1.00  0.00     0.000 C 
BRANCH   2   3
ATOM      3  C   UNL     1      -2.887  11.889  23.623  1.00  0.00     0.000 C 
BRANCH   3   4
ATOM      4  C   UNL     1      -3.327  11.392  25.008  1.00  0.00     0.000 C 
BRANCH   4   5
ATOM      5  C   UNL     1      -2.417  11.950  26.108  1.00  0.00     0.006 C 
BRANCH   5   6
ATOM      6  C   UNL     1      -1.505  13.053  25.561  1.00  0.00     0.053 C 
BRANCH   6   7
ATOM      7  C   UNL     1      -0.173  13.015  26.240  1.00  0.00     0.041 C 
ATOM      8  O   UNL     1       0.724  13.840  25.919  1.00  0.00    -0.550 OA
ATOM      9  O   UNL     1       0.063  12.102  27.260  1.00  0.00    -0.550 OA
ENDBRANCH   6   7
ENDBRANCH   5   6
ENDBRANCH   4   5
ENDBRANCH   3   4
ENDBRANCH   2   3
ENDBRANCH   1   2
BRANCH   1  10
ATOM     10  C   UNL     1      -3.206  10.192  21.031  1.00  0.00     0.000 C 
BRANCH  10  11
ATOM     11  C   UNL     1      -2.699   8.771  21.335  1.00  0.00    -0.000 C 
BRANCH  11  12
ATOM     12  C   UNL     1      -3.230   8.217  22.669  1.00  0.00    -0.000 C 
BRANCH  12  13
ATOM     13  C   UNL     1      -2.134   8.166  23.756  1.00  0.00    -0.000 C 
BRANCH  13  14
ATOM     14  C   UNL     1      -0.843   8.901  23.362  1.00  0.00    -0.000 C 
BRANCH  14  15
ATOM     15  C   UNL     1      -0.068   9.438  24.572  1.00  0.00    -0.003 C 
ATOM     16  C   UNL     1      -0.636   8.887  25.877  1.00  0.00     0.004 C 
ENDBRANCH  14  15
ENDBRANCH  13  14
ENDBRANCH  12  13
ENDBRANCH  11  12
ENDBRANCH  10  11
ENDBRANCH   1  10
TORSDOF 12
ENDMDL
MODEL 2
REMARK VINA RESULT:    -4.304      1.457      3.160
REMARK INTER + INTRA:          -9.263
REMARK INTER:                  -7.577
REMARK INTRA:                  -1.686
REMARK UNBOUND:                -1.939
REMARK SMILES CCCCCCCCCCCCCC(=O)[O-]
REMARK SMILES IDX 8 1 9 2 10 3 11 4 12 5 13 6 14 7 15 8 16 9 7 10 6 11 5 12
REMARK SMILES IDX 4 13 3 14 2 15 1 16
REMARK H PARENT
REMARK Flexibility Score: inf
ROOT
ATOM      1  C   UNL     1      -4.538  10.756  25.435  1.00  0.00     0.000 C 
ENDROOT
BRANCH   1   2
ATOM      2  C   UNL     1      -3.960   9.402  25.885  1.00  0.00     0.000 C 
BRANCH   2   3
ATOM      3  C   UNL     1      -2.674   9.555  26.712  1.00  0.00     0.000 C 
BRANCH   3   4
ATOM      4  C   UNL     1      -1.479   8.822  26.085  1.00  0.00     0.000 C 
BRANCH   4   5
ATOM      5  C   UNL     1      -0.515   9.811  25.419  1.00  0.00     0.006 C 
BRANCH   5   6
ATOM      6  C   UNL     1      -0.746  11.236  25.932  1.00  0.00     0.053 C 
BRANCH   6   7
ATOM      7  C   UNL     1       0.558  11.926  26.169  1.00  0.00     0.041 C 
ATOM      8  O   UNL     1       0.586  13.050  26.736  1.00  0.00    -0.550 OA
ATOM      9  O   UNL     1       1.749  11.307  25.808  1.00  0.00    -0.550 OA
ENDBRANCH   6   7
ENDBRANCH   5   6
ENDBRANCH   4   5
ENDBRANCH   3   4
ENDBRANCH   2   3
ENDBRANCH   1   2
BRANCH   1  10
ATOM     10  C   UNL     1      -4.563  10.915  23.904  1.00  0.00     0.000 C 
BRANCH  10  11
ATOM     11  C   UNL     1      -3.279  11.505  23.295  1.00  0.00    -0.000 C 
BRANCH  11  12
ATOM     12  C   UNL     1      -3.224  11.369  21.764  1.00  0.00    -0.000 C 
BRANCH  12  13
ATOM     13  C   UNL     1      -3.767  10.008  21.279  1.00  0.00    -0.000 C 
BRANCH  13  14
ATOM     14  C   UNL     1      -2.690   9.102  20.660  1.00  0.00    -0.000 C 
BRANCH  14  15
ATOM     15  C   UNL     1      -1.814   8.411  21.711  1.00  0.00    -0.003 C 
ATOM     16  C   UNL     1      -2.660   7.854  22.854  1.00  0.00     0.004 C 
ENDBRANCH  14  15
ENDBRANCH  13  14
ENDBRANCH  12  13
ENDBRANCH  11  12
ENDBRANCH  10  11
ENDBRANCH   1  10
TORSDOF 12
ENDMDL
MODEL 3
REMARK VINA RESULT:    -4.239      1.586      2.167
REMARK INTER + INTRA:          -9.152
REMARK INTER:                  -7.194
REMARK INTRA:                  -1.958
REMARK UNBOUND:                -1.939
REMARK SMILES CCCCCCCCCCCCCC(=O)[O-]
REMARK SMILES IDX 8 1 9 2 10 3 11 4 12 5 13 6 14 7 15 8 16 9 7 10 6 11 5 12
REMARK SMILES IDX 4 13 3 14 2 15 1 16
REMARK H PARENT
REMARK Flexibility Score: inf
ROOT
ATOM      1  C   UNL     1      -3.188  11.252  21.815  1.00  0.00     0.000 C 
ENDROOT
BRANCH   1   2
ATOM      2  C   UNL     1      -3.555  11.668  23.251  1.00  0.00     0.000 C 
BRANCH   2   3
ATOM      3  C   UNL     1      -4.619  10.754  23.877  1.00  0.00     0.000 C 
BRANCH   3   4
ATOM      4  C   UNL     1      -4.564  10.749  25.412  1.00  0.00     0.000 C 
BRANCH   4   5
ATOM      5  C   UNL     1      -3.138  11.009  25.912  1.00  0.00     0.006 C 
BRANCH   5   6
ATOM      6  C   UNL     1      -2.877  10.283  27.235  1.00  0.00     0.053 C 
BRANCH   6   7
ATOM      7  C   UNL     1      -2.150  11.176  28.188  1.00  0.00     0.041 C 
ATOM      8  O   UNL     1      -2.169  10.932  29.424  1.00  0.00    -0.550 OA
ATOM      9  O   UNL     1      -1.411  12.251  27.710  1.00  0.00    -0.550 OA
ENDBRANCH   6   7
ENDBRANCH   5   6
ENDBRANCH   4   5
ENDBRANCH   3   4
ENDBRANCH   2   3
ENDBRANCH   1   2
BRANCH   1  10
ATOM     10  C   UNL     1      -4.072  10.111  21.280  1.00  0.00     0.000 C 
BRANCH  10  11
ATOM     11  C   UNL     1      -3.298   8.907  20.713  1.00  0.00    -0.000 C 
BRANCH  11  12
ATOM     12  C   UNL     1      -2.116   8.482  21.602  1.00  0.00    -0.000 C 
BRANCH  12  13
ATOM     13  C   UNL     1      -2.583   7.847  22.930  1.00  0.00    -0.000 C 
BRANCH  13  14
ATOM     14  C   UNL     1      -1.759   8.296  24.148  1.00  0.00    -0.000 C 
BRANCH  14  15
ATOM     15  C   UNL     1      -0.587   9.210  23.773  1.00  0.00    -0.003 C 
ATOM     16  C   UNL     1       0.210   9.619  25.009  1.00  0.00     0.004 C 
ENDBRANCH  14  15
ENDBRANCH  13  14
ENDBRANCH  12  13
ENDBRANCH  11  12
ENDBRANCH  10  11
ENDBRANCH   1  10
TORSDOF 12
ENDMDL
MODEL 4
REMARK VINA RESULT:    -4.236      7.273     10.182
REMARK INTER + INTRA:          -9.146
REMARK INTER:                  -7.579
REMARK INTRA:                  -1.567
REMARK UNBOUND:                -1.939
REMARK SMILES CCCCCCCCCCCCCC(=O)[O-]
REMARK SMILES IDX 8 1 9 2 10 3 11 4 12 5 13 6 14 7 15 8 16 9 7 10 6 11 5 12
REMARK SMILES IDX 4 13 3 14 2 15 1 16
REMARK H PARENT
REMARK Flexibility Score: inf
ROOT
ATOM      1  C   UNL     1       5.184  20.218  22.697  1.00  0.00     0.000 C 
ENDROOT
BRANCH   1   2
ATOM      2  C   UNL     1       4.767  19.076  23.641  1.00  0.00     0.000 C 
BRANCH   2   3
ATOM      3  C   UNL     1       4.033  17.942  22.909  1.00  0.00     0.000 C 
BRANCH   3   4
ATOM      4  C   UNL     1       3.911  16.670  23.761  1.00  0.00     0.000 C 
BRANCH   4   5
ATOM      5  C   UNL     1       2.658  16.717  24.643  1.00  0.00     0.006 C 
BRANCH   5   6
ATOM      6  C   UNL     1       1.648  15.645  24.221  1.00  0.00     0.053 C 
BRANCH   6   7
ATOM      7  C   UNL     1       1.686  14.489  25.168  1.00  0.00     0.041 C 
ATOM      8  O   UNL     1       2.519  13.558  24.998  1.00  0.00    -0.550 OA
ATOM      9  O   UNL     1       0.836  14.459  26.266  1.00  0.00    -0.550 OA
ENDBRANCH   6   7
ENDBRANCH   5   6
ENDBRANCH   4   5
ENDBRANCH   3   4
ENDBRANCH   2   3
ENDBRANCH   1   2
BRANCH   1  10
ATOM     10  C   UNL     1       4.766  19.968  21.237  1.00  0.00     0.000 C 
BRANCH  10  11
ATOM     11  C   UNL     1       3.693  20.931  20.699  1.00  0.00    -0.000 C 
BRANCH  11  12
ATOM     12  C   UNL     1       2.855  21.580  21.815  1.00  0.00    -0.000 C 
BRANCH  12  13
ATOM     13  C   UNL     1       1.563  20.788  22.110  1.00  0.00    -0.000 C 
BRANCH  13  14
ATOM     14  C   UNL     1       1.285  20.603  23.611  1.00  0.00    -0.000 C 
BRANCH  14  15
ATOM     15  C   UNL     1       0.376  19.403  23.907  1.00  0.00    -0.003 C 
ATOM     16  C   UNL     1      -0.306  18.903  22.636  1.00  0.00     0.004 C 
ENDBRANCH  14  15
ENDBRANCH  13  14
ENDBRANCH  12  13
ENDBRANCH  11  12
ENDBRANCH  10  11
ENDBRANCH   1  10
TORSDOF 12
ENDMDL
MODEL 5
REMARK VINA RESULT:    -4.235      1.758      3.538
REMARK INTER + INTRA:          -9.144
REMARK INTER:                  -7.394
REMARK INTRA:                  -1.750
REMARK UNBOUND:                -1.939
REMARK SMILES CCCCCCCCCCCCCC(=O)[O-]
REMARK SMILES IDX 8 1 9 2 10 3 11 4 12 5 13 6 14 7 15 8 16 9 7 10 6 11 5 12
REMARK SMILES IDX 4 13 3 14 2 15 1 16
REMARK H PARENT
REMARK Flexibility Score: inf
ROOT
ATOM      1  C   UNL     1      -3.233   9.786  21.282  1.00  0.00     0.000 C 
ENDROOT
BRANCH   1   2
ATOM      2  C   UNL     1      -2.035   9.008  21.855  1.00  0.00     0.000 C 
BRANCH   2   3
ATOM      3  C   UNL     1      -2.438   8.058  22.994  1.00  0.00     0.000 C 
BRANCH   3   4
ATOM      4  C   UNL     1      -1.614   8.285  24.270  1.00  0.00     0.000 C 
BRANCH   4   5
ATOM      5  C   UNL     1      -0.463   9.265  24.016  1.00  0.00     0.006 C 
BRANCH   5   6
ATOM      6  C   UNL     1      -0.040   9.965  25.311  1.00  0.00     0.053 C 
BRANCH   6   7
ATOM      7  C   UNL     1       1.445  10.133  25.354  1.00  0.00     0.041 C 
ATOM      8  O   UNL     1       2.200   9.136  25.205  1.00  0.00    -0.550 OA
ATOM      9  O   UNL     1       1.998  11.398  25.512  1.00  0.00    -0.550 OA
ENDBRANCH   6   7
ENDBRANCH   5   6
ENDBRANCH   4   5
ENDBRANCH   3   4
ENDBRANCH   2   3
ENDBRANCH   1   2
BRANCH   1  10
ATOM     10  C   UNL     1      -3.176  11.290  21.604  1.00  0.00     0.000 C 
BRANCH  10  11
ATOM     11  C   UNL     1      -4.389  11.829  22.383  1.00  0.00    -0.000 C 
BRANCH  11  12
ATOM     12  C   UNL     1      -4.671  11.042  23.675  1.00  0.00    -0.000 C 
BRANCH  12  13
ATOM     13  C   UNL     1      -3.595  11.289  24.754  1.00  0.00    -0.000 C 
BRANCH  13  14
ATOM     14  C   UNL     1      -3.831  10.495  26.050  1.00  0.00    -0.000 C 
BRANCH  14  15
ATOM     15  C   UNL     1      -2.937  10.959  27.206  1.00  0.00    -0.003 C 
ATOM     16  C   UNL     1      -2.593   9.798  28.136  1.00  0.00     0.004 C 
ENDBRANCH  14  15
ENDBRANCH  13  14
ENDBRANCH  12  13
ENDBRANCH  11  12
ENDBRANCH  10  11
ENDBRANCH   1  10
TORSDOF 12
ENDMDL
MODEL 6
REMARK VINA RESULT:    -4.228      1.121      3.225
REMARK INTER + INTRA:          -9.133
REMARK INTER:                  -7.400
REMARK INTRA:                  -1.733
REMARK UNBOUND:                -1.939
REMARK SMILES CCCCCCCCCCCCCC(=O)[O-]
REMARK SMILES IDX 8 1 9 2 10 3 11 4 12 5 13 6 14 7 15 8 16 9 7 10 6 11 5 12
REMARK SMILES IDX 4 13 3 14 2 15 1 16
REMARK H PARENT
REMARK Flexibility Score: inf
ROOT
ATOM      1  C   UNL     1      -1.141   8.835  25.857  1.00  0.00     0.000 C 
ENDROOT
BRANCH   1   2
ATOM      2  C   UNL     1      -2.316   9.214  26.776  1.00  0.00     0.000 C 
BRANCH   2   3
ATOM      3  C   UNL     1      -3.181  10.343  26.195  1.00  0.00     0.000 C 
BRANCH   3   4
ATOM      4  C   UNL     1      -3.301  11.544  27.145  1.00  0.00     0.000 C 
BRANCH   4   5
ATOM      5  C   UNL     1      -1.928  12.171  27.415  1.00  0.00     0.006 C 
BRANCH   5   6
ATOM      6  C   UNL     1      -1.361  12.822  26.150  1.00  0.00     0.053 C 
BRANCH   6   7
ATOM      7  C   UNL     1       0.114  13.022  26.280  1.00  0.00     0.041 C 
ATOM      8  O   UNL     1       0.571  14.124  26.685  1.00  0.00    -0.550 OA
ATOM      9  O   UNL     1       0.986  11.977  26.001  1.00  0.00    -0.550 OA
ENDBRANCH   6   7
ENDBRANCH   5   6
ENDBRANCH   4   5
ENDBRANCH   3   4
ENDBRANCH   2   3
ENDBRANCH   1   2
BRANCH   1  10
ATOM     10  C   UNL     1      -1.163   9.593  24.517  1.00  0.00     0.000 C 
BRANCH  10  11
ATOM     11  C   UNL     1      -1.437   8.714  23.284  1.00  0.00    -0.000 C 
BRANCH  11  12
ATOM     12  C   UNL     1      -2.894   8.226  23.206  1.00  0.00    -0.000 C 
BRANCH  12  13
ATOM     13  C   UNL     1      -3.821   9.260  22.533  1.00  0.00    -0.000 C 
BRANCH  13  14
ATOM     14  C   UNL     1      -3.156  10.016  21.370  1.00  0.00    -0.000 C 
BRANCH  14  15
ATOM     15  C   UNL     1      -3.298  11.538  21.487  1.00  0.00    -0.003 C 
ATOM     16  C   UNL     1      -3.621  11.952  22.921  1.00  0.00     0.004 C 
ENDBRANCH  14  15
ENDBRANCH  13  14
ENDBRANCH  12  13
ENDBRANCH  11  12
ENDBRANCH  10  11
ENDBRANCH   1  10
TORSDOF 12
ENDMDL
MODEL 7
REMARK VINA RESULT:    -4.196      1.487      3.284
REMARK INTER + INTRA:          -9.078
REMARK INTER:                  -7.541
REMARK INTRA:                  -1.537
REMARK UNBOUND:                -1.939
REMARK SMILES CCCCCCCCCCCCCC(=O)[O-]
REMARK SMILES IDX 8 1 9 2 10 3 11 4 12 5 13 6 14 7 15 8 16 9 7 10 6 11 5 12
REMARK SMILES IDX 4 13 3 14 2 15 1 16
REMARK H PARENT
REMARK Flexibility Score: inf
ROOT
ATOM      1  C   UNL     1      -1.332   8.761  24.559  1.00  0.00     0.000 C 
ENDROOT
BRANCH   1   2
ATOM      2  C   UNL     1      -1.363   9.971  25.510  1.00  0.00     0.000 C 
BRANCH   2   3
ATOM      3  C   UNL     1      -1.877  11.246  24.827  1.00  0.00     0.000 C 
BRANCH   3   4
ATOM      4  C   UNL     1      -1.642  12.506  25.674  1.00  0.00     0.000 C 
BRANCH   4   5
ATOM      5  C   UNL     1      -0.310  12.421  26.428  1.00  0.00     0.006 C 
BRANCH   5   6
ATOM      6  C   UNL     1       0.321  13.808  26.589  1.00  0.00     0.053 C 
BRANCH   6   7
ATOM      7  C   UNL     1       1.276  14.081  25.472  1.00  0.00     0.041 C 
ATOM      8  O   UNL     1       2.275  13.335  25.296  1.00  0.00    -0.550 OA
ATOM      9  O   UNL     1       1.038  15.131  24.593  1.00  0.00    -0.550 OA
ENDBRANCH   6   7
ENDBRANCH   5   6
ENDBRANCH   4   5
ENDBRANCH   3   4
ENDBRANCH   2   3
ENDBRANCH   1   2
BRANCH   1  10
ATOM     10  C   UNL     1      -1.159   9.165  23.084  1.00  0.00     0.000 C 
BRANCH  10  11
ATOM     11  C   UNL     1      -1.764   8.179  22.070  1.00  0.00    -0.000 C 
BRANCH  11  12
ATOM     12  C   UNL     1      -2.551   8.879  20.948  1.00  0.00    -0.000 C 
BRANCH  12  13
ATOM     13  C   UNL     1      -3.343  10.099  21.465  1.00  0.00    -0.000 C 
BRANCH  13  14
ATOM     14  C   UNL     1      -4.773   9.757  21.916  1.00  0.00    -0.000 C 
BRANCH  14  15
ATOM     15  C   UNL     1      -4.917   9.682  23.441  1.00  0.00    -0.003 C 
ATOM     16  C   UNL     1      -4.994   8.234  23.916  1.00  0.00     0.004 C 
ENDBRANCH  14  15
ENDBRANCH  13  14
ENDBRANCH  12  13
ENDBRANCH  11  12
ENDBRANCH  10  11
ENDBRANCH   1  10
TORSDOF 12
ENDMDL
MODEL 8
REMARK VINA RESULT:    -4.178      2.909      4.387
REMARK INTER + INTRA:          -9.049
REMARK INTER:                  -7.961
REMARK INTRA:                  -1.088
REMARK UNBOUND:                -1.939
REMARK SMILES CCCCCCCCCCCCCC(=O)[O-]
REMARK SMILES IDX 8 1 9 2 10 3 11 4 12 5 13 6 14 7 15 8 16 9 7 10 6 11 5 12
REMARK SMILES IDX 4 13 3 14 2 15 1 16
REMARK H PARENT
REMARK Flexibility Score: inf
ROOT
ATOM      1  C   UNL     1      -1.477   8.883  25.274  1.00  0.00     0.000 C 
ENDROOT
BRANCH   1   2
ATOM      2  C   UNL     1      -3.001   8.936  25.484  1.00  0.00     0.000 C 
BRANCH   2   3
ATOM      3  C   UNL     1      -3.409   9.890  26.616  1.00  0.00     0.000 C 
BRANCH   3   4
ATOM      4  C   UNL     1      -2.521   9.742  27.861  1.00  0.00     0.000 C 
BRANCH   4   5
ATOM      5  C   UNL     1      -3.133  10.472  29.063  1.00  0.00     0.006 C 
BRANCH   5   6
ATOM      6  C   UNL     1      -2.063  11.248  29.838  1.00  0.00     0.053 C 
BRANCH   6   7
ATOM      7  C   UNL     1      -2.578  11.645  31.185  1.00  0.00     0.041 C 
ATOM      8  O   UNL     1      -2.060  11.164  32.228  1.00  0.00    -0.550 OA
ATOM      9  O   UNL     1      -3.598  12.582  31.292  1.00  0.00    -0.550 OA
ENDBRANCH   6   7
ENDBRANCH   5   6
ENDBRANCH   4   5
ENDBRANCH   3   4
ENDBRANCH   2   3
ENDBRANCH   1   2
BRANCH   1  10
ATOM     10  C   UNL     1      -1.080   8.843  23.787  1.00  0.00     0.000 C 
BRANCH  10  11
ATOM     11  C   UNL     1      -2.133   8.216  22.856  1.00  0.00    -0.000 C 
BRANCH  11  12
ATOM     12  C   UNL     1      -1.811   8.419  21.365  1.00  0.00    -0.000 C 
BRANCH  12  13
ATOM     13  C   UNL     1      -2.931   9.182  20.625  1.00  0.00    -0.000 C 
BRANCH  13  14
ATOM     14  C   UNL     1      -3.823  10.019  21.557  1.00  0.00    -0.000 C 
BRANCH  14  15
ATOM     15  C   UNL     1      -3.360  11.477  21.675  1.00  0.00    -0.003 C 
ATOM     16  C   UNL     1      -3.176  11.879  23.136  1.00  0.00     0.004 C 
ENDBRANCH  14  15
ENDBRANCH  13  14
ENDBRANCH  12  13
ENDBRANCH  11  12
ENDBRANCH  10  11
ENDBRANCH   1  10
TORSDOF 12
ENDMDL
MODEL 9
REMARK VINA RESULT:    -4.071      3.288      5.678
REMARK INTER + INTRA:          -8.865
REMARK INTER:                  -7.140
REMARK INTRA:                  -1.725
REMARK UNBOUND:                -1.939
REMARK SMILES CCCCCCCCCCCCCC(=O)[O-]
REMARK SMILES IDX 8 1 9 2 10 3 11 4 12 5 13 6 14 7 15 8 16 9 7 10 6 11 5 12
REMARK SMILES IDX 4 13 3 14 2 15 1 16
REMARK H PARENT
REMARK Flexibility Score: inf
ROOT
ATOM      1  C   UNL     1      -2.349   9.454  25.911  1.00  0.00     0.000 C 
ENDROOT
BRANCH   1   2
ATOM      2  C   UNL     1      -3.836   9.718  25.612  1.00  0.00     0.000 C 
BRANCH   2   3
ATOM      3  C   UNL     1      -4.039  10.708  24.455  1.00  0.00     0.000 C 
BRANCH   3   4
ATOM      4  C   UNL     1      -2.724  11.062  23.744  1.00  0.00     0.000 C 
BRANCH   4   5
ATOM      5  C   UNL     1      -2.943  11.231  22.235  1.00  0.00     0.006 C 
BRANCH   5   6
ATOM      6  C   UNL     1      -4.099  10.353  21.745  1.00  0.00     0.053 C 
BRANCH   6   7
ATOM      7  C   UNL     1      -3.575   9.154  21.022  1.00  0.00     0.041 C 
ATOM      8  O   UNL     1      -4.352   8.440  20.334  1.00  0.00    -0.550 OA
ATOM      9  O   UNL     1      -2.220   8.849  21.067  1.00  0.00    -0.550 OA
ENDBRANCH   6   7
ENDBRANCH   5   6
ENDBRANCH   4   5
ENDBRANCH   3   4
ENDBRANCH   2   3
ENDBRANCH   1   2
BRANCH   1  10
ATOM     10  C   UNL     1      -2.074   9.217  27.406  1.00  0.00     0.000 C 
BRANCH  10  11
ATOM     11  C   UNL     1      -2.825  10.164  28.358  1.00  0.00    -0.000 C 
BRANCH  11  12
ATOM     12  C   UNL     1      -2.076  11.485  28.606  1.00  0.00    -0.000 C 
BRANCH  12  13
ATOM     13  C   UNL     1      -2.663  12.652  27.783  1.00  0.00    -0.000 C 
BRANCH  13  14
ATOM     14  C   UNL     1      -1.766  13.091  26.613  1.00  0.00    -0.000 C 
BRANCH  14  15
ATOM     15  C   UNL     1      -0.271  13.033  26.952  1.00  0.00    -0.003 C 
ATOM     16  C   UNL     1       0.442  11.976  26.113  1.00  0.00     0.004 C 
ENDBRANCH  14  15
ENDBRANCH  13  14
ENDBRANCH  12  13
ENDBRANCH  11  12
ENDBRANCH  10  11
ENDBRANCH   1  10
TORSDOF 12
ENDMDL
