MODEL 1
REMARK VINA RESULT:    -3.499      0.000      0.000
REMARK INTER + INTRA:          -4.661
REMARK INTER:                  -4.522
REMARK INTRA:                  -0.139
REMARK UNBOUND:                -0.139
REMARK SMILES CCCCCCC(=O)[O-]
REMARK SMILES IDX 5 1 6 2 7 3 8 4 9 5 4 6 3 7 2 8 1 9
REMARK H PARENT
REMARK Flexibility Score: inf
ROOT
ATOM      1  C   UNL     1      33.256  29.153  22.156  1.00  0.00     0.006 C 
ENDROOT
BRANCH   1   2
ATOM      2  C   UNL     1      32.314  28.861  20.981  1.00  0.00     0.053 C 
BRANCH   2   3
ATOM      3  C   UNL     1      33.032  29.038  19.680  1.00  0.00     0.041 C 
ATOM      4  O   UNL     1      33.863  28.174  19.294  1.00  0.00    -0.550 OA
ATOM      5  O   UNL     1      32.748  30.130  18.871  1.00  0.00    -0.550 OA
ENDBRANCH   2   3
ENDBRANCH   1   2
BRANCH   1   6
ATOM      6  C   UNL     1      33.594  30.646  22.288  1.00  0.00     0.000 C 
BRANCH   6   7
ATOM      7  C   UNL     1      34.447  30.951  23.530  1.00  0.00    -0.000 C 
BRANCH   7   8
ATOM      8  C   UNL     1      34.053  32.299  24.147  1.00  0.00    -0.003 C 
ATOM      9  C   UNL     1      34.097  32.242  25.671  1.00  0.00     0.004 C 
ENDBRANCH   7   8
ENDBRANCH   6   7
ENDBRANCH   1   6
TORSDOF 5
ENDMDL
MODEL 2
REMARK VINA RESULT:    -3.475      6.512      8.798
REMARK INTER + INTRA:          -4.630
REMARK INTER:                  -4.452
REMARK INTRA:                  -0.178
REMARK UNBOUND:                -0.139
REMARK SMILES CCCCCCC(=O)[O-]
REMARK SMILES IDX 5 1 6 2 7 3 8 4 9 5 4 6 3 7 2 8 1 9
REMARK H PARENT
REMARK Flexibility Score: inf
ROOT
ATOM      1  C   UNL     1      36.973  34.478  27.235  1.00  0.00     0.006 C 
ENDROOT
BRANCH   1   2
ATOM      2  C   UNL     1      36.706  34.806  28.711  1.00  0.00     0.053 C 
BRANCH   2   3
ATOM      3  C   UNL     1      35.906  36.065  28.829  1.00  0.00     0.041 C 
ATOM      4  O   UNL     1      34.784  36.156  28.265  1.00  0.00    -0.550 OA
ATOM      5  O   UNL     1      36.377  37.118  29.601  1.00  0.00    -0.550 OA
ENDBRANCH   2   3
ENDBRANCH   1   2
BRANCH   1   6
ATOM      6  C   UNL     1      36.230  33.217  26.765  1.00  0.00     0.000 C 
BRANCH   6   7
ATOM      7  C   UNL     1      35.023  33.540  25.871  1.00  0.00    -0.000 C 
BRANCH   7   8
ATOM      8  C   UNL     1      34.160  32.293  25.644  1.00  0.00    -0.003 C 
ATOM      9  C   UNL     1      34.332  31.752  24.228  1.00  0.00     0.004 C 
ENDBRANCH   7   8
ENDBRANCH   6   7
ENDBRANCH   1   6
TORSDOF 5
ENDMDL
MODEL 3
REMARK VINA RESULT:    -3.467      1.396      1.836
REMARK INTER + INTRA:          -4.619
REMARK INTER:                  -4.456
REMARK INTRA:                  -0.163
REMARK UNBOUND:                -0.139
REMARK SMILES CCCCCCC(=O)[O-]
REMARK SMILES IDX 5 1 6 2 7 3 8 4 9 5 4 6 3 7 2 8 1 9
REMARK H PARENT
REMARK Flexibility Score: inf
ROOT
ATOM      1  C   UNL     1      32.869  31.349  22.049  1.00  0.00     0.006 C 
ENDROOT
BRANCH   1   2
ATOM      2  C   UNL     1      33.505  29.954  21.996  1.00  0.00     0.053 C 
BRANCH   2   3
ATOM      3  C   UNL     1      32.699  29.046  21.123  1.00  0.00     0.041 C 
ATOM      4  O   UNL     1      33.212  28.543  20.089  1.00  0.00    -0.550 OA
ATOM      5  O   UNL     1      31.397  28.716  21.476  1.00  0.00    -0.550 OA
ENDBRANCH   2   3
ENDBRANCH   1   2
BRANCH   1   6
ATOM      6  C   UNL     1      33.521  32.259  23.101  1.00  0.00     0.000 C 
BRANCH   6   7
ATOM      7  C   UNL     1      34.357  31.475  24.125  1.00  0.00    -0.000 C 
BRANCH   7   8
ATOM      8  C   UNL     1      34.162  32.040  25.538  1.00  0.00    -0.003 C 
ATOM      9  C   UNL     1      34.417  33.544  25.571  1.00  0.00     0.004 C 
ENDBRANCH   7   8
ENDBRANCH   6   7
ENDBRANCH   1   6
TORSDOF 5
ENDMDL
MODEL 4
REMARK VINA RESULT:    -3.441      4.235      5.978
REMARK INTER + INTRA:          -4.586
REMARK INTER:                  -4.383
REMARK INTRA:                  -0.202
REMARK UNBOUND:                -0.139
REMARK SMILES CCCCCCC(=O)[O-]
REMARK SMILES IDX 5 1 6 2 7 3 8 4 9 5 4 6 3 7 2 8 1 9
REMARK H PARENT
REMARK Flexibility Score: inf
ROOT
ATOM      1  C   UNL     1      34.299  31.903  24.101  1.00  0.00     0.006 C 
ENDROOT
BRANCH   1   2
ATOM      2  C   UNL     1      34.010  32.352  25.540  1.00  0.00     0.053 C 
BRANCH   2   3
ATOM      3  C   UNL     1      35.000  33.386  25.973  1.00  0.00     0.041 C 
ATOM      4  O   UNL     1      34.788  34.604  25.735  1.00  0.00    -0.550 OA
ATOM      5  O   UNL     1      36.134  33.010  26.681  1.00  0.00    -0.550 OA
ENDBRANCH   2   3
ENDBRANCH   1   2
BRANCH   1   6
ATOM      6  C   UNL     1      33.328  32.519  23.082  1.00  0.00     0.000 C 
BRANCH   6   7
ATOM      7  C   UNL     1      32.825  31.496  22.051  1.00  0.00    -0.000 C 
BRANCH   7   8
ATOM      8  C   UNL     1      33.509  30.138  22.249  1.00  0.00    -0.003 C 
ATOM      9  C   UNL     1      32.678  29.008  21.646  1.00  0.00     0.004 C 
ENDBRANCH   7   8
ENDBRANCH   6   7
ENDBRANCH   1   6
TORSDOF 5
ENDMDL
MODEL 5
REMARK VINA RESULT:    -3.438      7.411      9.241
REMARK INTER + INTRA:          -4.582
REMARK INTER:                  -4.305
REMARK INTRA:                  -0.277
REMARK UNBOUND:                -0.139
REMARK SMILES CCCCCCC(=O)[O-]
REMARK SMILES IDX 5 1 6 2 7 3 8 4 9 5 4 6 3 7 2 8 1 9
REMARK H PARENT
REMARK Flexibility Score: inf
ROOT
ATOM      1  C   UNL     1      35.924  35.370  26.991  1.00  0.00     0.006 C 
ENDROOT
BRANCH   1   2
ATOM      2  C   UNL     1      35.059  36.073  28.046  1.00  0.00     0.053 C 
BRANCH   2   3
ATOM      3  C   UNL     1      35.908  36.556  29.179  1.00  0.00     0.041 C 
ATOM      4  O   UNL     1      36.675  37.543  29.019  1.00  0.00    -0.550 OA
ATOM      5  O   UNL     1      35.818  35.949  30.424  1.00  0.00    -0.550 OA
ENDBRANCH   2   3
ENDBRANCH   1   2
BRANCH   1   6
ATOM      6  C   UNL     1      36.537  34.058  27.506  1.00  0.00     0.000 C 
BRANCH   6   7
ATOM      7  C   UNL     1      36.293  32.878  26.552  1.00  0.00    -0.000 C 
BRANCH   7   8
ATOM      8  C   UNL     1      35.235  33.232  25.500  1.00  0.00    -0.003 C 
ATOM      9  C   UNL     1      33.976  32.390  25.678  1.00  0.00     0.004 C 
ENDBRANCH   7   8
ENDBRANCH   6   7
ENDBRANCH   1   6
TORSDOF 5
ENDMDL
MODEL 6
REMARK VINA RESULT:    -3.403      2.654      5.541
REMARK INTER + INTRA:          -4.536
REMARK INTER:                  -4.298
REMARK INTRA:                  -0.238
REMARK UNBOUND:                -0.139
REMARK SMILES CCCCCCC(=O)[O-]
REMARK SMILES IDX 5 1 6 2 7 3 8 4 9 5 4 6 3 7 2 8 1 9
REMARK H PARENT
REMARK Flexibility Score: inf
ROOT
ATOM      1  C   UNL     1      33.011  28.632  19.972  1.00  0.00     0.006 C 
ENDROOT
BRANCH   1   2
ATOM      2  C   UNL     1      32.186  29.109  21.175  1.00  0.00     0.053 C 
BRANCH   2   3
ATOM      3  C   UNL     1      32.920  30.178  21.920  1.00  0.00     0.041 C 
ATOM      4  O   UNL     1      32.454  31.347  21.973  1.00  0.00    -0.550 OA
ATOM      5  O   UNL     1      34.094  29.874  22.597  1.00  0.00    -0.550 OA
ENDBRANCH   2   3
ENDBRANCH   1   2
BRANCH   1   6
ATOM      6  C   UNL     1      33.132  29.702  18.876  1.00  0.00     0.000 C 
BRANCH   6   7
ATOM      7  C   UNL     1      33.621  29.125  17.538  1.00  0.00    -0.000 C 
BRANCH   7   8
ATOM      8  C   UNL     1      33.685  27.594  17.593  1.00  0.00    -0.003 C 
ATOM      9  C   UNL     1      32.704  26.965  16.607  1.00  0.00     0.004 C 
ENDBRANCH   7   8
ENDBRANCH   6   7
ENDBRANCH   1   6
TORSDOF 5
ENDMDL
MODEL 7
REMARK VINA RESULT:    -3.380      3.817      5.580
REMARK INTER + INTRA:          -4.507
REMARK INTER:                  -4.298
REMARK INTRA:                  -0.209
REMARK UNBOUND:                -0.139
REMARK SMILES CCCCCCC(=O)[O-]
REMARK SMILES IDX 5 1 6 2 7 3 8 4 9 5 4 6 3 7 2 8 1 9
REMARK H PARENT
REMARK Flexibility Score: inf
ROOT
ATOM      1  C   UNL     1      35.024  33.580  25.920  1.00  0.00     0.006 C 
ENDROOT
BRANCH   1   2
ATOM      2  C   UNL     1      34.051  32.435  25.610  1.00  0.00     0.053 C 
BRANCH   2   3
ATOM      3  C   UNL     1      34.155  32.038  24.171  1.00  0.00     0.041 C 
ATOM      4  O   UNL     1      35.079  31.271  23.792  1.00  0.00    -0.550 OA
ATOM      5  O   UNL     1      33.204  32.475  23.259  1.00  0.00    -0.550 OA
ENDBRANCH   2   3
ENDBRANCH   1   2
BRANCH   1   6
ATOM      6  C   UNL     1      36.250  33.114  26.720  1.00  0.00     0.000 C 
BRANCH   6   7
ATOM      7  C   UNL     1      36.663  34.119  27.808  1.00  0.00    -0.000 C 
BRANCH   7   8
ATOM      8  C   UNL     1      35.895  35.438  27.655  1.00  0.00    -0.003 C 
ATOM      9  C   UNL     1      35.570  36.048  29.015  1.00  0.00     0.004 C 
ENDBRANCH   7   8
ENDBRANCH   6   7
ENDBRANCH   1   6
TORSDOF 5
ENDMDL
MODEL 8
REMARK VINA RESULT:    -3.355      2.291      3.215
REMARK INTER + INTRA:          -4.474
REMARK INTER:                  -4.307
REMARK INTRA:                  -0.167
REMARK UNBOUND:                -0.139
REMARK SMILES CCCCCCC(=O)[O-]
REMARK SMILES IDX 5 1 6 2 7 3 8 4 9 5 4 6 3 7 2 8 1 9
REMARK H PARENT
REMARK Flexibility Score: inf
ROOT
ATOM      1  C   UNL     1      33.653  28.593  19.471  1.00  0.00     0.006 C 
ENDROOT
BRANCH   1   2
ATOM      2  C   UNL     1      33.245  28.765  18.001  1.00  0.00     0.053 C 
BRANCH   2   3
ATOM      3  C   UNL     1      33.340  27.459  17.278  1.00  0.00     0.041 C 
ATOM      4  O   UNL     1      32.367  27.041  16.597  1.00  0.00    -0.550 OA
ATOM      5  O   UNL     1      34.520  26.727  17.316  1.00  0.00    -0.550 OA
ENDBRANCH   2   3
ENDBRANCH   1   2
BRANCH   1   6
ATOM      6  C   UNL     1      32.524  28.960  20.446  1.00  0.00     0.000 C 
BRANCH   6   7
ATOM      7  C   UNL     1      32.984  28.958  21.912  1.00  0.00    -0.000 C 
BRANCH   7   8
ATOM      8  C   UNL     1      33.711  30.263  22.259  1.00  0.00    -0.003 C 
ATOM      9  C   UNL     1      32.803  31.472  22.052  1.00  0.00     0.004 C 
ENDBRANCH   7   8
ENDBRANCH   6   7
ENDBRANCH   1   6
TORSDOF 5
ENDMDL
MODEL 9
REMARK VINA RESULT:    -3.315      2.115      2.725
REMARK INTER + INTRA:          -4.423
REMARK INTER:                  -4.020
REMARK INTRA:                  -0.403
REMARK UNBOUND:                -0.139
REMARK SMILES CCCCCCC(=O)[O-]
REMARK SMILES IDX 5 1 6 2 7 3 8 4 9 5 4 6 3 7 2 8 1 9
REMARK H PARENT
REMARK Flexibility Score: inf
ROOT
ATOM      1  C   UNL     1      33.612  32.247  21.427  1.00  0.00     0.006 C 
ENDROOT
BRANCH   1   2
ATOM      2  C   UNL     1      32.732  31.052  21.816  1.00  0.00     0.053 C 
BRANCH   2   3
ATOM      3  C   UNL     1      33.581  29.887  22.217  1.00  0.00     0.041 C 
ATOM      4  O   UNL     1      33.111  28.720  22.183  1.00  0.00    -0.550 OA
ATOM      5  O   UNL     1      34.906  30.086  22.581  1.00  0.00    -0.550 OA
ENDBRANCH   2   3
ENDBRANCH   1   2
BRANCH   1   6
ATOM      6  C   UNL     1      33.400  33.462  22.344  1.00  0.00     0.000 C 
BRANCH   6   7
ATOM      7  C   UNL     1      34.369  33.478  23.537  1.00  0.00    -0.000 C 
BRANCH   7   8
ATOM      8  C   UNL     1      33.637  33.132  24.841  1.00  0.00    -0.003 C 
ATOM      9  C   UNL     1      34.324  31.981  25.570  1.00  0.00     0.004 C 
ENDBRANCH   7   8
ENDBRANCH   6   7
ENDBRANCH   1   6
TORSDOF 5
ENDMDL
