MODEL 1
REMARK VINA RESULT:    -3.278      0.000      0.000
REMARK INTER + INTRA:          -4.599
REMARK INTER:                  -4.236
REMARK INTRA:                  -0.363
REMARK UNBOUND:                -0.363
REMARK SMILES CCCCCCC(=O)[O-]
REMARK SMILES IDX 5 1 6 2 7 3 8 4 9 5 4 6 3 7 2 8 1 9
REMARK H PARENT
REMARK Flexibility Score: inf
ROOT
ATOM      1  C   UNL     1     161.878 174.835 151.480  1.00  0.00     0.006 C 
ENDROOT
BRANCH   1   2
ATOM      2  C   UNL     1     160.981 174.574 152.700  1.00  0.00     0.053 C 
BRANCH   2   3
ATOM      3  C   UNL     1     159.692 173.915 152.316  1.00  0.00     0.041 C 
ATOM      4  O   UNL     1     158.785 174.577 151.746  1.00  0.00    -0.550 OA
ATOM      5  O   UNL     1     159.478 172.577 152.622  1.00  0.00    -0.550 OA
ENDBRANCH   2   3
ENDBRANCH   1   2
BRANCH   1   6
ATOM      6  C   UNL     1     162.092 176.326 151.154  1.00  0.00     0.000 C 
BRANCH   6   7
ATOM      7  C   UNL     1     160.990 176.973 150.291  1.00  0.00    -0.000 C 
BRANCH   7   8
ATOM      8  C   UNL     1     160.124 178.016 151.018  1.00  0.00    -0.003 C 
ATOM      9  C   UNL     1     160.448 178.125 152.507  1.00  0.00     0.004 C 
ENDBRANCH   7   8
ENDBRANCH   6   7
ENDBRANCH   1   6
TORSDOF 5
ENDMDL
MODEL 2
REMARK VINA RESULT:    -3.260     15.046     15.810
REMARK INTER + INTRA:          -4.575
REMARK INTER:                  -4.445
REMARK INTRA:                  -0.130
REMARK UNBOUND:                -0.363
REMARK SMILES CCCCCCC(=O)[O-]
REMARK SMILES IDX 5 1 6 2 7 3 8 4 9 5 4 6 3 7 2 8 1 9
REMARK H PARENT
REMARK Flexibility Score: inf
ROOT
ATOM      1  C   UNL     1     176.611 174.145 151.361  1.00  0.00     0.006 C 
ENDROOT
BRANCH   1   2
ATOM      2  C   UNL     1     176.003 172.877 151.977  1.00  0.00     0.053 C 
BRANCH   2   3
ATOM      3  C   UNL     1     176.946 172.210 152.932  1.00  0.00     0.041 C 
ATOM      4  O   UNL     1     177.735 172.900 153.629  1.00  0.00    -0.550 OA
ATOM      5  O   UNL     1     176.976 170.824 153.024  1.00  0.00    -0.550 OA
ENDBRANCH   2   3
ENDBRANCH   1   2
BRANCH   1   6
ATOM      6  C   UNL     1     175.591 175.264 151.070  1.00  0.00     0.000 C 
BRANCH   6   7
ATOM      7  C   UNL     1     175.457 176.331 152.176  1.00  0.00    -0.000 C 
BRANCH   7   8
ATOM      8  C   UNL     1     175.075 177.736 151.679  1.00  0.00    -0.003 C 
ATOM      9  C   UNL     1     174.627 177.750 150.219  1.00  0.00     0.004 C 
ENDBRANCH   7   8
ENDBRANCH   6   7
ENDBRANCH   1   6
TORSDOF 5
ENDMDL
MODEL 3
REMARK VINA RESULT:    -3.241      3.325      4.293
REMARK INTER + INTRA:          -4.552
REMARK INTER:                  -4.246
REMARK INTRA:                  -0.305
REMARK UNBOUND:                -0.363
REMARK SMILES CCCCCCC(=O)[O-]
REMARK SMILES IDX 5 1 6 2 7 3 8 4 9 5 4 6 3 7 2 8 1 9
REMARK H PARENT
REMARK Flexibility Score: inf
ROOT
ATOM      1  C   UNL     1     162.464 176.591 150.795  1.00  0.00     0.006 C 
ENDROOT
BRANCH   1   2
ATOM      2  C   UNL     1     163.468 177.703 151.137  1.00  0.00     0.053 C 
BRANCH   2   3
ATOM      3  C   UNL     1     163.920 177.629 152.563  1.00  0.00     0.041 C 
ATOM      4  O   UNL     1     163.190 178.081 153.484  1.00  0.00    -0.550 OA
ATOM      5  O   UNL     1     165.165 177.094 152.870  1.00  0.00    -0.550 OA
ENDBRANCH   2   3
ENDBRANCH   1   2
BRANCH   1   6
ATOM      6  C   UNL     1     161.025 177.087 150.547  1.00  0.00     0.000 C 
BRANCH   6   7
ATOM      7  C   UNL     1     160.165 177.263 151.815  1.00  0.00    -0.000 C 
BRANCH   7   8
ATOM      8  C   UNL     1     160.025 176.002 152.685  1.00  0.00    -0.003 C 
ATOM      9  C   UNL     1     159.340 174.848 151.955  1.00  0.00     0.004 C 
ENDBRANCH   7   8
ENDBRANCH   6   7
ENDBRANCH   1   6
TORSDOF 5
ENDMDL
MODEL 4
REMARK VINA RESULT:    -3.240     13.918     14.737
REMARK INTER + INTRA:          -4.550
REMARK INTER:                  -4.110
REMARK INTRA:                  -0.440
REMARK UNBOUND:                -0.363
REMARK SMILES CCCCCCC(=O)[O-]
REMARK SMILES IDX 5 1 6 2 7 3 8 4 9 5 4 6 3 7 2 8 1 9
REMARK H PARENT
REMARK Flexibility Score: inf
ROOT
ATOM      1  C   UNL     1     173.838 174.944 150.804  1.00  0.00     0.006 C 
ENDROOT
BRANCH   1   2
ATOM      2  C   UNL     1     174.467 174.433 152.109  1.00  0.00     0.053 C 
BRANCH   2   3
ATOM      3  C   UNL     1     175.964 174.445 152.052  1.00  0.00     0.041 C 
ATOM      4  O   UNL     1     176.640 174.259 153.097  1.00  0.00    -0.550 OA
ATOM      5  O   UNL     1     176.611 174.697 150.849  1.00  0.00    -0.550 OA
ENDBRANCH   2   3
ENDBRANCH   1   2
BRANCH   1   6
ATOM      6  C   UNL     1     173.396 176.421 150.847  1.00  0.00     0.000 C 
BRANCH   6   7
ATOM      7  C   UNL     1     174.413 177.426 150.267  1.00  0.00    -0.000 C 
BRANCH   7   8
ATOM      8  C   UNL     1     175.304 178.122 151.310  1.00  0.00    -0.003 C 
ATOM      9  C   UNL     1     174.692 178.124 152.710  1.00  0.00     0.004 C 
ENDBRANCH   7   8
ENDBRANCH   6   7
ENDBRANCH   1   6
TORSDOF 5
ENDMDL
MODEL 5
REMARK VINA RESULT:    -3.171      2.264      3.462
REMARK INTER + INTRA:          -4.460
REMARK INTER:                  -4.134
REMARK INTRA:                  -0.326
REMARK UNBOUND:                -0.363
REMARK SMILES CCCCCCC(=O)[O-]
REMARK SMILES IDX 5 1 6 2 7 3 8 4 9 5 4 6 3 7 2 8 1 9
REMARK H PARENT
REMARK Flexibility Score: inf
ROOT
ATOM      1  C   UNL     1     161.038 177.050 150.503  1.00  0.00     0.006 C 
ENDROOT
BRANCH   1   2
ATOM      2  C   UNL     1     160.439 178.014 151.538  1.00  0.00     0.053 C 
BRANCH   2   3
ATOM      3  C   UNL     1     160.062 177.311 152.806  1.00  0.00     0.041 C 
ATOM      4  O   UNL     1     159.730 176.097 152.783  1.00  0.00    -0.550 OA
ATOM      5  O   UNL     1     160.041 178.009 154.007  1.00  0.00    -0.550 OA
ENDBRANCH   2   3
ENDBRANCH   1   2
BRANCH   1   6
ATOM      6  C   UNL     1     162.476 176.592 150.817  1.00  0.00     0.000 C 
BRANCH   6   7
ATOM      7  C   UNL     1     163.465 177.726 151.159  1.00  0.00    -0.000 C 
BRANCH   7   8
ATOM      8  C   UNL     1     164.373 177.451 152.370  1.00  0.00    -0.003 C 
ATOM      9  C   UNL     1     163.611 177.422 153.693  1.00  0.00     0.004 C 
ENDBRANCH   7   8
ENDBRANCH   6   7
ENDBRANCH   1   6
TORSDOF 5
ENDMDL
MODEL 6
REMARK VINA RESULT:    -3.159     13.508     14.478
REMARK INTER + INTRA:          -4.445
REMARK INTER:                  -4.123
REMARK INTRA:                  -0.322
REMARK UNBOUND:                -0.363
REMARK SMILES CCCCCCC(=O)[O-]
REMARK SMILES IDX 5 1 6 2 7 3 8 4 9 5 4 6 3 7 2 8 1 9
REMARK H PARENT
REMARK Flexibility Score: inf
ROOT
ATOM      1  C   UNL     1     175.716 178.117 151.691  1.00  0.00     0.006 C 
ENDROOT
BRANCH   1   2
ATOM      2  C   UNL     1     175.364 178.029 153.184  1.00  0.00     0.053 C 
BRANCH   2   3
ATOM      3  C   UNL     1     175.773 176.716 153.779  1.00  0.00     0.041 C 
ATOM      4  O   UNL     1     175.815 176.572 155.029  1.00  0.00    -0.550 OA
ATOM      5  O   UNL     1     176.141 175.663 152.951  1.00  0.00    -0.550 OA
ENDBRANCH   2   3
ENDBRANCH   1   2
BRANCH   1   6
ATOM      6  C   UNL     1     174.497 178.087 150.747  1.00  0.00     0.000 C 
BRANCH   6   7
ATOM      7  C   UNL     1     173.741 176.743 150.696  1.00  0.00    -0.000 C 
BRANCH   7   8
ATOM      8  C   UNL     1     172.434 176.702 151.506  1.00  0.00    -0.003 C 
ATOM      9  C   UNL     1     171.878 178.092 151.812  1.00  0.00     0.004 C 
ENDBRANCH   7   8
ENDBRANCH   6   7
ENDBRANCH   1   6
TORSDOF 5
ENDMDL
MODEL 7
REMARK VINA RESULT:    -3.141     14.259     15.081
REMARK INTER + INTRA:          -4.422
REMARK INTER:                  -4.231
REMARK INTRA:                  -0.191
REMARK UNBOUND:                -0.363
REMARK SMILES CCCCCCC(=O)[O-]
REMARK SMILES IDX 5 1 6 2 7 3 8 4 9 5 4 6 3 7 2 8 1 9
REMARK H PARENT
REMARK Flexibility Score: inf
ROOT
ATOM      1  C   UNL     1     175.505 176.170 151.314  1.00  0.00     0.006 C 
ENDROOT
BRANCH   1   2
ATOM      2  C   UNL     1     175.413 174.649 151.119  1.00  0.00     0.053 C 
BRANCH   2   3
ATOM      3  C   UNL     1     176.764 174.003 151.099  1.00  0.00     0.041 C 
ATOM      4  O   UNL     1     177.343 173.777 150.004  1.00  0.00    -0.550 OA
ATOM      5  O   UNL     1     177.369 173.620 152.290  1.00  0.00    -0.550 OA
ENDBRANCH   2   3
ENDBRANCH   1   2
BRANCH   1   6
ATOM      6  C   UNL     1     174.386 176.970 150.618  1.00  0.00     0.000 C 
BRANCH   6   7
ATOM      7  C   UNL     1     173.641 177.975 151.521  1.00  0.00    -0.000 C 
BRANCH   7   8
ATOM      8  C   UNL     1     174.219 178.125 152.939  1.00  0.00    -0.003 C 
ATOM      9  C   UNL     1     173.365 177.442 154.006  1.00  0.00     0.004 C 
ENDBRANCH   7   8
ENDBRANCH   6   7
ENDBRANCH   1   6
TORSDOF 5
ENDMDL
MODEL 8
REMARK VINA RESULT:    -3.116      1.709      2.433
REMARK INTER + INTRA:          -4.390
REMARK INTER:                  -4.053
REMARK INTRA:                  -0.337
REMARK UNBOUND:                -0.363
REMARK SMILES CCCCCCC(=O)[O-]
REMARK SMILES IDX 5 1 6 2 7 3 8 4 9 5 4 6 3 7 2 8 1 9
REMARK H PARENT
REMARK Flexibility Score: inf
ROOT
ATOM      1  C   UNL     1     160.769 176.989 150.613  1.00  0.00     0.006 C 
ENDROOT
BRANCH   1   2
ATOM      2  C   UNL     1     160.850 175.571 151.199  1.00  0.00     0.053 C 
BRANCH   2   3
ATOM      3  C   UNL     1     159.770 175.319 152.205  1.00  0.00     0.041 C 
ATOM      4  O   UNL     1     159.826 175.854 153.343  1.00  0.00    -0.550 OA
ATOM      5  O   UNL     1     158.720 174.462 151.898  1.00  0.00    -0.550 OA
ENDBRANCH   2   3
ENDBRANCH   1   2
BRANCH   1   6
ATOM      6  C   UNL     1     162.069 177.808 150.744  1.00  0.00     0.000 C 
BRANCH   6   7
ATOM      7  C   UNL     1     163.272 177.037 151.326  1.00  0.00    -0.000 C 
BRANCH   7   8
ATOM      8  C   UNL     1     163.789 177.563 152.676  1.00  0.00    -0.003 C 
ATOM      9  C   UNL     1     162.672 177.796 153.692  1.00  0.00     0.004 C 
ENDBRANCH   7   8
ENDBRANCH   6   7
ENDBRANCH   1   6
TORSDOF 5
ENDMDL
