MODEL 1
REMARK VINA RESULT:    -7.498      0.000      0.000
REMARK INTER + INTRA:          -9.293
REMARK INTER:                  -9.033
REMARK INTRA:                  -0.260
REMARK UNBOUND:                -0.260
REMARK SMILES O=c1c(O)c(-c2ccc(O)c(O)c2)oc2cc(O)cc(O)c12
REMARK SMILES IDX 5 1 3 2 2 3 1 4 22 5 20 6 19 7 17 8 16 9 15 10 14 11 6 12
REMARK SMILES IDX 7 13 8 14 9 15 13 16 11 17 10 18 12 20 4 22 21 24 18 26
REMARK H PARENT 10 19 12 21 4 23 21 25 18 27
REMARK Flexibility Score: inf
ROOT
ATOM      1  C   UNL     1     168.642 145.012 154.289  1.00  0.00     0.180 A 
ATOM      2  C   UNL     1     168.610 143.646 154.619  1.00  0.00     0.208 A 
ATOM      3  C   UNL     1     168.483 142.698 153.590  1.00  0.00     0.238 A 
ATOM      4  O   UNL     1     168.509 141.476 153.888  1.00  0.00    -0.285 OA
ATOM      5  C   UNL     1     168.370 143.129 152.247  1.00  0.00     0.111 A 
ATOM      6  C   UNL     1     168.196 142.259 151.129  1.00  0.00     0.134 A 
ATOM      7  C   UNL     1     168.228 142.786 149.832  1.00  0.00     0.093 A 
ATOM      8  C   UNL     1     168.363 144.160 149.616  1.00  0.00     0.123 A 
ATOM      9  C   UNL     1     168.475 145.024 150.702  1.00  0.00     0.094 A 
ATOM     10  C   UNL     1     168.482 144.524 152.007  1.00  0.00     0.146 A 
ATOM     11  O   UNL     1     168.600 145.381 153.014  1.00  0.00    -0.452 OA
ENDROOT
BRANCH   1  12
ATOM     12  C   UNL     1     168.750 146.069 155.320  1.00  0.00     0.025 A 
ATOM     13  C   UNL     1     167.647 146.869 155.667  1.00  0.00     0.016 A 
ATOM     14  C   UNL     1     167.778 147.877 156.625  1.00  0.00     0.051 A 
ATOM     15  C   UNL     1     169.016 148.110 157.240  1.00  0.00     0.157 A 
ATOM     16  C   UNL     1     169.992 146.321 155.924  1.00  0.00     0.062 A 
ATOM     17  C   UNL     1     170.128 147.330 156.885  1.00  0.00     0.158 A 
BRANCH  15  18
ATOM     18  O   UNL     1     169.143 149.116 158.197  1.00  0.00    -0.504 OA
ATOM     19  H   UNL     1     168.332 149.552 158.621  1.00  0.00     0.293 HD
ENDBRANCH  15  18
BRANCH  17  20
ATOM     20  O   UNL     1     171.374 147.542 157.473  1.00  0.00    -0.504 OA
ATOM     21  H   UNL     1     172.234 147.512 156.939  1.00  0.00     0.293 HD
ENDBRANCH  17  20
ENDBRANCH   1  12
BRANCH   2  22
ATOM     22  O   UNL     1     168.744 143.242 155.950  1.00  0.00    -0.502 OA
ATOM     23  H   UNL     1     169.639 142.994 156.356  1.00  0.00     0.293 HD
ENDBRANCH   2  22
BRANCH   6  24
ATOM     24  O   UNL     1     167.961 140.885 151.239  1.00  0.00    -0.507 OA
ATOM     25  H   UNL     1     167.154 140.408 150.865  1.00  0.00     0.293 HD
ENDBRANCH   6  24
BRANCH   8  26
ATOM     26  O   UNL     1     168.379 144.677 148.322  1.00  0.00    -0.508 OA
ATOM     27  H   UNL     1     167.528 144.974 147.859  1.00  0.00     0.293 HD
ENDBRANCH   8  26
TORSDOF 6
ENDMDL
MODEL 2
REMARK VINA RESULT:    -7.404      8.451      9.613
REMARK INTER + INTRA:          -9.179
REMARK INTER:                  -8.932
REMARK INTRA:                  -0.248
REMARK UNBOUND:                -0.260
REMARK SMILES O=c1c(O)c(-c2ccc(O)c(O)c2)oc2cc(O)cc(O)c12
REMARK SMILES IDX 5 1 3 2 2 3 1 4 22 5 20 6 19 7 17 8 16 9 15 10 14 11 6 12
REMARK SMILES IDX 7 13 8 14 9 15 13 16 11 17 10 18 12 20 4 22 21 24 18 26
REMARK H PARENT 10 19 12 21 4 23 21 25 18 27
REMARK Flexibility Score: inf
ROOT
ATOM      1  C   UNL     1     165.138 153.219 151.152  1.00  0.00     0.180 A 
ATOM      2  C   UNL     1     164.228 152.302 151.707  1.00  0.00     0.208 A 
ATOM      3  C   UNL     1     163.922 151.131 150.995  1.00  0.00     0.238 A 
ATOM      4  O   UNL     1     163.148 150.289 151.521  1.00  0.00    -0.285 OA
ATOM      5  C   UNL     1     164.516 150.900 149.731  1.00  0.00     0.111 A 
ATOM      6  C   UNL     1     164.247 149.767 148.905  1.00  0.00     0.134 A 
ATOM      7  C   UNL     1     164.990 149.575 147.733  1.00  0.00     0.093 A 
ATOM      8  C   UNL     1     165.946 150.509 147.325  1.00  0.00     0.123 A 
ATOM      9  C   UNL     1     166.173 151.647 148.094  1.00  0.00     0.094 A 
ATOM     10  C   UNL     1     165.474 151.848 149.287  1.00  0.00     0.146 A 
ATOM     11  O   UNL     1     165.728 152.942 149.995  1.00  0.00    -0.452 OA
ENDROOT
BRANCH   1  12
ATOM     12  C   UNL     1     165.491 154.487 151.831  1.00  0.00     0.025 A 
ATOM     13  C   UNL     1     166.321 154.503 152.965  1.00  0.00     0.016 A 
ATOM     14  C   UNL     1     166.622 155.709 153.604  1.00  0.00     0.051 A 
ATOM     15  C   UNL     1     166.087 156.914 153.127  1.00  0.00     0.157 A 
ATOM     16  C   UNL     1     164.941 155.694 151.370  1.00  0.00     0.062 A 
ATOM     17  C   UNL     1     165.240 156.905 152.007  1.00  0.00     0.158 A 
BRANCH  15  18
ATOM     18  O   UNL     1     166.390 158.116 153.766  1.00  0.00    -0.504 OA
ATOM     19  H   UNL     1     166.515 158.166 154.771  1.00  0.00     0.293 HD
ENDBRANCH  15  18
BRANCH  17  20
ATOM     20  O   UNL     1     164.686 158.085 151.513  1.00  0.00    -0.504 OA
ATOM     21  H   UNL     1     165.013 158.997 151.807  1.00  0.00     0.293 HD
ENDBRANCH  17  20
ENDBRANCH   1  12
BRANCH   2  22
ATOM     22  O   UNL     1     163.670 152.540 152.966  1.00  0.00    -0.502 OA
ATOM     23  H   UNL     1     164.198 152.955 153.725  1.00  0.00     0.293 HD
ENDBRANCH   2  22
BRANCH   6  24
ATOM     24  O   UNL     1     163.250 148.824 149.173  1.00  0.00    -0.507 OA
ATOM     25  H   UNL     1     162.264 148.969 149.014  1.00  0.00     0.293 HD
ENDBRANCH   6  24
BRANCH   8  26
ATOM     26  O   UNL     1     166.669 150.318 146.150  1.00  0.00    -0.508 OA
ATOM     27  H   UNL     1     166.436 149.578 145.498  1.00  0.00     0.293 HD
ENDBRANCH   8  26
TORSDOF 6
ENDMDL
MODEL 3
REMARK VINA RESULT:    -7.368      8.439      9.336
REMARK INTER + INTRA:          -9.135
REMARK INTER:                  -8.812
REMARK INTRA:                  -0.323
REMARK UNBOUND:                -0.260
REMARK SMILES O=c1c(O)c(-c2ccc(O)c(O)c2)oc2cc(O)cc(O)c12
REMARK SMILES IDX 5 1 3 2 2 3 1 4 22 5 20 6 19 7 17 8 16 9 15 10 14 11 6 12
REMARK SMILES IDX 7 13 8 14 9 15 13 16 11 17 10 18 12 20 4 22 21 24 18 26
REMARK H PARENT 10 19 12 21 4 23 21 25 18 27
REMARK Flexibility Score: inf
ROOT
ATOM      1  C   UNL     1     167.372 152.887 149.319  1.00  0.00     0.180 A 
ATOM      2  C   UNL     1     168.659 152.946 148.759  1.00  0.00     0.208 A 
ATOM      3  C   UNL     1     169.020 152.009 147.777  1.00  0.00     0.238 A 
ATOM      4  O   UNL     1     170.155 152.101 147.241  1.00  0.00    -0.285 OA
ATOM      5  C   UNL     1     168.095 151.014 147.381  1.00  0.00     0.111 A 
ATOM      6  C   UNL     1     168.367 149.990 146.424  1.00  0.00     0.134 A 
ATOM      7  C   UNL     1     167.334 149.138 146.012  1.00  0.00     0.093 A 
ATOM      8  C   UNL     1     166.056 149.233 146.569  1.00  0.00     0.123 A 
ATOM      9  C   UNL     1     165.797 150.191 147.546  1.00  0.00     0.094 A 
ATOM     10  C   UNL     1     166.797 151.078 147.952  1.00  0.00     0.146 A 
ATOM     11  O   UNL     1     166.505 151.983 148.879  1.00  0.00    -0.452 OA
ENDROOT
BRANCH   1  12
ATOM     12  C   UNL     1     166.928 153.824 150.376  1.00  0.00     0.025 A 
ATOM     13  C   UNL     1     166.317 155.049 150.058  1.00  0.00     0.016 A 
ATOM     14  C   UNL     1     165.928 155.929 151.071  1.00  0.00     0.051 A 
ATOM     15  C   UNL     1     166.157 155.605 152.415  1.00  0.00     0.157 A 
ATOM     16  C   UNL     1     167.174 153.513 151.723  1.00  0.00     0.062 A 
ATOM     17  C   UNL     1     166.786 154.393 152.741  1.00  0.00     0.158 A 
BRANCH  15  18
ATOM     18  O   UNL     1     165.766 156.485 153.424  1.00  0.00    -0.504 OA
ATOM     19  H   UNL     1     165.267 157.342 153.217  1.00  0.00     0.293 HD
ENDBRANCH  15  18
BRANCH  17  20
ATOM     20  O   UNL     1     167.035 154.044 154.068  1.00  0.00    -0.504 OA
ATOM     21  H   UNL     1     166.535 153.295 154.530  1.00  0.00     0.293 HD
ENDBRANCH  17  20
ENDBRANCH   1  12
BRANCH   2  22
ATOM     22  O   UNL     1     169.550 153.950 149.150  1.00  0.00    -0.502 OA
ATOM     23  H   UNL     1     169.368 154.933 148.984  1.00  0.00     0.293 HD
ENDBRANCH   2  22
BRANCH   6  24
ATOM     24  O   UNL     1     169.629 149.750 145.875  1.00  0.00    -0.507 OA
ATOM     25  H   UNL     1     170.414 149.367 146.382  1.00  0.00     0.293 HD
ENDBRANCH   6  24
BRANCH   8  26
ATOM     26  O   UNL     1     165.039 148.372 146.164  1.00  0.00    -0.508 OA
ATOM     27  H   UNL     1     164.374 148.637 145.446  1.00  0.00     0.293 HD
ENDBRANCH   8  26
TORSDOF 6
ENDMDL
MODEL 4
REMARK VINA RESULT:    -7.356      7.566      8.850
REMARK INTER + INTRA:          -9.121
REMARK INTER:                  -8.816
REMARK INTRA:                  -0.305
REMARK UNBOUND:                -0.260
REMARK SMILES O=c1c(O)c(-c2ccc(O)c(O)c2)oc2cc(O)cc(O)c12
REMARK SMILES IDX 5 1 3 2 2 3 1 4 22 5 20 6 19 7 17 8 16 9 15 10 14 11 6 12
REMARK SMILES IDX 7 13 8 14 9 15 13 16 11 17 10 18 12 20 4 22 21 24 18 26
REMARK H PARENT 10 19 12 21 4 23 21 25 18 27
REMARK Flexibility Score: inf
ROOT
ATOM      1  C   UNL     1     164.814 151.688 150.052  1.00  0.00     0.180 A 
ATOM      2  C   UNL     1     165.304 151.641 148.736  1.00  0.00     0.208 A 
ATOM      3  C   UNL     1     165.099 150.480 147.973  1.00  0.00     0.238 A 
ATOM      4  O   UNL     1     165.494 150.465 146.778  1.00  0.00    -0.285 OA
ATOM      5  C   UNL     1     164.422 149.375 148.541  1.00  0.00     0.111 A 
ATOM      6  C   UNL     1     164.193 148.134 147.873  1.00  0.00     0.134 A 
ATOM      7  C   UNL     1     163.397 147.157 148.485  1.00  0.00     0.093 A 
ATOM      8  C   UNL     1     162.876 147.351 149.766  1.00  0.00     0.123 A 
ATOM      9  C   UNL     1     163.142 148.535 150.449  1.00  0.00     0.094 A 
ATOM     10  C   UNL     1     163.903 149.543 149.851  1.00  0.00     0.146 A 
ATOM     11  O   UNL     1     164.125 150.660 150.534  1.00  0.00    -0.452 OA
ENDROOT
BRANCH   1  12
ATOM     12  C   UNL     1     165.012 152.866 150.926  1.00  0.00     0.025 A 
ATOM     13  C   UNL     1     164.169 153.988 150.846  1.00  0.00     0.016 A 
ATOM     14  C   UNL     1     164.390 155.099 151.663  1.00  0.00     0.051 A 
ATOM     15  C   UNL     1     165.465 155.112 152.563  1.00  0.00     0.157 A 
ATOM     16  C   UNL     1     166.101 152.893 151.814  1.00  0.00     0.062 A 
ATOM     17  C   UNL     1     166.326 154.005 152.634  1.00  0.00     0.158 A 
BRANCH  15  18
ATOM     18  O   UNL     1     165.682 156.222 153.378  1.00  0.00    -0.504 OA
ATOM     19  H   UNL     1     165.976 157.113 152.994  1.00  0.00     0.293 HD
ENDBRANCH  15  18
BRANCH  17  20
ATOM     20  O   UNL     1     167.408 153.990 153.513  1.00  0.00    -0.504 OA
ATOM     21  H   UNL     1     168.274 153.514 153.292  1.00  0.00     0.293 HD
ENDBRANCH  17  20
ENDBRANCH   1  12
BRANCH   2  22
ATOM     22  O   UNL     1     165.952 152.752 148.188  1.00  0.00    -0.502 OA
ATOM     23  H   UNL     1     166.630 153.297 148.707  1.00  0.00     0.293 HD
ENDBRANCH   2  22
BRANCH   6  24
ATOM     24  O   UNL     1     164.744 147.803 146.632  1.00  0.00    -0.507 OA
ATOM     25  H   UNL     1     165.522 148.281 146.202  1.00  0.00     0.293 HD
ENDBRANCH   6  24
BRANCH   8  26
ATOM     26  O   UNL     1     162.097 146.368 150.373  1.00  0.00    -0.508 OA
ATOM     27  H   UNL     1     161.637 145.646 149.830  1.00  0.00     0.293 HD
ENDBRANCH   8  26
TORSDOF 6
ENDMDL
MODEL 5
REMARK VINA RESULT:    -7.348      8.680      9.960
REMARK INTER + INTRA:          -9.111
REMARK INTER:                  -8.826
REMARK INTRA:                  -0.285
REMARK UNBOUND:                -0.260
REMARK SMILES O=c1c(O)c(-c2ccc(O)c(O)c2)oc2cc(O)cc(O)c12
REMARK SMILES IDX 5 1 3 2 2 3 1 4 22 5 20 6 19 7 17 8 16 9 15 10 14 11 6 12
REMARK SMILES IDX 7 13 8 14 9 15 13 16 11 17 10 18 12 20 4 22 21 24 18 26
REMARK H PARENT 10 19 12 21 4 23 21 25 18 27
REMARK Flexibility Score: inf
ROOT
ATOM      1  C   UNL     1     166.375 153.502 150.095  1.00  0.00     0.180 A 
ATOM      2  C   UNL     1     167.421 153.411 149.161  1.00  0.00     0.208 A 
ATOM      3  C   UNL     1     167.440 152.331 148.263  1.00  0.00     0.238 A 
ATOM      4  O   UNL     1     168.350 152.284 147.394  1.00  0.00    -0.285 OA
ATOM      5  C   UNL     1     166.424 151.349 148.322  1.00  0.00     0.111 A 
ATOM      6  C   UNL     1     166.366 150.192 147.487  1.00  0.00     0.134 A 
ATOM      7  C   UNL     1     165.244 149.355 147.544  1.00  0.00     0.093 A 
ATOM      8  C   UNL     1     164.209 149.598 148.450  1.00  0.00     0.123 A 
ATOM      9  C   UNL     1     164.284 150.692 149.309  1.00  0.00     0.094 A 
ATOM     10  C   UNL     1     165.373 151.565 149.251  1.00  0.00     0.146 A 
ATOM     11  O   UNL     1     165.401 152.600 150.082  1.00  0.00    -0.452 OA
ENDROOT
BRANCH   1  12
ATOM     12  C   UNL     1     166.301 154.597 151.090  1.00  0.00     0.025 A 
ATOM     13  C   UNL     1     166.664 154.393 152.432  1.00  0.00     0.016 A 
ATOM     14  C   UNL     1     166.563 155.434 153.358  1.00  0.00     0.051 A 
ATOM     15  C   UNL     1     166.084 156.690 152.960  1.00  0.00     0.157 A 
ATOM     16  C   UNL     1     165.802 155.851 150.701  1.00  0.00     0.062 A 
ATOM     17  C   UNL     1     165.698 156.897 151.626  1.00  0.00     0.158 A 
BRANCH  15  18
ATOM     18  O   UNL     1     165.985 157.727 153.887  1.00  0.00    -0.504 OA
ATOM     19  H   UNL     1     165.190 157.808 154.510  1.00  0.00     0.293 HD
ENDBRANCH  15  18
BRANCH  17  20
ATOM     20  O   UNL     1     165.211 158.132 151.200  1.00  0.00    -0.504 OA
ATOM     21  H   UNL     1     165.750 158.984 151.294  1.00  0.00     0.293 HD
ENDBRANCH  17  20
ENDBRANCH   1  12
BRANCH   2  22
ATOM     22  O   UNL     1     168.403 154.404 149.106  1.00  0.00    -0.502 OA
ATOM     23  H   UNL     1     168.549 155.067 149.859  1.00  0.00     0.293 HD
ENDBRANCH   2  22
BRANCH   6  24
ATOM     24  O   UNL     1     167.388 149.807 146.615  1.00  0.00    -0.507 OA
ATOM     25  H   UNL     1     168.280 149.435 146.902  1.00  0.00     0.293 HD
ENDBRANCH   6  24
BRANCH   8  26
ATOM     26  O   UNL     1     163.104 148.752 148.510  1.00  0.00    -0.508 OA
ATOM     27  H   UNL     1     162.733 148.426 149.395  1.00  0.00     0.293 HD
ENDBRANCH   8  26
TORSDOF 6
ENDMDL
MODEL 6
REMARK VINA RESULT:    -7.030      8.482      9.378
REMARK INTER + INTRA:          -8.729
REMARK INTER:                  -8.454
REMARK INTRA:                  -0.275
REMARK UNBOUND:                -0.260
REMARK SMILES O=c1c(O)c(-c2ccc(O)c(O)c2)oc2cc(O)cc(O)c12
REMARK SMILES IDX 5 1 3 2 2 3 1 4 22 5 20 6 19 7 17 8 16 9 15 10 14 11 6 12
REMARK SMILES IDX 7 13 8 14 9 15 13 16 11 17 10 18 12 20 4 22 21 24 18 26
REMARK H PARENT 10 19 12 21 4 23 21 25 18 27
REMARK Flexibility Score: inf
ROOT
ATOM      1  C   UNL     1     165.676 152.482 150.136  1.00  0.00     0.180 A 
ATOM      2  C   UNL     1     165.191 151.372 149.422  1.00  0.00     0.208 A 
ATOM      3  C   UNL     1     165.925 150.895 148.324  1.00  0.00     0.238 A 
ATOM      4  O   UNL     1     165.513 149.869 147.722  1.00  0.00    -0.285 OA
ATOM      5  C   UNL     1     167.124 151.543 147.943  1.00  0.00     0.111 A 
ATOM      6  C   UNL     1     167.927 151.170 146.823  1.00  0.00     0.134 A 
ATOM      7  C   UNL     1     169.161 151.799 146.618  1.00  0.00     0.093 A 
ATOM      8  C   UNL     1     169.591 152.832 147.455  1.00  0.00     0.123 A 
ATOM      9  C   UNL     1     168.788 153.243 148.515  1.00  0.00     0.094 A 
ATOM     10  C   UNL     1     167.568 152.610 148.767  1.00  0.00     0.146 A 
ATOM     11  O   UNL     1     166.837 153.027 149.795  1.00  0.00    -0.452 OA
ENDROOT
BRANCH   1  12
ATOM     12  C   UNL     1     164.946 153.057 151.289  1.00  0.00     0.025 A 
ATOM     13  C   UNL     1     163.779 153.820 151.110  1.00  0.00     0.016 A 
ATOM     14  C   UNL     1     163.120 154.373 152.210  1.00  0.00     0.051 A 
ATOM     15  C   UNL     1     163.624 154.184 153.505  1.00  0.00     0.157 A 
ATOM     16  C   UNL     1     165.458 152.888 152.586  1.00  0.00     0.062 A 
ATOM     17  C   UNL     1     164.801 153.441 153.691  1.00  0.00     0.158 A 
BRANCH  15  18
ATOM     18  O   UNL     1     162.964 154.736 154.602  1.00  0.00    -0.504 OA
ATOM     19  H   UNL     1     162.451 154.159 155.258  1.00  0.00     0.293 HD
ENDBRANCH  15  18
BRANCH  17  20
ATOM     20  O   UNL     1     165.333 153.240 154.965  1.00  0.00    -0.504 OA
ATOM     21  H   UNL     1     165.930 153.924 155.412  1.00  0.00     0.293 HD
ENDBRANCH  17  20
ENDBRANCH   1  12
BRANCH   2  22
ATOM     22  O   UNL     1     164.016 150.734 149.828  1.00  0.00    -0.502 OA
ATOM     23  H   UNL     1     163.558 150.945 150.708  1.00  0.00     0.293 HD
ENDBRANCH   2  22
BRANCH   6  24
ATOM     24  O   UNL     1     167.547 150.216 145.875  1.00  0.00    -0.507 OA
ATOM     25  H   UNL     1     167.957 149.298 145.787  1.00  0.00     0.293 HD
ENDBRANCH   6  24
BRANCH   8  26
ATOM     26  O   UNL     1     170.814 153.463 147.234  1.00  0.00    -0.508 OA
ATOM     27  H   UNL     1     171.423 153.187 146.472  1.00  0.00     0.293 HD
ENDBRANCH   8  26
TORSDOF 6
ENDMDL
MODEL 7
REMARK VINA RESULT:    -7.026      8.805      9.523
REMARK INTER + INTRA:          -8.724
REMARK INTER:                  -8.393
REMARK INTRA:                  -0.331
REMARK UNBOUND:                -0.260
REMARK SMILES O=c1c(O)c(-c2ccc(O)c(O)c2)oc2cc(O)cc(O)c12
REMARK SMILES IDX 5 1 3 2 2 3 1 4 22 5 20 6 19 7 17 8 16 9 15 10 14 11 6 12
REMARK SMILES IDX 7 13 8 14 9 15 13 16 11 17 10 18 12 20 4 22 21 24 18 26
REMARK H PARENT 10 19 12 21 4 23 21 25 18 27
REMARK Flexibility Score: inf
ROOT
ATOM      1  C   UNL     1     167.082 153.089 149.582  1.00  0.00     0.180 A 
ATOM      2  C   UNL     1     166.170 152.251 148.917  1.00  0.00     0.208 A 
ATOM      3  C   UNL     1     166.656 151.317 147.987  1.00  0.00     0.238 A 
ATOM      4  O   UNL     1     165.840 150.534 147.435  1.00  0.00    -0.285 OA
ATOM      5  C   UNL     1     168.044 151.245 147.722  1.00  0.00     0.111 A 
ATOM      6  C   UNL     1     168.642 150.364 146.771  1.00  0.00     0.134 A 
ATOM      7  C   UNL     1     170.038 150.286 146.685  1.00  0.00     0.093 A 
ATOM      8  C   UNL     1     170.855 151.103 147.470  1.00  0.00     0.123 A 
ATOM      9  C   UNL     1     170.280 152.007 148.359  1.00  0.00     0.094 A 
ATOM     10  C   UNL     1     168.891 152.083 148.494  1.00  0.00     0.146 A 
ATOM     11  O   UNL     1     168.384 152.952 149.360  1.00  0.00    -0.452 OA
ENDROOT
BRANCH   1  12
ATOM     12  C   UNL     1     166.644 154.115 150.556  1.00  0.00     0.025 A 
ATOM     13  C   UNL     1     166.248 155.398 150.141  1.00  0.00     0.016 A 
ATOM     14  C   UNL     1     165.862 156.357 151.080  1.00  0.00     0.051 A 
ATOM     15  C   UNL     1     165.877 156.053 152.448  1.00  0.00     0.157 A 
ATOM     16  C   UNL     1     166.677 153.822 151.929  1.00  0.00     0.062 A 
ATOM     17  C   UNL     1     166.291 154.781 152.874  1.00  0.00     0.158 A 
BRANCH  15  18
ATOM     18  O   UNL     1     165.489 157.013 153.383  1.00  0.00    -0.504 OA
ATOM     19  H   UNL     1     164.545 157.044 153.750  1.00  0.00     0.293 HD
ENDBRANCH  15  18
BRANCH  17  20
ATOM     20  O   UNL     1     166.324 154.449 154.228  1.00  0.00    -0.504 OA
ATOM     21  H   UNL     1     165.525 154.051 154.704  1.00  0.00     0.293 HD
ENDBRANCH  17  20
ENDBRANCH   1  12
BRANCH   2  22
ATOM     22  O   UNL     1     164.806 152.325 149.210  1.00  0.00    -0.502 OA
ATOM     23  H   UNL     1     164.151 151.601 148.938  1.00  0.00     0.293 HD
ENDBRANCH   2  22
BRANCH   6  24
ATOM     24  O   UNL     1     167.917 149.574 145.875  1.00  0.00    -0.507 OA
ATOM     25  H   UNL     1     167.862 148.567 145.910  1.00  0.00     0.293 HD
ENDBRANCH   6  24
BRANCH   8  26
ATOM     26  O   UNL     1     172.243 151.029 147.368  1.00  0.00    -0.508 OA
ATOM     27  H   UNL     1     172.778 151.746 146.892  1.00  0.00     0.293 HD
ENDBRANCH   8  26
TORSDOF 6
ENDMDL
MODEL 8
REMARK VINA RESULT:    -7.009      9.217     11.767
REMARK INTER + INTRA:          -8.704
REMARK INTER:                  -8.428
REMARK INTRA:                  -0.275
REMARK UNBOUND:                -0.260
REMARK SMILES O=c1c(O)c(-c2ccc(O)c(O)c2)oc2cc(O)cc(O)c12
REMARK SMILES IDX 5 1 3 2 2 3 1 4 22 5 20 6 19 7 17 8 16 9 15 10 14 11 6 12
REMARK SMILES IDX 7 13 8 14 9 15 13 16 11 17 10 18 12 20 4 22 21 24 18 26
REMARK H PARENT 10 19 12 21 4 23 21 25 18 27
REMARK Flexibility Score: inf
ROOT
ATOM      1  C   UNL     1     166.241 153.445 149.900  1.00  0.00     0.180 A 
ATOM      2  C   UNL     1     165.324 152.692 150.653  1.00  0.00     0.208 A 
ATOM      3  C   UNL     1     164.586 153.329 151.664  1.00  0.00     0.238 A 
ATOM      4  O   UNL     1     163.728 152.661 152.298  1.00  0.00    -0.285 OA
ATOM      5  C   UNL     1     164.788 154.706 151.921  1.00  0.00     0.111 A 
ATOM      6  C   UNL     1     164.126 155.444 152.947  1.00  0.00     0.134 A 
ATOM      7  C   UNL     1     164.306 156.831 153.026  1.00  0.00     0.093 A 
ATOM      8  C   UNL     1     165.173 157.496 152.156  1.00  0.00     0.123 A 
ATOM      9  C   UNL     1     165.869 156.775 151.189  1.00  0.00     0.094 A 
ATOM     10  C   UNL     1     165.684 155.396 151.062  1.00  0.00     0.146 A 
ATOM     11  O   UNL     1     166.359 154.749 150.121  1.00  0.00    -0.452 OA
ENDROOT
BRANCH   1  12
ATOM     12  C   UNL     1     167.071 152.838 148.835  1.00  0.00     0.025 A 
ATOM     13  C   UNL     1     166.534 152.530 147.573  1.00  0.00     0.016 A 
ATOM     14  C   UNL     1     167.330 151.935 146.591  1.00  0.00     0.051 A 
ATOM     15  C   UNL     1     168.671 151.628 146.859  1.00  0.00     0.157 A 
ATOM     16  C   UNL     1     168.410 152.509 149.105  1.00  0.00     0.062 A 
ATOM     17  C   UNL     1     169.211 151.913 148.123  1.00  0.00     0.158 A 
BRANCH  15  18
ATOM     18  O   UNL     1     169.464 151.036 145.876  1.00  0.00    -0.504 OA
ATOM     19  H   UNL     1     169.231 151.109 144.892  1.00  0.00     0.293 HD
ENDBRANCH  15  18
BRANCH  17  20
ATOM     20  O   UNL     1     170.539 151.613 148.424  1.00  0.00    -0.504 OA
ATOM     21  H   UNL     1     171.272 152.310 148.378  1.00  0.00     0.293 HD
ENDBRANCH  17  20
ENDBRANCH   1  12
BRANCH   2  22
ATOM     22  O   UNL     1     165.125 151.338 150.368  1.00  0.00    -0.502 OA
ATOM     23  H   UNL     1     164.424 150.780 150.841  1.00  0.00     0.293 HD
ENDBRANCH   2  22
BRANCH   6  24
ATOM     24  O   UNL     1     163.311 154.865 153.924  1.00  0.00    -0.507 OA
ATOM     25  H   UNL     1     162.337 155.088 154.067  1.00  0.00     0.293 HD
ENDBRANCH   6  24
BRANCH   8  26
ATOM     26  O   UNL     1     165.357 158.873 152.251  1.00  0.00    -0.508 OA
ATOM     27  H   UNL     1     164.806 159.440 152.886  1.00  0.00     0.293 HD
ENDBRANCH   8  26
TORSDOF 6
ENDMDL
MODEL 9
REMARK VINA RESULT:    -6.874      1.639      7.215
REMARK INTER + INTRA:          -8.540
REMARK INTER:                  -8.236
REMARK INTRA:                  -0.304
REMARK UNBOUND:                -0.260
REMARK SMILES O=c1c(O)c(-c2ccc(O)c(O)c2)oc2cc(O)cc(O)c12
REMARK SMILES IDX 5 1 3 2 2 3 1 4 22 5 20 6 19 7 17 8 16 9 15 10 14 11 6 12
REMARK SMILES IDX 7 13 8 14 9 15 13 16 11 17 10 18 12 20 4 22 21 24 18 26
REMARK H PARENT 10 19 12 21 4 23 21 25 18 27
REMARK Flexibility Score: inf
ROOT
ATOM      1  C   UNL     1     169.185 145.480 154.967  1.00  0.00     0.180 A 
ATOM      2  C   UNL     1     168.243 146.350 155.541  1.00  0.00     0.208 A 
ATOM      3  C   UNL     1     168.637 147.174 156.609  1.00  0.00     0.238 A 
ATOM      4  O   UNL     1     167.803 147.988 157.083  1.00  0.00    -0.285 OA
ATOM      5  C   UNL     1     169.963 147.104 157.099  1.00  0.00     0.111 A 
ATOM      6  C   UNL     1     170.460 147.862 158.202  1.00  0.00     0.134 A 
ATOM      7  C   UNL     1     171.823 147.809 158.517  1.00  0.00     0.093 A 
ATOM      8  C   UNL     1     172.695 146.977 157.810  1.00  0.00     0.123 A 
ATOM      9  C   UNL     1     172.207 146.188 156.771  1.00  0.00     0.094 A 
ATOM     10  C   UNL     1     170.859 146.246 156.409  1.00  0.00     0.146 A 
ATOM     11  O   UNL     1     170.438 145.485 155.406  1.00  0.00    -0.452 OA
ENDROOT
BRANCH   1  12
ATOM     12  C   UNL     1     168.838 144.565 153.856  1.00  0.00     0.025 A 
ATOM     13  C   UNL     1     168.808 145.010 152.523  1.00  0.00     0.016 A 
ATOM     14  C   UNL     1     168.454 144.135 151.493  1.00  0.00     0.051 A 
ATOM     15  C   UNL     1     168.111 142.806 151.781  1.00  0.00     0.157 A 
ATOM     16  C   UNL     1     168.473 143.239 154.141  1.00  0.00     0.062 A 
ATOM     17  C   UNL     1     168.117 142.359 153.112  1.00  0.00     0.158 A 
BRANCH  15  18
ATOM     18  O   UNL     1     167.759 141.935 150.750  1.00  0.00    -0.504 OA
ATOM     19  H   UNL     1     167.752 142.234 149.782  1.00  0.00     0.293 HD
ENDBRANCH  15  18
BRANCH  17  20
ATOM     20  O   UNL     1     167.774 141.046 153.432  1.00  0.00    -0.504 OA
ATOM     21  H   UNL     1     167.310 140.807 154.299  1.00  0.00     0.293 HD
ENDBRANCH  17  20
ENDBRANCH   1  12
BRANCH   2  22
ATOM     22  O   UNL     1     166.945 146.418 155.028  1.00  0.00    -0.502 OA
ATOM     23  H   UNL     1     166.707 146.082 154.102  1.00  0.00     0.293 HD
ENDBRANCH   2  22
BRANCH   6  24
ATOM     24  O   UNL     1     169.658 148.653 159.029  1.00  0.00    -0.507 OA
ATOM     25  H   UNL     1     169.413 148.425 159.981  1.00  0.00     0.293 HD
ENDBRANCH   6  24
BRANCH   8  26
ATOM     26  O   UNL     1     174.047 146.920 158.140  1.00  0.00    -0.508 OA
ATOM     27  H   UNL     1     174.356 146.876 159.104  1.00  0.00     0.293 HD
ENDBRANCH   8  26
TORSDOF 6
ENDMDL
