MODEL 1
REMARK VINA RESULT:    -3.052      0.000      0.000
REMARK INTER + INTRA:          -4.824
REMARK INTER:                  -4.658
REMARK INTRA:                  -0.165
REMARK UNBOUND:                -0.165
REMARK SMILES CC1=CCC[C@@H](C)C(=O)C[C@@H](C(C)C)C(=O)C1
REMARK SMILES IDX 8 1 9 2 6 3 7 4 5 5 4 6 3 7 2 8 1 9 10 11 11 12 15 13 16 14
REMARK SMILES IDX 17 15 12 17 13 18 14 19
REMARK H PARENT
REMARK Flexibility Score: 70.00
ROOT
ATOM      1  C   UNL     1       8.138 -33.257  14.264  1.00  0.00     0.136 C 
ATOM      2  O   UNL     1       8.086 -32.451  13.344  1.00  0.00    -0.299 OA
ENDROOT
BRANCH   1   3
ATOM      3  C   UNL     1       9.015 -34.485  14.135  1.00  0.00     0.053 C 
ATOM      4  C   UNL     1      10.407 -34.066  13.653  1.00  0.00     0.016 C 
BRANCH   3   5
ATOM      5  C   UNL     1       8.412 -35.537  13.172  1.00  0.00     0.015 C 
BRANCH   5   6
ATOM      6  C   UNL     1       6.896 -35.736  13.332  1.00  0.00     0.028 C 
BRANCH   6   7
ATOM      7  C   UNL     1       6.584 -36.895  14.248  1.00  0.00    -0.028 C 
ATOM      8  C   UNL     1       6.165 -36.782  15.530  1.00  0.00    -0.070 CG0
ATOM      9  C   UNL     1       5.880 -38.047  16.297  1.00  0.00     0.039 C 
ATOM     10  G   UNL     1       5.967 -35.442  16.216  1.00  0.00     0.000 G0
ENDBRANCH   6   7
ENDBRANCH   5   6
ENDBRANCH   3   5
ENDBRANCH   1   3
BRANCH   1  11
ATOM     11  C   UNL     1       7.360 -32.975  15.529  1.00  0.00     0.087 C 
BRANCH  11  12
ATOM     12  C   UNL     1       7.916 -33.716  16.772  1.00  0.00     0.066 C 
BRANCH  12  13
ATOM     13  C   UNL     1       7.103 -34.968  17.089  1.00  0.00     0.140 C 
ATOM     14  O   UNL     1       7.418 -35.653  18.050  1.00  0.00    -0.299 OA
BRANCH  13  15
ATOM     15  C   UNL     1       5.940 -35.435  16.235  1.00  0.00     0.106 CG0
ATOM     16  G   UNL     1       6.175 -36.758  15.529  1.00  0.00     0.000 G0
ENDBRANCH  13  15
ENDBRANCH  12  13
BRANCH  12  17
ATOM     17  C   UNL     1       8.047 -32.759  17.997  1.00  0.00    -0.006 C 
ATOM     18  C   UNL     1       6.790 -31.892  18.167  1.00  0.00     0.008 C 
ATOM     19  C   UNL     1       9.297 -31.861  17.968  1.00  0.00     0.008 C 
ENDBRANCH  12  17
ENDBRANCH  11  12
ENDBRANCH   1  11
TORSDOF 1
ENDMDL
MODEL 2
REMARK VINA RESULT:    -2.883      1.772      4.928
REMARK INTER + INTRA:          -4.566
REMARK INTER:                  -4.442
REMARK INTRA:                  -0.124
REMARK UNBOUND:                -0.165
REMARK SMILES CC1=CCC[C@@H](C)C(=O)C[C@@H](C(C)C)C(=O)C1
REMARK SMILES IDX 8 1 9 2 6 3 7 4 5 5 4 6 3 7 2 8 1 9 10 11 11 12 15 13 16 14
REMARK SMILES IDX 17 15 12 17 13 18 14 19
REMARK H PARENT
REMARK Flexibility Score: 70.00
ROOT
ATOM      1  C   UNL     1       6.953 -34.727  17.405  1.00  0.00     0.136 C 
ATOM      2  O   UNL     1       7.449 -35.659  18.022  1.00  0.00    -0.299 OA
ENDROOT
BRANCH   1   3
ATOM      3  C   UNL     1       7.330 -33.305  17.767  1.00  0.00     0.053 C 
ATOM      4  C   UNL     1       6.375 -32.333  17.066  1.00  0.00     0.016 C 
BRANCH   3   5
ATOM      5  C   UNL     1       8.795 -32.974  17.392  1.00  0.00     0.015 C 
BRANCH   5   6
ATOM      6  C   UNL     1       8.943 -32.183  16.082  1.00  0.00     0.028 C 
BRANCH   6   7
ATOM      7  C   UNL     1       9.588 -33.018  15.002  1.00  0.00    -0.028 C 
ATOM      8  C   UNL     1       8.942 -33.544  13.935  1.00  0.00    -0.070 CG0
ATOM      9  C   UNL     1       9.747 -34.339  12.939  1.00  0.00     0.039 C 
ATOM     10  G   UNL     1       7.453 -33.360  13.701  1.00  0.00     0.000 G0
ENDBRANCH   6   7
ENDBRANCH   5   6
ENDBRANCH   3   5
ENDBRANCH   1   3
BRANCH   1  11
ATOM     11  C   UNL     1       6.013 -35.024  16.259  1.00  0.00     0.087 C 
BRANCH  11  12
ATOM     12  C   UNL     1       6.728 -35.588  15.005  1.00  0.00     0.066 C 
BRANCH  12  13
ATOM     13  C   UNL     1       6.624 -34.631  13.822  1.00  0.00     0.140 C 
ATOM     14  O   UNL     1       5.877 -34.910  12.896  1.00  0.00    -0.299 OA
BRANCH  13  15
ATOM     15  C   UNL     1       7.445 -33.360  13.713  1.00  0.00     0.106 CG0
ATOM     16  G   UNL     1       8.934 -33.558  13.931  1.00  0.00     0.000 G0
ENDBRANCH  13  15
ENDBRANCH  12  13
BRANCH  12  17
ATOM     17  C   UNL     1       6.228 -37.026  14.660  1.00  0.00    -0.006 C 
ATOM     18  C   UNL     1       5.926 -37.834  15.932  1.00  0.00     0.008 C 
ATOM     19  C   UNL     1       7.179 -37.825  13.751  1.00  0.00     0.008 C 
ENDBRANCH  12  17
ENDBRANCH  11  12
ENDBRANCH   1  11
TORSDOF 1
ENDMDL
MODEL 3
REMARK VINA RESULT:    -2.413      1.879      2.622
REMARK INTER + INTRA:          -3.848
REMARK INTER:                  -4.058
REMARK INTRA:                   0.211
REMARK UNBOUND:                -0.165
REMARK SMILES CC1=CCC[C@@H](C)C(=O)C[C@@H](C(C)C)C(=O)C1
REMARK SMILES IDX 8 1 9 2 6 3 7 4 5 5 4 6 3 7 2 8 1 9 10 11 11 12 15 13 16 14
REMARK SMILES IDX 17 15 12 17 13 18 14 19
REMARK H PARENT
REMARK Flexibility Score: 70.00
ROOT
ATOM      1  C   UNL     1       9.086 -33.838  14.804  1.00  0.00     0.136 C 
ATOM      2  O   UNL     1       9.859 -34.730  15.129  1.00  0.00    -0.299 OA
ENDROOT
BRANCH   1   3
ATOM      3  C   UNL     1       8.044 -34.102  13.737  1.00  0.00     0.053 C 
ATOM      4  C   UNL     1       7.198 -32.842  13.531  1.00  0.00     0.016 C 
BRANCH   3   5
ATOM      5  C   UNL     1       7.132 -35.302  14.094  1.00  0.00     0.015 C 
BRANCH   5   6
ATOM      6  C   UNL     1       6.385 -35.146  15.429  1.00  0.00     0.028 C 
BRANCH   6   7
ATOM      7  C   UNL     1       7.055 -35.930  16.532  1.00  0.00    -0.028 C 
ATOM      8  C   UNL     1       7.309 -35.459  17.775  1.00  0.00    -0.070 CG0
ATOM      9  C   UNL     1       7.971 -36.387  18.763  1.00  0.00     0.039 C 
ATOM     10  G   UNL     1       6.951 -34.050  18.212  1.00  0.00     0.000 G0
ENDBRANCH   6   7
ENDBRANCH   5   6
ENDBRANCH   3   5
ENDBRANCH   1   3
BRANCH   1  11
ATOM     11  C   UNL     1       9.161 -32.508  15.518  1.00  0.00     0.087 C 
BRANCH  11  12
ATOM     12  C   UNL     1       8.882 -32.608  17.039  1.00  0.00     0.066 C 
BRANCH  12  13
ATOM     13  C   UNL     1       7.415 -32.920  17.321  1.00  0.00     0.140 C 
ATOM     14  O   UNL     1       6.550 -32.233  16.799  1.00  0.00    -0.299 OA
BRANCH  13  15
ATOM     15  C   UNL     1       6.972 -34.023  18.262  1.00  0.00     0.106 CG0
ATOM     16  G   UNL     1       7.312 -35.424  17.787  1.00  0.00     0.000 G0
ENDBRANCH  13  15
ENDBRANCH  12  13
BRANCH  12  17
ATOM     17  C   UNL     1       9.381 -31.338  17.797  1.00  0.00    -0.006 C 
ATOM     18  C   UNL     1      10.637 -30.749  17.135  1.00  0.00     0.008 C 
ATOM     19  C   UNL     1       9.641 -31.559  19.298  1.00  0.00     0.008 C 
ENDBRANCH  12  17
ENDBRANCH  11  12
ENDBRANCH   1  11
TORSDOF 1
ENDMDL
MODEL 4
REMARK VINA RESULT:    -2.086      1.458      3.980
REMARK INTER + INTRA:          -3.349
REMARK INTER:                  -4.355
REMARK INTRA:                   1.006
REMARK UNBOUND:                -0.165
REMARK SMILES CC1=CCC[C@@H](C)C(=O)C[C@@H](C(C)C)C(=O)C1
REMARK SMILES IDX 8 1 9 2 6 3 7 4 5 5 4 6 3 7 2 8 1 9 10 11 11 12 15 13 16 14
REMARK SMILES IDX 17 15 12 17 13 18 14 19
REMARK H PARENT
REMARK Flexibility Score: 70.00
ROOT
ATOM      1  C   UNL     1       8.118 -33.570  13.694  1.00  0.00     0.136 C 
ATOM      2  O   UNL     1       7.062 -33.195  13.201  1.00  0.00    -0.299 OA
ENDROOT
BRANCH   1   3
ATOM      3  C   UNL     1       9.136 -32.545  14.151  1.00  0.00     0.053 C 
ATOM      4  C   UNL     1      10.494 -32.862  13.520  1.00  0.00     0.016 C 
BRANCH   3   5
ATOM      5  C   UNL     1       9.265 -32.496  15.694  1.00  0.00     0.015 C 
BRANCH   5   6
ATOM      6  C   UNL     1       7.932 -32.675  16.440  1.00  0.00     0.028 C 
BRANCH   6   7
ATOM      7  C   UNL     1       7.984 -33.847  17.391  1.00  0.00    -0.028 C 
ATOM      8  C   UNL     1       7.211 -34.954  17.302  1.00  0.00    -0.070 CG0
ATOM      9  C   UNL     1       7.408 -36.041  18.328  1.00  0.00     0.039 C 
ATOM     10  G   UNL     1       6.168 -35.146  16.216  1.00  0.00     0.000 G0
ENDBRANCH   6   7
ENDBRANCH   5   6
ENDBRANCH   3   5
ENDBRANCH   1   3
BRANCH   1  11
ATOM     11  C   UNL     1       8.355 -35.051  13.880  1.00  0.00     0.087 C 
BRANCH  11  12
ATOM     12  C   UNL     1       7.059 -35.897  13.807  1.00  0.00     0.066 C 
BRANCH  12  13
ATOM     13  C   UNL     1       6.522 -36.222  15.198  1.00  0.00     0.140 C 
ATOM     14  O   UNL     1       6.323 -37.390  15.499  1.00  0.00    -0.299 OA
BRANCH  13  15
ATOM     15  C   UNL     1       6.175 -35.157  16.220  1.00  0.00     0.106 CG0
ATOM     16  G   UNL     1       7.211 -34.982  17.316  1.00  0.00     0.000 G0
ENDBRANCH  13  15
ENDBRANCH  12  13
BRANCH  12  17
ATOM     17  C   UNL     1       7.255 -37.170  12.926  1.00  0.00    -0.006 C 
ATOM     18  C   UNL     1       6.024 -38.088  12.987  1.00  0.00     0.008 C 
ATOM     19  C   UNL     1       8.522 -37.978  13.256  1.00  0.00     0.008 C 
ENDBRANCH  12  17
ENDBRANCH  11  12
ENDBRANCH   1  11
TORSDOF 1
ENDMDL
MODEL 5
REMARK VINA RESULT:    -2.039      1.805      4.820
REMARK INTER + INTRA:          -3.277
REMARK INTER:                  -4.040
REMARK INTRA:                   0.762
REMARK UNBOUND:                -0.165
REMARK SMILES CC1=CCC[C@@H](C)C(=O)C[C@@H](C(C)C)C(=O)C1
REMARK SMILES IDX 8 1 9 2 6 3 7 4 5 5 4 6 3 7 2 8 1 9 10 11 11 12 15 13 16 14
REMARK SMILES IDX 17 15 12 17 13 18 14 19
REMARK H PARENT
REMARK Flexibility Score: 70.00
ROOT
ATOM      1  C   UNL     1       6.980 -35.848  15.128  1.00  0.00     0.136 C 
ATOM      2  O   UNL     1       5.913 -35.266  14.983  1.00  0.00    -0.299 OA
ENDROOT
BRANCH   1   3
ATOM      3  C   UNL     1       7.175 -36.771  16.313  1.00  0.00     0.053 C 
ATOM      4  C   UNL     1       5.876 -37.537  16.579  1.00  0.00     0.016 C 
BRANCH   3   5
ATOM      5  C   UNL     1       7.610 -36.004  17.586  1.00  0.00     0.015 C 
BRANCH   5   6
ATOM      6  C   UNL     1       7.055 -34.573  17.676  1.00  0.00     0.028 C 
BRANCH   6   7
ATOM      7  C   UNL     1       8.165 -33.551  17.721  1.00  0.00    -0.028 C 
ATOM      8  C   UNL     1       8.394 -32.610  16.775  1.00  0.00    -0.070 CG0
ATOM      9  C   UNL     1       9.539 -31.653  16.990  1.00  0.00     0.039 C 
ATOM     10  G   UNL     1       7.548 -32.479  15.522  1.00  0.00     0.000 G0
ENDBRANCH   6   7
ENDBRANCH   5   6
ENDBRANCH   3   5
ENDBRANCH   1   3
BRANCH   1  11
ATOM     11  C   UNL     1       8.060 -35.668  14.086  1.00  0.00     0.087 C 
BRANCH  11  12
ATOM     12  C   UNL     1       8.940 -34.415  14.321  1.00  0.00     0.066 C 
BRANCH  12  13
ATOM     13  C   UNL     1       8.113 -33.133  14.286  1.00  0.00     0.140 C 
ATOM     14  O   UNL     1       7.937 -32.569  13.216  1.00  0.00    -0.299 OA
BRANCH  13  15
ATOM     15  C   UNL     1       7.530 -32.492  15.530  1.00  0.00     0.106 CG0
ATOM     16  G   UNL     1       8.407 -32.612  16.764  1.00  0.00     0.000 G0
ENDBRANCH  13  15
ENDBRANCH  12  13
BRANCH  12  17
ATOM     17  C   UNL     1      10.152 -34.374  13.339  1.00  0.00    -0.006 C 
ATOM     18  C   UNL     1      10.967 -35.676  13.401  1.00  0.00     0.008 C 
ATOM     19  C   UNL     1      11.087 -33.167  13.537  1.00  0.00     0.008 C 
ENDBRANCH  12  17
ENDBRANCH  11  12
ENDBRANCH   1  11
TORSDOF 1
ENDMDL
MODEL 6
REMARK VINA RESULT:    -1.978      1.872      3.531
REMARK INTER + INTRA:          -3.184
REMARK INTER:                  -4.019
REMARK INTRA:                   0.835
REMARK UNBOUND:                -0.165
REMARK SMILES CC1=CCC[C@@H](C)C(=O)C[C@@H](C(C)C)C(=O)C1
REMARK SMILES IDX 8 1 9 2 6 3 7 4 5 5 4 6 3 7 2 8 1 9 10 11 11 12 15 13 16 14
REMARK SMILES IDX 17 15 12 17 13 18 14 19
REMARK H PARENT
REMARK Flexibility Score: 70.00
ROOT
ATOM      1  C   UNL     1       9.023 -35.998  13.800  1.00  0.00     0.136 C 
ATOM      2  O   UNL     1       9.936 -36.090  12.991  1.00  0.00    -0.299 OA
ENDROOT
BRANCH   1   3
ATOM      3  C   UNL     1       7.693 -36.661  13.507  1.00  0.00     0.053 C 
ATOM      4  C   UNL     1       6.684 -35.600  13.057  1.00  0.00     0.016 C 
BRANCH   3   5
ATOM      5  C   UNL     1       7.142 -37.435  14.730  1.00  0.00     0.015 C 
BRANCH   5   6
ATOM      6  C   UNL     1       6.046 -36.684  15.504  1.00  0.00     0.028 C 
BRANCH   6   7
ATOM      7  C   UNL     1       6.560 -36.160  16.823  1.00  0.00    -0.028 C 
ATOM      8  C   UNL     1       6.896 -34.872  17.069  1.00  0.00    -0.070 CG0
ATOM      9  C   UNL     1       7.375 -34.517  18.454  1.00  0.00     0.039 C 
ATOM     10  G   UNL     1       6.804 -33.781  16.018  1.00  0.00     0.000 G0
ENDBRANCH   6   7
ENDBRANCH   5   6
ENDBRANCH   3   5
ENDBRANCH   1   3
BRANCH   1  11
ATOM     11  C   UNL     1       9.265 -35.263  15.098  1.00  0.00     0.087 C 
BRANCH  11  12
ATOM     12  C   UNL     1       9.268 -33.721  14.942  1.00  0.00     0.066 C 
BRANCH  12  13
ATOM     13  C   UNL     1       8.158 -33.072  15.764  1.00  0.00     0.140 C 
ATOM     14  O   UNL     1       8.355 -31.974  16.265  1.00  0.00    -0.299 OA
BRANCH  13  15
ATOM     15  C   UNL     1       6.826 -33.745  16.031  1.00  0.00     0.106 CG0
ATOM     16  G   UNL     1       6.888 -34.867  17.053  1.00  0.00     0.000 G0
ENDBRANCH  13  15
ENDBRANCH  12  13
BRANCH  12  17
ATOM     17  C   UNL     1       9.229 -33.298  13.440  1.00  0.00    -0.006 C 
ATOM     18  C   UNL     1      10.501 -32.533  13.041  1.00  0.00     0.008 C 
ATOM     19  C   UNL     1       7.986 -32.480  13.045  1.00  0.00     0.008 C 
ENDBRANCH  12  17
ENDBRANCH  11  12
ENDBRANCH   1  11
TORSDOF 1
ENDMDL
MODEL 7
REMARK VINA RESULT:    -1.898      1.524      3.802
REMARK INTER + INTRA:          -3.061
REMARK INTER:                  -3.702
REMARK INTRA:                   0.641
REMARK UNBOUND:                -0.165
REMARK SMILES CC1=CCC[C@@H](C)C(=O)C[C@@H](C(C)C)C(=O)C1
REMARK SMILES IDX 8 1 9 2 6 3 7 4 5 5 4 6 3 7 2 8 1 9 10 11 11 12 15 13 16 14
REMARK SMILES IDX 17 15 12 17 13 18 14 19
REMARK H PARENT
REMARK Flexibility Score: 70.00
ROOT
ATOM      1  C   UNL     1       8.353 -32.783  15.531  1.00  0.00     0.136 C 
ATOM      2  O   UNL     1       7.868 -32.054  14.676  1.00  0.00    -0.299 OA
ENDROOT
BRANCH   1   3
ATOM      3  C   UNL     1       7.918 -32.636  16.975  1.00  0.00     0.053 C 
ATOM      4  C   UNL     1       9.150 -32.423  17.858  1.00  0.00     0.016 C 
BRANCH   3   5
ATOM      5  C   UNL     1       7.113 -33.862  17.471  1.00  0.00     0.015 C 
BRANCH   5   6
ATOM      6  C   UNL     1       6.004 -34.315  16.507  1.00  0.00     0.028 C 
BRANCH   6   7
ATOM      7  C   UNL     1       6.042 -35.807  16.282  1.00  0.00    -0.028 C 
ATOM      8  C   UNL     1       6.400 -36.410  15.124  1.00  0.00    -0.070 CG0
ATOM      9  C   UNL     1       6.401 -37.916  15.079  1.00  0.00     0.039 C 
ATOM     10  G   UNL     1       6.802 -35.635  13.882  1.00  0.00     0.000 G0
ENDBRANCH   6   7
ENDBRANCH   5   6
ENDBRANCH   3   5
ENDBRANCH   1   3
BRANCH   1  11
ATOM     11  C   UNL     1       9.341 -33.847  15.113  1.00  0.00     0.087 C 
BRANCH  11  12
ATOM     12  C   UNL     1       9.142 -34.334  13.655  1.00  0.00     0.066 C 
BRANCH  12  13
ATOM     13  C   UNL     1       8.304 -35.608  13.599  1.00  0.00     0.140 C 
ATOM     14  O   UNL     1       8.843 -36.660  13.287  1.00  0.00    -0.299 OA
BRANCH  13  15
ATOM     15  C   UNL     1       6.812 -35.628  13.867  1.00  0.00     0.106 CG0
ATOM     16  G   UNL     1       6.411 -36.398  15.112  1.00  0.00     0.000 G0
ENDBRANCH  13  15
ENDBRANCH  12  13
BRANCH  12  17
ATOM     17  C   UNL     1      10.505 -34.479  12.909  1.00  0.00    -0.006 C 
ATOM     18  C   UNL     1      11.337 -35.637  13.482  1.00  0.00     0.008 C 
ATOM     19  C   UNL     1      11.353 -33.194  12.886  1.00  0.00     0.008 C 
ENDBRANCH  12  17
ENDBRANCH  11  12
ENDBRANCH   1  11
TORSDOF 1
ENDMDL
MODEL 8
REMARK VINA RESULT:    -1.732      2.002      3.657
REMARK INTER + INTRA:          -2.808
REMARK INTER:                  -3.920
REMARK INTRA:                   1.112
REMARK UNBOUND:                -0.165
REMARK SMILES CC1=CCC[C@@H](C)C(=O)C[C@@H](C(C)C)C(=O)C1
REMARK SMILES IDX 8 1 9 2 6 3 7 4 5 5 4 6 3 7 2 8 1 9 10 11 11 12 15 13 16 14
REMARK SMILES IDX 17 15 12 17 13 18 14 19
REMARK H PARENT
REMARK Flexibility Score: 70.00
ROOT
ATOM      1  C   UNL     1       6.528 -34.135  16.332  1.00  0.00     0.136 C 
ATOM      2  O   UNL     1       5.885 -33.149  15.998  1.00  0.00    -0.299 OA
ENDROOT
BRANCH   1   3
ATOM      3  C   UNL     1       5.900 -35.509  16.228  1.00  0.00     0.053 C 
ATOM      4  C   UNL     1       6.659 -36.485  17.132  1.00  0.00     0.016 C 
BRANCH   3   5
ATOM      5  C   UNL     1       5.884 -36.037  14.772  1.00  0.00     0.015 C 
BRANCH   5   6
ATOM      6  C   UNL     1       6.337 -35.005  13.727  1.00  0.00     0.028 C 
BRANCH   6   7
ATOM      7  C   UNL     1       7.772 -35.229  13.313  1.00  0.00    -0.028 C 
ATOM      8  C   UNL     1       8.750 -34.295  13.360  1.00  0.00    -0.070 CG0
ATOM      9  C   UNL     1      10.136 -34.698  12.926  1.00  0.00     0.039 C 
ATOM     10  G   UNL     1       8.509 -32.874  13.835  1.00  0.00     0.000 G0
ENDBRANCH   6   7
ENDBRANCH   5   6
ENDBRANCH   3   5
ENDBRANCH   1   3
BRANCH   1  11
ATOM     11  C   UNL     1       7.957 -33.956  16.794  1.00  0.00     0.087 C 
BRANCH  11  12
ATOM     12  C   UNL     1       8.531 -32.549  16.490  1.00  0.00     0.066 C 
BRANCH  12  13
ATOM     13  C   UNL     1       9.228 -32.509  15.133  1.00  0.00     0.140 C 
ATOM     14  O   UNL     1      10.391 -32.138  15.073  1.00  0.00    -0.299 OA
BRANCH  13  15
ATOM     15  C   UNL     1       8.529 -32.865  13.835  1.00  0.00     0.106 CG0
ATOM     16  G   UNL     1       8.742 -34.299  13.384  1.00  0.00     0.000 G0
ENDBRANCH  13  15
ENDBRANCH  12  13
BRANCH  12  17
ATOM     17  C   UNL     1       9.445 -32.042  17.649  1.00  0.00    -0.006 C 
ATOM     18  C   UNL     1       8.677 -31.976  18.979  1.00  0.00     0.008 C 
ATOM     19  C   UNL     1      10.123 -30.688  17.373  1.00  0.00     0.008 C 
ENDBRANCH  12  17
ENDBRANCH  11  12
ENDBRANCH   1  11
TORSDOF 1
ENDMDL
MODEL 9
REMARK VINA RESULT:    -1.584      1.910      3.383
REMARK INTER + INTRA:          -2.582
REMARK INTER:                  -3.564
REMARK INTRA:                   0.981
REMARK UNBOUND:                -0.165
REMARK SMILES CC1=CCC[C@@H](C)C(=O)C[C@@H](C(C)C)C(=O)C1
REMARK SMILES IDX 8 1 9 2 6 3 7 4 5 5 4 6 3 7 2 8 1 9 10 11 11 12 15 13 16 14
REMARK SMILES IDX 17 15 12 17 13 18 14 19
REMARK H PARENT
REMARK Flexibility Score: 70.00
ROOT
ATOM      1  C   UNL     1       5.952 -35.288  14.799  1.00  0.00     0.136 C 
ATOM      2  O   UNL     1       5.886 -34.773  13.691  1.00  0.00    -0.299 OA
ENDROOT
BRANCH   1   3
ATOM      3  C   UNL     1       5.930 -36.797  14.926  1.00  0.00     0.053 C 
ATOM      4  C   UNL     1       6.007 -37.184  16.405  1.00  0.00     0.016 C 
BRANCH   3   5
ATOM      5  C   UNL     1       7.084 -37.468  14.140  1.00  0.00     0.015 C 
BRANCH   5   6
ATOM      6  C   UNL     1       7.688 -36.583  13.038  1.00  0.00     0.028 C 
BRANCH   6   7
ATOM      7  C   UNL     1       9.197 -36.569  13.104  1.00  0.00    -0.028 C 
ATOM      8  C   UNL     1       9.941 -35.588  13.665  1.00  0.00    -0.070 CG0
ATOM      9  C   UNL     1      11.440 -35.745  13.661  1.00  0.00     0.039 C 
ATOM     10  G   UNL     1       9.331 -34.350  14.297  1.00  0.00     0.000 G0
ENDBRANCH   6   7
ENDBRANCH   5   6
ENDBRANCH   3   5
ENDBRANCH   1   3
BRANCH   1  11
ATOM     11  C   UNL     1       6.107 -34.400  16.013  1.00  0.00     0.087 C 
BRANCH  11  12
ATOM     12  C   UNL     1       7.464 -33.654  16.061  1.00  0.00     0.066 C 
BRANCH  12  13
ATOM     13  C   UNL     1       8.612 -34.547  15.599  1.00  0.00     0.140 C 
ATOM     14  O   UNL     1       8.988 -35.454  16.327  1.00  0.00    -0.299 OA
BRANCH  13  15
ATOM     15  C   UNL     1       9.348 -34.335  14.291  1.00  0.00     0.106 CG0
ATOM     16  G   UNL     1       9.920 -35.604  13.684  1.00  0.00     0.000 G0
ENDBRANCH  13  15
ENDBRANCH  12  13
BRANCH  12  17
ATOM     17  C   UNL     1       7.721 -33.025  17.466  1.00  0.00    -0.006 C 
ATOM     18  C   UNL     1       6.513 -32.201  17.940  1.00  0.00     0.008 C 
ATOM     19  C   UNL     1       8.998 -32.169  17.552  1.00  0.00     0.008 C 
ENDBRANCH  12  17
ENDBRANCH  11  12
ENDBRANCH   1  11
TORSDOF 1
ENDMDL
