MODEL 1
REMARK VINA RESULT:    -1.894      0.000      0.000
REMARK INTER + INTRA:          -1.894
REMARK INTER:                  -1.894
REMARK INTRA:                   0.000
REMARK UNBOUND:                 0.000
REMARK SMILES CC(=O)[O-]
REMARK SMILES IDX 1 1 2 2 3 3 4 4
REMARK H PARENT
REMARK Flexibility Score: inf
ROOT
ATOM      1  C   UNL     1      -4.543   7.772  -3.800  1.00  0.00     0.063 C 
ATOM      2  C   UNL     1      -4.900   8.508  -2.553  1.00  0.00     0.038 C 
ATOM      3  O   UNL     1      -5.200   9.729  -2.604  1.00  0.00    -0.550 OA
ATOM      4  O   UNL     1      -4.957   7.834  -1.339  1.00  0.00    -0.550 OA
ENDROOT
TORSDOF 0
ENDMDL
MODEL 2
REMARK VINA RESULT:    -1.887     16.348     16.376
REMARK INTER + INTRA:          -1.887
REMARK INTER:                  -1.887
REMARK INTRA:                   0.000
REMARK UNBOUND:                 0.000
REMARK SMILES CC(=O)[O-]
REMARK SMILES IDX 1 1 2 2 3 3 4 4
REMARK H PARENT
REMARK Flexibility Score: inf
ROOT
ATOM      1  C   UNL     1     -20.557   6.074  -5.705  1.00  0.00     0.063 C 
ATOM      2  C   UNL     1     -20.336   4.732  -6.316  1.00  0.00     0.038 C 
ATOM      3  O   UNL     1     -20.749   4.492  -7.480  1.00  0.00    -0.550 OA
ATOM      4  O   UNL     1     -19.623   3.761  -5.624  1.00  0.00    -0.550 OA
ENDROOT
TORSDOF 0
ENDMDL
MODEL 3
REMARK VINA RESULT:    -1.885      0.097      1.619
REMARK INTER + INTRA:          -1.885
REMARK INTER:                  -1.885
REMARK INTRA:                   0.000
REMARK UNBOUND:                 0.000
REMARK SMILES CC(=O)[O-]
REMARK SMILES IDX 1 1 2 2 3 3 4 4
REMARK H PARENT
REMARK Flexibility Score: inf
ROOT
ATOM      1  C   UNL     1      -4.536   7.748  -3.797  1.00  0.00     0.063 C 
ATOM      2  C   UNL     1      -4.890   8.464  -2.537  1.00  0.00     0.038 C 
ATOM      3  O   UNL     1      -4.943   7.836  -1.448  1.00  0.00    -0.550 OA
ATOM      4  O   UNL     1      -5.109   9.836  -2.553  1.00  0.00    -0.550 OA
ENDROOT
TORSDOF 0
ENDMDL
MODEL 4
REMARK VINA RESULT:    -1.821     17.257     17.808
REMARK INTER + INTRA:          -1.821
REMARK INTER:                  -1.821
REMARK INTRA:                   0.000
REMARK UNBOUND:                 0.000
REMARK SMILES CC(=O)[O-]
REMARK SMILES IDX 1 1 2 2 3 3 4 4
REMARK H PARENT
REMARK Flexibility Score: inf
ROOT
ATOM      1  C   UNL     1     -11.058  -7.046   6.051  1.00  0.00     0.063 C 
ATOM      2  C   UNL     1     -10.812  -5.623   6.423  1.00  0.00     0.038 C 
ATOM      3  O   UNL     1     -11.649  -5.000   7.125  1.00  0.00    -0.550 OA
ATOM      4  O   UNL     1      -9.631  -4.999   6.042  1.00  0.00    -0.550 OA
ENDROOT
TORSDOF 0
ENDMDL
MODEL 5
REMARK VINA RESULT:    -1.792      1.632      1.930
REMARK INTER + INTRA:          -1.792
REMARK INTER:                  -1.792
REMARK INTRA:                   0.000
REMARK UNBOUND:                 0.000
REMARK SMILES CC(=O)[O-]
REMARK SMILES IDX 1 1 2 2 3 3 4 4
REMARK H PARENT
REMARK Flexibility Score: inf
ROOT
ATOM      1  C   UNL     1      -4.964   8.171  -1.516  1.00  0.00     0.063 C 
ATOM      2  C   UNL     1      -4.521   8.483  -2.905  1.00  0.00     0.038 C 
ATOM      3  O   UNL     1      -3.824   9.505  -3.132  1.00  0.00    -0.550 OA
ATOM      4  O   UNL     1      -4.828   7.614  -3.945  1.00  0.00    -0.550 OA
ENDROOT
TORSDOF 0
ENDMDL
MODEL 6
REMARK VINA RESULT:    -1.714     16.681     16.750
REMARK INTER + INTRA:          -1.714
REMARK INTER:                  -1.714
REMARK INTRA:                   0.000
REMARK UNBOUND:                 0.000
REMARK SMILES CC(=O)[O-]
REMARK SMILES IDX 1 1 2 2 3 3 4 4
REMARK H PARENT
REMARK Flexibility Score: inf
ROOT
ATOM      1  C   UNL     1     -20.357   3.458  -6.391  1.00  0.00     0.063 C 
ATOM      2  C   UNL     1     -20.634   4.855  -6.831  1.00  0.00     0.038 C 
ATOM      3  O   UNL     1     -21.125   5.074  -7.969  1.00  0.00    -0.550 OA
ATOM      4  O   UNL     1     -20.403   5.916  -5.964  1.00  0.00    -0.550 OA
ENDROOT
TORSDOF 0
ENDMDL
MODEL 7
REMARK VINA RESULT:    -1.689     13.560     13.749
REMARK INTER + INTRA:          -1.689
REMARK INTER:                  -1.689
REMARK INTRA:                   0.000
REMARK UNBOUND:                 0.000
REMARK SMILES CC(=O)[O-]
REMARK SMILES IDX 1 1 2 2 3 3 4 4
REMARK H PARENT
REMARK Flexibility Score: inf
ROOT
ATOM      1  C   UNL     1     -16.706   9.819  -5.571  1.00  0.00     0.063 C 
ATOM      2  C   UNL     1     -18.159   9.800  -5.904  1.00  0.00     0.038 C 
ATOM      3  O   UNL     1     -18.612  10.562  -6.797  1.00  0.00    -0.550 OA
ATOM      4  O   UNL     1     -19.008   8.902  -5.269  1.00  0.00    -0.550 OA
ENDROOT
TORSDOF 0
ENDMDL
MODEL 8
REMARK VINA RESULT:    -1.675     18.884     19.474
REMARK INTER + INTRA:          -1.675
REMARK INTER:                  -1.675
REMARK INTRA:                   0.000
REMARK UNBOUND:                 0.000
REMARK SMILES CC(=O)[O-]
REMARK SMILES IDX 1 1 2 2 3 3 4 4
REMARK H PARENT
REMARK Flexibility Score: inf
ROOT
ATOM      1  C   UNL     1     -11.048  -6.283   6.406  1.00  0.00     0.063 C 
ATOM      2  C   UNL     1     -11.344  -7.699   6.044  1.00  0.00     0.038 C 
ATOM      3  O   UNL     1     -12.221  -8.342   6.676  1.00  0.00    -0.550 OA
ATOM      4  O   UNL     1     -10.692  -8.294   4.971  1.00  0.00    -0.550 OA
ENDROOT
TORSDOF 0
ENDMDL
