MODEL 1
REMARK VINA RESULT:    -3.592      0.000      0.000
REMARK INTER + INTRA:          -4.019
REMARK INTER:                  -4.117
REMARK INTRA:                   0.099
REMARK UNBOUND:                 0.099
REMARK SMILES CC(C)[C@@H]([NH3+])C(=O)[O-]
REMARK SMILES IDX 4 1 5 2 6 6 7 7 8 8 2 9 1 10 3 11
REMARK H PARENT 5 3 5 4 5 5
REMARK Flexibility Score: inf
ROOT
ATOM      1  C   UNL     1     147.276 143.352 132.842  1.00  0.00     0.230 C 
ENDROOT
BRANCH   1   2
ATOM      2  N   UNL     1     146.251 143.765 131.873  1.00  0.00    -0.350 N 
ATOM      3  H   UNL     1     145.677 144.545 132.268  1.00  0.00     0.345 HD
ATOM      4  H   UNL     1     145.612 142.960 131.675  1.00  0.00     0.345 HD
ATOM      5  H   UNL     1     146.680 144.078 130.972  1.00  0.00     0.345 HD
ENDBRANCH   1   2
BRANCH   1   6
ATOM      6  C   UNL     1     148.226 142.356 132.220  1.00  0.00     0.099 C 
ATOM      7  O   UNL     1     148.663 141.392 132.902  1.00  0.00    -0.544 OA
ATOM      8  O   UNL     1     148.648 142.505 130.904  1.00  0.00    -0.544 OA
ENDBRANCH   1   6
BRANCH   1   9
ATOM      9  C   UNL     1     148.011 144.579 133.461  1.00  0.00     0.047 C 
ATOM     10  C   UNL     1     148.919 145.321 132.466  1.00  0.00     0.014 C 
ATOM     11  C   UNL     1     148.817 144.176 134.707  1.00  0.00     0.014 C 
ENDBRANCH   1   9
TORSDOF 3
ENDMDL
MODEL 2
REMARK VINA RESULT:    -3.426     19.553     19.975
REMARK INTER + INTRA:          -3.828
REMARK INTER:                  -3.785
REMARK INTRA:                  -0.043
REMARK UNBOUND:                 0.099
REMARK SMILES CC(C)[C@@H]([NH3+])C(=O)[O-]
REMARK SMILES IDX 4 1 5 2 6 6 7 7 8 8 2 9 1 10 3 11
REMARK H PARENT 5 3 5 4 5 5
REMARK Flexibility Score: inf
ROOT
ATOM      1  C   UNL     1     134.501 144.418 146.622  1.00  0.00     0.230 C 
ENDROOT
BRANCH   1   2
ATOM      2  N   UNL     1     135.790 144.530 145.925  1.00  0.00    -0.350 N 
ATOM      3  H   UNL     1     135.830 145.424 145.384  1.00  0.00     0.345 HD
ATOM      4  H   UNL     1     135.892 143.738 145.250  1.00  0.00     0.345 HD
ATOM      5  H   UNL     1     136.592 144.500 146.596  1.00  0.00     0.345 HD
ENDBRANCH   1   2
BRANCH   1   6
ATOM      6  C   UNL     1     134.172 142.971 146.903  1.00  0.00     0.099 C 
ATOM      7  O   UNL     1     134.858 142.319 147.734  1.00  0.00    -0.544 OA
ATOM      8  O   UNL     1     133.131 142.338 146.234  1.00  0.00    -0.544 OA
ENDBRANCH   1   6
BRANCH   1   9
ATOM      9  C   UNL     1     134.460 145.304 147.904  1.00  0.00     0.047 C 
ATOM     10  C   UNL     1     133.296 146.310 147.922  1.00  0.00     0.014 C 
ATOM     11  C   UNL     1     135.793 146.040 148.116  1.00  0.00     0.014 C 
ENDBRANCH   1   9
TORSDOF 3
ENDMDL
MODEL 3
REMARK VINA RESULT:    -3.390     15.728     16.523
REMARK INTER + INTRA:          -3.787
REMARK INTER:                  -3.732
REMARK INTRA:                  -0.055
REMARK UNBOUND:                 0.099
REMARK SMILES CC(C)[C@@H]([NH3+])C(=O)[O-]
REMARK SMILES IDX 4 1 5 2 6 6 7 7 8 8 2 9 1 10 3 11
REMARK H PARENT 5 3 5 4 5 5
REMARK Flexibility Score: inf
ROOT
ATOM      1  C   UNL     1     138.563 146.000 145.750  1.00  0.00     0.230 C 
ENDROOT
BRANCH   1   2
ATOM      2  N   UNL     1     138.706 146.761 144.500  1.00  0.00    -0.350 N 
ATOM      3  H   UNL     1     138.110 146.339 143.752  1.00  0.00     0.345 HD
ATOM      4  H   UNL     1     139.701 146.725 144.181  1.00  0.00     0.345 HD
ATOM      5  H   UNL     1     138.434 147.763 144.630  1.00  0.00     0.345 HD
ENDBRANCH   1   2
BRANCH   1   6
ATOM      6  C   UNL     1     139.309 144.690 145.663  1.00  0.00     0.099 C 
ATOM      7  O   UNL     1     139.173 143.954 144.650  1.00  0.00    -0.544 OA
ATOM      8  O   UNL     1     140.128 144.270 146.704  1.00  0.00    -0.544 OA
ENDBRANCH   1   6
BRANCH   1   9
ATOM      9  C   UNL     1     138.978 146.847 146.991  1.00  0.00     0.047 C 
ATOM     10  C   UNL     1     137.885 146.934 148.071  1.00  0.00     0.014 C 
ATOM     11  C   UNL     1     139.423 148.259 146.578  1.00  0.00     0.014 C 
ENDBRANCH   1   9
TORSDOF 3
ENDMDL
MODEL 4
REMARK VINA RESULT:    -3.388     14.632     15.436
REMARK INTER + INTRA:          -3.785
REMARK INTER:                  -3.737
REMARK INTRA:                  -0.048
REMARK UNBOUND:                 0.099
REMARK SMILES CC(C)[C@@H]([NH3+])C(=O)[O-]
REMARK SMILES IDX 4 1 5 2 6 6 7 7 8 8 2 9 1 10 3 11
REMARK H PARENT 5 3 5 4 5 5
REMARK Flexibility Score: inf
ROOT
ATOM      1  C   UNL     1     145.860 139.272 146.593  1.00  0.00     0.230 C 
ENDROOT
BRANCH   1   2
ATOM      2  N   UNL     1     145.343 138.087 145.891  1.00  0.00    -0.350 N 
ATOM      3  H   UNL     1     145.952 137.260 146.088  1.00  0.00     0.345 HD
ATOM      4  H   UNL     1     145.355 138.261 144.860  1.00  0.00     0.345 HD
ATOM      5  H   UNL     1     144.363 137.869 146.181  1.00  0.00     0.345 HD
ENDBRANCH   1   2
BRANCH   1   6
ATOM      6  C   UNL     1     144.763 140.290 146.797  1.00  0.00     0.099 C 
ATOM      7  O   UNL     1     143.959 140.164 147.758  1.00  0.00    -0.544 OA
ATOM      8  O   UNL     1     144.611 141.355 145.917  1.00  0.00    -0.544 OA
ENDBRANCH   1   6
BRANCH   1   9
ATOM      9  C   UNL     1     146.578 138.886 147.922  1.00  0.00     0.047 C 
ATOM     10  C   UNL     1     148.005 139.449 148.038  1.00  0.00     0.014 C 
ATOM     11  C   UNL     1     146.596 137.362 148.124  1.00  0.00     0.014 C 
ENDBRANCH   1   9
TORSDOF 3
ENDMDL
MODEL 5
REMARK VINA RESULT:    -3.384     17.732     18.444
REMARK INTER + INTRA:          -3.780
REMARK INTER:                  -3.726
REMARK INTRA:                  -0.053
REMARK UNBOUND:                 0.099
REMARK SMILES CC(C)[C@@H]([NH3+])C(=O)[O-]
REMARK SMILES IDX 4 1 5 2 6 6 7 7 8 8 2 9 1 10 3 11
REMARK H PARENT 5 3 5 4 5 5
REMARK Flexibility Score: inf
ROOT
ATOM      1  C   UNL     1     130.125 145.637 132.382  1.00  0.00     0.230 C 
ENDROOT
BRANCH   1   2
ATOM      2  N   UNL     1     131.548 145.570 132.744  1.00  0.00    -0.350 N 
ATOM      3  H   UNL     1     131.956 144.659 132.431  1.00  0.00     0.345 HD
ATOM      4  H   UNL     1     131.646 145.629 133.784  1.00  0.00     0.345 HD
ATOM      5  H   UNL     1     132.089 146.354 132.314  1.00  0.00     0.345 HD
ENDBRANCH   1   2
BRANCH   1   6
ATOM      6  C   UNL     1     129.959 146.133 130.965  1.00  0.00     0.099 C 
ATOM      7  O   UNL     1     128.875 146.667 130.608  1.00  0.00    -0.544 OA
ATOM      8  O   UNL     1     130.983 145.984 130.037  1.00  0.00    -0.544 OA
ENDBRANCH   1   6
BRANCH   1   9
ATOM      9  C   UNL     1     129.402 144.278 132.631  1.00  0.00     0.047 C 
ATOM     10  C   UNL     1     128.875 144.114 134.067  1.00  0.00     0.014 C 
ATOM     11  C   UNL     1     130.307 143.090 132.265  1.00  0.00     0.014 C 
ENDBRANCH   1   9
TORSDOF 3
ENDMDL
MODEL 6
REMARK VINA RESULT:    -3.374     15.563     16.501
REMARK INTER + INTRA:          -3.769
REMARK INTER:                  -3.714
REMARK INTRA:                  -0.055
REMARK UNBOUND:                 0.099
REMARK SMILES CC(C)[C@@H]([NH3+])C(=O)[O-]
REMARK SMILES IDX 4 1 5 2 6 6 7 7 8 8 2 9 1 10 3 11
REMARK H PARENT 5 3 5 4 5 5
REMARK Flexibility Score: inf
ROOT
ATOM      1  C   UNL     1     145.186 135.030 145.627  1.00  0.00     0.230 C 
ENDROOT
BRANCH   1   2
ATOM      2  N   UNL     1     145.728 134.452 144.388  1.00  0.00    -0.350 N 
ATOM      3  H   UNL     1     146.571 134.988 144.081  1.00  0.00     0.345 HD
ATOM      4  H   UNL     1     145.010 134.515 143.631  1.00  0.00     0.345 HD
ATOM      5  H   UNL     1     145.988 133.448 144.517  1.00  0.00     0.345 HD
ENDBRANCH   1   2
BRANCH   1   6
ATOM      6  C   UNL     1     143.693 135.226 145.514  1.00  0.00     0.099 C 
ATOM      7  O   UNL     1     143.227 136.052 144.687  1.00  0.00    -0.544 OA
ATOM      8  O   UNL     1     142.822 134.520 146.336  1.00  0.00    -0.544 OA
ENDBRANCH   1   6
BRANCH   1   9
ATOM      9  C   UNL     1     145.591 134.192 146.878  1.00  0.00     0.047 C 
ATOM     10  C   UNL     1     146.183 135.036 148.020  1.00  0.00     0.014 C 
ATOM     11  C   UNL     1     146.562 133.062 146.502  1.00  0.00     0.014 C 
ENDBRANCH   1   9
TORSDOF 3
ENDMDL
MODEL 7
REMARK VINA RESULT:    -3.374     21.540     22.255
REMARK INTER + INTRA:          -3.769
REMARK INTER:                  -3.724
REMARK INTRA:                  -0.045
REMARK UNBOUND:                 0.099
REMARK SMILES CC(C)[C@@H]([NH3+])C(=O)[O-]
REMARK SMILES IDX 4 1 5 2 6 6 7 7 8 8 2 9 1 10 3 11
REMARK H PARENT 5 3 5 4 5 5
REMARK Flexibility Score: inf
ROOT
ATOM      1  C   UNL     1     135.746 132.089 146.632  1.00  0.00     0.230 C 
ENDROOT
BRANCH   1   2
ATOM      2  N   UNL     1     134.998 133.094 145.863  1.00  0.00    -0.350 N 
ATOM      3  H   UNL     1     134.582 133.804 146.508  1.00  0.00     0.345 HD
ATOM      4  H   UNL     1     134.217 132.628 145.346  1.00  0.00     0.345 HD
ATOM      5  H   UNL     1     135.612 133.580 145.169  1.00  0.00     0.345 HD
ENDBRANCH   1   2
BRANCH   1   6
ATOM      6  C   UNL     1     137.113 132.612 147.004  1.00  0.00     0.099 C 
ATOM      7  O   UNL     1     137.220 133.650 147.708  1.00  0.00    -0.544 OA
ATOM      8  O   UNL     1     138.263 131.974 146.553  1.00  0.00    -0.544 OA
ENDBRANCH   1   6
BRANCH   1   9
ATOM      9  C   UNL     1     134.937 131.590 147.867  1.00  0.00     0.047 C 
ATOM     10  C   UNL     1     134.508 130.115 147.770  1.00  0.00     0.014 C 
ATOM     11  C   UNL     1     133.708 132.478 148.125  1.00  0.00     0.014 C 
ENDBRANCH   1   9
TORSDOF 3
ENDMDL
MODEL 8
REMARK VINA RESULT:    -3.355     21.796     22.519
REMARK INTER + INTRA:          -3.747
REMARK INTER:                  -3.694
REMARK INTRA:                  -0.053
REMARK UNBOUND:                 0.099
REMARK SMILES CC(C)[C@@H]([NH3+])C(=O)[O-]
REMARK SMILES IDX 4 1 5 2 6 6 7 7 8 8 2 9 1 10 3 11
REMARK H PARENT 5 3 5 4 5 5
REMARK Flexibility Score: inf
ROOT
ATOM      1  C   UNL     1     132.414 134.797 145.739  1.00  0.00     0.230 C 
ENDROOT
BRANCH   1   2
ATOM      2  N   UNL     1     131.668 134.574 144.492  1.00  0.00    -0.350 N 
ATOM      3  H   UNL     1     130.653 134.772 144.641  1.00  0.00     0.345 HD
ATOM      4  H   UNL     1     131.765 133.574 144.201  1.00  0.00     0.345 HD
ATOM      5  H   UNL     1     132.026 135.181 143.719  1.00  0.00     0.345 HD
ENDBRANCH   1   2
BRANCH   1   6
ATOM      6  C   UNL     1     133.271 136.036 145.633  1.00  0.00     0.099 C 
ATOM      7  O   UNL     1     134.301 136.028 144.909  1.00  0.00    -0.544 OA
ATOM      8  O   UNL     1     132.951 137.183 146.350  1.00  0.00    -0.544 OA
ENDBRANCH   1   6
BRANCH   1   9
ATOM      9  C   UNL     1     131.469 134.824 146.978  1.00  0.00     0.047 C 
ATOM     10  C   UNL     1     131.898 133.864 148.102  1.00  0.00     0.014 C 
ATOM     11  C   UNL     1     130.013 134.543 146.575  1.00  0.00     0.014 C 
ENDBRANCH   1   9
TORSDOF 3
ENDMDL
MODEL 9
REMARK VINA RESULT:    -3.293     22.024     22.720
REMARK INTER + INTRA:          -3.676
REMARK INTER:                  -3.745
REMARK INTRA:                   0.069
REMARK UNBOUND:                 0.099
REMARK SMILES CC(C)[C@@H]([NH3+])C(=O)[O-]
REMARK SMILES IDX 4 1 5 2 6 6 7 7 8 8 2 9 1 10 3 11
REMARK H PARENT 5 3 5 4 5 5
REMARK Flexibility Score: inf
ROOT
ATOM      1  C   UNL     1     132.337 135.536 146.140  1.00  0.00     0.230 C 
ENDROOT
BRANCH   1   2
ATOM      2  N   UNL     1     133.576 136.049 146.743  1.00  0.00    -0.350 N 
ATOM      3  H   UNL     1     133.376 136.916 147.292  1.00  0.00     0.345 HD
ATOM      4  H   UNL     1     134.256 136.294 145.987  1.00  0.00     0.345 HD
ATOM      5  H   UNL     1     134.018 135.340 147.371  1.00  0.00     0.345 HD
ENDBRANCH   1   2
BRANCH   1   6
ATOM      6  C   UNL     1     132.648 134.527 145.061  1.00  0.00     0.099 C 
ATOM      7  O   UNL     1     133.583 133.699 145.224  1.00  0.00    -0.544 OA
ATOM      8  O   UNL     1     131.930 134.517 143.870  1.00  0.00    -0.544 OA
ENDBRANCH   1   6
BRANCH   1   9
ATOM      9  C   UNL     1     131.359 134.981 147.219  1.00  0.00     0.047 C 
ATOM     10  C   UNL     1     131.963 133.858 148.080  1.00  0.00     0.014 C 
ATOM     11  C   UNL     1     130.041 134.506 146.585  1.00  0.00     0.014 C 
ENDBRANCH   1   9
TORSDOF 3
ENDMDL
