MODEL 1
REMARK VINA RESULT:    45.677      0.000      0.000
REMARK INTER + INTRA:          52.792
REMARK INTER:                  52.353
REMARK INTRA:                   0.439
REMARK UNBOUND:                 0.439
REMARK SMILES C=C(C)[C@H]1CC[C@@]2(C(=O)[O-])CC[C@@]3(C)[C@H](CC[C@H]4[C@]5(C)CC[C@@H](O)C(C)(C)[C@@H]5CC[C@]43C)[C@H]12
REMARK SMILES IDX 7 1 6 2 33 3 11 4 5 5 15 6 4 7 12 8 16 9 13 10 17 11 31 12
REMARK SMILES IDX 14 13 18 14 30 15 32 16 19 17 29 18 21 19 20 20 28 21 22 22
REMARK SMILES IDX 25 23 23 24 26 25 27 26 8 27 9 28 10 29 2 30 3 31 1 32 24 33
REMARK H PARENT 24 34
REMARK Flexibility Score: inf
ROOT
ATOM      1  C   UNL     1      46.374 -55.146 314.065  1.00  0.00     0.014 C 
ATOM      2  C   UNL     1      45.250 -54.679 313.123  1.00  0.00     0.014 C 
ATOM      3  C   UNL     1      45.762 -54.835 315.433  1.00  0.00     0.012 C 
ATOM      4  C   UNL     1      47.677 -54.319 313.966  1.00  0.00     0.014 C 
ATOM      5  C   UNL     1      43.929 -54.993 313.863  1.00  0.00     0.009 C 
ATOM      6  C   UNL     1      46.645 -55.196 316.669  1.00  0.00     0.000 C 
ATOM      7  C   UNL     1      44.294 -55.268 315.343  1.00  0.00     0.018 C 
ATOM      8  C   UNL     1      48.664 -54.732 315.087  1.00  0.00     0.008 C 
ATOM      9  C   UNL     1      46.647 -56.667 317.019  1.00  0.00     0.005 C 
ATOM     10  C   UNL     1      48.122 -54.617 316.565  1.00  0.00    -0.024 C 
ATOM     11  C   UNL     1      47.219 -56.869 318.418  1.00  0.00     0.005 C 
ATOM     12  C   UNL     1      49.172 -55.330 317.622  1.00  0.00    -0.024 C 
ATOM     13  C   UNL     1      47.975 -53.082 316.886  1.00  0.00     0.012 C 
ATOM     14  C   UNL     1      48.383 -55.898 318.880  1.00  0.00     0.002 C 
ATOM     15  C   UNL     1      49.967 -56.548 317.052  1.00  0.00     0.008 C 
ATOM     16  C   UNL     1      50.258 -54.260 317.979  1.00  0.00     0.012 C 
ATOM     17  C   UNL     1      49.239 -56.625 320.032  1.00  0.00    -0.026 C 
ATOM     18  C   UNL     1      50.869 -57.263 318.081  1.00  0.00     0.005 C 
ATOM     19  C   UNL     1      50.056 -55.608 320.899  1.00  0.00     0.010 C 
ATOM     20  C   UNL     1      48.208 -57.267 321.031  1.00  0.00     0.012 C 
ATOM     21  C   UNL     1      50.181 -57.740 319.399  1.00  0.00     0.003 C 
ATOM     22  C   UNL     1      51.032 -56.254 321.895  1.00  0.00     0.033 C 
ATOM     23  C   UNL     1      51.235 -58.378 320.418  1.00  0.00    -0.006 C 
ATOM     24  C   UNL     1      51.980 -57.249 321.201  1.00  0.00     0.120 C 
ATOM     25  C   UNL     1      50.539 -59.383 321.387  1.00  0.00     0.014 C 
ATOM     26  C   UNL     1      52.305 -59.220 319.661  1.00  0.00     0.014 C 
ENDROOT
BRANCH   1  27
ATOM     27  C   UNL     1      46.639 -56.629 313.778  1.00  0.00     0.048 C 
ATOM     28  O   UNL     1      45.855 -57.521 314.194  1.00  0.00    -0.550 OA
ATOM     29  O   UNL     1      47.676 -57.008 312.934  1.00  0.00    -0.550 OA
ENDBRANCH   1  27
BRANCH   7  30
ATOM     30  C   UNL     1      43.400 -54.544 316.343  1.00  0.00    -0.077 C 
ATOM     31  C   UNL     1      43.866 -54.226 317.743  1.00  0.00     0.039 C 
ATOM     32  C   UNL     1      42.137 -54.235 316.008  1.00  0.00     0.008 C 
ENDBRANCH   7  30
BRANCH  24  33
ATOM     33  O   UNL     1      52.904 -57.777 322.125  1.00  0.00    -0.393 OA
ATOM     34  H   UNL     1      53.614 -57.099 322.272  1.00  0.00     0.210 HD
ENDBRANCH  24  33
TORSDOF 3
ENDMDL
MODEL 2
REMARK VINA RESULT:    45.817      1.784      7.778
REMARK INTER + INTRA:          52.953
REMARK INTER:                  52.730
REMARK INTRA:                   0.223
REMARK UNBOUND:                 0.439
REMARK SMILES C=C(C)[C@H]1CC[C@@]2(C(=O)[O-])CC[C@@]3(C)[C@H](CC[C@H]4[C@]5(C)CC[C@@H](O)C(C)(C)[C@@H]5CC[C@]43C)[C@H]12
REMARK SMILES IDX 7 1 6 2 33 3 11 4 5 5 15 6 4 7 12 8 16 9 13 10 17 11 31 12
REMARK SMILES IDX 14 13 18 14 30 15 32 16 19 17 29 18 21 19 20 20 28 21 22 22
REMARK SMILES IDX 25 23 23 24 26 25 27 26 8 27 9 28 10 29 2 30 3 31 1 32 24 33
REMARK H PARENT 24 34
REMARK Flexibility Score: inf
ROOT
ATOM      1  C   UNL     1      50.867 -57.414 320.606  1.00  0.00     0.014 C 
ATOM      2  C   UNL     1      51.748 -57.356 321.866  1.00  0.00     0.014 C 
ATOM      3  C   UNL     1      50.653 -55.924 320.326  1.00  0.00     0.012 C 
ATOM      4  C   UNL     1      49.465 -58.026 320.832  1.00  0.00     0.014 C 
ATOM      5  C   UNL     1      52.638 -56.104 321.695  1.00  0.00     0.009 C 
ATOM      6  C   UNL     1      49.782 -55.588 319.074  1.00  0.00     0.000 C 
ATOM      7  C   UNL     1      52.011 -55.255 320.561  1.00  0.00     0.018 C 
ATOM      8  C   UNL     1      48.590 -57.852 319.566  1.00  0.00     0.008 C 
ATOM      9  C   UNL     1      50.517 -55.715 317.759  1.00  0.00     0.005 C 
ATOM     10  C   UNL     1      48.400 -56.373 319.052  1.00  0.00    -0.024 C 
ATOM     11  C   UNL     1      49.724 -55.030 316.651  1.00  0.00     0.005 C 
ATOM     12  C   UNL     1      47.676 -56.365 317.568  1.00  0.00    -0.024 C 
ATOM     13  C   UNL     1      47.499 -55.628 320.107  1.00  0.00     0.012 C 
ATOM     14  C   UNL     1      48.143 -55.093 316.735  1.00  0.00     0.002 C 
ATOM     15  C   UNL     1      48.005 -57.593 316.659  1.00  0.00     0.008 C 
ATOM     16  C   UNL     1      46.131 -56.436 317.812  1.00  0.00     0.012 C 
ATOM     17  C   UNL     1      47.536 -54.903 315.258  1.00  0.00    -0.026 C 
ATOM     18  C   UNL     1      47.400 -57.521 315.240  1.00  0.00     0.005 C 
ATOM     19  C   UNL     1      46.039 -54.441 315.284  1.00  0.00     0.010 C 
ATOM     20  C   UNL     1      48.313 -53.708 314.594  1.00  0.00     0.012 C 
ATOM     21  C   UNL     1      47.719 -56.237 314.410  1.00  0.00     0.003 C 
ATOM     22  C   UNL     1      45.353 -54.419 313.909  1.00  0.00     0.033 C 
ATOM     23  C   UNL     1      46.962 -56.241 313.003  1.00  0.00    -0.006 C 
ATOM     24  C   UNL     1      45.483 -55.770 313.184  1.00  0.00     0.120 C 
ATOM     25  C   UNL     1      47.717 -55.362 311.958  1.00  0.00     0.014 C 
ATOM     26  C   UNL     1      46.937 -57.671 312.386  1.00  0.00     0.014 C 
ENDROOT
BRANCH   1  27
ATOM     27  C   UNL     1      51.639 -58.187 319.530  1.00  0.00     0.048 C 
ATOM     28  O   UNL     1      52.818 -57.870 319.223  1.00  0.00    -0.550 OA
ATOM     29  O   UNL     1      51.102 -59.340 318.969  1.00  0.00    -0.550 OA
ENDBRANCH   1  27
BRANCH   7  30
ATOM     30  C   UNL     1      51.892 -53.772 320.895  1.00  0.00    -0.077 C 
ATOM     31  C   UNL     1      51.492 -52.752 319.856  1.00  0.00     0.039 C 
ATOM     32  C   UNL     1      52.214 -53.336 322.124  1.00  0.00     0.008 C 
ENDBRANCH   7  30
BRANCH  24  33
ATOM     33  O   UNL     1      44.790 -55.742 311.957  1.00  0.00    -0.393 OA
ATOM     34  H   UNL     1      44.115 -55.016 312.001  1.00  0.00     0.210 HD
ENDBRANCH  24  33
TORSDOF 3
ENDMDL
MODEL 3
REMARK VINA RESULT:    48.094      1.962      7.971
REMARK INTER + INTRA:          55.562
REMARK INTER:                  54.958
REMARK INTRA:                   0.604
REMARK UNBOUND:                 0.439
REMARK SMILES C=C(C)[C@H]1CC[C@@]2(C(=O)[O-])CC[C@@]3(C)[C@H](CC[C@H]4[C@]5(C)CC[C@@H](O)C(C)(C)[C@@H]5CC[C@]43C)[C@H]12
REMARK SMILES IDX 7 1 6 2 33 3 11 4 5 5 15 6 4 7 12 8 16 9 13 10 17 11 31 12
REMARK SMILES IDX 14 13 18 14 30 15 32 16 19 17 29 18 21 19 20 20 28 21 22 22
REMARK SMILES IDX 25 23 23 24 26 25 27 26 8 27 9 28 10 29 2 30 3 31 1 32 24 33
REMARK H PARENT 24 34
REMARK Flexibility Score: inf
ROOT
ATOM      1  C   UNL     1      50.507 -57.979 320.432  1.00  0.00     0.014 C 
ATOM      2  C   UNL     1      51.551 -58.733 321.275  1.00  0.00     0.014 C 
ATOM      3  C   UNL     1      51.156 -58.026 319.047  1.00  0.00     0.012 C 
ATOM      4  C   UNL     1      50.351 -56.484 320.796  1.00  0.00     0.014 C 
ATOM      5  C   UNL     1      52.134 -59.819 320.341  1.00  0.00     0.009 C 
ATOM      6  C   UNL     1      50.349 -57.341 317.898  1.00  0.00     0.000 C 
ATOM      7  C   UNL     1      51.720 -59.443 318.896  1.00  0.00     0.018 C 
ATOM      8  C   UNL     1      49.437 -55.772 319.768  1.00  0.00     0.008 C 
ATOM      9  C   UNL     1      49.198 -58.170 317.373  1.00  0.00     0.005 C 
ATOM     10  C   UNL     1      49.890 -55.863 318.259  1.00  0.00    -0.024 C 
ATOM     11  C   UNL     1      48.712 -57.603 316.044  1.00  0.00     0.005 C 
ATOM     12  C   UNL     1      48.701 -55.295 317.264  1.00  0.00    -0.024 C 
ATOM     13  C   UNL     1      51.193 -54.992 318.112  1.00  0.00     0.012 C 
ATOM     14  C   UNL     1      48.764 -56.031 315.855  1.00  0.00     0.002 C 
ATOM     15  C   UNL     1      47.241 -55.515 317.776  1.00  0.00     0.008 C 
ATOM     16  C   UNL     1      48.877 -53.741 317.181  1.00  0.00     0.012 C 
ATOM     17  C   UNL     1      47.686 -55.604 314.740  1.00  0.00    -0.026 C 
ATOM     18  C   UNL     1      46.141 -55.068 316.789  1.00  0.00     0.005 C 
ATOM     19  C   UNL     1      47.997 -54.202 314.116  1.00  0.00     0.010 C 
ATOM     20  C   UNL     1      47.836 -56.617 313.547  1.00  0.00     0.012 C 
ATOM     21  C   UNL     1      46.215 -55.660 315.346  1.00  0.00     0.003 C 
ATOM     22  C   UNL     1      46.904 -53.662 313.180  1.00  0.00     0.033 C 
ATOM     23  C   UNL     1      45.082 -55.050 314.398  1.00  0.00    -0.006 C 
ATOM     24  C   UNL     1      45.523 -53.650 313.860  1.00  0.00     0.120 C 
ATOM     25  C   UNL     1      44.740 -56.028 313.232  1.00  0.00     0.014 C 
ATOM     26  C   UNL     1      43.745 -54.862 315.176  1.00  0.00     0.014 C 
ENDROOT
BRANCH   1  27
ATOM     27  C   UNL     1      49.173 -58.722 320.566  1.00  0.00     0.048 C 
ATOM     28  O   UNL     1      48.142 -58.318 319.969  1.00  0.00    -0.550 OA
ATOM     29  O   UNL     1      49.108 -59.937 321.240  1.00  0.00    -0.550 OA
ENDBRANCH   1  27
BRANCH   7  30
ATOM     30  C   UNL     1      52.861 -59.523 317.887  1.00  0.00    -0.077 C 
ATOM     31  C   UNL     1      52.609 -59.501 316.399  1.00  0.00     0.039 C 
ATOM     32  C   UNL     1      54.122 -59.687 318.317  1.00  0.00     0.008 C 
ENDBRANCH   7  30
BRANCH  24  33
ATOM     33  O   UNL     1      44.555 -53.090 313.003  1.00  0.00    -0.393 OA
ATOM     34  H   UNL     1      43.710 -52.993 313.514  1.00  0.00     0.210 HD
ENDBRANCH  24  33
TORSDOF 3
ENDMDL
