MODEL 1
REMARK VINA RESULT:    -5.844      0.000      0.000
REMARK INTER + INTRA:          -7.092
REMARK INTER:                  -6.869
REMARK INTRA:                  -0.224
REMARK UNBOUND:                -0.224
REMARK SMILES O=c1c(O)c(-c2ccc(O)c(O)c2)oc2cc(O)ccc12
REMARK SMILES IDX 5 1 3 2 2 3 1 4 21 5 15 6 14 7 16 8 17 9 19 10 20 11 6 12
REMARK SMILES IDX 7 13 8 14 9 15 13 16 11 17 10 18 12 20 4 22 18 24
REMARK H PARENT 10 19 12 21 4 23 18 25
REMARK Flexibility Score: inf
ROOT
ATOM      1  C   UNL     1      20.992  39.610   4.820  1.00  0.00     0.180 A 
ATOM      2  C   UNL     1      20.736  40.504   5.880  1.00  0.00     0.208 A 
ATOM      3  C   UNL     1      20.722  40.009   7.193  1.00  0.00     0.235 A 
ATOM      4  O   UNL     1      20.506  40.791   8.160  1.00  0.00    -0.285 OA
ATOM      5  C   UNL     1      20.943  38.641   7.418  1.00  0.00     0.069 A 
ATOM      6  C   UNL     1      21.168  37.807   6.301  1.00  0.00     0.142 A 
ATOM      7  O   UNL     1      21.182  38.317   5.074  1.00  0.00    -0.452 OA
ATOM      8  C   UNL     1      21.383  36.437   6.483  1.00  0.00     0.094 A 
ATOM      9  C   UNL     1      21.376  35.886   7.768  1.00  0.00     0.119 A 
ATOM     10  C   UNL     1      21.153  36.711   8.880  1.00  0.00     0.047 A 
ATOM     11  C   UNL     1      20.937  38.082   8.709  1.00  0.00     0.020 A 
ENDROOT
BRANCH   1  12
ATOM     12  C   UNL     1      21.042  40.057   3.409  1.00  0.00     0.025 A 
ATOM     13  C   UNL     1      22.082  40.878   2.937  1.00  0.00     0.016 A 
ATOM     14  C   UNL     1      22.120  41.269   1.595  1.00  0.00     0.051 A 
ATOM     15  C   UNL     1      21.130  40.834   0.705  1.00  0.00     0.157 A 
ATOM     16  C   UNL     1      20.063  39.609   2.507  1.00  0.00     0.062 A 
ATOM     17  C   UNL     1      20.101  40.000   1.161  1.00  0.00     0.158 A 
BRANCH  15  18
ATOM     18  O   UNL     1      21.164  41.223  -0.633  1.00  0.00    -0.504 OA
ATOM     19  H   UNL     1      20.584  40.772  -1.331  1.00  0.00     0.293 HD
ENDBRANCH  15  18
BRANCH  17  20
ATOM     20  O   UNL     1      19.121  39.564   0.271  1.00  0.00    -0.504 OA
ATOM     21  H   UNL     1      18.506  40.216  -0.202  1.00  0.00     0.293 HD
ENDBRANCH  17  20
ENDBRANCH   1  12
BRANCH   2  22
ATOM     22  O   UNL     1      20.470  41.851   5.622  1.00  0.00    -0.502 OA
ATOM     23  H   UNL     1      20.844  42.331   4.811  1.00  0.00     0.293 HD
ENDBRANCH   2  22
BRANCH   9  24
ATOM     24  O   UNL     1      21.591  34.519   7.931  1.00  0.00    -0.508 OA
ATOM     25  H   UNL     1      22.462  34.161   8.306  1.00  0.00     0.293 HD
ENDBRANCH   9  24
TORSDOF 5
ENDMDL
MODEL 2
REMARK VINA RESULT:    -5.522      1.197      2.929
REMARK INTER + INTRA:          -6.715
REMARK INTER:                  -6.404
REMARK INTRA:                  -0.311
REMARK UNBOUND:                -0.224
REMARK SMILES O=c1c(O)c(-c2ccc(O)c(O)c2)oc2cc(O)ccc12
REMARK SMILES IDX 5 1 3 2 2 3 1 4 21 5 15 6 14 7 16 8 17 9 19 10 20 11 6 12
REMARK SMILES IDX 7 13 8 14 9 15 13 16 11 17 10 18 12 20 4 22 18 24
REMARK H PARENT 10 19 12 21 4 23 18 25
REMARK Flexibility Score: inf
ROOT
ATOM      1  C   UNL     1      20.942  39.300   4.754  1.00  0.00     0.180 A 
ATOM      2  C   UNL     1      21.392  38.005   5.085  1.00  0.00     0.208 A 
ATOM      3  C   UNL     1      21.236  37.552   6.403  1.00  0.00     0.235 A 
ATOM      4  O   UNL     1      21.620  36.393   6.722  1.00  0.00    -0.285 OA
ATOM      5  C   UNL     1      20.659  38.400   7.362  1.00  0.00     0.069 A 
ATOM      6  C   UNL     1      20.257  39.691   6.957  1.00  0.00     0.142 A 
ATOM      7  O   UNL     1      20.413  40.078   5.696  1.00  0.00    -0.452 OA
ATOM      8  C   UNL     1      19.686  40.569   7.884  1.00  0.00     0.094 A 
ATOM      9  C   UNL     1      19.510  40.174   9.214  1.00  0.00     0.119 A 
ATOM     10  C   UNL     1      19.908  38.893   9.620  1.00  0.00     0.047 A 
ATOM     11  C   UNL     1      20.480  38.007   8.701  1.00  0.00     0.020 A 
ENDROOT
BRANCH   1  12
ATOM     12  C   UNL     1      21.053  39.844   3.381  1.00  0.00     0.025 A 
ATOM     13  C   UNL     1      22.161  40.615   2.986  1.00  0.00     0.016 A 
ATOM     14  C   UNL     1      22.254  41.099   1.678  1.00  0.00     0.051 A 
ATOM     15  C   UNL     1      21.251  40.807   0.744  1.00  0.00     0.157 A 
ATOM     16  C   UNL     1      20.060  39.538   2.435  1.00  0.00     0.062 A 
ATOM     17  C   UNL     1      20.154  40.023   1.122  1.00  0.00     0.158 A 
BRANCH  15  18
ATOM     18  O   UNL     1      21.341  41.289  -0.561  1.00  0.00    -0.504 OA
ATOM     19  H   UNL     1      20.808  40.875  -1.316  1.00  0.00     0.293 HD
ENDBRANCH  15  18
BRANCH  17  20
ATOM     20  O   UNL     1      19.162  39.729   0.189  1.00  0.00    -0.504 OA
ATOM     21  H   UNL     1      18.322  39.224   0.449  1.00  0.00     0.293 HD
ENDBRANCH  17  20
ENDBRANCH   1  12
BRANCH   2  22
ATOM     22  O   UNL     1      22.008  37.202   4.121  1.00  0.00    -0.502 OA
ATOM     23  H   UNL     1      22.008  37.441   3.136  1.00  0.00     0.293 HD
ENDBRANCH   2  22
BRANCH   9  24
ATOM     24  O   UNL     1      18.941  41.061  10.125  1.00  0.00    -0.508 OA
ATOM     25  H   UNL     1      18.008  40.916  10.494  1.00  0.00     0.293 HD
ENDBRANCH   9  24
TORSDOF 5
ENDMDL
MODEL 3
REMARK VINA RESULT:    -5.485      1.486      6.576
REMARK INTER + INTRA:          -6.671
REMARK INTER:                  -6.536
REMARK INTRA:                  -0.135
REMARK UNBOUND:                -0.224
REMARK SMILES O=c1c(O)c(-c2ccc(O)c(O)c2)oc2cc(O)ccc12
REMARK SMILES IDX 5 1 3 2 2 3 1 4 21 5 15 6 14 7 16 8 17 9 19 10 20 11 6 12
REMARK SMILES IDX 7 13 8 14 9 15 13 16 11 17 10 18 12 20 4 22 18 24
REMARK H PARENT 10 19 12 21 4 23 18 25
REMARK Flexibility Score: inf
ROOT
ATOM      1  C   UNL     1      20.410  39.209   5.484  1.00  0.00     0.180 A 
ATOM      2  C   UNL     1      19.245  40.000   5.557  1.00  0.00     0.208 A 
ATOM      3  C   UNL     1      18.926  40.835   4.475  1.00  0.00     0.235 A 
ATOM      4  O   UNL     1      17.883  41.545   4.512  1.00  0.00    -0.285 OA
ATOM      5  C   UNL     1      19.780  40.880   3.361  1.00  0.00     0.069 A 
ATOM      6  C   UNL     1      20.940  40.075   3.376  1.00  0.00     0.142 A 
ATOM      7  O   UNL     1      21.201  39.291   4.416  1.00  0.00    -0.452 OA
ATOM      8  C   UNL     1      21.821  40.099   2.289  1.00  0.00     0.094 A 
ATOM      9  C   UNL     1      21.558  40.915   1.185  1.00  0.00     0.119 A 
ATOM     10  C   UNL     1      20.406  41.715   1.167  1.00  0.00     0.047 A 
ATOM     11  C   UNL     1      19.520  41.700   2.248  1.00  0.00     0.020 A 
ENDROOT
BRANCH   1  12
ATOM     12  C   UNL     1      20.805  38.289   6.575  1.00  0.00     0.025 A 
ATOM     13  C   UNL     1      21.106  38.766   7.863  1.00  0.00     0.016 A 
ATOM     14  C   UNL     1      21.455  37.875   8.882  1.00  0.00     0.051 A 
ATOM     15  C   UNL     1      21.492  36.497   8.633  1.00  0.00     0.157 A 
ATOM     16  C   UNL     1      20.825  36.904   6.337  1.00  0.00     0.062 A 
ATOM     17  C   UNL     1      21.174  36.010   7.359  1.00  0.00     0.158 A 
BRANCH  15  18
ATOM     18  O   UNL     1      21.840  35.606   9.648  1.00  0.00    -0.504 OA
ATOM     19  H   UNL     1      21.137  35.118  10.189  1.00  0.00     0.293 HD
ENDBRANCH  15  18
BRANCH  17  20
ATOM     20  O   UNL     1      21.205  34.639   7.117  1.00  0.00    -0.504 OA
ATOM     21  H   UNL     1      21.701  34.002   7.732  1.00  0.00     0.293 HD
ENDBRANCH  17  20
ENDBRANCH   1  12
BRANCH   2  22
ATOM     22  O   UNL     1      18.441  39.972   6.699  1.00  0.00    -0.502 OA
ATOM     23  H   UNL     1      18.583  39.301   7.445  1.00  0.00     0.293 HD
ENDBRANCH   2  22
BRANCH   9  24
ATOM     24  O   UNL     1      22.446  40.927   0.112  1.00  0.00    -0.508 OA
ATOM     25  H   UNL     1      22.769  41.795  -0.299  1.00  0.00     0.293 HD
ENDBRANCH   9  24
TORSDOF 5
ENDMDL
MODEL 4
REMARK VINA RESULT:    -5.332      1.200      6.550
REMARK INTER + INTRA:          -6.490
REMARK INTER:                  -6.621
REMARK INTRA:                   0.130
REMARK UNBOUND:                -0.224
REMARK SMILES O=c1c(O)c(-c2ccc(O)c(O)c2)oc2cc(O)ccc12
REMARK SMILES IDX 5 1 3 2 2 3 1 4 21 5 15 6 14 7 16 8 17 9 19 10 20 11 6 12
REMARK SMILES IDX 7 13 8 14 9 15 13 16 11 17 10 18 12 20 4 22 18 24
REMARK H PARENT 10 19 12 21 4 23 18 25
REMARK Flexibility Score: inf
ROOT
ATOM      1  C   UNL     1      21.066  39.204   5.680  1.00  0.00     0.180 A 
ATOM      2  C   UNL     1      21.626  40.496   5.756  1.00  0.00     0.208 A 
ATOM      3  C   UNL     1      21.553  41.331   4.631  1.00  0.00     0.235 A 
ATOM      4  O   UNL     1      22.036  42.496   4.677  1.00  0.00    -0.285 OA
ATOM      5  C   UNL     1      20.945  40.858   3.457  1.00  0.00     0.069 A 
ATOM      6  C   UNL     1      20.430  39.543   3.454  1.00  0.00     0.142 A 
ATOM      7  O   UNL     1      20.512  38.788   4.544  1.00  0.00    -0.452 OA
ATOM      8  C   UNL     1      19.826  39.032   2.301  1.00  0.00     0.094 A 
ATOM      9  C   UNL     1      19.727  39.817   1.148  1.00  0.00     0.119 A 
ATOM     10  C   UNL     1      20.237  41.123   1.147  1.00  0.00     0.047 A 
ATOM     11  C   UNL     1      20.844  41.644   2.295  1.00  0.00     0.020 A 
ENDROOT
BRANCH   1  12
ATOM     12  C   UNL     1      21.086  38.270   6.829  1.00  0.00     0.025 A 
ATOM     13  C   UNL     1      20.878  38.722   8.144  1.00  0.00     0.016 A 
ATOM     14  C   UNL     1      20.879  37.817   9.210  1.00  0.00     0.051 A 
ATOM     15  C   UNL     1      21.073  36.450   8.976  1.00  0.00     0.157 A 
ATOM     16  C   UNL     1      21.261  36.895   6.598  1.00  0.00     0.062 A 
ATOM     17  C   UNL     1      21.261  35.987   7.667  1.00  0.00     0.158 A 
BRANCH  15  18
ATOM     18  O   UNL     1      21.075  35.545  10.037  1.00  0.00    -0.504 OA
ATOM     19  H   UNL     1      21.075  34.545   9.880  1.00  0.00     0.293 HD
ENDBRANCH  15  18
BRANCH  17  20
ATOM     20  O   UNL     1      21.447  34.626   7.437  1.00  0.00    -0.504 OA
ATOM     21  H   UNL     1      21.420  33.951   8.194  1.00  0.00     0.293 HD
ENDBRANCH  17  20
ENDBRANCH   1  12
BRANCH   2  22
ATOM     22  O   UNL     1      22.268  40.922   6.922  1.00  0.00    -0.502 OA
ATOM     23  H   UNL     1      21.890  41.653   7.513  1.00  0.00     0.293 HD
ENDBRANCH   2  22
BRANCH   9  24
ATOM     24  O   UNL     1      19.123  39.291   0.008  1.00  0.00    -0.508 OA
ATOM     25  H   UNL     1      18.331  38.662   0.071  1.00  0.00     0.293 HD
ENDBRANCH   9  24
TORSDOF 5
ENDMDL
MODEL 5
REMARK VINA RESULT:    -5.240      2.187      6.886
REMARK INTER + INTRA:          -6.383
REMARK INTER:                  -6.395
REMARK INTRA:                   0.012
REMARK UNBOUND:                -0.224
REMARK SMILES O=c1c(O)c(-c2ccc(O)c(O)c2)oc2cc(O)ccc12
REMARK SMILES IDX 5 1 3 2 2 3 1 4 21 5 15 6 14 7 16 8 17 9 19 10 20 11 6 12
REMARK SMILES IDX 7 13 8 14 9 15 13 16 11 17 10 18 12 20 4 22 18 24
REMARK H PARENT 10 19 12 21 4 23 18 25
REMARK Flexibility Score: inf
ROOT
ATOM      1  C   UNL     1      20.707  38.244   6.277  1.00  0.00     0.180 A 
ATOM      2  C   UNL     1      21.189  38.257   4.953  1.00  0.00     0.208 A 
ATOM      3  C   UNL     1      20.688  39.217   4.060  1.00  0.00     0.235 A 
ATOM      4  O   UNL     1      21.111  39.256   2.872  1.00  0.00    -0.285 OA
ATOM      5  C   UNL     1      19.708  40.123   4.498  1.00  0.00     0.069 A 
ATOM      6  C   UNL     1      19.260  40.029   5.833  1.00  0.00     0.142 A 
ATOM      7  O   UNL     1      19.768  39.111   6.649  1.00  0.00    -0.452 OA
ATOM      8  C   UNL     1      18.279  40.907   6.305  1.00  0.00     0.094 A 
ATOM      9  C   UNL     1      17.739  41.881   5.460  1.00  0.00     0.119 A 
ATOM     10  C   UNL     1      18.182  41.978   4.133  1.00  0.00     0.047 A 
ATOM     11  C   UNL     1      19.162  41.105   3.652  1.00  0.00     0.020 A 
ENDROOT
BRANCH   1  12
ATOM     12  C   UNL     1      21.199  37.276   7.284  1.00  0.00     0.025 A 
ATOM     13  C   UNL     1      21.639  37.698   8.552  1.00  0.00     0.016 A 
ATOM     14  C   UNL     1      22.078  36.763   9.494  1.00  0.00     0.051 A 
ATOM     15  C   UNL     1      22.071  35.396   9.188  1.00  0.00     0.157 A 
ATOM     16  C   UNL     1      21.176  35.902   6.991  1.00  0.00     0.062 A 
ATOM     17  C   UNL     1      21.617  34.964   7.936  1.00  0.00     0.158 A 
BRANCH  15  18
ATOM     18  O   UNL     1      22.510  34.461  10.125  1.00  0.00    -0.504 OA
ATOM     19  H   UNL     1      23.048  33.648   9.850  1.00  0.00     0.293 HD
ENDBRANCH  15  18
BRANCH  17  20
ATOM     20  O   UNL     1      21.605  33.603   7.637  1.00  0.00    -0.504 OA
ATOM     21  H   UNL     1      20.738  33.105   7.467  1.00  0.00     0.293 HD
ENDBRANCH  17  20
ENDBRANCH   1  12
BRANCH   2  22
ATOM     22  O   UNL     1      22.128  37.311   4.531  1.00  0.00    -0.502 OA
ATOM     23  H   UNL     1      22.738  37.470   3.738  1.00  0.00     0.293 HD
ENDBRANCH   2  22
BRANCH   9  24
ATOM     24  O   UNL     1      16.762  42.748   5.946  1.00  0.00    -0.508 OA
ATOM     25  H   UNL     1      16.873  43.754   5.894  1.00  0.00     0.293 HD
ENDBRANCH   9  24
TORSDOF 5
ENDMDL
MODEL 6
REMARK VINA RESULT:    -4.892      3.069      4.105
REMARK INTER + INTRA:          -5.973
REMARK INTER:                  -5.982
REMARK INTRA:                   0.009
REMARK UNBOUND:                -0.224
REMARK SMILES O=c1c(O)c(-c2ccc(O)c(O)c2)oc2cc(O)ccc12
REMARK SMILES IDX 5 1 3 2 2 3 1 4 21 5 15 6 14 7 16 8 17 9 19 10 20 11 6 12
REMARK SMILES IDX 7 13 8 14 9 15 13 16 11 17 10 18 12 20 4 22 18 24
REMARK H PARENT 10 19 12 21 4 23 18 25
REMARK Flexibility Score: inf
ROOT
ATOM      1  C   UNL     1      19.332  40.156   6.148  1.00  0.00     0.180 A 
ATOM      2  C   UNL     1      20.221  40.142   7.243  1.00  0.00     0.208 A 
ATOM      3  C   UNL     1      19.692  40.114   8.543  1.00  0.00     0.235 A 
ATOM      4  O   UNL     1      20.467  40.090   9.539  1.00  0.00    -0.285 OA
ATOM      5  C   UNL     1      18.300  40.120   8.723  1.00  0.00     0.069 A 
ATOM      6  C   UNL     1      17.477  40.159   7.575  1.00  0.00     0.142 A 
ATOM      7  O   UNL     1      18.018  40.176   6.362  1.00  0.00    -0.452 OA
ATOM      8  C   UNL     1      16.086  40.176   7.713  1.00  0.00     0.094 A 
ATOM      9  C   UNL     1      15.502  40.154   8.983  1.00  0.00     0.119 A 
ATOM     10  C   UNL     1      16.314  40.115  10.125  1.00  0.00     0.047 A 
ATOM     11  C   UNL     1      17.707  40.098   9.998  1.00  0.00     0.020 A 
ENDROOT
BRANCH   1  12
ATOM     12  C   UNL     1      19.811  40.167   4.747  1.00  0.00     0.025 A 
ATOM     13  C   UNL     1      19.378  41.144   3.833  1.00  0.00     0.016 A 
ATOM     14  C   UNL     1      19.862  41.147   2.521  1.00  0.00     0.051 A 
ATOM     15  C   UNL     1      20.793  40.185   2.110  1.00  0.00     0.157 A 
ATOM     16  C   UNL     1      20.760  39.217   4.334  1.00  0.00     0.062 A 
ATOM     17  C   UNL     1      21.245  39.220   3.018  1.00  0.00     0.158 A 
BRANCH  15  18
ATOM     18  O   UNL     1      21.276  40.185   0.802  1.00  0.00    -0.504 OA
ATOM     19  H   UNL     1      21.558  39.327   0.342  1.00  0.00     0.293 HD
ENDBRANCH  15  18
BRANCH  17  20
ATOM     20  O   UNL     1      22.177  38.269   2.608  1.00  0.00    -0.504 OA
ATOM     21  H   UNL     1      22.690  37.705   3.276  1.00  0.00     0.293 HD
ENDBRANCH  17  20
ENDBRANCH   1  12
BRANCH   2  22
ATOM     22  O   UNL     1      21.602  40.186   7.034  1.00  0.00    -0.502 OA
ATOM     23  H   UNL     1      22.190  40.897   7.454  1.00  0.00     0.293 HD
ENDBRANCH   2  22
BRANCH   9  24
ATOM     24  O   UNL     1      14.113  40.172   9.102  1.00  0.00    -0.508 OA
ATOM     25  H   UNL     1      13.519  39.673   8.450  1.00  0.00     0.293 HD
ENDBRANCH   9  24
TORSDOF 5
ENDMDL
MODEL 7
REMARK VINA RESULT:    -4.843      1.886      3.505
REMARK INTER + INTRA:          -5.916
REMARK INTER:                  -5.611
REMARK INTRA:                  -0.305
REMARK UNBOUND:                -0.224
REMARK SMILES O=c1c(O)c(-c2ccc(O)c(O)c2)oc2cc(O)ccc12
REMARK SMILES IDX 5 1 3 2 2 3 1 4 21 5 15 6 14 7 16 8 17 9 19 10 20 11 6 12
REMARK SMILES IDX 7 13 8 14 9 15 13 16 11 17 10 18 12 20 4 22 18 24
REMARK H PARENT 10 19 12 21 4 23 18 25
REMARK Flexibility Score: inf
ROOT
ATOM      1  C   UNL     1      21.191  40.214   3.139  1.00  0.00     0.180 A 
ATOM      2  C   UNL     1      21.626  38.910   3.450  1.00  0.00     0.208 A 
ATOM      3  C   UNL     1      21.312  38.374   4.708  1.00  0.00     0.235 A 
ATOM      4  O   UNL     1      21.682  37.205   5.007  1.00  0.00    -0.285 OA
ATOM      5  C   UNL     1      20.593  39.151   5.630  1.00  0.00     0.069 A 
ATOM      6  C   UNL     1      20.213  40.457   5.252  1.00  0.00     0.142 A 
ATOM      7  O   UNL     1      20.523  40.924   4.047  1.00  0.00    -0.452 OA
ATOM      8  C   UNL     1      19.504  41.266   6.145  1.00  0.00     0.094 A 
ATOM      9  C   UNL     1      19.166  40.788   7.415  1.00  0.00     0.119 A 
ATOM     10  C   UNL     1      19.541  39.491   7.795  1.00  0.00     0.047 A 
ATOM     11  C   UNL     1      20.251  38.674   6.909  1.00  0.00     0.020 A 
ENDROOT
BRANCH   1  12
ATOM     12  C   UNL     1      21.466  40.843   1.828  1.00  0.00     0.025 A 
ATOM     13  C   UNL     1      22.690  41.483   1.564  1.00  0.00     0.016 A 
ATOM     14  C   UNL     1      22.935  42.050   0.310  1.00  0.00     0.051 A 
ATOM     15  C   UNL     1      21.968  41.973  -0.701  1.00  0.00     0.157 A 
ATOM     16  C   UNL     1      20.508  40.753   0.804  1.00  0.00     0.062 A 
ATOM     17  C   UNL     1      20.753  41.321  -0.455  1.00  0.00     0.158 A 
BRANCH  15  18
ATOM     18  O   UNL     1      22.209  42.539  -1.952  1.00  0.00    -0.504 OA
ATOM     19  H   UNL     1      23.057  43.058  -2.145  1.00  0.00     0.293 HD
ENDBRANCH  15  18
BRANCH  17  20
ATOM     20  O   UNL     1      19.797  41.241  -1.464  1.00  0.00    -0.504 OA
ATOM     21  H   UNL     1      19.030  40.580  -1.417  1.00  0.00     0.293 HD
ENDBRANCH  17  20
ENDBRANCH   1  12
BRANCH   2  22
ATOM     22  O   UNL     1      22.384  38.179   2.531  1.00  0.00    -0.502 OA
ATOM     23  H   UNL     1      22.349  37.167   2.485  1.00  0.00     0.293 HD
ENDBRANCH   2  22
BRANCH   9  24
ATOM     24  O   UNL     1      18.460  41.607   8.293  1.00  0.00    -0.508 OA
ATOM     25  H   UNL     1      18.435  42.613   8.175  1.00  0.00     0.293 HD
ENDBRANCH   9  24
TORSDOF 5
ENDMDL
MODEL 8
REMARK VINA RESULT:    -4.766      3.722      6.516
REMARK INTER + INTRA:          -5.825
REMARK INTER:                  -5.571
REMARK INTRA:                  -0.254
REMARK UNBOUND:                -0.224
REMARK SMILES O=c1c(O)c(-c2ccc(O)c(O)c2)oc2cc(O)ccc12
REMARK SMILES IDX 5 1 3 2 2 3 1 4 21 5 15 6 14 7 16 8 17 9 19 10 20 11 6 12
REMARK SMILES IDX 7 13 8 14 9 15 13 16 11 17 10 18 12 20 4 22 18 24
REMARK H PARENT 10 19 12 21 4 23 18 25
REMARK Flexibility Score: inf
ROOT
ATOM      1  C   UNL     1      18.527  40.029   7.429  1.00  0.00     0.180 A 
ATOM      2  C   UNL     1      19.477  39.353   8.223  1.00  0.00     0.208 A 
ATOM      3  C   UNL     1      20.518  38.659   7.588  1.00  0.00     0.235 A 
ATOM      4  O   UNL     1      21.386  38.056   8.277  1.00  0.00    -0.285 OA
ATOM      5  C   UNL     1      20.578  38.636   6.186  1.00  0.00     0.069 A 
ATOM      6  C   UNL     1      19.576  39.317   5.462  1.00  0.00     0.142 A 
ATOM      7  O   UNL     1      18.612  39.970   6.102  1.00  0.00    -0.452 OA
ATOM      8  C   UNL     1      19.596  39.310   4.064  1.00  0.00     0.094 A 
ATOM      9  C   UNL     1      20.606  38.631   3.376  1.00  0.00     0.119 A 
ATOM     10  C   UNL     1      21.604  37.954   4.091  1.00  0.00     0.047 A 
ATOM     11  C   UNL     1      21.593  37.954   5.489  1.00  0.00     0.020 A 
ENDROOT
BRANCH   1  12
ATOM     12  C   UNL     1      17.411  40.799   8.023  1.00  0.00     0.025 A 
ATOM     13  C   UNL     1      17.409  42.205   8.022  1.00  0.00     0.016 A 
ATOM     14  C   UNL     1      16.333  42.911   8.569  1.00  0.00     0.051 A 
ATOM     15  C   UNL     1      15.239  42.222   9.109  1.00  0.00     0.157 A 
ATOM     16  C   UNL     1      16.302  40.115   8.549  1.00  0.00     0.062 A 
ATOM     17  C   UNL     1      15.222  40.822   9.097  1.00  0.00     0.158 A 
BRANCH  15  18
ATOM     18  O   UNL     1      14.165  42.923   9.656  1.00  0.00    -0.504 OA
ATOM     19  H   UNL     1      13.682  43.643   9.134  1.00  0.00     0.293 HD
ENDBRANCH  15  18
BRANCH  17  20
ATOM     20  O   UNL     1      14.130  40.141   9.630  1.00  0.00    -0.504 OA
ATOM     21  H   UNL     1      14.161  39.142   9.804  1.00  0.00     0.293 HD
ENDBRANCH  17  20
ENDBRANCH   1  12
BRANCH   2  22
ATOM     22  O   UNL     1      19.363  39.352   9.616  1.00  0.00    -0.502 OA
ATOM     23  H   UNL     1      18.638  39.870  10.101  1.00  0.00     0.293 HD
ENDBRANCH   2  22
BRANCH   9  24
ATOM     24  O   UNL     1      20.611  38.633   1.982  1.00  0.00    -0.508 OA
ATOM     25  H   UNL     1      19.811  38.958   1.451  1.00  0.00     0.293 HD
ENDBRANCH   9  24
TORSDOF 5
ENDMDL
