MODEL 1
REMARK VINA RESULT:    -3.979      0.000      0.000
REMARK INTER + INTRA:          -5.635
REMARK INTER:                  -5.375
REMARK INTRA:                  -0.260
REMARK UNBOUND:                -0.260
REMARK SMILES CCCCCCC=CC(=O)[O-]
REMARK SMILES IDX 5 1 6 2 7 3 8 4 9 5 10 6 11 7 4 8 3 9 2 10 1 11
REMARK H PARENT
REMARK Flexibility Score: inf
ROOT
ATOM      1  C   UNL     1      31.826 166.771 156.216  1.00  0.00     0.004 C 
ENDROOT
BRANCH   1   2
ATOM      2  C   UNL     1      31.456 167.448 154.885  1.00  0.00     0.027 C 
BRANCH   2   3
ATOM      3  C   UNL     1      30.179 168.237 154.972  1.00  0.00    -0.025 C 
ATOM      4  C   UNL     1      30.178 169.572 154.914  1.00  0.00     0.020 C 
BRANCH   4   5
ATOM      5  C   UNL     1      28.936 170.356 154.993  1.00  0.00     0.064 C 
ATOM      6  O   UNL     1      28.993 171.613 154.987  1.00  0.00    -0.545 OA
ATOM      7  O   UNL     1      27.698 169.728 155.076  1.00  0.00    -0.545 OA
ENDBRANCH   4   5
ENDBRANCH   2   3
ENDBRANCH   1   2
BRANCH   1   8
ATOM      8  C   UNL     1      33.256 167.071 156.711  1.00  0.00     0.000 C 
BRANCH   8   9
ATOM      9  C   UNL     1      33.679 166.310 157.980  1.00  0.00    -0.000 C 
BRANCH   9  10
ATOM     10  C   UNL     1      32.650 165.257 158.414  1.00  0.00    -0.003 C 
ATOM     11  C   UNL     1      31.999 165.639 159.740  1.00  0.00     0.004 C 
ENDBRANCH   9  10
ENDBRANCH   8   9
ENDBRANCH   1   8
TORSDOF 6
ENDMDL
MODEL 2
REMARK VINA RESULT:    -3.858      0.987      1.175
REMARK INTER + INTRA:          -5.471
REMARK INTER:                  -5.048
REMARK INTRA:                  -0.423
REMARK UNBOUND:                -0.260
REMARK SMILES CCCCCCC=CC(=O)[O-]
REMARK SMILES IDX 5 1 6 2 7 3 8 4 9 5 10 6 11 7 4 8 3 9 2 10 1 11
REMARK H PARENT
REMARK Flexibility Score: inf
ROOT
ATOM      1  C   UNL     1      32.721 167.523 156.467  1.00  0.00     0.004 C 
ENDROOT
BRANCH   1   2
ATOM      2  C   UNL     1      31.933 166.994 155.255  1.00  0.00     0.027 C 
BRANCH   2   3
ATOM      3  C   UNL     1      30.607 167.683 155.082  1.00  0.00    -0.025 C 
ATOM      4  C   UNL     1      30.482 169.005 155.229  1.00  0.00     0.020 C 
BRANCH   4   5
ATOM      5  C   UNL     1      29.193 169.691 155.057  1.00  0.00     0.064 C 
ATOM      6  O   UNL     1      29.165 170.945 154.955  1.00  0.00    -0.545 OA
ATOM      7  O   UNL     1      28.002 168.975 155.007  1.00  0.00    -0.545 OA
ENDBRANCH   4   5
ENDBRANCH   2   3
ENDBRANCH   1   2
BRANCH   1   8
ATOM      8  C   UNL     1      33.343 166.424 157.353  1.00  0.00     0.000 C 
BRANCH   8   9
ATOM      9  C   UNL     1      32.477 165.984 158.548  1.00  0.00    -0.000 C 
BRANCH   9  10
ATOM     10  C   UNL     1      31.404 167.017 158.918  1.00  0.00    -0.003 C 
ATOM     11  C   UNL     1      30.837 166.746 160.309  1.00  0.00     0.004 C 
ENDBRANCH   9  10
ENDBRANCH   8   9
ENDBRANCH   1   8
TORSDOF 6
ENDMDL
MODEL 3
REMARK VINA RESULT:    -3.720      3.679      5.632
REMARK INTER + INTRA:          -5.285
REMARK INTER:                  -4.759
REMARK INTRA:                  -0.526
REMARK UNBOUND:                -0.260
REMARK SMILES CCCCCCC=CC(=O)[O-]
REMARK SMILES IDX 5 1 6 2 7 3 8 4 9 5 10 6 11 7 4 8 3 9 2 10 1 11
REMARK H PARENT
REMARK Flexibility Score: inf
ROOT
ATOM      1  C   UNL     1      33.737 166.083 157.944  1.00  0.00     0.004 C 
ENDROOT
BRANCH   1   2
ATOM      2  C   UNL     1      32.522 165.184 158.231  1.00  0.00     0.027 C 
BRANCH   2   3
ATOM      3  C   UNL     1      32.034 165.304 159.649  1.00  0.00    -0.025 C 
ATOM      4  C   UNL     1      31.226 166.298 160.027  1.00  0.00     0.020 C 
BRANCH   4   5
ATOM      5  C   UNL     1      30.738 166.425 161.408  1.00  0.00     0.064 C 
ATOM      6  O   UNL     1      31.380 165.887 162.346  1.00  0.00    -0.545 OA
ATOM      7  O   UNL     1      29.574 167.130 161.694  1.00  0.00    -0.545 OA
ENDBRANCH   4   5
ENDBRANCH   2   3
ENDBRANCH   1   2
BRANCH   1   8
ATOM      8  C   UNL     1      33.542 167.065 156.770  1.00  0.00     0.000 C 
BRANCH   8   9
ATOM      9  C   UNL     1      32.086 167.498 156.519  1.00  0.00    -0.000 C 
BRANCH   9  10
ATOM     10  C   UNL     1      31.606 167.176 155.097  1.00  0.00    -0.003 C 
ATOM     11  C   UNL     1      30.454 166.174 155.121  1.00  0.00     0.004 C 
ENDBRANCH   9  10
ENDBRANCH   8   9
ENDBRANCH   1   8
TORSDOF 6
ENDMDL
MODEL 4
REMARK VINA RESULT:    -3.609     22.026     23.121
REMARK INTER + INTRA:          -5.135
REMARK INTER:                  -4.419
REMARK INTRA:                  -0.717
REMARK UNBOUND:                -0.260
REMARK SMILES CCCCCCC=CC(=O)[O-]
REMARK SMILES IDX 5 1 6 2 7 3 8 4 9 5 10 6 11 7 4 8 3 9 2 10 1 11
REMARK H PARENT
REMARK Flexibility Score: inf
ROOT
ATOM      1  C   UNL     1      39.669 180.367 173.343  1.00  0.00     0.004 C 
ENDROOT
BRANCH   1   2
ATOM      2  C   UNL     1      38.340 180.299 174.115  1.00  0.00     0.027 C 
BRANCH   2   3
ATOM      3  C   UNL     1      37.181 180.838 173.322  1.00  0.00    -0.025 C 
ATOM      4  C   UNL     1      37.367 181.495 172.173  1.00  0.00     0.020 C 
BRANCH   4   5
ATOM      5  C   UNL     1      36.242 182.022 171.385  1.00  0.00     0.064 C 
ATOM      6  O   UNL     1      35.073 181.626 171.628  1.00  0.00    -0.545 OA
ATOM      7  O   UNL     1      36.451 182.952 170.373  1.00  0.00    -0.545 OA
ENDBRANCH   4   5
ENDBRANCH   2   3
ENDBRANCH   1   2
BRANCH   1   8
ATOM      8  C   UNL     1      40.854 180.924 174.158  1.00  0.00     0.000 C 
BRANCH   8   9
ATOM      9  C   UNL     1      40.603 182.291 174.821  1.00  0.00    -0.000 C 
BRANCH   9  10
ATOM     10  C   UNL     1      40.254 183.390 173.807  1.00  0.00    -0.003 C 
ATOM     11  C   UNL     1      38.980 184.127 174.213  1.00  0.00     0.004 C 
ENDBRANCH   9  10
ENDBRANCH   8   9
ENDBRANCH   1   8
TORSDOF 6
ENDMDL
MODEL 5
REMARK VINA RESULT:    -3.555      3.959      5.009
REMARK INTER + INTRA:          -5.062
REMARK INTER:                  -4.369
REMARK INTRA:                  -0.694
REMARK UNBOUND:                -0.260
REMARK SMILES CCCCCCC=CC(=O)[O-]
REMARK SMILES IDX 5 1 6 2 7 3 8 4 9 5 10 6 11 7 4 8 3 9 2 10 1 11
REMARK H PARENT
REMARK Flexibility Score: inf
ROOT
ATOM      1  C   UNL     1      31.151 167.738 157.019  1.00  0.00     0.004 C 
ENDROOT
BRANCH   1   2
ATOM      2  C   UNL     1      29.941 166.889 157.444  1.00  0.00     0.027 C 
BRANCH   2   3
ATOM      3  C   UNL     1      30.073 166.353 158.844  1.00  0.00    -0.025 C 
ATOM      4  C   UNL     1      30.583 167.096 159.831  1.00  0.00     0.020 C 
BRANCH   4   5
ATOM      5  C   UNL     1      30.712 166.586 161.204  1.00  0.00     0.064 C 
ATOM      6  O   UNL     1      29.815 166.839 162.049  1.00  0.00    -0.545 OA
ATOM      7  O   UNL     1      31.814 165.827 161.585  1.00  0.00    -0.545 OA
ENDBRANCH   4   5
ENDBRANCH   2   3
ENDBRANCH   1   2
BRANCH   1   8
ATOM      8  C   UNL     1      32.148 167.012 156.094  1.00  0.00     0.000 C 
BRANCH   8   9
ATOM      9  C   UNL     1      33.592 166.936 156.624  1.00  0.00    -0.000 C 
BRANCH   9  10
ATOM     10  C   UNL     1      33.665 166.471 158.085  1.00  0.00    -0.003 C 
ATOM     11  C   UNL     1      33.601 164.949 158.181  1.00  0.00     0.004 C 
ENDBRANCH   9  10
ENDBRANCH   8   9
ENDBRANCH   1   8
TORSDOF 6
ENDMDL
MODEL 6
REMARK VINA RESULT:    -3.531      3.078      4.981
REMARK INTER + INTRA:          -5.030
REMARK INTER:                  -4.608
REMARK INTRA:                  -0.422
REMARK UNBOUND:                -0.260
REMARK SMILES CCCCCCC=CC(=O)[O-]
REMARK SMILES IDX 5 1 6 2 7 3 8 4 9 5 10 6 11 7 4 8 3 9 2 10 1 11
REMARK H PARENT
REMARK Flexibility Score: inf
ROOT
ATOM      1  C   UNL     1      32.538 165.399 158.604  1.00  0.00     0.004 C 
ENDROOT
BRANCH   1   2
ATOM      2  C   UNL     1      31.903 165.671 159.979  1.00  0.00     0.027 C 
BRANCH   2   3
ATOM      3  C   UNL     1      30.847 166.741 159.927  1.00  0.00    -0.025 C 
ATOM      4  C   UNL     1      30.028 166.964 160.959  1.00  0.00     0.020 C 
BRANCH   4   5
ATOM      5  C   UNL     1      28.995 168.011 160.924  1.00  0.00     0.064 C 
ATOM      6  O   UNL     1      28.038 167.912 160.113  1.00  0.00    -0.545 OA
ATOM      7  O   UNL     1      29.061 169.110 161.773  1.00  0.00    -0.545 OA
ENDBRANCH   4   5
ENDBRANCH   2   3
ENDBRANCH   1   2
BRANCH   1   8
ATOM      8  C   UNL     1      33.591 166.440 158.170  1.00  0.00     0.000 C 
BRANCH   8   9
ATOM      9  C   UNL     1      33.475 166.911 156.708  1.00  0.00    -0.000 C 
BRANCH   9  10
ATOM     10  C   UNL     1      32.091 167.485 156.375  1.00  0.00    -0.003 C 
ATOM     11  C   UNL     1      31.459 166.746 155.199  1.00  0.00     0.004 C 
ENDBRANCH   9  10
ENDBRANCH   8   9
ENDBRANCH   1   8
TORSDOF 6
ENDMDL
MODEL 7
REMARK VINA RESULT:    -3.514      1.613      2.799
REMARK INTER + INTRA:          -5.006
REMARK INTER:                  -4.381
REMARK INTRA:                  -0.626
REMARK UNBOUND:                -0.260
REMARK SMILES CCCCCCC=CC(=O)[O-]
REMARK SMILES IDX 5 1 6 2 7 3 8 4 9 5 10 6 11 7 4 8 3 9 2 10 1 11
REMARK H PARENT
REMARK Flexibility Score: inf
ROOT
ATOM      1  C   UNL     1      33.108 166.862 158.209  1.00  0.00     0.004 C 
ENDROOT
BRANCH   1   2
ATOM      2  C   UNL     1      33.448 166.799 156.709  1.00  0.00     0.027 C 
BRANCH   2   3
ATOM      3  C   UNL     1      32.285 167.181 155.836  1.00  0.00    -0.025 C 
ATOM      4  C   UNL     1      31.380 168.081 156.232  1.00  0.00     0.020 C 
BRANCH   4   5
ATOM      5  C   UNL     1      30.241 168.468 155.386  1.00  0.00     0.064 C 
ATOM      6  O   UNL     1      29.447 167.585 154.970  1.00  0.00    -0.545 OA
ATOM      7  O   UNL     1      30.029 169.797 155.035  1.00  0.00    -0.545 OA
ENDBRANCH   4   5
ENDBRANCH   2   3
ENDBRANCH   1   2
BRANCH   1   8
ATOM      8  C   UNL     1      32.527 165.555 158.788  1.00  0.00     0.000 C 
BRANCH   8   9
ATOM      9  C   UNL     1      31.476 165.745 159.896  1.00  0.00    -0.000 C 
BRANCH   9  10
ATOM     10  C   UNL     1      30.772 167.108 159.823  1.00  0.00    -0.003 C 
ATOM     11  C   UNL     1      29.384 166.975 159.203  1.00  0.00     0.004 C 
ENDBRANCH   9  10
ENDBRANCH   8   9
ENDBRANCH   1   8
TORSDOF 6
ENDMDL
