MODEL 1
REMARK VINA RESULT:    -3.809      0.000      0.000
REMARK INTER + INTRA:          -5.765
REMARK INTER:                  -5.145
REMARK INTRA:                  -0.621
REMARK UNBOUND:                -0.621
REMARK SMILES CCCCCCCC(=O)[O-]
REMARK SMILES IDX 5 1 6 2 7 3 8 4 9 5 10 6 4 7 3 8 2 9 1 10
REMARK H PARENT
REMARK Flexibility Score: inf
ROOT
ATOM      1  C   UNL     1      63.036  29.019  12.649  1.00  0.00     0.000 C 
ENDROOT
BRANCH   1   2
ATOM      2  C   UNL     1      61.750  29.248  13.459  1.00  0.00     0.006 C 
BRANCH   2   3
ATOM      3  C   UNL     1      60.707  28.144  13.238  1.00  0.00     0.053 C 
BRANCH   3   4
ATOM      4  C   UNL     1      59.506  28.695  12.535  1.00  0.00     0.041 C 
ATOM      5  O   UNL     1      58.466  27.995  12.413  1.00  0.00    -0.550 OA
ATOM      6  O   UNL     1      59.517  30.000  12.058  1.00  0.00    -0.550 OA
ENDBRANCH   3   4
ENDBRANCH   2   3
ENDBRANCH   1   2
BRANCH   1   7
ATOM      7  C   UNL     1      63.000  29.710  11.275  1.00  0.00     0.000 C 
BRANCH   7   8
ATOM      8  C   UNL     1      62.772  28.719  10.122  1.00  0.00    -0.000 C 
BRANCH   8   9
ATOM      9  C   UNL     1      61.504  29.031   9.315  1.00  0.00    -0.003 C 
ATOM     10  C   UNL     1      60.660  27.776   9.111  1.00  0.00     0.004 C 
ENDBRANCH   8   9
ENDBRANCH   7   8
ENDBRANCH   1   7
TORSDOF 6
ENDMDL
MODEL 2
REMARK VINA RESULT:    -3.797      2.032      3.330
REMARK INTER + INTRA:          -5.750
REMARK INTER:                  -5.138
REMARK INTRA:                  -0.612
REMARK UNBOUND:                -0.621
REMARK SMILES CCCCCCCC(=O)[O-]
REMARK SMILES IDX 5 1 6 2 7 3 8 4 9 5 10 6 4 7 3 8 2 9 1 10
REMARK H PARENT
REMARK Flexibility Score: inf
ROOT
ATOM      1  C   UNL     1      62.482  29.878  13.298  1.00  0.00     0.000 C 
ENDROOT
BRANCH   1   2
ATOM      2  C   UNL     1      61.728  28.774  12.539  1.00  0.00     0.006 C 
BRANCH   2   3
ATOM      3  C   UNL     1      60.507  28.254  13.311  1.00  0.00     0.053 C 
BRANCH   3   4
ATOM      4  C   UNL     1      59.276  28.350  12.464  1.00  0.00     0.041 C 
ATOM      5  O   UNL     1      59.306  28.970  11.369  1.00  0.00    -0.550 OA
ATOM      6  O   UNL     1      58.108  27.712  12.862  1.00  0.00    -0.550 OA
ENDBRANCH   3   4
ENDBRANCH   2   3
ENDBRANCH   1   2
BRANCH   1   7
ATOM      7  C   UNL     1      62.413  31.239  12.583  1.00  0.00     0.000 C 
BRANCH   7   8
ATOM      8  C   UNL     1      61.560  32.264  13.348  1.00  0.00    -0.000 C 
BRANCH   8   9
ATOM      9  C   UNL     1      60.070  32.178  12.990  1.00  0.00    -0.003 C 
ATOM     10  C   UNL     1      59.245  31.707  14.185  1.00  0.00     0.004 C 
ENDBRANCH   8   9
ENDBRANCH   7   8
ENDBRANCH   1   7
TORSDOF 6
ENDMDL
MODEL 3
REMARK VINA RESULT:    -3.790      2.237      3.999
REMARK INTER + INTRA:          -5.740
REMARK INTER:                  -5.187
REMARK INTRA:                  -0.553
REMARK UNBOUND:                -0.621
REMARK SMILES CCCCCCCC(=O)[O-]
REMARK SMILES IDX 5 1 6 2 7 3 8 4 9 5 10 6 4 7 3 8 2 9 1 10
REMARK H PARENT
REMARK Flexibility Score: inf
ROOT
ATOM      1  C   UNL     1      60.243  27.799  13.107  1.00  0.00     0.000 C 
ENDROOT
BRANCH   1   2
ATOM      2  C   UNL     1      59.074  28.447  12.349  1.00  0.00     0.006 C 
BRANCH   2   3
ATOM      3  C   UNL     1      59.539  29.311  11.169  1.00  0.00     0.053 C 
BRANCH   3   4
ATOM      4  C   UNL     1      59.796  28.456   9.967  1.00  0.00     0.041 C 
ATOM      5  O   UNL     1      58.860  28.182   9.171  1.00  0.00    -0.550 OA
ATOM      6  O   UNL     1      61.081  28.002   9.699  1.00  0.00    -0.550 OA
ENDBRANCH   3   4
ENDBRANCH   2   3
ENDBRANCH   1   2
BRANCH   1   7
ATOM      7  C   UNL     1      61.354  28.806  13.452  1.00  0.00     0.000 C 
BRANCH   7   8
ATOM      8  C   UNL     1      60.981  29.715  14.634  1.00  0.00    -0.000 C 
BRANCH   8   9
ATOM      9  C   UNL     1      60.885  31.195  14.237  1.00  0.00    -0.003 C 
ATOM     10  C   UNL     1      59.434  31.668  14.227  1.00  0.00     0.004 C 
ENDBRANCH   8   9
ENDBRANCH   7   8
ENDBRANCH   1   7
TORSDOF 6
ENDMDL
MODEL 4
REMARK VINA RESULT:    -3.770     13.651     15.458
REMARK INTER + INTRA:          -5.713
REMARK INTER:                  -5.099
REMARK INTRA:                  -0.614
REMARK UNBOUND:                -0.621
REMARK SMILES CCCCCCCC(=O)[O-]
REMARK SMILES IDX 5 1 6 2 7 3 8 4 9 5 10 6 4 7 3 8 2 9 1 10
REMARK H PARENT
REMARK Flexibility Score: inf
ROOT
ATOM      1  C   UNL     1      62.637  30.101  25.620  1.00  0.00     0.000 C 
ENDROOT
BRANCH   1   2
ATOM      2  C   UNL     1      62.183  28.814  24.914  1.00  0.00     0.006 C 
BRANCH   2   3
ATOM      3  C   UNL     1      60.718  28.463  25.208  1.00  0.00     0.053 C 
BRANCH   3   4
ATOM      4  C   UNL     1      60.617  27.080  25.771  1.00  0.00     0.041 C 
ATOM      5  O   UNL     1      59.540  26.435  25.680  1.00  0.00    -0.550 OA
ATOM      6  O   UNL     1      61.728  26.484  26.354  1.00  0.00    -0.550 OA
ENDBRANCH   3   4
ENDBRANCH   2   3
ENDBRANCH   1   2
BRANCH   1   7
ATOM      7  C   UNL     1      63.270  29.828  26.996  1.00  0.00     0.000 C 
BRANCH   7   8
ATOM      8  C   UNL     1      62.308  30.127  28.157  1.00  0.00    -0.000 C 
BRANCH   8   9
ATOM      9  C   UNL     1      62.020  28.891  29.022  1.00  0.00    -0.003 C 
ATOM     10  C   UNL     1      60.520  28.631  29.125  1.00  0.00     0.004 C 
ENDBRANCH   8   9
ENDBRANCH   7   8
ENDBRANCH   1   7
TORSDOF 6
ENDMDL
MODEL 5
REMARK VINA RESULT:    -3.752      2.621      4.200
REMARK INTER + INTRA:          -5.689
REMARK INTER:                  -5.163
REMARK INTRA:                  -0.526
REMARK UNBOUND:                -0.621
REMARK SMILES CCCCCCCC(=O)[O-]
REMARK SMILES IDX 5 1 6 2 7 3 8 4 9 5 10 6 4 7 3 8 2 9 1 10
REMARK H PARENT
REMARK Flexibility Score: inf
ROOT
ATOM      1  C   UNL     1      60.697  28.943  13.724  1.00  0.00     0.000 C 
ENDROOT
BRANCH   1   2
ATOM      2  C   UNL     1      61.992  28.591  12.975  1.00  0.00     0.006 C 
BRANCH   2   3
ATOM      3  C   UNL     1      62.203  29.451  11.722  1.00  0.00     0.053 C 
BRANCH   3   4
ATOM      4  C   UNL     1      62.172  28.597  10.492  1.00  0.00     0.041 C 
ATOM      5  O   UNL     1      61.130  27.958  10.190  1.00  0.00    -0.550 OA
ATOM      6  O   UNL     1      63.278  28.547   9.653  1.00  0.00    -0.550 OA
ENDBRANCH   3   4
ENDBRANCH   2   3
ENDBRANCH   1   2
BRANCH   1   7
ATOM      7  C   UNL     1      59.828  29.956  12.958  1.00  0.00     0.000 C 
BRANCH   7   8
ATOM      8  C   UNL     1      59.572  31.241  13.763  1.00  0.00    -0.000 C 
BRANCH   8   9
ATOM      9  C   UNL     1      60.330  32.452  13.202  1.00  0.00    -0.003 C 
ATOM     10  C   UNL     1      61.716  32.572  13.832  1.00  0.00     0.004 C 
ENDBRANCH   8   9
ENDBRANCH   7   8
ENDBRANCH   1   7
TORSDOF 6
ENDMDL
MODEL 6
REMARK VINA RESULT:    -3.727     12.670     13.887
REMARK INTER + INTRA:          -5.654
REMARK INTER:                  -5.153
REMARK INTRA:                  -0.502
REMARK UNBOUND:                -0.621
REMARK SMILES CCCCCCCC(=O)[O-]
REMARK SMILES IDX 5 1 6 2 7 3 8 4 9 5 10 6 4 7 3 8 2 9 1 10
REMARK H PARENT
REMARK Flexibility Score: inf
ROOT
ATOM      1  C   UNL     1      62.791  29.006  24.125  1.00  0.00     0.000 C 
ENDROOT
BRANCH   1   2
ATOM      2  C   UNL     1      61.535  29.347  24.942  1.00  0.00     0.006 C 
BRANCH   2   3
ATOM      3  C   UNL     1      60.741  28.100  25.356  1.00  0.00     0.053 C 
BRANCH   3   4
ATOM      4  C   UNL     1      61.008  27.765  26.790  1.00  0.00     0.041 C 
ATOM      5  O   UNL     1      60.693  28.576  27.700  1.00  0.00    -0.550 OA
ATOM      6  O   UNL     1      61.558  26.534  27.126  1.00  0.00    -0.550 OA
ENDBRANCH   3   4
ENDBRANCH   2   3
ENDBRANCH   1   2
BRANCH   1   7
ATOM      7  C   UNL     1      62.545  27.879  23.106  1.00  0.00     0.000 C 
BRANCH   7   8
ATOM      8  C   UNL     1      63.706  26.873  23.047  1.00  0.00    -0.000 C 
BRANCH   8   9
ATOM      9  C   UNL     1      63.630  25.815  24.156  1.00  0.00    -0.003 C 
ATOM     10  C   UNL     1      64.650  26.097  25.255  1.00  0.00     0.004 C 
ENDBRANCH   8   9
ENDBRANCH   7   8
ENDBRANCH   1   7
TORSDOF 6
ENDMDL
MODEL 7
REMARK VINA RESULT:    -3.691      1.725      3.476
REMARK INTER + INTRA:          -5.606
REMARK INTER:                  -5.203
REMARK INTRA:                  -0.403
REMARK UNBOUND:                -0.621
REMARK SMILES CCCCCCCC(=O)[O-]
REMARK SMILES IDX 5 1 6 2 7 3 8 4 9 5 10 6 4 7 3 8 2 9 1 10
REMARK H PARENT
REMARK Flexibility Score: inf
ROOT
ATOM      1  C   UNL     1      62.322  29.796  12.009  1.00  0.00     0.000 C 
ENDROOT
BRANCH   1   2
ATOM      2  C   UNL     1      62.712  28.907  10.818  1.00  0.00     0.006 C 
BRANCH   2   3
ATOM      3  C   UNL     1      62.050  29.350   9.507  1.00  0.00     0.053 C 
BRANCH   3   4
ATOM      4  C   UNL     1      60.725  28.675   9.338  1.00  0.00     0.041 C 
ATOM      5  O   UNL     1      60.663  27.506   8.875  1.00  0.00    -0.550 OA
ATOM      6  O   UNL     1      59.561  29.319   9.738  1.00  0.00    -0.550 OA
ENDBRANCH   3   4
ENDBRANCH   2   3
ENDBRANCH   1   2
BRANCH   1   7
ATOM      7  C   UNL     1      62.196  29.004  13.322  1.00  0.00     0.000 C 
BRANCH   7   8
ATOM      8  C   UNL     1      60.734  28.783  13.741  1.00  0.00    -0.000 C 
BRANCH   8   9
ATOM      9  C   UNL     1      60.027  27.721  12.887  1.00  0.00    -0.003 C 
ATOM     10  C   UNL     1      58.510  27.853  12.991  1.00  0.00     0.004 C 
ENDBRANCH   8   9
ENDBRANCH   7   8
ENDBRANCH   1   7
TORSDOF 6
ENDMDL
MODEL 8
REMARK VINA RESULT:    -3.684     13.814     15.315
REMARK INTER + INTRA:          -5.597
REMARK INTER:                  -5.144
REMARK INTRA:                  -0.454
REMARK UNBOUND:                -0.621
REMARK SMILES CCCCCCCC(=O)[O-]
REMARK SMILES IDX 5 1 6 2 7 3 8 4 9 5 10 6 4 7 3 8 2 9 1 10
REMARK H PARENT
REMARK Flexibility Score: inf
ROOT
ATOM      1  C   UNL     1      61.511  26.751  27.031  1.00  0.00     0.000 C 
ENDROOT
BRANCH   1   2
ATOM      2  C   UNL     1      61.737  27.523  28.341  1.00  0.00     0.006 C 
BRANCH   2   3
ATOM      3  C   UNL     1      61.114  28.925  28.316  1.00  0.00     0.053 C 
BRANCH   3   4
ATOM      4  C   UNL     1      62.174  29.963  28.120  1.00  0.00     0.041 C 
ATOM      5  O   UNL     1      62.820  30.014  27.040  1.00  0.00    -0.550 OA
ATOM      6  O   UNL     1      62.415  30.907  29.111  1.00  0.00    -0.550 OA
ENDBRANCH   3   4
ENDBRANCH   2   3
ENDBRANCH   1   2
BRANCH   1   7
ATOM      7  C   UNL     1      60.375  27.347  26.182  1.00  0.00     0.000 C 
BRANCH   7   8
ATOM      8  C   UNL     1      60.871  27.894  24.833  1.00  0.00    -0.000 C 
BRANCH   8   9
ATOM      9  C   UNL     1      62.312  27.469  24.516  1.00  0.00    -0.003 C 
ATOM     10  C   UNL     1      62.719  27.915  23.114  1.00  0.00     0.004 C 
ENDBRANCH   8   9
ENDBRANCH   7   8
ENDBRANCH   1   7
TORSDOF 6
ENDMDL
MODEL 9
REMARK VINA RESULT:    -3.672     13.646     14.376
REMARK INTER + INTRA:          -5.581
REMARK INTER:                  -5.032
REMARK INTRA:                  -0.549
REMARK UNBOUND:                -0.621
REMARK SMILES CCCCCCCC(=O)[O-]
REMARK SMILES IDX 5 1 6 2 7 3 8 4 9 5 10 6 4 7 3 8 2 9 1 10
REMARK H PARENT
REMARK Flexibility Score: inf
ROOT
ATOM      1  C   UNL     1      62.003  29.425  24.816  1.00  0.00     0.000 C 
ENDROOT
BRANCH   1   2
ATOM      2  C   UNL     1      61.343  28.077  24.482  1.00  0.00     0.006 C 
BRANCH   2   3
ATOM      3  C   UNL     1      60.270  27.675  25.503  1.00  0.00     0.053 C 
BRANCH   3   4
ATOM      4  C   UNL     1      60.878  27.510  26.861  1.00  0.00     0.041 C 
ATOM      5  O   UNL     1      61.679  26.566  27.087  1.00  0.00    -0.550 OA
ATOM      6  O   UNL     1      60.597  28.429  27.864  1.00  0.00    -0.550 OA
ENDBRANCH   3   4
ENDBRANCH   2   3
ENDBRANCH   1   2
BRANCH   1   7
ATOM      7  C   UNL     1      63.521  29.417  24.565  1.00  0.00     0.000 C 
BRANCH   7   8
ATOM      8  C   UNL     1      64.288  28.600  25.617  1.00  0.00    -0.000 C 
BRANCH   8   9
ATOM      9  C   UNL     1      65.201  27.536  24.991  1.00  0.00    -0.003 C 
ATOM     10  C   UNL     1      64.567  26.150  25.077  1.00  0.00     0.004 C 
ENDBRANCH   8   9
ENDBRANCH   7   8
ENDBRANCH   1   7
TORSDOF 6
ENDMDL
