MODEL 1
REMARK VINA RESULT:    -3.724      0.000      0.000
REMARK INTER + INTRA:         -10.015
REMARK INTER:                  -8.514
REMARK INTRA:                  -1.502
REMARK UNBOUND:                -1.502
REMARK SMILES CCCCCCCCCCCCCCCCCCCCCCCC(=O)[O-]
REMARK SMILES IDX 13 1 14 2 15 3 16 4 17 5 18 6 19 7 20 8 21 9 22 10 23 11
REMARK SMILES IDX 24 12 25 13 26 14 12 15 11 16 10 17 9 18 8 19 7 20 6 21 5 22
REMARK SMILES IDX 4 23 3 24 2 25 1 26
REMARK H PARENT
REMARK Flexibility Score: inf
ROOT
ATOM      1  C   UNL     1      -2.656  14.076  -4.849  1.00  0.00     0.000 C 
ENDROOT
BRANCH   1   2
ATOM      2  C   UNL     1      -2.863  14.916  -6.124  1.00  0.00     0.000 C 
BRANCH   2   3
ATOM      3  C   UNL     1      -3.018  16.435  -5.900  1.00  0.00     0.000 C 
BRANCH   3   4
ATOM      4  C   UNL     1      -1.765  17.148  -5.361  1.00  0.00     0.000 C 
BRANCH   4   5
ATOM      5  C   UNL     1      -0.464  16.620  -5.989  1.00  0.00     0.000 C 
BRANCH   5   6
ATOM      6  C   UNL     1       0.451  15.935  -4.961  1.00  0.00     0.000 C 
BRANCH   6   7
ATOM      7  C   UNL     1       0.338  16.571  -3.564  1.00  0.00     0.000 C 
BRANCH   7   8
ATOM      8  C   UNL     1      -0.188  15.586  -2.507  1.00  0.00     0.000 C 
BRANCH   8   9
ATOM      9  C   UNL     1      -0.518  16.268  -1.172  1.00  0.00     0.000 C 
BRANCH   9  10
ATOM     10  C   UNL     1       0.562  15.968  -0.122  1.00  0.00     0.006 C 
BRANCH  10  11
ATOM     11  C   UNL     1       0.607  17.027   0.987  1.00  0.00     0.053 C 
BRANCH  11  12
ATOM     12  C   UNL     1       1.806  16.858   1.871  1.00  0.00     0.041 C 
ATOM     13  O   UNL     1       2.249  15.706   2.124  1.00  0.00    -0.550 OA
ATOM     14  O   UNL     1       2.410  17.969   2.446  1.00  0.00    -0.550 OA
ENDBRANCH  11  12
ENDBRANCH  10  11
ENDBRANCH   9  10
ENDBRANCH   8   9
ENDBRANCH   7   8
ENDBRANCH   6   7
ENDBRANCH   5   6
ENDBRANCH   4   5
ENDBRANCH   3   4
ENDBRANCH   2   3
ENDBRANCH   1   2
BRANCH   1  15
ATOM     15  C   UNL     1      -2.850  12.569  -5.086  1.00  0.00     0.000 C 
BRANCH  15  16
ATOM     16  C   UNL     1      -1.667  11.725  -4.573  1.00  0.00     0.000 C 
BRANCH  16  17
ATOM     17  C   UNL     1      -0.462  12.530  -4.053  1.00  0.00     0.000 C 
BRANCH  17  18
ATOM     18  C   UNL     1       0.690  11.635  -3.567  1.00  0.00    -0.000 C 
BRANCH  18  19
ATOM     19  C   UNL     1       0.264  10.696  -2.427  1.00  0.00    -0.000 C 
BRANCH  19  20
ATOM     20  C   UNL     1       1.410  10.388  -1.448  1.00  0.00    -0.000 C 
BRANCH  20  21
ATOM     21  C   UNL     1       2.447   9.412  -2.034  1.00  0.00    -0.000 C 
BRANCH  21  22
ATOM     22  C   UNL     1       3.759   9.302  -1.230  1.00  0.00    -0.000 C 
BRANCH  22  23
ATOM     23  C   UNL     1       3.708   8.345  -0.022  1.00  0.00    -0.000 C 
BRANCH  23  24
ATOM     24  C   UNL     1       2.351   8.285   0.701  1.00  0.00    -0.000 C 
BRANCH  24  25
ATOM     25  C   UNL     1       2.006   6.877   1.207  1.00  0.00    -0.003 C 
ATOM     26  C   UNL     1       3.218   6.214   1.856  1.00  0.00     0.004 C 
ENDBRANCH  24  25
ENDBRANCH  23  24
ENDBRANCH  22  23
ENDBRANCH  21  22
ENDBRANCH  20  21
ENDBRANCH  19  20
ENDBRANCH  18  19
ENDBRANCH  17  18
ENDBRANCH  16  17
ENDBRANCH  15  16
ENDBRANCH   1  15
TORSDOF 22
ENDMDL
MODEL 2
REMARK VINA RESULT:    -3.091      1.105      1.787
REMARK INTER + INTRA:          -8.569
REMARK INTER:                  -5.850
REMARK INTRA:                  -2.718
REMARK UNBOUND:                -1.502
REMARK SMILES CCCCCCCCCCCCCCCCCCCCCCCC(=O)[O-]
REMARK SMILES IDX 13 1 14 2 15 3 16 4 17 5 18 6 19 7 20 8 21 9 22 10 23 11
REMARK SMILES IDX 24 12 25 13 26 14 12 15 11 16 10 17 9 18 8 19 7 20 6 21 5 22
REMARK SMILES IDX 4 23 3 24 2 25 1 26
REMARK H PARENT
REMARK Flexibility Score: inf
ROOT
ATOM      1  C   UNL     1      -2.446  13.301  -4.442  1.00  0.00     0.000 C 
ENDROOT
BRANCH   1   2
ATOM      2  C   UNL     1      -2.756  14.080  -5.735  1.00  0.00     0.000 C 
BRANCH   2   3
ATOM      3  C   UNL     1      -3.004  15.592  -5.557  1.00  0.00     0.000 C 
BRANCH   3   4
ATOM      4  C   UNL     1      -1.733  16.456  -5.451  1.00  0.00     0.000 C 
BRANCH   4   5
ATOM      5  C   UNL     1      -0.505  15.786  -6.091  1.00  0.00     0.000 C 
BRANCH   5   6
ATOM      6  C   UNL     1       0.655  15.611  -5.097  1.00  0.00     0.000 C 
BRANCH   6   7
ATOM      7  C   UNL     1       0.394  16.335  -3.763  1.00  0.00     0.000 C 
BRANCH   7   8
ATOM      8  C   UNL     1       0.033  15.366  -2.626  1.00  0.00     0.000 C 
BRANCH   8   9
ATOM      9  C   UNL     1      -1.064  15.916  -1.704  1.00  0.00     0.000 C 
BRANCH   9  10
ATOM     10  C   UNL     1      -0.450  16.631  -0.490  1.00  0.00     0.006 C 
BRANCH  10  11
ATOM     11  C   UNL     1       0.765  15.883   0.074  1.00  0.00     0.053 C 
BRANCH  11  12
ATOM     12  C   UNL     1       1.292  16.533   1.318  1.00  0.00     0.041 C 
ATOM     13  O   UNL     1       0.893  17.680   1.651  1.00  0.00    -0.550 OA
ATOM     14  O   UNL     1       2.251  15.888   2.088  1.00  0.00    -0.550 OA
ENDBRANCH  11  12
ENDBRANCH  10  11
ENDBRANCH   9  10
ENDBRANCH   8   9
ENDBRANCH   7   8
ENDBRANCH   6   7
ENDBRANCH   5   6
ENDBRANCH   4   5
ENDBRANCH   3   4
ENDBRANCH   2   3
ENDBRANCH   1   2
BRANCH   1  15
ATOM     15  C   UNL     1      -1.398  12.194  -4.644  1.00  0.00     0.000 C 
BRANCH  15  16
ATOM     16  C   UNL     1      -0.312  12.191  -3.553  1.00  0.00     0.000 C 
BRANCH  16  17
ATOM     17  C   UNL     1       1.100  11.802  -4.031  1.00  0.00     0.000 C 
BRANCH  17  18
ATOM     18  C   UNL     1       1.702  10.635  -3.232  1.00  0.00    -0.000 C 
BRANCH  18  19
ATOM     19  C   UNL     1       3.221  10.507  -3.433  1.00  0.00    -0.000 C 
BRANCH  19  20
ATOM     20  C   UNL     1       3.915   9.771  -2.275  1.00  0.00    -0.000 C 
BRANCH  20  21
ATOM     21  C   UNL     1       3.892   8.241  -2.443  1.00  0.00    -0.000 C 
BRANCH  21  22
ATOM     22  C   UNL     1       4.108   7.443  -1.141  1.00  0.00    -0.000 C 
BRANCH  22  23
ATOM     23  C   UNL     1       3.167   7.819   0.022  1.00  0.00    -0.000 C 
BRANCH  23  24
ATOM     24  C   UNL     1       1.736   7.265  -0.097  1.00  0.00    -0.000 C 
BRANCH  24  25
ATOM     25  C   UNL     1       0.695   8.358  -0.376  1.00  0.00    -0.003 C 
ATOM     26  C   UNL     1       1.162   9.711   0.155  1.00  0.00     0.004 C 
ENDBRANCH  24  25
ENDBRANCH  23  24
ENDBRANCH  22  23
ENDBRANCH  21  22
ENDBRANCH  20  21
ENDBRANCH  19  20
ENDBRANCH  18  19
ENDBRANCH  17  18
ENDBRANCH  16  17
ENDBRANCH  15  16
ENDBRANCH   1  15
TORSDOF 22
ENDMDL
MODEL 3
REMARK VINA RESULT:    -2.915      1.398      2.001
REMARK INTER + INTRA:          -8.165
REMARK INTER:                  -6.601
REMARK INTRA:                  -1.564
REMARK UNBOUND:                -1.502
REMARK SMILES CCCCCCCCCCCCCCCCCCCCCCCC(=O)[O-]
REMARK SMILES IDX 13 1 14 2 15 3 16 4 17 5 18 6 19 7 20 8 21 9 22 10 23 11
REMARK SMILES IDX 24 12 25 13 26 14 12 15 11 16 10 17 9 18 8 19 7 20 6 21 5 22
REMARK SMILES IDX 4 23 3 24 2 25 1 26
REMARK H PARENT
REMARK Flexibility Score: inf
ROOT
ATOM      1  C   UNL     1      -3.396  14.147  -5.307  1.00  0.00     0.000 C 
ENDROOT
BRANCH   1   2
ATOM      2  C   UNL     1      -1.999  14.786  -5.192  1.00  0.00     0.000 C 
BRANCH   2   3
ATOM      3  C   UNL     1      -1.740  15.987  -6.125  1.00  0.00     0.000 C 
BRANCH   3   4
ATOM      4  C   UNL     1      -2.649  17.207  -5.891  1.00  0.00     0.000 C 
BRANCH   4   5
ATOM      5  C   UNL     1      -1.860  18.474  -5.519  1.00  0.00     0.000 C 
BRANCH   5   6
ATOM      6  C   UNL     1      -0.441  18.478  -6.110  1.00  0.00     0.000 C 
BRANCH   6   7
ATOM      7  C   UNL     1       0.631  18.148  -5.055  1.00  0.00     0.000 C 
BRANCH   7   8
ATOM      8  C   UNL     1       0.034  17.921  -3.657  1.00  0.00     0.000 C 
BRANCH   8   9
ATOM      9  C   UNL     1       0.455  16.578  -3.043  1.00  0.00     0.000 C 
BRANCH   9  10
ATOM     10  C   UNL     1      -0.768  15.810  -2.518  1.00  0.00     0.006 C 
BRANCH  10  11
ATOM     11  C   UNL     1      -1.114  16.185  -1.071  1.00  0.00     0.053 C 
BRANCH  11  12
ATOM     12  C   UNL     1       0.105  16.236  -0.201  1.00  0.00     0.041 C 
ATOM     13  O   UNL     1       0.897  15.257  -0.163  1.00  0.00    -0.550 OA
ATOM     14  O   UNL     1       0.347  17.348   0.595  1.00  0.00    -0.550 OA
ENDBRANCH  11  12
ENDBRANCH  10  11
ENDBRANCH   9  10
ENDBRANCH   8   9
ENDBRANCH   7   8
ENDBRANCH   6   7
ENDBRANCH   5   6
ENDBRANCH   4   5
ENDBRANCH   3   4
ENDBRANCH   2   3
ENDBRANCH   1   2
BRANCH   1  15
ATOM     15  C   UNL     1      -3.351  12.688  -5.791  1.00  0.00     0.000 C 
BRANCH  15  16
ATOM     16  C   UNL     1      -3.082  11.687  -4.652  1.00  0.00     0.000 C 
BRANCH  16  17
ATOM     17  C   UNL     1      -1.659  11.099  -4.614  1.00  0.00     0.000 C 
BRANCH  17  18
ATOM     18  C   UNL     1      -0.645  12.029  -3.929  1.00  0.00    -0.000 C 
BRANCH  18  19
ATOM     19  C   UNL     1       0.421  11.254  -3.137  1.00  0.00    -0.000 C 
BRANCH  19  20
ATOM     20  C   UNL     1       1.829  11.394  -3.740  1.00  0.00    -0.000 C 
BRANCH  20  21
ATOM     21  C   UNL     1       2.828  10.374  -3.163  1.00  0.00    -0.000 C 
BRANCH  21  22
ATOM     22  C   UNL     1       2.199   9.289  -2.266  1.00  0.00    -0.000 C 
BRANCH  22  23
ATOM     23  C   UNL     1       2.499   9.432  -0.759  1.00  0.00    -0.000 C 
BRANCH  23  24
ATOM     24  C   UNL     1       1.323   9.085   0.171  1.00  0.00    -0.000 C 
BRANCH  24  25
ATOM     25  C   UNL     1       1.290   7.601   0.562  1.00  0.00    -0.003 C 
ATOM     26  C   UNL     1       2.584   7.186   1.257  1.00  0.00     0.004 C 
ENDBRANCH  24  25
ENDBRANCH  23  24
ENDBRANCH  22  23
ENDBRANCH  21  22
ENDBRANCH  20  21
ENDBRANCH  19  20
ENDBRANCH  18  19
ENDBRANCH  17  18
ENDBRANCH  16  17
ENDBRANCH  15  16
ENDBRANCH   1  15
TORSDOF 22
ENDMDL
MODEL 4
REMARK VINA RESULT:    -2.717      2.889      7.645
REMARK INTER + INTRA:          -7.712
REMARK INTER:                  -6.468
REMARK INTRA:                  -1.245
REMARK UNBOUND:                -1.502
REMARK SMILES CCCCCCCCCCCCCCCCCCCCCCCC(=O)[O-]
REMARK SMILES IDX 13 1 14 2 15 3 16 4 17 5 18 6 19 7 20 8 21 9 22 10 23 11
REMARK SMILES IDX 24 12 25 13 26 14 12 15 11 16 10 17 9 18 8 19 7 20 6 21 5 22
REMARK SMILES IDX 4 23 3 24 2 25 1 26
REMARK H PARENT
REMARK Flexibility Score: inf
ROOT
ATOM      1  C   UNL     1       2.275  15.827  -5.407  1.00  0.00     0.000 C 
ENDROOT
BRANCH   1   2
ATOM      2  C   UNL     1       2.123  14.425  -6.028  1.00  0.00     0.000 C 
BRANCH   2   3
ATOM      3  C   UNL     1       2.070  13.255  -5.024  1.00  0.00     0.000 C 
BRANCH   3   4
ATOM      4  C   UNL     1       0.735  13.097  -4.273  1.00  0.00     0.000 C 
BRANCH   4   5
ATOM      5  C   UNL     1       0.469  11.647  -3.834  1.00  0.00     0.000 C 
BRANCH   5   6
ATOM      6  C   UNL     1       1.555  11.108  -2.889  1.00  0.00     0.000 C 
BRANCH   6   7
ATOM      7  C   UNL     1       2.714  10.442  -3.653  1.00  0.00     0.000 C 
BRANCH   7   8
ATOM      8  C   UNL     1       3.300   9.236  -2.901  1.00  0.00     0.000 C 
BRANCH   8   9
ATOM      9  C   UNL     1       3.937   9.626  -1.560  1.00  0.00     0.000 C 
BRANCH   9  10
ATOM     10  C   UNL     1       2.971   9.356  -0.396  1.00  0.00     0.006 C 
BRANCH  10  11
ATOM     11  C   UNL     1       3.463   8.228   0.520  1.00  0.00     0.053 C 
BRANCH  11  12
ATOM     12  C   UNL     1       2.327   7.408   1.055  1.00  0.00     0.041 C 
ATOM     13  O   UNL     1       2.553   6.311   1.631  1.00  0.00    -0.550 OA
ATOM     14  O   UNL     1       1.017   7.837   0.883  1.00  0.00    -0.550 OA
ENDBRANCH  11  12
ENDBRANCH  10  11
ENDBRANCH   9  10
ENDBRANCH   8   9
ENDBRANCH   7   8
ENDBRANCH   6   7
ENDBRANCH   5   6
ENDBRANCH   4   5
ENDBRANCH   3   4
ENDBRANCH   2   3
ENDBRANCH   1   2
BRANCH   1  15
ATOM     15  C   UNL     1       1.435  16.896  -6.125  1.00  0.00     0.000 C 
BRANCH  15  16
ATOM     16  C   UNL     1       0.781  17.895  -5.153  1.00  0.00     0.000 C 
BRANCH  16  17
ATOM     17  C   UNL     1      -0.487  18.593  -5.682  1.00  0.00     0.000 C 
BRANCH  17  18
ATOM     18  C   UNL     1      -1.780  18.029  -5.071  1.00  0.00    -0.000 C 
BRANCH  18  19
ATOM     19  C   UNL     1      -2.346  16.850  -5.878  1.00  0.00    -0.000 C 
BRANCH  19  20
ATOM     20  C   UNL     1      -1.824  15.488  -5.389  1.00  0.00    -0.000 C 
BRANCH  20  21
ATOM     21  C   UNL     1      -1.973  15.305  -3.868  1.00  0.00    -0.000 C 
BRANCH  21  22
ATOM     22  C   UNL     1      -0.714  15.650  -3.048  1.00  0.00    -0.000 C 
BRANCH  22  23
ATOM     23  C   UNL     1      -0.984  16.205  -1.634  1.00  0.00    -0.000 C 
BRANCH  23  24
ATOM     24  C   UNL     1       0.056  15.809  -0.572  1.00  0.00    -0.000 C 
BRANCH  24  25
ATOM     25  C   UNL     1       0.374  16.949   0.406  1.00  0.00    -0.003 C 
ATOM     26  C   UNL     1       1.472  16.544   1.385  1.00  0.00     0.004 C 
ENDBRANCH  24  25
ENDBRANCH  23  24
ENDBRANCH  22  23
ENDBRANCH  21  22
ENDBRANCH  20  21
ENDBRANCH  19  20
ENDBRANCH  18  19
ENDBRANCH  17  18
ENDBRANCH  16  17
ENDBRANCH  15  16
ENDBRANCH   1  15
TORSDOF 22
ENDMDL
MODEL 5
REMARK VINA RESULT:    -2.673      1.680      3.667
REMARK INTER + INTRA:          -7.613
REMARK INTER:                  -5.835
REMARK INTRA:                  -1.777
REMARK UNBOUND:                -1.502
REMARK SMILES CCCCCCCCCCCCCCCCCCCCCCCC(=O)[O-]
REMARK SMILES IDX 13 1 14 2 15 3 16 4 17 5 18 6 19 7 20 8 21 9 22 10 23 11
REMARK SMILES IDX 24 12 25 13 26 14 12 15 11 16 10 17 9 18 8 19 7 20 6 21 5 22
REMARK SMILES IDX 4 23 3 24 2 25 1 26
REMARK H PARENT
REMARK Flexibility Score: inf
ROOT
ATOM      1  C   UNL     1      -0.070  12.933  -4.907  1.00  0.00     0.000 C 
ENDROOT
BRANCH   1   2
ATOM      2  C   UNL     1      -1.525  13.074  -4.418  1.00  0.00     0.000 C 
BRANCH   2   3
ATOM      3  C   UNL     1      -2.611  12.709  -5.451  1.00  0.00     0.000 C 
BRANCH   3   4
ATOM      4  C   UNL     1      -3.528  13.871  -5.874  1.00  0.00     0.000 C 
BRANCH   4   5
ATOM      5  C   UNL     1      -2.756  15.177  -6.125  1.00  0.00     0.000 C 
BRANCH   5   6
ATOM      6  C   UNL     1      -3.226  16.324  -5.215  1.00  0.00     0.000 C 
BRANCH   6   7
ATOM      7  C   UNL     1      -2.415  17.614  -5.434  1.00  0.00     0.000 C 
BRANCH   7   8
ATOM      8  C   UNL     1      -0.912  17.415  -5.181  1.00  0.00     0.000 C 
BRANCH   8   9
ATOM      9  C   UNL     1      -0.563  17.368  -3.687  1.00  0.00     0.000 C 
BRANCH   9  10
ATOM     10  C   UNL     1       0.467  16.264  -3.400  1.00  0.00     0.006 C 
BRANCH  10  11
ATOM     11  C   UNL     1       0.005  15.310  -2.291  1.00  0.00     0.053 C 
BRANCH  11  12
ATOM     12  C   UNL     1      -0.582  16.050  -1.127  1.00  0.00     0.041 C 
ATOM     13  O   UNL     1       0.172  16.592  -0.275  1.00  0.00    -0.550 OA
ATOM     14  O   UNL     1      -1.960  16.110  -0.963  1.00  0.00    -0.550 OA
ENDBRANCH  11  12
ENDBRANCH  10  11
ENDBRANCH   9  10
ENDBRANCH   8   9
ENDBRANCH   7   8
ENDBRANCH   6   7
ENDBRANCH   5   6
ENDBRANCH   4   5
ENDBRANCH   3   4
ENDBRANCH   2   3
ENDBRANCH   1   2
BRANCH   1  15
ATOM     15  C   UNL     1       0.745  11.922  -4.084  1.00  0.00     0.000 C 
BRANCH  15  16
ATOM     16  C   UNL     1       0.182  11.711  -2.667  1.00  0.00     0.000 C 
BRANCH  16  17
ATOM     17  C   UNL     1       0.986  10.745  -1.776  1.00  0.00     0.000 C 
BRANCH  17  18
ATOM     18  C   UNL     1       0.109   9.665  -1.120  1.00  0.00    -0.000 C 
BRANCH  18  19
ATOM     19  C   UNL     1       0.729   9.111   0.173  1.00  0.00    -0.000 C 
BRANCH  19  20
ATOM     20  C   UNL     1       1.497   7.797  -0.050  1.00  0.00    -0.000 C 
BRANCH  20  21
ATOM     21  C   UNL     1       2.813   7.736   0.746  1.00  0.00    -0.000 C 
BRANCH  21  22
ATOM     22  C   UNL     1       4.041   8.314   0.013  1.00  0.00    -0.000 C 
BRANCH  22  23
ATOM     23  C   UNL     1       3.985   8.227  -1.527  1.00  0.00    -0.000 C 
BRANCH  23  24
ATOM     24  C   UNL     1       3.565   9.526  -2.235  1.00  0.00    -0.000 C 
BRANCH  24  25
ATOM     25  C   UNL     1       4.125   9.636  -3.660  1.00  0.00    -0.003 C 
ATOM     26  C   UNL     1       3.872   8.355  -4.451  1.00  0.00     0.004 C 
ENDBRANCH  24  25
ENDBRANCH  23  24
ENDBRANCH  22  23
ENDBRANCH  21  22
ENDBRANCH  20  21
ENDBRANCH  19  20
ENDBRANCH  18  19
ENDBRANCH  17  18
ENDBRANCH  16  17
ENDBRANCH  15  16
ENDBRANCH   1  15
TORSDOF 22
ENDMDL
MODEL 6
REMARK VINA RESULT:    -2.585      4.900     11.219
REMARK INTER + INTRA:          -7.411
REMARK INTER:                  -6.383
REMARK INTRA:                  -1.028
REMARK UNBOUND:                -1.502
REMARK SMILES CCCCCCCCCCCCCCCCCCCCCCCC(=O)[O-]
REMARK SMILES IDX 13 1 14 2 15 3 16 4 17 5 18 6 19 7 20 8 21 9 22 10 23 11
REMARK SMILES IDX 24 12 25 13 26 14 12 15 11 16 10 17 9 18 8 19 7 20 6 21 5 22
REMARK SMILES IDX 4 23 3 24 2 25 1 26
REMARK H PARENT
REMARK Flexibility Score: inf
ROOT
ATOM      1  C   UNL     1      -3.033  14.831  -5.878  1.00  0.00     0.000 C 
ENDROOT
BRANCH   1   2
ATOM      2  C   UNL     1      -3.228  13.872  -4.688  1.00  0.00     0.000 C 
BRANCH   2   3
ATOM      3  C   UNL     1      -3.013  12.376  -4.999  1.00  0.00     0.000 C 
BRANCH   3   4
ATOM      4  C   UNL     1      -1.550  11.899  -4.941  1.00  0.00     0.000 C 
BRANCH   4   5
ATOM      5  C   UNL     1      -0.893  12.161  -3.575  1.00  0.00     0.000 C 
BRANCH   5   6
ATOM      6  C   UNL     1       0.640  12.240  -3.664  1.00  0.00     0.000 C 
BRANCH   6   7
ATOM      7  C   UNL     1       1.290  10.848  -3.774  1.00  0.00     0.000 C 
BRANCH   7   8
ATOM      8  C   UNL     1       2.709  10.812  -3.183  1.00  0.00     0.000 C 
BRANCH   8   9
ATOM      9  C   UNL     1       3.091   9.426  -2.643  1.00  0.00     0.000 C 
BRANCH   9  10
ATOM     10  C   UNL     1       2.607   9.252  -1.195  1.00  0.00     0.006 C 
BRANCH  10  11
ATOM     11  C   UNL     1       2.419   7.776  -0.817  1.00  0.00     0.053 C 
BRANCH  11  12
ATOM     12  C   UNL     1       1.580   7.619   0.415  1.00  0.00     0.041 C 
ATOM     13  O   UNL     1       1.690   6.587   1.129  1.00  0.00    -0.550 OA
ATOM     14  O   UNL     1       0.650   8.593   0.754  1.00  0.00    -0.550 OA
ENDBRANCH  11  12
ENDBRANCH  10  11
ENDBRANCH   9  10
ENDBRANCH   8   9
ENDBRANCH   7   8
ENDBRANCH   6   7
ENDBRANCH   5   6
ENDBRANCH   4   5
ENDBRANCH   3   4
ENDBRANCH   2   3
ENDBRANCH   1   2
BRANCH   1  15
ATOM     15  C   UNL     1      -1.725  15.636  -5.793  1.00  0.00     0.000 C 
BRANCH  15  16
ATOM     16  C   UNL     1      -1.961  17.154  -5.691  1.00  0.00     0.000 C 
BRANCH  16  17
ATOM     17  C   UNL     1      -3.374  17.627  -6.083  1.00  0.00     0.000 C 
BRANCH  17  18
ATOM     18  C   UNL     1      -3.743  18.986  -5.464  1.00  0.00    -0.000 C 
BRANCH  18  19
ATOM     19  C   UNL     1      -4.981  19.614  -6.122  1.00  0.00    -0.000 C 
BRANCH  19  20
ATOM     20  C   UNL     1      -6.295  18.950  -5.676  1.00  0.00    -0.000 C 
BRANCH  20  21
ATOM     21  C   UNL     1      -7.541  19.745  -6.108  1.00  0.00    -0.000 C 
BRANCH  21  22
ATOM     22  C   UNL     1      -8.041  20.776  -5.076  1.00  0.00    -0.000 C 
BRANCH  22  23
ATOM     23  C   UNL     1      -9.503  21.232  -5.261  1.00  0.00    -0.000 C 
BRANCH  23  24
ATOM     24  C   UNL     1      -9.681  22.727  -5.578  1.00  0.00    -0.000 C 
BRANCH  24  25
ATOM     25  C   UNL     1     -10.391  23.494  -4.454  1.00  0.00    -0.003 C 
ATOM     26  C   UNL     1      -9.618  23.389  -3.142  1.00  0.00     0.004 C 
ENDBRANCH  24  25
ENDBRANCH  23  24
ENDBRANCH  22  23
ENDBRANCH  21  22
ENDBRANCH  20  21
ENDBRANCH  19  20
ENDBRANCH  18  19
ENDBRANCH  17  18
ENDBRANCH  16  17
ENDBRANCH  15  16
ENDBRANCH   1  15
TORSDOF 22
ENDMDL
MODEL 7
REMARK VINA RESULT:    -2.544      6.008      7.622
REMARK INTER + INTRA:          -7.318
REMARK INTER:                  -6.525
REMARK INTRA:                  -0.793
REMARK UNBOUND:                -1.502
REMARK SMILES CCCCCCCCCCCCCCCCCCCCCCCC(=O)[O-]
REMARK SMILES IDX 13 1 14 2 15 3 16 4 17 5 18 6 19 7 20 8 21 9 22 10 23 11
REMARK SMILES IDX 24 12 25 13 26 14 12 15 11 16 10 17 9 18 8 19 7 20 6 21 5 22
REMARK SMILES IDX 4 23 3 24 2 25 1 26
REMARK H PARENT
REMARK Flexibility Score: inf
ROOT
ATOM      1  C   UNL     1      -2.050  15.905  -4.050  1.00  0.00     0.000 C 
ENDROOT
BRANCH   1   2
ATOM      2  C   UNL     1      -2.258  16.772  -5.306  1.00  0.00     0.000 C 
BRANCH   2   3
ATOM      3  C   UNL     1      -2.583  18.257  -5.042  1.00  0.00     0.000 C 
BRANCH   3   4
ATOM      4  C   UNL     1      -3.464  18.934  -6.108  1.00  0.00     0.000 C 
BRANCH   4   5
ATOM      5  C   UNL     1      -4.927  18.461  -6.057  1.00  0.00     0.000 C 
BRANCH   5   6
ATOM      6  C   UNL     1      -5.912  19.618  -5.819  1.00  0.00     0.000 C 
BRANCH   6   7
ATOM      7  C   UNL     1      -7.367  19.215  -6.118  1.00  0.00     0.000 C 
BRANCH   7   8
ATOM      8  C   UNL     1      -8.348  20.389  -5.965  1.00  0.00     0.000 C 
BRANCH   8   9
ATOM      9  C   UNL     1      -8.074  21.232  -4.711  1.00  0.00     0.000 C 
BRANCH   9  10
ATOM     10  C   UNL     1      -9.368  21.468  -3.918  1.00  0.00     0.006 C 
BRANCH  10  11
ATOM     11  C   UNL     1      -9.828  22.931  -3.976  1.00  0.00     0.053 C 
BRANCH  11  12
ATOM     12  C   UNL     1     -10.332  23.410  -2.648  1.00  0.00     0.041 C 
ATOM     13  O   UNL     1      -9.580  23.382  -1.638  1.00  0.00    -0.550 OA
ATOM     14  O   UNL     1     -11.642  23.853  -2.518  1.00  0.00    -0.550 OA
ENDBRANCH  11  12
ENDBRANCH  10  11
ENDBRANCH   9  10
ENDBRANCH   8   9
ENDBRANCH   7   8
ENDBRANCH   6   7
ENDBRANCH   5   6
ENDBRANCH   4   5
ENDBRANCH   3   4
ENDBRANCH   2   3
ENDBRANCH   1   2
BRANCH   1  15
ATOM     15  C   UNL     1      -0.602  15.936  -3.532  1.00  0.00     0.000 C 
BRANCH  15  16
ATOM     16  C   UNL     1       0.240  14.750  -4.036  1.00  0.00     0.000 C 
BRANCH  16  17
ATOM     17  C   UNL     1       0.994  14.994  -5.357  1.00  0.00     0.000 C 
BRANCH  17  18
ATOM     18  C   UNL     1       2.436  14.458  -5.331  1.00  0.00    -0.000 C 
BRANCH  18  19
ATOM     19  C   UNL     1       2.491  12.923  -5.310  1.00  0.00    -0.000 C 
BRANCH  19  20
ATOM     20  C   UNL     1       3.927  12.377  -5.394  1.00  0.00    -0.000 C 
BRANCH  20  21
ATOM     21  C   UNL     1       4.032  10.906  -4.952  1.00  0.00    -0.000 C 
BRANCH  21  22
ATOM     22  C   UNL     1       4.125  10.694  -3.427  1.00  0.00    -0.000 C 
BRANCH  22  23
ATOM     23  C   UNL     1       3.428   9.423  -2.900  1.00  0.00    -0.000 C 
BRANCH  23  24
ATOM     24  C   UNL     1       3.579   9.180  -1.388  1.00  0.00    -0.000 C 
BRANCH  24  25
ATOM     25  C   UNL     1       3.306   7.724  -0.987  1.00  0.00    -0.003 C 
ATOM     26  C   UNL     1       1.944   7.585  -0.313  1.00  0.00     0.004 C 
ENDBRANCH  24  25
ENDBRANCH  23  24
ENDBRANCH  22  23
ENDBRANCH  21  22
ENDBRANCH  20  21
ENDBRANCH  19  20
ENDBRANCH  18  19
ENDBRANCH  17  18
ENDBRANCH  16  17
ENDBRANCH  15  16
ENDBRANCH   1  15
TORSDOF 22
ENDMDL
MODEL 8
REMARK VINA RESULT:    -1.277      2.840      6.927
REMARK INTER + INTRA:          -4.422
REMARK INTER:                  -2.603
REMARK INTRA:                  -1.819
REMARK UNBOUND:                -1.502
REMARK SMILES CCCCCCCCCCCCCCCCCCCCCCCC(=O)[O-]
REMARK SMILES IDX 13 1 14 2 15 3 16 4 17 5 18 6 19 7 20 8 21 9 22 10 23 11
REMARK SMILES IDX 24 12 25 13 26 14 12 15 11 16 10 17 9 18 8 19 7 20 6 21 5 22
REMARK SMILES IDX 4 23 3 24 2 25 1 26
REMARK H PARENT
REMARK Flexibility Score: inf
ROOT
ATOM      1  C   UNL     1      -2.114  15.413  -5.524  1.00  0.00     0.000 C 
ENDROOT
BRANCH   1   2
ATOM      2  C   UNL     1      -3.107  14.409  -4.909  1.00  0.00     0.000 C 
BRANCH   2   3
ATOM      3  C   UNL     1      -2.887  12.932  -5.298  1.00  0.00     0.000 C 
BRANCH   3   4
ATOM      4  C   UNL     1      -2.474  12.004  -4.141  1.00  0.00     0.000 C 
BRANCH   4   5
ATOM      5  C   UNL     1      -1.085  11.377  -4.348  1.00  0.00     0.000 C 
BRANCH   5   6
ATOM      6  C   UNL     1      -0.004  12.041  -3.480  1.00  0.00     0.000 C 
BRANCH   6   7
ATOM      7  C   UNL     1       0.897  11.008  -2.779  1.00  0.00     0.000 C 
BRANCH   7   8
ATOM      8  C   UNL     1       2.221  10.775  -3.525  1.00  0.00     0.000 C 
BRANCH   8   9
ATOM      9  C   UNL     1       3.000   9.566  -2.988  1.00  0.00     0.000 C 
BRANCH   9  10
ATOM     10  C   UNL     1       2.991   9.548  -1.452  1.00  0.00     0.006 C 
BRANCH  10  11
ATOM     11  C   UNL     1       3.150   8.130  -0.885  1.00  0.00     0.053 C 
BRANCH  11  12
ATOM     12  C   UNL     1       2.034   7.777   0.052  1.00  0.00     0.041 C 
ATOM     13  O   UNL     1       2.287   7.439   1.238  1.00  0.00    -0.550 OA
ATOM     14  O   UNL     1       0.720   7.783  -0.396  1.00  0.00    -0.550 OA
ENDBRANCH  11  12
ENDBRANCH  10  11
ENDBRANCH   9  10
ENDBRANCH   8   9
ENDBRANCH   7   8
ENDBRANCH   6   7
ENDBRANCH   5   6
ENDBRANCH   4   5
ENDBRANCH   3   4
ENDBRANCH   2   3
ENDBRANCH   1   2
BRANCH   1  15
ATOM     15  C   UNL     1      -0.870  14.736  -6.125  1.00  0.00     0.000 C 
BRANCH  15  16
ATOM     16  C   UNL     1       0.448  15.293  -5.557  1.00  0.00     0.000 C 
BRANCH  16  17
ATOM     17  C   UNL     1       0.517  16.827  -5.439  1.00  0.00     0.000 C 
BRANCH  17  18
ATOM     18  C   UNL     1      -0.078  17.354  -4.122  1.00  0.00    -0.000 C 
BRANCH  18  19
ATOM     19  C   UNL     1       0.428  16.577  -2.897  1.00  0.00    -0.000 C 
BRANCH  19  20
ATOM     20  C   UNL     1      -0.695  15.821  -2.166  1.00  0.00    -0.000 C 
BRANCH  20  21
ATOM     21  C   UNL     1      -0.767  16.166  -0.667  1.00  0.00    -0.000 C 
BRANCH  21  22
ATOM     22  C   UNL     1       0.594  16.189   0.058  1.00  0.00    -0.000 C 
BRANCH  22  23
ATOM     23  C   UNL     1       0.795  17.367   1.034  1.00  0.00    -0.000 C 
BRANCH  23  24
ATOM     24  C   UNL     1       1.490  17.000   2.358  1.00  0.00    -0.000 C 
BRANCH  24  25
ATOM     25  C   UNL     1       2.481  15.838   2.208  1.00  0.00    -0.003 C 
ATOM     26  C   UNL     1       3.833  16.329   1.697  1.00  0.00     0.004 C 
ENDBRANCH  24  25
ENDBRANCH  23  24
ENDBRANCH  22  23
ENDBRANCH  21  22
ENDBRANCH  20  21
ENDBRANCH  19  20
ENDBRANCH  18  19
ENDBRANCH  17  18
ENDBRANCH  16  17
ENDBRANCH  15  16
ENDBRANCH   1  15
TORSDOF 22
ENDMDL
