MODEL 1
REMARK VINA RESULT:    -4.590      0.000      0.000
REMARK INTER + INTRA:          -5.283
REMARK INTER:                  -4.992
REMARK INTRA:                  -0.290
REMARK UNBOUND:                -0.290
REMARK SMILES C[C@H]1[C@H](C)CC[C@@]2(C(=O)[O-])CC[C@@]3(C)C(=CC[C@@H]4[C@@]5(C)CC[C@H](O)C(C)(C)[C@@H]5CC[C@@]43C)[C@@H]12
REMARK SMILES IDX 7 1 6 2 11 3 33 4 5 5 12 6 15 7 2 8 3 9 13 10 16 11 1 12
REMARK SMILES IDX 4 13 14 14 31 15 17 16 18 17 30 18 32 19 19 20 29 21 28 22
REMARK SMILES IDX 21 23 20 24 25 25 22 26 23 27 26 28 27 29 8 30 9 31 10 32
REMARK SMILES IDX 24 33
REMARK H PARENT 24 34
REMARK Flexibility Score: inf
ROOT
ATOM      1  C   UNL     1      10.143 -19.901  -9.639  1.00  0.00     0.017 C 
ATOM      2  C   UNL     1      11.541 -19.951 -10.326  1.00  0.00     0.014 C 
ATOM      3  C   UNL     1       9.100 -20.307 -10.710  1.00  0.00     0.014 C 
ATOM      4  C   UNL     1      10.078 -20.870  -8.383  1.00  0.00     0.030 C 
ATOM      5  C   UNL     1      12.682 -19.948  -9.311  1.00  0.00     0.004 C 
ATOM      6  C   UNL     1       7.682 -20.350 -10.149  1.00  0.00     0.013 C 
ATOM      7  C   UNL     1       8.714 -21.531  -8.101  1.00  0.00    -0.063 C 
ATOM      8  C   UNL     1      11.262 -21.901  -8.325  1.00  0.00    -0.003 C 
ATOM      9  C   UNL     1      12.652 -21.180  -8.375  1.00  0.00    -0.011 C 
ATOM     10  C   UNL     1       7.469 -21.406  -9.007  1.00  0.00    -0.006 C 
ATOM     11  C   UNL     1       8.568 -22.148  -6.904  1.00  0.00    -0.027 C 
ATOM     12  C   UNL     1      11.147 -23.047  -9.362  1.00  0.00     0.008 C 
ATOM     13  C   UNL     1      13.119 -20.774  -6.968  1.00  0.00     0.008 C 
ATOM     14  C   UNL     1       7.272 -22.770  -9.731  1.00  0.00     0.017 C 
ATOM     15  C   UNL     1       6.202 -21.016  -8.074  1.00  0.00    -0.020 C 
ATOM     16  C   UNL     1       7.308 -22.858  -6.505  1.00  0.00     0.032 C 
ATOM     17  C   UNL     1       6.021 -22.058  -6.857  1.00  0.00     0.006 C 
ATOM     18  C   UNL     1       4.898 -20.780  -8.951  1.00  0.00     0.008 C 
ATOM     19  C   UNL     1       6.490 -19.629  -7.377  1.00  0.00     0.012 C 
ATOM     20  C   UNL     1       4.686 -22.913  -6.794  1.00  0.00    -0.025 C 
ATOM     21  C   UNL     1       3.584 -21.493  -8.581  1.00  0.00     0.005 C 
ATOM     22  C   UNL     1       3.498 -21.933  -7.110  1.00  0.00     0.003 C 
ATOM     23  C   UNL     1       4.529 -23.474  -5.345  1.00  0.00     0.010 C 
ATOM     24  C   UNL     1       4.744 -24.124  -7.772  1.00  0.00     0.012 C 
ATOM     25  C   UNL     1       2.033 -22.367  -6.655  1.00  0.00    -0.006 C 
ATOM     26  C   UNL     1       3.147 -24.050  -5.062  1.00  0.00     0.033 C 
ATOM     27  C   UNL     1       2.070 -22.969  -5.215  1.00  0.00     0.120 C 
ATOM     28  C   UNL     1       1.331 -23.355  -7.633  1.00  0.00     0.014 C 
ATOM     29  C   UNL     1       1.130 -21.102  -6.586  1.00  0.00     0.014 C 
ENDROOT
BRANCH   1  30
ATOM     30  C   UNL     1       9.896 -18.444  -9.214  1.00  0.00     0.048 C 
ATOM     31  O   UNL     1       9.919 -18.120  -7.994  1.00  0.00    -0.550 OA
ATOM     32  O   UNL     1       9.520 -17.480 -10.143  1.00  0.00    -0.550 OA
ENDBRANCH   1  30
BRANCH  27  33
ATOM     33  O   UNL     1       0.811 -23.499  -4.875  1.00  0.00    -0.393 OA
ATOM     34  H   UNL     1       0.917 -23.999  -4.024  1.00  0.00     0.210 HD
ENDBRANCH  27  33
TORSDOF 2
ENDMDL
MODEL 2
REMARK VINA RESULT:    -2.732      1.763      2.784
REMARK INTER + INTRA:          -3.262
REMARK INTER:                  -2.972
REMARK INTRA:                  -0.290
REMARK UNBOUND:                -0.290
REMARK SMILES C[C@H]1[C@H](C)CC[C@@]2(C(=O)[O-])CC[C@@]3(C)C(=CC[C@@H]4[C@@]5(C)CC[C@H](O)C(C)(C)[C@@H]5CC[C@@]43C)[C@@H]12
REMARK SMILES IDX 7 1 6 2 11 3 33 4 5 5 12 6 15 7 2 8 3 9 13 10 16 11 1 12
REMARK SMILES IDX 4 13 14 14 31 15 17 16 18 17 30 18 32 19 19 20 29 21 28 22
REMARK SMILES IDX 21 23 20 24 25 25 22 26 23 27 26 28 27 29 8 30 9 31 10 32
REMARK SMILES IDX 24 33
REMARK H PARENT 24 34
REMARK Flexibility Score: inf
ROOT
ATOM      1  C   UNL     1      10.815 -22.176  -9.726  1.00  0.00     0.017 C 
ATOM      2  C   UNL     1      12.369 -22.123  -9.837  1.00  0.00     0.014 C 
ATOM      3  C   UNL     1      10.453 -23.555  -9.121  1.00  0.00     0.014 C 
ATOM      4  C   UNL     1      10.257 -20.994  -8.825  1.00  0.00     0.030 C 
ATOM      5  C   UNL     1      12.883 -20.701 -10.053  1.00  0.00     0.004 C 
ATOM      6  C   UNL     1       8.952 -23.718  -8.909  1.00  0.00     0.013 C 
ATOM      7  C   UNL     1       8.996 -21.306  -7.993  1.00  0.00    -0.063 C 
ATOM      8  C   UNL     1      11.366 -20.276  -7.975  1.00  0.00    -0.003 C 
ATOM      9  C   UNL     1      12.533 -19.754  -8.880  1.00  0.00    -0.011 C 
ATOM     10  C   UNL     1       8.327 -22.695  -7.895  1.00  0.00    -0.006 C 
ATOM     11  C   UNL     1       8.360 -20.254  -7.426  1.00  0.00    -0.027 C 
ATOM     12  C   UNL     1      11.873 -21.110  -6.771  1.00  0.00     0.008 C 
ATOM     13  C   UNL     1      12.231 -18.348  -9.421  1.00  0.00     0.008 C 
ATOM     14  C   UNL     1       8.635 -23.268  -6.481  1.00  0.00     0.017 C 
ATOM     15  C   UNL     1       6.736 -22.509  -8.151  1.00  0.00    -0.020 C 
ATOM     16  C   UNL     1       7.139 -20.410  -6.567  1.00  0.00     0.032 C 
ATOM     17  C   UNL     1       6.103 -21.408  -7.159  1.00  0.00     0.006 C 
ATOM     18  C   UNL     1       5.991 -23.913  -8.155  1.00  0.00     0.008 C 
ATOM     19  C   UNL     1       6.519 -21.920  -9.599  1.00  0.00     0.012 C 
ATOM     20  C   UNL     1       4.991 -21.877  -6.129  1.00  0.00    -0.025 C 
ATOM     21  C   UNL     1       4.738 -24.119  -7.285  1.00  0.00     0.005 C 
ATOM     22  C   UNL     1       4.006 -22.817  -6.914  1.00  0.00     0.003 C 
ATOM     23  C   UNL     1       4.220 -20.615  -5.629  1.00  0.00     0.010 C 
ATOM     24  C   UNL     1       5.627 -22.572  -4.889  1.00  0.00     0.012 C 
ATOM     25  C   UNL     1       2.552 -23.051  -6.303  1.00  0.00    -0.006 C 
ATOM     26  C   UNL     1       2.935 -20.944  -4.879  1.00  0.00     0.033 C 
ATOM     27  C   UNL     1       1.959 -21.702  -5.789  1.00  0.00     0.120 C 
ATOM     28  C   UNL     1       2.503 -24.125  -5.176  1.00  0.00     0.014 C 
ATOM     29  C   UNL     1       1.605 -23.554  -7.431  1.00  0.00     0.014 C 
ENDROOT
BRANCH   1  30
ATOM     30  C   UNL     1      10.253 -22.082 -11.154  1.00  0.00     0.048 C 
ATOM     31  O   UNL     1      10.399 -23.038 -11.964  1.00  0.00    -0.550 OA
ATOM     32  O   UNL     1       9.684 -20.903 -11.625  1.00  0.00    -0.550 OA
ENDBRANCH   1  30
BRANCH  27  33
ATOM     33  O   UNL     1       0.750 -21.929  -5.105  1.00  0.00    -0.393 OA
ATOM     34  H   UNL     1       0.009 -21.669  -5.713  1.00  0.00     0.210 HD
ENDBRANCH  27  33
TORSDOF 2
ENDMDL
MODEL 3
REMARK VINA RESULT:    -2.031      1.546      2.299
REMARK INTER + INTRA:          -2.499
REMARK INTER:                  -2.156
REMARK INTRA:                  -0.343
REMARK UNBOUND:                -0.290
REMARK SMILES C[C@H]1[C@H](C)CC[C@@]2(C(=O)[O-])CC[C@@]3(C)C(=CC[C@@H]4[C@@]5(C)CC[C@H](O)C(C)(C)[C@@H]5CC[C@@]43C)[C@@H]12
REMARK SMILES IDX 7 1 6 2 11 3 33 4 5 5 12 6 15 7 2 8 3 9 13 10 16 11 1 12
REMARK SMILES IDX 4 13 14 14 31 15 17 16 18 17 30 18 32 19 19 20 29 21 28 22
REMARK SMILES IDX 21 23 20 24 25 25 22 26 23 27 26 28 27 29 8 30 9 31 10 32
REMARK SMILES IDX 24 33
REMARK H PARENT 24 34
REMARK Flexibility Score: inf
ROOT
ATOM      1  C   UNL     1      10.374 -20.322 -10.751  1.00  0.00     0.017 C 
ATOM      2  C   UNL     1      11.904 -20.214 -11.027  1.00  0.00     0.014 C 
ATOM      3  C   UNL     1      10.019 -21.830 -10.762  1.00  0.00     0.014 C 
ATOM      4  C   UNL     1       9.986 -19.656  -9.363  1.00  0.00     0.030 C 
ATOM      5  C   UNL     1      12.457 -18.836 -10.670  1.00  0.00     0.004 C 
ATOM      6  C   UNL     1       8.548 -22.081 -10.450  1.00  0.00     0.013 C 
ATOM      7  C   UNL     1       8.820 -20.310  -8.594  1.00  0.00    -0.063 C 
ATOM      8  C   UNL     1      11.223 -19.371  -8.436  1.00  0.00    -0.003 C 
ATOM      9  C   UNL     1      12.298 -18.498  -9.169  1.00  0.00    -0.011 C 
ATOM     10  C   UNL     1       8.100 -21.607  -9.021  1.00  0.00    -0.006 C 
ATOM     11  C   UNL     1       8.309 -19.614  -7.550  1.00  0.00    -0.027 C 
ATOM     12  C   UNL     1      11.828 -20.644  -7.789  1.00  0.00     0.008 C 
ATOM     13  C   UNL     1      12.003 -16.999  -9.003  1.00  0.00     0.008 C 
ATOM     14  C   UNL     1       8.545 -22.737  -8.048  1.00  0.00     0.017 C 
ATOM     15  C   UNL     1       6.501 -21.341  -8.964  1.00  0.00    -0.020 C 
ATOM     16  C   UNL     1       7.193 -20.139  -6.694  1.00  0.00     0.032 C 
ATOM     17  C   UNL     1       6.045 -20.787  -7.521  1.00  0.00     0.006 C 
ATOM     18  C   UNL     1       5.692 -22.608  -9.480  1.00  0.00     0.008 C 
ATOM     19  C   UNL     1       6.141 -20.180  -9.972  1.00  0.00     0.012 C 
ATOM     20  C   UNL     1       5.043 -21.668  -6.662  1.00  0.00    -0.025 C 
ATOM     21  C   UNL     1       4.543 -23.183  -8.631  1.00  0.00     0.005 C 
ATOM     22  C   UNL     1       3.926 -22.179  -7.642  1.00  0.00     0.003 C 
ATOM     23  C   UNL     1       4.400 -20.756  -5.569  1.00  0.00     0.010 C 
ATOM     24  C   UNL     1       5.787 -22.829  -5.939  1.00  0.00     0.012 C 
ATOM     25  C   UNL     1       2.546 -22.667  -7.011  1.00  0.00    -0.006 C 
ATOM     26  C   UNL     1       3.199 -21.389  -4.877  1.00  0.00     0.033 C 
ATOM     27  C   UNL     1       2.085 -21.682  -5.891  1.00  0.00     0.120 C 
ATOM     28  C   UNL     1       2.578 -24.125  -6.465  1.00  0.00     0.014 C 
ATOM     29  C   UNL     1       1.447 -22.635  -8.112  1.00  0.00     0.014 C 
ENDROOT
BRANCH   1  30
ATOM     30  C   UNL     1       9.650 -19.619 -11.911  1.00  0.00     0.048 C 
ATOM     31  O   UNL     1       9.867 -19.965 -13.105  1.00  0.00    -0.550 OA
ATOM     32  O   UNL     1       8.841 -18.510 -11.685  1.00  0.00    -0.550 OA
ENDBRANCH   1  30
BRANCH  27  33
ATOM     33  O   UNL     1       0.957 -22.194  -5.224  1.00  0.00    -0.393 OA
ATOM     34  H   UNL     1       1.258 -22.526  -4.338  1.00  0.00     0.210 HD
ENDBRANCH  27  33
TORSDOF 2
ENDMDL
