MODEL 1
REMARK VINA RESULT:    -5.447      0.000      0.000
REMARK INTER + INTRA:          -7.269
REMARK INTER:                  -7.517
REMARK INTRA:                   0.248
REMARK UNBOUND:                 0.248
REMARK SMILES CC[C@H](CC[C@@H](C)[C@H]1CC[C@H]2C3=CC[C@@H]4C[C@@H](O)CC[C@]4(C)[C@@H]3CC[C@]12C)C(C)C
REMARK SMILES IDX 5 1 4 2 3 3 2 4 1 5 28 6 29 7 30 8 6 9 7 10 8 11 9 12 26 13
REMARK SMILES IDX 10 14 11 15 25 16 27 17 12 18 24 19 23 20 13 21 21 22 14 23
REMARK SMILES IDX 15 24 20 25 22 26 16 27 19 28 17 29 18 30
REMARK H PARENT 18 31
REMARK Flexibility Score: inf
ROOT
ATOM      1  C   UNL     1      40.456   1.692  -8.157  1.00  0.00     0.004 C 
ENDROOT
BRANCH   1   2
ATOM      2  C   UNL     1      41.737   2.531  -7.951  1.00  0.00     0.004 C 
BRANCH   2   3
ATOM      3  C   UNL     1      43.080   1.752  -8.011  1.00  0.00    -0.009 C 
BRANCH   3   4
ATOM      4  C   UNL     1      44.121   2.424  -8.959  1.00  0.00     0.000 C 
ATOM      5  C   UNL     1      43.524   2.780 -10.323  1.00  0.00     0.004 C 
ENDBRANCH   3   4
BRANCH   3   6
ATOM      6  C   UNL     1      43.642   1.314  -6.614  1.00  0.00    -0.014 C 
ATOM      7  C   UNL     1      43.523   2.456  -5.591  1.00  0.00     0.007 C 
ATOM      8  C   UNL     1      43.033   0.024  -6.026  1.00  0.00     0.007 C 
ENDBRANCH   3   6
ENDBRANCH   2   3
ENDBRANCH   1   2
BRANCH   1   9
ATOM      9  C   UNL     1      39.631   1.957  -9.454  1.00  0.00    -0.011 C 
ATOM     10  C   UNL     1      38.119   1.859  -9.168  1.00  0.00     0.008 C 
BRANCH   9  11
ATOM     11  C   UNL     1      39.941   3.211 -10.352  1.00  0.00    -0.002 C 
ATOM     12  C   UNL     1      39.139   3.405 -11.659  1.00  0.00     0.005 C 
ATOM     13  C   UNL     1      40.006   4.625  -9.708  1.00  0.00    -0.023 C 
ATOM     14  C   UNL     1      39.213   4.906 -11.989  1.00  0.00     0.009 C 
ATOM     15  C   UNL     1      40.204   5.476 -10.974  1.00  0.00     0.021 C 
ATOM     16  C   UNL     1      41.215   4.847  -8.747  1.00  0.00     0.008 C 
ATOM     17  C   UNL     1      38.674   4.992  -8.980  1.00  0.00     0.012 C 
ATOM     18  C   UNL     1      40.192   6.949 -10.637  1.00  0.00    -0.067 C 
ATOM     19  C   UNL     1      41.914   6.229  -8.902  1.00  0.00     0.009 C 
ATOM     20  C   UNL     1      40.995   7.387  -9.420  1.00  0.00     0.021 C 
ATOM     21  C   UNL     1      39.575   7.858 -11.409  1.00  0.00    -0.027 C 
ATOM     22  C   UNL     1      41.752   8.733  -9.711  1.00  0.00    -0.023 C 
ATOM     23  C   UNL     1      39.571   9.329 -11.090  1.00  0.00     0.031 C 
ATOM     24  C   UNL     1      40.678   9.817 -10.099  1.00  0.00     0.002 C 
ATOM     25  C   UNL     1      42.794   8.569 -10.864  1.00  0.00     0.010 C 
ATOM     26  C   UNL     1      42.487   9.180  -8.414  1.00  0.00     0.012 C 
ATOM     27  C   UNL     1      41.318  11.134 -10.612  1.00  0.00     0.036 C 
ATOM     28  C   UNL     1      43.398   9.901 -11.329  1.00  0.00     0.032 C 
ATOM     29  C   UNL     1      42.310  10.890 -11.759  1.00  0.00     0.114 C 
BRANCH  29  30
ATOM     30  O   UNL     1      42.894  12.112 -12.125  1.00  0.00    -0.393 OA
ATOM     31  H   UNL     1      42.253  12.570 -12.729  1.00  0.00     0.210 HD
ENDBRANCH  29  30
ENDBRANCH   9  11
ENDBRANCH   1   9
TORSDOF 7
ENDMDL
MODEL 2
REMARK VINA RESULT:    -5.434     13.734     16.545
REMARK INTER + INTRA:          -7.250
REMARK INTER:                  -6.098
REMARK INTRA:                  -1.152
REMARK UNBOUND:                 0.248
REMARK SMILES CC[C@H](CC[C@@H](C)[C@H]1CC[C@H]2C3=CC[C@@H]4C[C@@H](O)CC[C@]4(C)[C@@H]3CC[C@]12C)C(C)C
REMARK SMILES IDX 5 1 4 2 3 3 2 4 1 5 28 6 29 7 30 8 6 9 7 10 8 11 9 12 26 13
REMARK SMILES IDX 10 14 11 15 25 16 27 17 12 18 24 19 23 20 13 21 21 22 14 23
REMARK SMILES IDX 15 24 20 25 22 26 16 27 19 28 17 29 18 30
REMARK H PARENT 18 31
REMARK Flexibility Score: inf
ROOT
ATOM      1  C   UNL     1      41.984  12.031   3.112  1.00  0.00     0.004 C 
ENDROOT
BRANCH   1   2
ATOM      2  C   UNL     1      42.392  11.364   1.779  1.00  0.00     0.004 C 
BRANCH   2   3
ATOM      3  C   UNL     1      41.234  10.770   0.930  1.00  0.00    -0.009 C 
BRANCH   3   4
ATOM      4  C   UNL     1      40.499  11.852   0.079  1.00  0.00     0.000 C 
ATOM      5  C   UNL     1      39.076  12.118   0.576  1.00  0.00     0.004 C 
ENDBRANCH   3   4
BRANCH   3   6
ATOM      6  C   UNL     1      41.600   9.456   0.158  1.00  0.00    -0.014 C 
ATOM      7  C   UNL     1      40.767   8.267   0.669  1.00  0.00     0.007 C 
ATOM      8  C   UNL     1      41.501   9.537  -1.380  1.00  0.00     0.007 C 
ENDBRANCH   3   6
ENDBRANCH   2   3
ENDBRANCH   1   2
BRANCH   1   9
ATOM      9  C   UNL     1      42.407  11.310   4.429  1.00  0.00    -0.011 C 
ATOM     10  C   UNL     1      43.486  12.123   5.173  1.00  0.00     0.008 C 
BRANCH   9  11
ATOM     11  C   UNL     1      41.317  10.789   5.438  1.00  0.00    -0.002 C 
ATOM     12  C   UNL     1      40.942  11.675   6.647  1.00  0.00     0.005 C 
ATOM     13  C   UNL     1      39.962  10.251   4.898  1.00  0.00    -0.023 C 
ATOM     14  C   UNL     1      39.533  11.235   7.080  1.00  0.00     0.009 C 
ATOM     15  C   UNL     1      39.237   9.998   6.231  1.00  0.00     0.021 C 
ATOM     16  C   UNL     1      40.063   8.910   4.107  1.00  0.00     0.008 C 
ATOM     17  C   UNL     1      39.214  11.320   4.040  1.00  0.00     0.012 C 
ATOM     18  C   UNL     1      37.811   9.557   5.991  1.00  0.00    -0.067 C 
ATOM     19  C   UNL     1      38.938   7.884   4.434  1.00  0.00     0.009 C 
ATOM     20  C   UNL     1      37.584   8.509   4.910  1.00  0.00     0.021 C 
ATOM     21  C   UNL     1      36.787   9.997   6.739  1.00  0.00    -0.027 C 
ATOM     22  C   UNL     1      36.514   7.456   5.377  1.00  0.00    -0.023 C 
ATOM     23  C   UNL     1      35.367   9.552   6.518  1.00  0.00     0.031 C 
ATOM     24  C   UNL     1      35.183   8.231   5.701  1.00  0.00     0.002 C 
ATOM     25  C   UNL     1      36.998   6.665   6.635  1.00  0.00     0.010 C 
ATOM     26  C   UNL     1      36.257   6.460   4.210  1.00  0.00     0.012 C 
ATOM     27  C   UNL     1      34.115   7.328   6.373  1.00  0.00     0.036 C 
ATOM     28  C   UNL     1      35.904   5.785   7.254  1.00  0.00     0.032 C 
ATOM     29  C   UNL     1      34.660   6.605   7.613  1.00  0.00     0.114 C 
BRANCH  29  30
ATOM     30  O   UNL     1      33.663   5.761   8.125  1.00  0.00    -0.393 OA
ATOM     31  H   UNL     1      32.794   6.103   7.788  1.00  0.00     0.210 HD
ENDBRANCH  29  30
ENDBRANCH   9  11
ENDBRANCH   1   9
TORSDOF 7
ENDMDL
MODEL 3
REMARK VINA RESULT:    -5.107      1.136      2.080
REMARK INTER + INTRA:          -6.799
REMARK INTER:                  -5.539
REMARK INTRA:                  -1.260
REMARK UNBOUND:                 0.248
REMARK SMILES CC[C@H](CC[C@@H](C)[C@H]1CC[C@H]2C3=CC[C@@H]4C[C@@H](O)CC[C@]4(C)[C@@H]3CC[C@]12C)C(C)C
REMARK SMILES IDX 5 1 4 2 3 3 2 4 1 5 28 6 29 7 30 8 6 9 7 10 8 11 9 12 26 13
REMARK SMILES IDX 10 14 11 15 25 16 27 17 12 18 24 19 23 20 13 21 21 22 14 23
REMARK SMILES IDX 15 24 20 25 22 26 16 27 19 28 17 29 18 30
REMARK H PARENT 18 31
REMARK Flexibility Score: inf
ROOT
ATOM      1  C   UNL     1      40.350   1.221  -7.865  1.00  0.00     0.004 C 
ENDROOT
BRANCH   1   2
ATOM      2  C   UNL     1      41.891   1.180  -7.758  1.00  0.00     0.004 C 
BRANCH   2   3
ATOM      3  C   UNL     1      42.570   2.457  -7.190  1.00  0.00    -0.009 C 
BRANCH   3   4
ATOM      4  C   UNL     1      43.070   2.268  -5.724  1.00  0.00     0.000 C 
ATOM      5  C   UNL     1      43.153   0.793  -5.322  1.00  0.00     0.004 C 
ENDBRANCH   3   4
BRANCH   3   6
ATOM      6  C   UNL     1      43.601   3.133  -8.159  1.00  0.00    -0.014 C 
ATOM      7  C   UNL     1      43.682   2.372  -9.494  1.00  0.00     0.007 C 
ATOM      8  C   UNL     1      43.375   4.635  -8.430  1.00  0.00     0.007 C 
ENDBRANCH   3   6
ENDBRANCH   2   3
ENDBRANCH   1   2
BRANCH   1   9
ATOM      9  C   UNL     1      39.741   1.601  -9.251  1.00  0.00    -0.011 C 
ATOM     10  C   UNL     1      38.202   1.635  -9.179  1.00  0.00     0.008 C 
BRANCH   9  11
ATOM     11  C   UNL     1      40.284   2.847 -10.044  1.00  0.00    -0.002 C 
ATOM     12  C   UNL     1      40.431   2.743 -11.579  1.00  0.00     0.005 C 
ATOM     13  C   UNL     1      39.661   4.250  -9.795  1.00  0.00    -0.023 C 
ATOM     14  C   UNL     1      40.396   4.185 -12.112  1.00  0.00     0.009 C 
ATOM     15  C   UNL     1      40.422   5.061 -10.859  1.00  0.00     0.021 C 
ATOM     16  C   UNL     1      39.955   4.852  -8.385  1.00  0.00     0.008 C 
ATOM     17  C   UNL     1      38.124   4.259 -10.068  1.00  0.00     0.012 C 
ATOM     18  C   UNL     1      39.917   6.485 -10.909  1.00  0.00    -0.067 C 
ATOM     19  C   UNL     1      40.314   6.366  -8.395  1.00  0.00     0.009 C 
ATOM     20  C   UNL     1      39.701   7.190  -9.577  1.00  0.00     0.021 C 
ATOM     21  C   UNL     1      39.739   7.144 -12.065  1.00  0.00    -0.027 C 
ATOM     22  C   UNL     1      40.194   8.680  -9.653  1.00  0.00    -0.023 C 
ATOM     23  C   UNL     1      39.253   8.567 -12.125  1.00  0.00     0.031 C 
ATOM     24  C   UNL     1      39.397   9.396 -10.807  1.00  0.00     0.002 C 
ATOM     25  C   UNL     1      41.731   8.763  -9.927  1.00  0.00     0.010 C 
ATOM     26  C   UNL     1      39.876   9.378  -8.299  1.00  0.00     0.012 C 
ATOM     27  C   UNL     1      39.944  10.813 -11.120  1.00  0.00     0.036 C 
ATOM     28  C   UNL     1      42.217  10.187 -10.225  1.00  0.00     0.032 C 
ATOM     29  C   UNL     1      41.454  10.806 -11.400  1.00  0.00     0.114 C 
BRANCH  29  30
ATOM     30  O   UNL     1      41.886  12.125 -11.609  1.00  0.00    -0.393 OA
ATOM     31  H   UNL     1      42.704  12.251 -11.061  1.00  0.00     0.210 HD
ENDBRANCH  29  30
ENDBRANCH   9  11
ENDBRANCH   1   9
TORSDOF 7
ENDMDL
MODEL 4
REMARK VINA RESULT:    -5.060     14.770     17.216
REMARK INTER + INTRA:          -6.734
REMARK INTER:                  -5.722
REMARK INTRA:                  -1.012
REMARK UNBOUND:                 0.248
REMARK SMILES CC[C@H](CC[C@@H](C)[C@H]1CC[C@H]2C3=CC[C@@H]4C[C@@H](O)CC[C@]4(C)[C@@H]3CC[C@]12C)C(C)C
REMARK SMILES IDX 5 1 4 2 3 3 2 4 1 5 28 6 29 7 30 8 6 9 7 10 8 11 9 12 26 13
REMARK SMILES IDX 10 14 11 15 25 16 27 17 12 18 24 19 23 20 13 21 21 22 14 23
REMARK SMILES IDX 15 24 20 25 22 26 16 27 19 28 17 29 18 30
REMARK H PARENT 18 31
REMARK Flexibility Score: inf
ROOT
ATOM      1  C   UNL     1      33.711   8.035   4.087  1.00  0.00     0.004 C 
ENDROOT
BRANCH   1   2
ATOM      2  C   UNL     1      33.289   9.514   3.932  1.00  0.00     0.004 C 
BRANCH   2   3
ATOM      3  C   UNL     1      34.424  10.514   3.579  1.00  0.00    -0.009 C 
BRANCH   3   4
ATOM      4  C   UNL     1      34.586  10.719   2.040  1.00  0.00     0.000 C 
ATOM      5  C   UNL     1      33.362  10.238   1.256  1.00  0.00     0.004 C 
ENDBRANCH   3   4
BRANCH   3   6
ATOM      6  C   UNL     1      34.415  11.834   4.425  1.00  0.00    -0.014 C 
ATOM      7  C   UNL     1      33.010  12.122   4.981  1.00  0.00     0.007 C 
ATOM      8  C   UNL     1      35.450  11.900   5.568  1.00  0.00     0.007 C 
ENDBRANCH   3   6
ENDBRANCH   2   3
ENDBRANCH   1   2
BRANCH   1   9
ATOM      9  C   UNL     1      33.842   7.480   5.539  1.00  0.00    -0.011 C 
ATOM     10  C   UNL     1      33.560   5.965   5.570  1.00  0.00     0.008 C 
BRANCH   9  11
ATOM     11  C   UNL     1      35.106   7.823   6.411  1.00  0.00    -0.002 C 
ATOM     12  C   UNL     1      35.261   7.146   7.792  1.00  0.00     0.005 C 
ATOM     13  C   UNL     1      36.523   7.761   5.773  1.00  0.00    -0.023 C 
ATOM     14  C   UNL     1      36.762   7.186   8.123  1.00  0.00     0.009 C 
ATOM     15  C   UNL     1      37.378   8.046   7.020  1.00  0.00     0.021 C 
ATOM     16  C   UNL     1      36.801   8.859   4.699  1.00  0.00     0.008 C 
ATOM     17  C   UNL     1      36.833   6.349   5.183  1.00  0.00     0.012 C 
ATOM     18  C   UNL     1      38.851   7.937   6.695  1.00  0.00    -0.067 C 
ATOM     19  C   UNL     1      38.213   9.508   4.794  1.00  0.00     0.009 C 
ATOM     20  C   UNL     1      39.327   8.595   5.408  1.00  0.00     0.021 C 
ATOM     21  C   UNL     1      39.730   7.360   7.531  1.00  0.00    -0.027 C 
ATOM     22  C   UNL     1      40.705   9.317   5.632  1.00  0.00    -0.023 C 
ATOM     23  C   UNL     1      41.200   7.260   7.224  1.00  0.00     0.031 C 
ATOM     24  C   UNL     1      41.739   8.241   6.132  1.00  0.00     0.002 C 
ATOM     25  C   UNL     1      40.584  10.475   6.676  1.00  0.00     0.010 C 
ATOM     26  C   UNL     1      41.187   9.900   4.272  1.00  0.00     0.012 C 
ATOM     27  C   UNL     1      43.081   8.870   6.589  1.00  0.00     0.036 C 
ATOM     28  C   UNL     1      41.940  11.063   7.087  1.00  0.00     0.032 C 
ATOM     29  C   UNL     1      42.879   9.981   7.630  1.00  0.00     0.114 C 
BRANCH  29  30
ATOM     30  O   UNL     1      44.125  10.544   7.945  1.00  0.00    -0.393 OA
ATOM     31  H   UNL     1      44.016  11.530   7.900  1.00  0.00     0.210 HD
ENDBRANCH  29  30
ENDBRANCH   9  11
ENDBRANCH   1   9
TORSDOF 7
ENDMDL
MODEL 5
REMARK VINA RESULT:    -4.870      1.492      3.972
REMARK INTER + INTRA:          -6.473
REMARK INTER:                  -5.331
REMARK INTRA:                  -1.141
REMARK UNBOUND:                 0.248
REMARK SMILES CC[C@H](CC[C@@H](C)[C@H]1CC[C@H]2C3=CC[C@@H]4C[C@@H](O)CC[C@]4(C)[C@@H]3CC[C@]12C)C(C)C
REMARK SMILES IDX 5 1 4 2 3 3 2 4 1 5 28 6 29 7 30 8 6 9 7 10 8 11 9 12 26 13
REMARK SMILES IDX 10 14 11 15 25 16 27 17 12 18 24 19 23 20 13 21 21 22 14 23
REMARK SMILES IDX 15 24 20 25 22 26 16 27 19 28 17 29 18 30
REMARK H PARENT 18 31
REMARK Flexibility Score: inf
ROOT
ATOM      1  C   UNL     1      40.948   1.289  -7.953  1.00  0.00     0.004 C 
ENDROOT
BRANCH   1   2
ATOM      2  C   UNL     1      39.443   1.239  -8.303  1.00  0.00     0.004 C 
BRANCH   2   3
ATOM      3  C   UNL     1      39.096   0.905  -9.780  1.00  0.00    -0.009 C 
BRANCH   3   4
ATOM      4  C   UNL     1      38.910  -0.626 -10.021  1.00  0.00     0.000 C 
ATOM      5  C   UNL     1      38.707  -1.400  -8.716  1.00  0.00     0.004 C 
ENDBRANCH   3   4
BRANCH   3   6
ATOM      6  C   UNL     1      37.985   1.814 -10.410  1.00  0.00    -0.014 C 
ATOM      7  C   UNL     1      37.583   2.941  -9.443  1.00  0.00     0.007 C 
ATOM      8  C   UNL     1      38.319   2.411 -11.794  1.00  0.00     0.007 C 
ENDBRANCH   3   6
ENDBRANCH   2   3
ENDBRANCH   1   2
BRANCH   1   9
ATOM      9  C   UNL     1      41.433   2.472  -7.060  1.00  0.00    -0.011 C 
ATOM     10  C   UNL     1      42.039   1.948  -5.743  1.00  0.00     0.008 C 
BRANCH   9  11
ATOM     11  C   UNL     1      42.336   3.609  -7.667  1.00  0.00    -0.002 C 
ATOM     12  C   UNL     1      43.674   3.217  -8.334  1.00  0.00     0.005 C 
ATOM     13  C   UNL     1      41.708   4.667  -8.618  1.00  0.00    -0.023 C 
ATOM     14  C   UNL     1      44.021   4.361  -9.303  1.00  0.00     0.009 C 
ATOM     15  C   UNL     1      42.978   5.440  -9.016  1.00  0.00     0.021 C 
ATOM     16  C   UNL     1      40.706   5.646  -7.931  1.00  0.00     0.008 C 
ATOM     17  C   UNL     1      41.036   4.003  -9.862  1.00  0.00     0.012 C 
ATOM     18  C   UNL     1      42.660   6.494 -10.052  1.00  0.00    -0.067 C 
ATOM     19  C   UNL     1      40.853   7.131  -8.373  1.00  0.00     0.009 C 
ATOM     20  C   UNL     1      41.420   7.345  -9.817  1.00  0.00     0.021 C 
ATOM     21  C   UNL     1      43.467   6.740 -11.097  1.00  0.00    -0.027 C 
ATOM     22  C   UNL     1      41.700   8.846 -10.187  1.00  0.00    -0.023 C 
ATOM     23  C   UNL     1      43.168   7.797 -12.125  1.00  0.00     0.031 C 
ATOM     24  C   UNL     1      42.142   8.898 -11.697  1.00  0.00     0.002 C 
ATOM     25  C   UNL     1      42.811   9.464  -9.278  1.00  0.00     0.010 C 
ATOM     26  C   UNL     1      40.383   9.655 -10.010  1.00  0.00     0.012 C 
ATOM     27  C   UNL     1      42.649  10.301 -12.123  1.00  0.00     0.036 C 
ATOM     28  C   UNL     1      43.270  10.853  -9.742  1.00  0.00     0.032 C 
ATOM     29  C   UNL     1      43.754  10.827 -11.196  1.00  0.00     0.114 C 
BRANCH  29  30
ATOM     30  O   UNL     1      44.114  12.121 -11.602  1.00  0.00    -0.393 OA
ATOM     31  H   UNL     1      43.636  12.754 -11.006  1.00  0.00     0.210 HD
ENDBRANCH  29  30
ENDBRANCH   9  11
ENDBRANCH   1   9
TORSDOF 7
ENDMDL
MODEL 6
REMARK VINA RESULT:    -4.088     12.689     15.351
REMARK INTER + INTRA:          -5.394
REMARK INTER:                  -5.292
REMARK INTRA:                  -0.102
REMARK UNBOUND:                 0.248
REMARK SMILES CC[C@H](CC[C@@H](C)[C@H]1CC[C@H]2C3=CC[C@@H]4C[C@@H](O)CC[C@]4(C)[C@@H]3CC[C@]12C)C(C)C
REMARK SMILES IDX 5 1 4 2 3 3 2 4 1 5 28 6 29 7 30 8 6 9 7 10 8 11 9 12 26 13
REMARK SMILES IDX 10 14 11 15 25 16 27 17 12 18 24 19 23 20 13 21 21 22 14 23
REMARK SMILES IDX 15 24 20 25 22 26 16 27 19 28 17 29 18 30
REMARK H PARENT 18 31
REMARK Flexibility Score: inf
ROOT
ATOM      1  C   UNL     1      41.569  11.285   0.208  1.00  0.00     0.004 C 
ENDROOT
BRANCH   1   2
ATOM      2  C   UNL     1      42.668  10.709  -0.714  1.00  0.00     0.004 C 
BRANCH   2   3
ATOM      3  C   UNL     1      42.182   9.761  -1.845  1.00  0.00    -0.009 C 
BRANCH   3   4
ATOM      4  C   UNL     1      43.280   8.745  -2.288  1.00  0.00     0.000 C 
ATOM      5  C   UNL     1      43.696   8.935  -3.749  1.00  0.00     0.004 C 
ENDBRANCH   3   4
BRANCH   3   6
ATOM      6  C   UNL     1      40.762   9.140  -1.610  1.00  0.00    -0.014 C 
ATOM      7  C   UNL     1      39.984   9.028  -2.932  1.00  0.00     0.007 C 
ATOM      8  C   UNL     1      40.742   7.781  -0.879  1.00  0.00     0.007 C 
ENDBRANCH   3   6
ENDBRANCH   2   3
ENDBRANCH   1   2
BRANCH   1   9
ATOM      9  C   UNL     1      41.613  10.875   1.712  1.00  0.00    -0.011 C 
ATOM     10  C   UNL     1      41.559  12.121   2.618  1.00  0.00     0.008 C 
BRANCH   9  11
ATOM     11  C   UNL     1      40.654   9.753   2.260  1.00  0.00    -0.002 C 
ATOM     12  C   UNL     1      41.132   8.284   2.219  1.00  0.00     0.005 C 
ATOM     13  C   UNL     1      39.990   9.921   3.656  1.00  0.00    -0.023 C 
ATOM     14  C   UNL     1      40.320   7.539   3.293  1.00  0.00     0.009 C 
ATOM     15  C   UNL     1      39.285   8.558   3.770  1.00  0.00     0.021 C 
ATOM     16  C   UNL     1      38.924  11.058   3.737  1.00  0.00     0.008 C 
ATOM     17  C   UNL     1      41.052  10.105   4.786  1.00  0.00     0.012 C 
ATOM     18  C   UNL     1      38.627   8.407   5.123  1.00  0.00    -0.067 C 
ATOM     19  C   UNL     1      37.640  10.680   4.533  1.00  0.00     0.009 C 
ATOM     20  C   UNL     1      37.840   9.599   5.647  1.00  0.00     0.021 C 
ATOM     21  C   UNL     1      38.656   7.254   5.810  1.00  0.00    -0.027 C 
ATOM     22  C   UNL     1      36.509   9.124   6.335  1.00  0.00    -0.023 C 
ATOM     23  C   UNL     1      37.992   7.088   7.150  1.00  0.00     0.031 C 
ATOM     24  C   UNL     1      36.893   8.142   7.504  1.00  0.00     0.002 C 
ATOM     25  C   UNL     1      35.561   8.409   5.319  1.00  0.00     0.010 C 
ATOM     26  C   UNL     1      35.785  10.368   6.926  1.00  0.00     0.012 C 
ATOM     27  C   UNL     1      35.655   7.442   8.125  1.00  0.00     0.036 C 
ATOM     28  C   UNL     1      34.352   7.739   5.986  1.00  0.00     0.032 C 
ATOM     29  C   UNL     1      34.789   6.744   7.066  1.00  0.00     0.114 C 
BRANCH  29  30
ATOM     30  O   UNL     1      33.660   6.192   7.691  1.00  0.00    -0.393 OA
ATOM     31  H   UNL     1      32.950   6.127   7.000  1.00  0.00     0.210 HD
ENDBRANCH  29  30
ENDBRANCH   9  11
ENDBRANCH   1   9
TORSDOF 7
ENDMDL
MODEL 7
REMARK VINA RESULT:    -3.712      1.349      2.314
REMARK INTER + INTRA:          -4.874
REMARK INTER:                  -6.253
REMARK INTRA:                   1.379
REMARK UNBOUND:                 0.248
REMARK SMILES CC[C@H](CC[C@@H](C)[C@H]1CC[C@H]2C3=CC[C@@H]4C[C@@H](O)CC[C@]4(C)[C@@H]3CC[C@]12C)C(C)C
REMARK SMILES IDX 5 1 4 2 3 3 2 4 1 5 28 6 29 7 30 8 6 9 7 10 8 11 9 12 26 13
REMARK SMILES IDX 10 14 11 15 25 16 27 17 12 18 24 19 23 20 13 21 21 22 14 23
REMARK SMILES IDX 15 24 20 25 22 26 16 27 19 28 17 29 18 30
REMARK H PARENT 18 31
REMARK Flexibility Score: inf
ROOT
ATOM      1  C   UNL     1      38.283   2.419  -9.579  1.00  0.00     0.004 C 
ENDROOT
BRANCH   1   2
ATOM      2  C   UNL     1      39.780   2.103  -9.353  1.00  0.00     0.004 C 
BRANCH   2   3
ATOM      3  C   UNL     1      40.447   2.796  -8.133  1.00  0.00    -0.009 C 
BRANCH   3   4
ATOM      4  C   UNL     1      39.419   3.169  -7.020  1.00  0.00     0.000 C 
ATOM      5  C   UNL     1      39.164   4.677  -6.943  1.00  0.00     0.004 C 
ENDBRANCH   3   4
BRANCH   3   6
ATOM      6  C   UNL     1      41.752   2.097  -7.620  1.00  0.00    -0.014 C 
ATOM      7  C   UNL     1      43.000   2.709  -8.279  1.00  0.00     0.007 C 
ATOM      8  C   UNL     1      41.935   2.068  -6.088  1.00  0.00     0.007 C 
ENDBRANCH   3   6
ENDBRANCH   2   3
ENDBRANCH   1   2
BRANCH   1   9
ATOM      9  C   UNL     1      37.866   2.923 -10.995  1.00  0.00    -0.011 C 
ATOM     10  C   UNL     1      36.345   2.779 -11.198  1.00  0.00     0.008 C 
BRANCH   9  11
ATOM     11  C   UNL     1      38.363   4.321 -11.519  1.00  0.00    -0.002 C 
ATOM     12  C   UNL     1      37.327   5.296 -12.125  1.00  0.00     0.005 C 
ATOM     13  C   UNL     1      39.268   5.207 -10.617  1.00  0.00    -0.023 C 
ATOM     14  C   UNL     1      37.937   6.703 -11.996  1.00  0.00     0.009 C 
ATOM     15  C   UNL     1      39.363   6.462 -11.502  1.00  0.00     0.021 C 
ATOM     16  C   UNL     1      40.702   4.638 -10.377  1.00  0.00     0.008 C 
ATOM     17  C   UNL     1      38.587   5.528  -9.249  1.00  0.00     0.012 C 
ATOM     18  C   UNL     1      40.125   7.559 -10.794  1.00  0.00    -0.067 C 
ATOM     19  C   UNL     1      41.836   5.702 -10.454  1.00  0.00     0.009 C 
ATOM     20  C   UNL     1      41.408   7.161 -10.079  1.00  0.00     0.021 C 
ATOM     21  C   UNL     1      39.747   8.847 -10.850  1.00  0.00    -0.027 C 
ATOM     22  C   UNL     1      42.527   8.242 -10.306  1.00  0.00    -0.023 C 
ATOM     23  C   UNL     1      40.508   9.948 -10.162  1.00  0.00     0.031 C 
ATOM     24  C   UNL     1      41.985   9.619  -9.769  1.00  0.00     0.002 C 
ATOM     25  C   UNL     1      42.909   8.364 -11.817  1.00  0.00     0.010 C 
ATOM     26  C   UNL     1      43.786   7.832  -9.489  1.00  0.00     0.012 C 
ATOM     27  C   UNL     1      42.915  10.807 -10.128  1.00  0.00     0.036 C 
ATOM     28  C   UNL     1      43.834   9.552 -12.113  1.00  0.00     0.032 C 
ATOM     29  C   UNL     1      43.224  10.873 -11.631  1.00  0.00     0.114 C 
BRANCH  29  30
ATOM     30  O   UNL     1      44.118  11.927 -11.868  1.00  0.00    -0.393 OA
ATOM     31  H   UNL     1      44.996  11.518 -12.085  1.00  0.00     0.210 HD
ENDBRANCH  29  30
ENDBRANCH   9  11
ENDBRANCH   1   9
TORSDOF 7
ENDMDL
MODEL 8
REMARK VINA RESULT:    -3.575      1.768      4.067
REMARK INTER + INTRA:          -4.685
REMARK INTER:                  -3.838
REMARK INTRA:                  -0.848
REMARK UNBOUND:                 0.248
REMARK SMILES CC[C@H](CC[C@@H](C)[C@H]1CC[C@H]2C3=CC[C@@H]4C[C@@H](O)CC[C@]4(C)[C@@H]3CC[C@]12C)C(C)C
REMARK SMILES IDX 5 1 4 2 3 3 2 4 1 5 28 6 29 7 30 8 6 9 7 10 8 11 9 12 26 13
REMARK SMILES IDX 10 14 11 15 25 16 27 17 12 18 24 19 23 20 13 21 21 22 14 23
REMARK SMILES IDX 15 24 20 25 22 26 16 27 19 28 17 29 18 30
REMARK H PARENT 18 31
REMARK Flexibility Score: inf
ROOT
ATOM      1  C   UNL     1      40.800   0.927  -8.001  1.00  0.00     0.004 C 
ENDROOT
BRANCH   1   2
ATOM      2  C   UNL     1      39.273   1.076  -8.190  1.00  0.00     0.004 C 
BRANCH   2   3
ATOM      3  C   UNL     1      38.643   0.238  -9.337  1.00  0.00    -0.009 C 
BRANCH   3   4
ATOM      4  C   UNL     1      38.906   0.857 -10.745  1.00  0.00     0.000 C 
ATOM      5  C   UNL     1      38.250   2.230 -10.911  1.00  0.00     0.004 C 
ENDBRANCH   3   4
BRANCH   3   6
ATOM      6  C   UNL     1      38.899  -1.305  -9.234  1.00  0.00    -0.014 C 
ATOM      7  C   UNL     1      37.833  -1.982  -8.355  1.00  0.00     0.007 C 
ATOM      8  C   UNL     1      39.015  -2.053 -10.579  1.00  0.00     0.007 C 
ENDBRANCH   3   6
ENDBRANCH   2   3
ENDBRANCH   1   2
BRANCH   1   9
ATOM      9  C   UNL     1      41.466   1.782  -6.879  1.00  0.00    -0.011 C 
ATOM     10  C   UNL     1      42.585   0.985  -6.179  1.00  0.00     0.008 C 
BRANCH   9  11
ATOM     11  C   UNL     1      41.938   3.253  -7.174  1.00  0.00    -0.002 C 
ATOM     12  C   UNL     1      43.434   3.601  -7.000  1.00  0.00     0.005 C 
ATOM     13  C   UNL     1      41.516   3.947  -8.499  1.00  0.00    -0.023 C 
ATOM     14  C   UNL     1      43.691   4.839  -7.876  1.00  0.00     0.009 C 
ATOM     15  C   UNL     1      42.305   5.262  -8.363  1.00  0.00     0.021 C 
ATOM     16  C   UNL     1      39.993   4.273  -8.607  1.00  0.00     0.008 C 
ATOM     17  C   UNL     1      41.977   3.137  -9.752  1.00  0.00     0.012 C 
ATOM     18  C   UNL     1      42.155   6.108  -9.607  1.00  0.00    -0.067 C 
ATOM     19  C   UNL     1      39.676   5.675  -9.205  1.00  0.00     0.009 C 
ATOM     20  C   UNL     1      40.755   6.240 -10.189  1.00  0.00     0.021 C 
ATOM     21  C   UNL     1      43.182   6.786 -10.143  1.00  0.00    -0.027 C 
ATOM     22  C   UNL     1      40.489   7.715 -10.664  1.00  0.00    -0.023 C 
ATOM     23  C   UNL     1      43.039   7.643 -11.371  1.00  0.00     0.031 C 
ATOM     24  C   UNL     1      41.583   8.083 -11.734  1.00  0.00     0.002 C 
ATOM     25  C   UNL     1      40.543   8.721  -9.468  1.00  0.00     0.010 C 
ATOM     26  C   UNL     1      39.082   7.778 -11.325  1.00  0.00     0.012 C 
ATOM     27  C   UNL     1      41.555   9.584 -12.124  1.00  0.00     0.036 C 
ATOM     28  C   UNL     1      40.507  10.189  -9.911  1.00  0.00     0.032 C 
ATOM     29  C   UNL     1      41.636  10.506 -10.898  1.00  0.00     0.114 C 
BRANCH  29  30
ATOM     30  O   UNL     1      41.540  11.839 -11.322  1.00  0.00    -0.393 OA
ATOM     31  H   UNL     1      42.055  12.387 -10.674  1.00  0.00     0.210 HD
ENDBRANCH  29  30
ENDBRANCH   9  11
ENDBRANCH   1   9
TORSDOF 7
ENDMDL
MODEL 9
REMARK VINA RESULT:    -3.506      3.156      8.403
REMARK INTER + INTRA:          -4.590
REMARK INTER:                  -3.819
REMARK INTRA:                  -0.770
REMARK UNBOUND:                 0.248
REMARK SMILES CC[C@H](CC[C@@H](C)[C@H]1CC[C@H]2C3=CC[C@@H]4C[C@@H](O)CC[C@]4(C)[C@@H]3CC[C@]12C)C(C)C
REMARK SMILES IDX 5 1 4 2 3 3 2 4 1 5 28 6 29 7 30 8 6 9 7 10 8 11 9 12 26 13
REMARK SMILES IDX 10 14 11 15 25 16 27 17 12 18 24 19 23 20 13 21 21 22 14 23
REMARK SMILES IDX 15 24 20 25 22 26 16 27 19 28 17 29 18 30
REMARK H PARENT 18 31
REMARK Flexibility Score: inf
ROOT
ATOM      1  C   UNL     1      41.603   9.172  -9.954  1.00  0.00     0.004 C 
ENDROOT
BRANCH   1   2
ATOM      2  C   UNL     1      41.771  10.706  -9.867  1.00  0.00     0.004 C 
BRANCH   2   3
ATOM      3  C   UNL     1      40.806  11.549 -10.746  1.00  0.00    -0.009 C 
BRANCH   3   4
ATOM      4  C   UNL     1      41.430  11.930 -12.125  1.00  0.00     0.000 C 
ATOM      5  C   UNL     1      42.960  11.964 -12.083  1.00  0.00     0.004 C 
ENDBRANCH   3   4
BRANCH   3   6
ATOM      6  C   UNL     1      39.339  11.001 -10.812  1.00  0.00    -0.014 C 
ATOM      7  C   UNL     1      38.321  12.116 -10.518  1.00  0.00     0.007 C 
ATOM      8  C   UNL     1      38.955  10.280 -12.122  1.00  0.00     0.007 C 
ENDBRANCH   3   6
ENDBRANCH   2   3
ENDBRANCH   1   2
BRANCH   1   9
ATOM      9  C   UNL     1      42.867   8.336 -10.325  1.00  0.00    -0.011 C 
ATOM     10  C   UNL     1      44.107   8.861  -9.574  1.00  0.00     0.008 C 
BRANCH   9  11
ATOM     11  C   UNL     1      42.822   6.764 -10.283  1.00  0.00    -0.002 C 
ATOM     12  C   UNL     1      44.059   6.000  -9.758  1.00  0.00     0.005 C 
ATOM     13  C   UNL     1      41.603   6.044  -9.641  1.00  0.00    -0.023 C 
ATOM     14  C   UNL     1      43.547   4.627  -9.289  1.00  0.00     0.009 C 
ATOM     15  C   UNL     1      42.086   4.586  -9.736  1.00  0.00     0.021 C 
ATOM     16  C   UNL     1      40.267   6.194 -10.434  1.00  0.00     0.008 C 
ATOM     17  C   UNL     1      41.391   6.475  -8.155  1.00  0.00     0.012 C 
ATOM     18  C   UNL     1      41.105   3.652  -9.064  1.00  0.00    -0.067 C 
ATOM     19  C   UNL     1      39.429   4.886 -10.533  1.00  0.00     0.009 C 
ATOM     20  C   UNL     1      39.628   3.874  -9.355  1.00  0.00     0.021 C 
ATOM     21  C   UNL     1      41.503   2.617  -8.307  1.00  0.00    -0.027 C 
ATOM     22  C   UNL     1      38.889   2.500  -9.549  1.00  0.00    -0.023 C 
ATOM     23  C   UNL     1      40.535   1.672  -7.648  1.00  0.00     0.031 C 
ATOM     24  C   UNL     1      39.086   1.656  -8.235  1.00  0.00     0.002 C 
ATOM     25  C   UNL     1      39.447   1.718 -10.782  1.00  0.00     0.010 C 
ATOM     26  C   UNL     1      37.373   2.778  -9.759  1.00  0.00     0.012 C 
ATOM     27  C   UNL     1      38.581   0.196  -8.383  1.00  0.00     0.036 C 
ATOM     28  C   UNL     1      38.911   0.284 -10.882  1.00  0.00     0.032 C 
ATOM     29  C   UNL     1      39.192  -0.511  -9.602  1.00  0.00     0.114 C 
BRANCH  29  30
ATOM     30  O   UNL     1      38.641  -1.797  -9.708  1.00  0.00    -0.393 OA
ATOM     31  H   UNL     1      38.292  -2.036  -8.810  1.00  0.00     0.210 HD
ENDBRANCH  29  30
ENDBRANCH   9  11
ENDBRANCH   1   9
TORSDOF 7
ENDMDL
