MODEL 1
REMARK VINA RESULT:    -2.658      0.000      0.000
REMARK INTER + INTRA:          -3.226
REMARK INTER:                  -3.202
REMARK INTRA:                  -0.024
REMARK UNBOUND:                -0.024
REMARK SMILES CCCCCO
REMARK SMILES IDX 4 1 3 2 2 3 1 4 5 5 6 6
REMARK H PARENT 6 7
REMARK Flexibility Score: inf
ROOT
ATOM      1  C   UNL     1     127.238 145.194 107.433  1.00  0.00     0.028 C 
ENDROOT
BRANCH   1   2
ATOM      2  C   UNL     1     126.955 146.059 106.189  1.00  0.00     0.002 C 
BRANCH   2   3
ATOM      3  C   UNL     1     127.185 145.350 104.843  1.00  0.00    -0.003 C 
ATOM      4  C   UNL     1     127.731 143.932 105.000  1.00  0.00     0.004 C 
ENDBRANCH   2   3
ENDBRANCH   1   2
BRANCH   1   5
ATOM      5  C   UNL     1     127.532 146.002 108.702  1.00  0.00     0.156 C 
BRANCH   5   6
ATOM      6  O   UNL     1     128.886 146.363 108.764  1.00  0.00    -0.396 OA
ATOM      7  H   UNL     1     129.363 145.805 108.096  1.00  0.00     0.210 HD
ENDBRANCH   5   6
ENDBRANCH   1   5
TORSDOF 4
ENDMDL
MODEL 2
REMARK VINA RESULT:    -2.647      2.252      2.904
REMARK INTER + INTRA:          -3.212
REMARK INTER:                  -3.173
REMARK INTRA:                  -0.039
REMARK UNBOUND:                -0.024
REMARK SMILES CCCCCO
REMARK SMILES IDX 4 1 3 2 2 3 1 4 5 5 6 6
REMARK H PARENT 6 7
REMARK Flexibility Score: inf
ROOT
ATOM      1  C   UNL     1     127.166 142.998 106.510  1.00  0.00     0.028 C 
ENDROOT
BRANCH   1   2
ATOM      2  C   UNL     1     127.965 143.637 105.357  1.00  0.00     0.002 C 
BRANCH   2   3
ATOM      3  C   UNL     1     127.481 145.034 104.931  1.00  0.00    -0.003 C 
ATOM      4  C   UNL     1     126.876 145.834 106.084  1.00  0.00     0.004 C 
ENDBRANCH   2   3
ENDBRANCH   1   2
BRANCH   1   5
ATOM      5  C   UNL     1     128.009 142.666 107.746  1.00  0.00     0.156 C 
BRANCH   5   6
ATOM      6  O   UNL     1     127.192 142.306 108.828  1.00  0.00    -0.396 OA
ATOM      7  H   UNL     1     126.445 141.769 108.457  1.00  0.00     0.210 HD
ENDBRANCH   5   6
ENDBRANCH   1   5
TORSDOF 4
ENDMDL
MODEL 3
REMARK VINA RESULT:    -2.612     15.863     16.580
REMARK INTER + INTRA:          -3.171
REMARK INTER:                  -3.160
REMARK INTRA:                  -0.011
REMARK UNBOUND:                -0.024
REMARK SMILES CCCCCO
REMARK SMILES IDX 4 1 3 2 2 3 1 4 5 5 6 6
REMARK H PARENT 6 7
REMARK Flexibility Score: inf
ROOT
ATOM      1  C   UNL     1     130.786 129.258 106.355  1.00  0.00     0.028 C 
ENDROOT
BRANCH   1   2
ATOM      2  C   UNL     1     129.352 128.693 106.347  1.00  0.00     0.002 C 
BRANCH   2   3
ATOM      3  C   UNL     1     128.239 129.751 106.448  1.00  0.00    -0.003 C 
ATOM      4  C   UNL     1     127.712 130.195 105.084  1.00  0.00     0.004 C 
ENDBRANCH   2   3
ENDBRANCH   1   2
BRANCH   1   5
ATOM      5  C   UNL     1     131.428 129.314 107.745  1.00  0.00     0.156 C 
BRANCH   5   6
ATOM      6  O   UNL     1     132.080 128.109 108.046  1.00  0.00    -0.396 OA
ATOM      7  H   UNL     1     132.029 127.544 107.232  1.00  0.00     0.210 HD
ENDBRANCH   5   6
ENDBRANCH   1   5
TORSDOF 4
ENDMDL
MODEL 4
REMARK VINA RESULT:    -2.579     21.949     22.455
REMARK INTER + INTRA:          -3.130
REMARK INTER:                  -3.053
REMARK INTRA:                  -0.077
REMARK UNBOUND:                -0.024
REMARK SMILES CCCCCO
REMARK SMILES IDX 4 1 3 2 2 3 1 4 5 5 6 6
REMARK H PARENT 6 7
REMARK Flexibility Score: inf
ROOT
ATOM      1  C   UNL     1     143.447 130.200 105.625  1.00  0.00     0.028 C 
ENDROOT
BRANCH   1   2
ATOM      2  C   UNL     1     144.427 131.148 104.907  1.00  0.00     0.002 C 
BRANCH   2   3
ATOM      3  C   UNL     1     145.190 132.111 105.834  1.00  0.00    -0.003 C 
ATOM      4  C   UNL     1     146.691 131.831 105.882  1.00  0.00     0.004 C 
ENDBRANCH   2   3
ENDBRANCH   1   2
BRANCH   1   5
ATOM      5  C   UNL     1     143.266 130.500 107.117  1.00  0.00     0.156 C 
BRANCH   5   6
ATOM      6  O   UNL     1     143.737 129.438 107.903  1.00  0.00    -0.396 OA
ATOM      7  H   UNL     1     144.598 129.733 108.298  1.00  0.00     0.210 HD
ENDBRANCH   5   6
ENDBRANCH   1   5
TORSDOF 4
ENDMDL
MODEL 5
REMARK VINA RESULT:    -2.558     17.469     17.989
REMARK INTER + INTRA:          -3.105
REMARK INTER:                  -3.051
REMARK INTRA:                  -0.054
REMARK UNBOUND:                -0.024
REMARK SMILES CCCCCO
REMARK SMILES IDX 4 1 3 2 2 3 1 4 5 5 6 6
REMARK H PARENT 6 7
REMARK Flexibility Score: inf
ROOT
ATOM      1  C   UNL     1     145.337 141.031 105.776  1.00  0.00     0.028 C 
ENDROOT
BRANCH   1   2
ATOM      2  C   UNL     1     144.797 142.243 104.992  1.00  0.00     0.002 C 
BRANCH   2   3
ATOM      3  C   UNL     1     144.055 143.287 105.845  1.00  0.00    -0.003 C 
ATOM      4  C   UNL     1     144.778 144.631 105.907  1.00  0.00     0.004 C 
ENDBRANCH   2   3
ENDBRANCH   1   2
BRANCH   1   5
ATOM      5  C   UNL     1     145.229 141.174 107.299  1.00  0.00     0.156 C 
BRANCH   5   6
ATOM      6  O   UNL     1     146.415 140.761 107.926  1.00  0.00    -0.396 OA
ATOM      7  H   UNL     1     146.352 141.046 108.874  1.00  0.00     0.210 HD
ENDBRANCH   5   6
ENDBRANCH   1   5
TORSDOF 4
ENDMDL
MODEL 6
REMARK VINA RESULT:    -2.531     17.506     17.779
REMARK INTER + INTRA:          -3.073
REMARK INTER:                  -3.033
REMARK INTRA:                  -0.040
REMARK UNBOUND:                -0.024
REMARK SMILES CCCCCO
REMARK SMILES IDX 4 1 3 2 2 3 1 4 5 5 6 6
REMARK H PARENT 6 7
REMARK Flexibility Score: inf
ROOT
ATOM      1  C   UNL     1     132.388 128.832 105.695  1.00  0.00     0.028 C 
ENDROOT
BRANCH   1   2
ATOM      2  C   UNL     1     133.443 128.377 104.668  1.00  0.00     0.002 C 
BRANCH   2   3
ATOM      3  C   UNL     1     134.379 129.490 104.166  1.00  0.00    -0.003 C 
ATOM      4  C   UNL     1     135.723 129.514 104.893  1.00  0.00     0.004 C 
ENDBRANCH   2   3
ENDBRANCH   1   2
BRANCH   1   5
ATOM      5  C   UNL     1     132.838 128.699 107.154  1.00  0.00     0.156 C 
BRANCH   5   6
ATOM      6  O   UNL     1     131.781 128.261 107.967  1.00  0.00    -0.396 OA
ATOM      7  H   UNL     1     131.108 128.989 107.980  1.00  0.00     0.210 HD
ENDBRANCH   5   6
ENDBRANCH   1   5
TORSDOF 4
ENDMDL
MODEL 7
REMARK VINA RESULT:    -2.515      1.981      2.092
REMARK INTER + INTRA:          -3.054
REMARK INTER:                  -3.018
REMARK INTRA:                  -0.036
REMARK UNBOUND:                -0.024
REMARK SMILES CCCCCO
REMARK SMILES IDX 4 1 3 2 2 3 1 4 5 5 6 6
REMARK H PARENT 6 7
REMARK Flexibility Score: inf
ROOT
ATOM      1  C   UNL     1     129.643 145.302 106.123  1.00  0.00     0.028 C 
ENDROOT
BRANCH   1   2
ATOM      2  C   UNL     1     128.151 145.369 105.741  1.00  0.00     0.002 C 
BRANCH   2   3
ATOM      3  C   UNL     1     127.621 144.136 104.987  1.00  0.00    -0.003 C 
ATOM      4  C   UNL     1     127.489 142.902 105.878  1.00  0.00     0.004 C 
ENDBRANCH   2   3
ENDBRANCH   1   2
BRANCH   1   5
ATOM      5  C   UNL     1     129.925 145.616 107.597  1.00  0.00     0.156 C 
BRANCH   5   6
ATOM      6  O   UNL     1     131.102 146.366 107.734  1.00  0.00    -0.396 OA
ATOM      7  H   UNL     1     130.845 147.234 108.139  1.00  0.00     0.210 HD
ENDBRANCH   5   6
ENDBRANCH   1   5
TORSDOF 4
ENDMDL
MODEL 8
REMARK VINA RESULT:    -2.515     16.669     17.018
REMARK INTER + INTRA:          -3.054
REMARK INTER:                  -2.986
REMARK INTRA:                  -0.068
REMARK UNBOUND:                -0.024
REMARK SMILES CCCCCO
REMARK SMILES IDX 4 1 3 2 2 3 1 4 5 5 6 6
REMARK H PARENT 6 7
REMARK Flexibility Score: inf
ROOT
ATOM      1  C   UNL     1     144.650 143.377 106.436  1.00  0.00     0.028 C 
ENDROOT
BRANCH   1   2
ATOM      2  C   UNL     1     144.653 144.882 106.103  1.00  0.00     0.002 C 
BRANCH   2   3
ATOM      3  C   UNL     1     143.267 145.549 106.111  1.00  0.00    -0.003 C 
ATOM      4  C   UNL     1     143.022 146.405 107.353  1.00  0.00     0.004 C 
ENDBRANCH   2   3
ENDBRANCH   1   2
BRANCH   1   5
ATOM      5  C   UNL     1     144.873 143.065 107.920  1.00  0.00     0.156 C 
BRANCH   5   6
ATOM      6  O   UNL     1     145.998 143.744 108.412  1.00  0.00    -0.396 OA
ATOM      7  H   UNL     1     145.666 144.571 108.849  1.00  0.00     0.210 HD
ENDBRANCH   5   6
ENDBRANCH   1   5
TORSDOF 4
ENDMDL
