MODEL 1
REMARK VINA RESULT:     0.000      0.000      0.000
REMARK INTER + INTRA:          -5.629
REMARK INTER:                   0.000
REMARK INTRA:                  -5.629
REMARK UNBOUND:                -5.629
REMARK SMILES CCCCCCCCCCCCCCCCCCCCCCCC(=O)[O-]
REMARK SMILES IDX 13 1 14 2 15 3 16 4 17 5 18 6 19 7 20 8 21 9 22 10 23 11
REMARK SMILES IDX 24 12 25 13 26 14 12 15 11 16 10 17 9 18 8 19 7 20 6 21 5 22
REMARK SMILES IDX 4 23 3 24 2 25 1 26
REMARK H PARENT
REMARK Flexibility Score: inf
ROOT
ATOM      1  C   UNL     1     168.992 183.089 197.042  1.00  0.00     0.000 C 
ENDROOT
BRANCH   1   2
ATOM      2  C   UNL     1     169.510 182.454 198.344  1.00  0.00     0.000 C 
BRANCH   2   3
ATOM      3  C   UNL     1     170.580 183.314 199.037  1.00  0.00     0.000 C 
BRANCH   3   4
ATOM      4  C   UNL     1     171.986 182.694 198.941  1.00  0.00     0.000 C 
BRANCH   4   5
ATOM      5  C   UNL     1     173.097 183.716 199.244  1.00  0.00     0.000 C 
BRANCH   5   6
ATOM      6  C   UNL     1     174.365 183.477 198.407  1.00  0.00     0.000 C 
BRANCH   6   7
ATOM      7  C   UNL     1     175.075 184.788 198.026  1.00  0.00     0.000 C 
BRANCH   7   8
ATOM      8  C   UNL     1     175.527 184.812 196.556  1.00  0.00     0.000 C 
BRANCH   8   9
ATOM      9  C   UNL     1     175.347 186.188 195.879  1.00  0.00     0.000 C 
BRANCH   9  10
ATOM     10  C   UNL     1     175.127 186.062 194.365  1.00  0.00     0.006 C 
BRANCH  10  11
ATOM     11  C   UNL     1     175.576 184.690 193.854  1.00  0.00     0.053 C 
BRANCH  11  12
ATOM     12  C   UNL     1     175.501 184.636 192.361  1.00  0.00     0.041 C 
ATOM     13  O   UNL     1     175.921 185.602 191.670  1.00  0.00    -0.550 OA
ATOM     14  O   UNL     1     174.921 183.540 191.733  1.00  0.00    -0.550 OA
ENDBRANCH  11  12
ENDBRANCH  10  11
ENDBRANCH   9  10
ENDBRANCH   8   9
ENDBRANCH   7   8
ENDBRANCH   6   7
ENDBRANCH   5   6
ENDBRANCH   4   5
ENDBRANCH   3   4
ENDBRANCH   2   3
ENDBRANCH   1   2
BRANCH   1  15
ATOM     15  C   UNL     1     169.110 182.145 195.834  1.00  0.00     0.000 C 
BRANCH  15  16
ATOM     16  C   UNL     1     169.900 180.863 196.156  1.00  0.00     0.000 C 
BRANCH  16  17
ATOM     17  C   UNL     1     171.086 180.573 195.215  1.00  0.00     0.000 C 
BRANCH  17  18
ATOM     18  C   UNL     1     172.478 180.906 195.789  1.00  0.00    -0.000 C 
BRANCH  18  19
ATOM     19  C   UNL     1     173.114 182.200 195.251  1.00  0.00    -0.000 C 
BRANCH  19  20
ATOM     20  C   UNL     1     172.371 182.767 194.028  1.00  0.00    -0.000 C 
BRANCH  20  21
ATOM     21  C   UNL     1     171.856 184.196 194.261  1.00  0.00    -0.000 C 
BRANCH  21  22
ATOM     22  C   UNL     1     171.962 184.634 195.733  1.00  0.00    -0.000 C 
BRANCH  22  23
ATOM     23  C   UNL     1     171.580 186.109 195.942  1.00  0.00    -0.000 C 
BRANCH  23  24
ATOM     24  C   UNL     1     171.441 186.477 197.429  1.00  0.00    -0.000 C 
BRANCH  24  25
ATOM     25  C   UNL     1     172.504 187.486 197.889  1.00  0.00    -0.003 C 
ATOM     26  C   UNL     1     172.767 187.427 199.395  1.00  0.00     0.004 C 
ENDBRANCH  24  25
ENDBRANCH  23  24
ENDBRANCH  22  23
ENDBRANCH  21  22
ENDBRANCH  20  21
ENDBRANCH  19  20
ENDBRANCH  18  19
ENDBRANCH  17  18
ENDBRANCH  16  17
ENDBRANCH  15  16
ENDBRANCH   1  15
TORSDOF 22
ENDMDL
MODEL 2
REMARK VINA RESULT:     0.003      6.414     10.069
REMARK INTER + INTRA:          -5.622
REMARK INTER:                   0.000
REMARK INTRA:                  -5.622
REMARK UNBOUND:                -5.629
REMARK SMILES CCCCCCCCCCCCCCCCCCCCCCCC(=O)[O-]
REMARK SMILES IDX 13 1 14 2 15 3 16 4 17 5 18 6 19 7 20 8 21 9 22 10 23 11
REMARK SMILES IDX 24 12 25 13 26 14 12 15 11 16 10 17 9 18 8 19 7 20 6 21 5 22
REMARK SMILES IDX 4 23 3 24 2 25 1 26
REMARK H PARENT
REMARK Flexibility Score: inf
ROOT
ATOM      1  C   UNL     1     176.333 188.174 191.590  1.00  0.00     0.000 C 
ENDROOT
BRANCH   1   2
ATOM      2  C   UNL     1     176.625 186.779 192.165  1.00  0.00     0.000 C 
BRANCH   2   3
ATOM      3  C   UNL     1     177.568 185.955 191.272  1.00  0.00     0.000 C 
BRANCH   3   4
ATOM      4  C   UNL     1     178.903 185.633 191.965  1.00  0.00     0.000 C 
BRANCH   4   5
ATOM      5  C   UNL     1     180.116 186.129 191.158  1.00  0.00     0.000 C 
BRANCH   5   6
ATOM      6  C   UNL     1     180.928 187.200 191.906  1.00  0.00     0.000 C 
BRANCH   6   7
ATOM      7  C   UNL     1     180.332 187.537 193.283  1.00  0.00     0.000 C 
BRANCH   7   8
ATOM      8  C   UNL     1     180.676 188.962 193.748  1.00  0.00     0.000 C 
BRANCH   8   9
ATOM      9  C   UNL     1     179.502 189.683 194.444  1.00  0.00     0.000 C 
BRANCH   9  10
ATOM     10  C   UNL     1     178.395 188.707 194.868  1.00  0.00     0.006 C 
BRANCH  10  11
ATOM     11  C   UNL     1     177.057 189.432 195.044  1.00  0.00     0.053 C 
BRANCH  11  12
ATOM     12  C   UNL     1     175.967 188.454 195.351  1.00  0.00     0.041 C 
ATOM     13  O   UNL     1     176.242 187.344 195.880  1.00  0.00    -0.550 OA
ATOM     14  O   UNL     1     174.653 188.747 195.007  1.00  0.00    -0.550 OA
ENDBRANCH  11  12
ENDBRANCH  10  11
ENDBRANCH   9  10
ENDBRANCH   8   9
ENDBRANCH   7   8
ENDBRANCH   6   7
ENDBRANCH   5   6
ENDBRANCH   4   5
ENDBRANCH   3   4
ENDBRANCH   2   3
ENDBRANCH   1   2
BRANCH   1  15
ATOM     15  C   UNL     1     177.614 188.945 191.224  1.00  0.00     0.000 C 
BRANCH  15  16
ATOM     16  C   UNL     1     177.471 190.464 191.428  1.00  0.00     0.000 C 
BRANCH  16  17
ATOM     17  C   UNL     1     178.616 191.312 190.837  1.00  0.00     0.000 C 
BRANCH  17  18
ATOM     18  C   UNL     1     179.906 190.536 190.506  1.00  0.00    -0.000 C 
BRANCH  18  19
ATOM     19  C   UNL     1     180.189 190.349 189.005  1.00  0.00    -0.000 C 
BRANCH  19  20
ATOM     20  C   UNL     1     180.544 188.897 188.640  1.00  0.00    -0.000 C 
BRANCH  20  21
ATOM     21  C   UNL     1     179.667 188.344 187.505  1.00  0.00    -0.000 C 
BRANCH  21  22
ATOM     22  C   UNL     1     178.565 187.397 188.011  1.00  0.00    -0.000 C 
BRANCH  22  23
ATOM     23  C   UNL     1     177.150 187.945 187.757  1.00  0.00    -0.000 C 
BRANCH  23  24
ATOM     24  C   UNL     1     177.165 189.289 187.009  1.00  0.00    -0.000 C 
BRANCH  24  25
ATOM     25  C   UNL     1     176.530 190.425 187.826  1.00  0.00    -0.003 C 
ATOM     26  C   UNL     1     175.214 190.017 188.489  1.00  0.00     0.004 C 
ENDBRANCH  24  25
ENDBRANCH  23  24
ENDBRANCH  22  23
ENDBRANCH  21  22
ENDBRANCH  20  21
ENDBRANCH  19  20
ENDBRANCH  18  19
ENDBRANCH  17  18
ENDBRANCH  16  17
ENDBRANCH  15  16
ENDBRANCH   1  15
TORSDOF 22
ENDMDL
MODEL 3
REMARK VINA RESULT:     0.015      4.904      8.202
REMARK INTER + INTRA:          -5.595
REMARK INTER:                   0.000
REMARK INTRA:                  -5.595
REMARK UNBOUND:                -5.629
REMARK SMILES CCCCCCCCCCCCCCCCCCCCCCCC(=O)[O-]
REMARK SMILES IDX 13 1 14 2 15 3 16 4 17 5 18 6 19 7 20 8 21 9 22 10 23 11
REMARK SMILES IDX 24 12 25 13 26 14 12 15 11 16 10 17 9 18 8 19 7 20 6 21 5 22
REMARK SMILES IDX 4 23 3 24 2 25 1 26
REMARK H PARENT
REMARK Flexibility Score: inf
ROOT
ATOM      1  C   UNL     1     175.102 187.251 193.657  1.00  0.00     0.000 C 
ENDROOT
BRANCH   1   2
ATOM      2  C   UNL     1     175.393 185.856 194.233  1.00  0.00     0.000 C 
BRANCH   2   3
ATOM      3  C   UNL     1     176.360 185.043 193.354  1.00  0.00     0.000 C 
BRANCH   3   4
ATOM      4  C   UNL     1     177.671 184.701 194.083  1.00  0.00     0.000 C 
BRANCH   4   5
ATOM      5  C   UNL     1     178.911 185.217 193.329  1.00  0.00     0.000 C 
BRANCH   5   6
ATOM      6  C   UNL     1     179.683 186.286 194.119  1.00  0.00     0.000 C 
BRANCH   6   7
ATOM      7  C   UNL     1     179.023 186.612 195.471  1.00  0.00     0.000 C 
BRANCH   7   8
ATOM      8  C   UNL     1     179.377 188.019 195.981  1.00  0.00     0.000 C 
BRANCH   8   9
ATOM      9  C   UNL     1     178.164 188.795 196.537  1.00  0.00     0.000 C 
BRANCH   9  10
ATOM     10  C   UNL     1     177.024 187.858 196.958  1.00  0.00     0.006 C 
BRANCH  10  11
ATOM     11  C   UNL     1     175.704 188.623 197.099  1.00  0.00     0.053 C 
BRANCH  11  12
ATOM     12  C   UNL     1     174.581 187.681 197.402  1.00  0.00     0.041 C 
ATOM     13  O   UNL     1     174.824 186.480 197.696  1.00  0.00    -0.550 OA
ATOM     14  O   UNL     1     173.265 188.116 197.309  1.00  0.00    -0.550 OA
ENDBRANCH  11  12
ENDBRANCH  10  11
ENDBRANCH   9  10
ENDBRANCH   8   9
ENDBRANCH   7   8
ENDBRANCH   6   7
ENDBRANCH   5   6
ENDBRANCH   4   5
ENDBRANCH   3   4
ENDBRANCH   2   3
ENDBRANCH   1   2
BRANCH   1  15
ATOM     15  C   UNL     1     176.382 188.022 193.292  1.00  0.00     0.000 C 
BRANCH  15  16
ATOM     16  C   UNL     1     176.230 189.544 193.469  1.00  0.00     0.000 C 
BRANCH  16  17
ATOM     17  C   UNL     1     177.429 190.381 192.978  1.00  0.00     0.000 C 
BRANCH  17  18
ATOM     18  C   UNL     1     178.712 189.579 192.678  1.00  0.00    -0.000 C 
BRANCH  18  19
ATOM     19  C   UNL     1     179.046 189.418 191.184  1.00  0.00    -0.000 C 
BRANCH  19  20
ATOM     20  C   UNL     1     179.448 187.979 190.813  1.00  0.00    -0.000 C 
BRANCH  20  21
ATOM     21  C   UNL     1     178.603 187.409 189.663  1.00  0.00    -0.000 C 
BRANCH  21  22
ATOM     22  C   UNL     1     177.478 186.481 190.154  1.00  0.00    -0.000 C 
BRANCH  22  23
ATOM     23  C   UNL     1     176.077 187.002 189.790  1.00  0.00    -0.000 C 
BRANCH  23  24
ATOM     24  C   UNL     1     176.125 188.353 189.055  1.00  0.00    -0.000 C 
BRANCH  24  25
ATOM     25  C   UNL     1     175.460 189.483 189.856  1.00  0.00    -0.003 C 
ATOM     26  C   UNL     1     174.113 189.076 190.453  1.00  0.00     0.004 C 
ENDBRANCH  24  25
ENDBRANCH  23  24
ENDBRANCH  22  23
ENDBRANCH  21  22
ENDBRANCH  20  21
ENDBRANCH  19  20
ENDBRANCH  18  19
ENDBRANCH  17  18
ENDBRANCH  16  17
ENDBRANCH  15  16
ENDBRANCH   1  15
TORSDOF 22
ENDMDL
MODEL 4
REMARK VINA RESULT:     0.016      1.956      2.600
REMARK INTER + INTRA:          -5.593
REMARK INTER:                   0.000
REMARK INTRA:                  -5.593
REMARK UNBOUND:                -5.629
REMARK SMILES CCCCCCCCCCCCCCCCCCCCCCCC(=O)[O-]
REMARK SMILES IDX 13 1 14 2 15 3 16 4 17 5 18 6 19 7 20 8 21 9 22 10 23 11
REMARK SMILES IDX 24 12 25 13 26 14 12 15 11 16 10 17 9 18 8 19 7 20 6 21 5 22
REMARK SMILES IDX 4 23 3 24 2 25 1 26
REMARK H PARENT
REMARK Flexibility Score: inf
ROOT
ATOM      1  C   UNL     1     168.825 182.808 198.647  1.00  0.00     0.000 C 
ENDROOT
BRANCH   1   2
ATOM      2  C   UNL     1     169.498 182.052 199.804  1.00  0.00     0.000 C 
BRANCH   2   3
ATOM      3  C   UNL     1     170.357 182.970 200.692  1.00  0.00     0.000 C 
BRANCH   3   4
ATOM      4  C   UNL     1     171.854 182.888 200.348  1.00  0.00     0.000 C 
BRANCH   4   5
ATOM      5  C   UNL     1     172.661 184.042 200.970  1.00  0.00     0.000 C 
BRANCH   5   6
ATOM      6  C   UNL     1     173.895 184.420 200.134  1.00  0.00     0.000 C 
BRANCH   6   7
ATOM      7  C   UNL     1     174.120 185.940 200.068  1.00  0.00     0.000 C 
BRANCH   7   8
ATOM      8  C   UNL     1     174.453 186.431 198.649  1.00  0.00     0.000 C 
BRANCH   8   9
ATOM      9  C   UNL     1     173.920 187.848 198.346  1.00  0.00     0.000 C 
BRANCH   9  10
ATOM     10  C   UNL     1     173.508 188.008 196.876  1.00  0.00     0.006 C 
BRANCH  10  11
ATOM     11  C   UNL     1     174.304 187.061 195.974  1.00  0.00     0.053 C 
BRANCH  11  12
ATOM     12  C   UNL     1     174.097 187.410 194.534  1.00  0.00     0.041 C 
ATOM     13  O   UNL     1     174.178 188.609 194.154  1.00  0.00    -0.550 OA
ATOM     14  O   UNL     1     173.764 186.419 193.618  1.00  0.00    -0.550 OA
ENDBRANCH  11  12
ENDBRANCH  10  11
ENDBRANCH   9  10
ENDBRANCH   8   9
ENDBRANCH   7   8
ENDBRANCH   6   7
ENDBRANCH   5   6
ENDBRANCH   4   5
ENDBRANCH   3   4
ENDBRANCH   2   3
ENDBRANCH   1   2
BRANCH   1  15
ATOM     15  C   UNL     1     169.119 182.178 197.276  1.00  0.00     0.000 C 
BRANCH  15  16
ATOM     16  C   UNL     1     170.300 181.191 197.317  1.00  0.00     0.000 C 
BRANCH  16  17
ATOM     17  C   UNL     1     171.432 181.485 196.312  1.00  0.00     0.000 C 
BRANCH  17  18
ATOM     18  C   UNL     1     172.716 182.082 196.923  1.00  0.00    -0.000 C 
BRANCH  18  19
ATOM     19  C   UNL     1     172.889 183.599 196.726  1.00  0.00    -0.000 C 
BRANCH  19  20
ATOM     20  C   UNL     1     171.937 184.176 195.663  1.00  0.00    -0.000 C 
BRANCH  20  21
ATOM     21  C   UNL     1     171.006 185.259 196.232  1.00  0.00    -0.000 C 
BRANCH  21  22
ATOM     22  C   UNL     1     171.079 185.362 197.766  1.00  0.00    -0.000 C 
BRANCH  22  23
ATOM     23  C   UNL     1     170.328 186.587 198.314  1.00  0.00    -0.000 C 
BRANCH  23  24
ATOM     24  C   UNL     1     170.139 186.527 199.840  1.00  0.00    -0.000 C 
BRANCH  24  25
ATOM     25  C   UNL     1     170.902 187.641 200.573  1.00  0.00    -0.003 C 
ATOM     26  C   UNL     1     171.225 187.285 202.024  1.00  0.00     0.004 C 
ENDBRANCH  24  25
ENDBRANCH  23  24
ENDBRANCH  22  23
ENDBRANCH  21  22
ENDBRANCH  20  21
ENDBRANCH  19  20
ENDBRANCH  18  19
ENDBRANCH  17  18
ENDBRANCH  16  17
ENDBRANCH  15  16
ENDBRANCH   1  15
TORSDOF 22
ENDMDL
MODEL 5
REMARK VINA RESULT:     0.022      9.040     11.303
REMARK INTER + INTRA:          -5.578
REMARK INTER:                   0.000
REMARK INTRA:                  -5.578
REMARK UNBOUND:                -5.629
REMARK SMILES CCCCCCCCCCCCCCCCCCCCCCCC(=O)[O-]
REMARK SMILES IDX 13 1 14 2 15 3 16 4 17 5 18 6 19 7 20 8 21 9 22 10 23 11
REMARK SMILES IDX 24 12 25 13 26 14 12 15 11 16 10 17 9 18 8 19 7 20 6 21 5 22
REMARK SMILES IDX 4 23 3 24 2 25 1 26
REMARK H PARENT
REMARK Flexibility Score: inf
ROOT
ATOM      1  C   UNL     1     174.373 193.185 202.757  1.00  0.00     0.000 C 
ENDROOT
BRANCH   1   2
ATOM      2  C   UNL     1     175.902 193.267 202.899  1.00  0.00     0.000 C 
BRANCH   2   3
ATOM      3  C   UNL     1     176.606 191.965 202.482  1.00  0.00     0.000 C 
BRANCH   3   4
ATOM      4  C   UNL     1     177.785 192.214 201.524  1.00  0.00     0.000 C 
BRANCH   4   5
ATOM      5  C   UNL     1     177.368 192.114 200.045  1.00  0.00     0.000 C 
BRANCH   5   6
ATOM      6  C   UNL     1     176.174 191.169 199.829  1.00  0.00     0.000 C 
BRANCH   6   7
ATOM      7  C   UNL     1     174.983 191.867 199.151  1.00  0.00     0.000 C 
BRANCH   7   8
ATOM      8  C   UNL     1     175.126 193.399 199.131  1.00  0.00     0.000 C 
BRANCH   8   9
ATOM      9  C   UNL     1     174.673 194.042 197.802  1.00  0.00     0.000 C 
BRANCH   9  10
ATOM     10  C   UNL     1     175.800 194.846 197.138  1.00  0.00     0.006 C 
BRANCH  10  11
ATOM     11  C   UNL     1     176.980 193.942 196.769  1.00  0.00     0.053 C 
BRANCH  11  12
ATOM     12  C   UNL     1     176.551 192.891 195.793  1.00  0.00     0.041 C 
ATOM     13  O   UNL     1     176.703 191.671 196.068  1.00  0.00    -0.550 OA
ATOM     14  O   UNL     1     176.030 193.259 194.559  1.00  0.00    -0.550 OA
ENDBRANCH  11  12
ENDBRANCH  10  11
ENDBRANCH   9  10
ENDBRANCH   8   9
ENDBRANCH   7   8
ENDBRANCH   6   7
ENDBRANCH   5   6
ENDBRANCH   4   5
ENDBRANCH   3   4
ENDBRANCH   2   3
ENDBRANCH   1   2
BRANCH   1  15
ATOM     15  C   UNL     1     173.855 191.737 202.752  1.00  0.00     0.000 C 
BRANCH  15  16
ATOM     16  C   UNL     1     172.595 191.560 201.885  1.00  0.00     0.000 C 
BRANCH  16  17
ATOM     17  C   UNL     1     171.768 192.843 201.666  1.00  0.00     0.000 C 
BRANCH  17  18
ATOM     18  C   UNL     1     171.631 193.294 200.198  1.00  0.00    -0.000 C 
BRANCH  18  19
ATOM     19  C   UNL     1     171.705 194.815 199.973  1.00  0.00    -0.000 C 
BRANCH  19  20
ATOM     20  C   UNL     1     171.423 195.623 201.252  1.00  0.00    -0.000 C 
BRANCH  20  21
ATOM     21  C   UNL     1     172.626 196.475 201.688  1.00  0.00    -0.000 C 
BRANCH  21  22
ATOM     22  C   UNL     1     173.795 196.411 200.689  1.00  0.00    -0.000 C 
BRANCH  22  23
ATOM     23  C   UNL     1     175.166 196.553 201.370  1.00  0.00    -0.000 C 
BRANCH  23  24
ATOM     24  C   UNL     1     176.318 196.668 200.357  1.00  0.00    -0.000 C 
BRANCH  24  25
ATOM     25  C   UNL     1     177.561 195.873 200.786  1.00  0.00    -0.003 C 
ATOM     26  C   UNL     1     178.544 195.643 199.637  1.00  0.00     0.004 C 
ENDBRANCH  24  25
ENDBRANCH  23  24
ENDBRANCH  22  23
ENDBRANCH  21  22
ENDBRANCH  20  21
ENDBRANCH  19  20
ENDBRANCH  18  19
ENDBRANCH  17  18
ENDBRANCH  16  17
ENDBRANCH  15  16
ENDBRANCH   1  15
TORSDOF 22
ENDMDL
MODEL 6
REMARK VINA RESULT:     0.028      7.487     10.197
REMARK INTER + INTRA:          -5.566
REMARK INTER:                   0.000
REMARK INTRA:                  -5.566
REMARK UNBOUND:                -5.629
REMARK SMILES CCCCCCCCCCCCCCCCCCCCCCCC(=O)[O-]
REMARK SMILES IDX 13 1 14 2 15 3 16 4 17 5 18 6 19 7 20 8 21 9 22 10 23 11
REMARK SMILES IDX 24 12 25 13 26 14 12 15 11 16 10 17 9 18 8 19 7 20 6 21 5 22
REMARK SMILES IDX 4 23 3 24 2 25 1 26
REMARK H PARENT
REMARK Flexibility Score: inf
ROOT
ATOM      1  C   UNL     1     173.576 193.689 194.348  1.00  0.00     0.000 C 
ENDROOT
BRANCH   1   2
ATOM      2  C   UNL     1     174.398 194.736 195.118  1.00  0.00     0.000 C 
BRANCH   2   3
ATOM      3  C   UNL     1     175.836 194.267 195.402  1.00  0.00     0.000 C 
BRANCH   3   4
ATOM      4  C   UNL     1     176.055 192.787 195.041  1.00  0.00     0.000 C 
BRANCH   4   5
ATOM      5  C   UNL     1     177.480 192.515 194.528  1.00  0.00     0.000 C 
BRANCH   5   6
ATOM      6  C   UNL     1     177.534 192.323 193.003  1.00  0.00     0.000 C 
BRANCH   6   7
ATOM      7  C   UNL     1     176.155 192.003 192.400  1.00  0.00     0.000 C 
BRANCH   7   8
ATOM      8  C   UNL     1     175.707 193.042 191.358  1.00  0.00     0.000 C 
BRANCH   8   9
ATOM      9  C   UNL     1     176.550 194.335 191.376  1.00  0.00     0.000 C 
BRANCH   9  10
ATOM     10  C   UNL     1     175.719 195.560 191.782  1.00  0.00     0.006 C 
BRANCH  10  11
ATOM     11  C   UNL     1     174.342 195.540 191.111  1.00  0.00     0.053 C 
BRANCH  11  12
ATOM     12  C   UNL     1     173.387 196.428 191.845  1.00  0.00     0.041 C 
ATOM     13  O   UNL     1     172.153 196.376 191.595  1.00  0.00    -0.550 OA
ATOM     14  O   UNL     1     173.865 197.351 192.767  1.00  0.00    -0.550 OA
ENDBRANCH  11  12
ENDBRANCH  10  11
ENDBRANCH   9  10
ENDBRANCH   8   9
ENDBRANCH   7   8
ENDBRANCH   6   7
ENDBRANCH   5   6
ENDBRANCH   4   5
ENDBRANCH   3   4
ENDBRANCH   2   3
ENDBRANCH   1   2
BRANCH   1  15
ATOM     15  C   UNL     1     172.069 193.999 194.351  1.00  0.00     0.000 C 
BRANCH  15  16
ATOM     16  C   UNL     1     171.285 193.141 193.340  1.00  0.00     0.000 C 
BRANCH  16  17
ATOM     17  C   UNL     1     172.030 192.839 192.024  1.00  0.00     0.000 C 
BRANCH  17  18
ATOM     18  C   UNL     1     172.071 191.353 191.618  1.00  0.00    -0.000 C 
BRANCH  18  19
ATOM     19  C   UNL     1     172.803 190.426 192.605  1.00  0.00    -0.000 C 
BRANCH  19  20
ATOM     20  C   UNL     1     171.850 189.476 193.352  1.00  0.00    -0.000 C 
BRANCH  20  21
ATOM     21  C   UNL     1     172.132 189.425 194.862  1.00  0.00    -0.000 C 
BRANCH  21  22
ATOM     22  C   UNL     1     173.500 190.025 195.232  1.00  0.00    -0.000 C 
BRANCH  22  23
ATOM     23  C   UNL     1     173.483 190.744 196.592  1.00  0.00    -0.000 C 
BRANCH  23  24
ATOM     24  C   UNL     1     172.108 191.351 196.921  1.00  0.00    -0.000 C 
BRANCH  24  25
ATOM     25  C   UNL     1     172.210 192.581 197.835  1.00  0.00    -0.003 C 
ATOM     26  C   UNL     1     173.648 192.896 198.250  1.00  0.00     0.004 C 
ENDBRANCH  24  25
ENDBRANCH  23  24
ENDBRANCH  22  23
ENDBRANCH  21  22
ENDBRANCH  20  21
ENDBRANCH  19  20
ENDBRANCH  18  19
ENDBRANCH  17  18
ENDBRANCH  16  17
ENDBRANCH  15  16
ENDBRANCH   1  15
TORSDOF 22
ENDMDL
MODEL 7
REMARK VINA RESULT:     0.033      7.138     10.452
REMARK INTER + INTRA:          -5.553
REMARK INTER:                   0.000
REMARK INTRA:                  -5.553
REMARK UNBOUND:                -5.629
REMARK SMILES CCCCCCCCCCCCCCCCCCCCCCCC(=O)[O-]
REMARK SMILES IDX 13 1 14 2 15 3 16 4 17 5 18 6 19 7 20 8 21 9 22 10 23 11
REMARK SMILES IDX 24 12 25 13 26 14 12 15 11 16 10 17 9 18 8 19 7 20 6 21 5 22
REMARK SMILES IDX 4 23 3 24 2 25 1 26
REMARK H PARENT
REMARK Flexibility Score: inf
ROOT
ATOM      1  C   UNL     1     174.827 191.266 197.660  1.00  0.00     0.000 C 
ENDROOT
BRANCH   1   2
ATOM      2  C   UNL     1     174.369 191.075 199.116  1.00  0.00     0.000 C 
BRANCH   2   3
ATOM      3  C   UNL     1     174.065 189.604 199.452  1.00  0.00     0.000 C 
BRANCH   3   4
ATOM      4  C   UNL     1     173.807 189.385 200.953  1.00  0.00     0.000 C 
BRANCH   4   5
ATOM      5  C   UNL     1     174.301 190.565 201.810  1.00  0.00     0.000 C 
BRANCH   5   6
ATOM      6  C   UNL     1     173.443 190.784 203.067  1.00  0.00     0.000 C 
BRANCH   6   7
ATOM      7  C   UNL     1     172.913 192.224 203.176  1.00  0.00     0.000 C 
BRANCH   7   8
ATOM      8  C   UNL     1     173.489 193.153 202.094  1.00  0.00     0.000 C 
BRANCH   8   9
ATOM      9  C   UNL     1     172.416 194.000 201.375  1.00  0.00     0.000 C 
BRANCH   9  10
ATOM     10  C   UNL     1     171.104 193.227 201.184  1.00  0.00     0.006 C 
BRANCH  10  11
ATOM     11  C   UNL     1     171.090 192.486 199.844  1.00  0.00     0.053 C 
BRANCH  11  12
ATOM     12  C   UNL     1     170.669 191.063 200.035  1.00  0.00     0.041 C 
ATOM     13  O   UNL     1     170.424 190.624 201.191  1.00  0.00    -0.550 OA
ATOM     14  O   UNL     1     170.596 190.206 198.943  1.00  0.00    -0.550 OA
ENDBRANCH  11  12
ENDBRANCH  10  11
ENDBRANCH   9  10
ENDBRANCH   8   9
ENDBRANCH   7   8
ENDBRANCH   6   7
ENDBRANCH   5   6
ENDBRANCH   4   5
ENDBRANCH   3   4
ENDBRANCH   2   3
ENDBRANCH   1   2
BRANCH   1  15
ATOM     15  C   UNL     1     175.068 192.743 197.304  1.00  0.00     0.000 C 
BRANCH  15  16
ATOM     16  C   UNL     1     174.290 193.709 198.217  1.00  0.00     0.000 C 
BRANCH  16  17
ATOM     17  C   UNL     1     175.145 194.805 198.886  1.00  0.00     0.000 C 
BRANCH  17  18
ATOM     18  C   UNL     1     176.570 194.375 199.286  1.00  0.00    -0.000 C 
BRANCH  18  19
ATOM     19  C   UNL     1     176.710 193.827 200.717  1.00  0.00    -0.000 C 
BRANCH  19  20
ATOM     20  C   UNL     1     177.394 192.450 200.766  1.00  0.00    -0.000 C 
BRANCH  20  21
ATOM     21  C   UNL     1     178.085 192.087 199.442  1.00  0.00    -0.000 C 
BRANCH  21  22
ATOM     22  C   UNL     1     178.120 190.570 199.184  1.00  0.00    -0.000 C 
BRANCH  22  23
ATOM     23  C   UNL     1     177.700 189.750 200.416  1.00  0.00    -0.000 C 
BRANCH  23  24
ATOM     24  C   UNL     1     177.478 188.264 200.085  1.00  0.00    -0.000 C 
BRANCH  24  25
ATOM     25  C   UNL     1     176.951 187.466 201.287  1.00  0.00    -0.003 C 
ATOM     26  C   UNL     1     175.972 186.362 200.884  1.00  0.00     0.004 C 
ENDBRANCH  24  25
ENDBRANCH  23  24
ENDBRANCH  22  23
ENDBRANCH  21  22
ENDBRANCH  20  21
ENDBRANCH  19  20
ENDBRANCH  18  19
ENDBRANCH  17  18
ENDBRANCH  16  17
ENDBRANCH  15  16
ENDBRANCH   1  15
TORSDOF 22
ENDMDL
MODEL 8
REMARK VINA RESULT:     0.034      8.060     10.820
REMARK INTER + INTRA:          -5.551
REMARK INTER:                   0.000
REMARK INTRA:                  -5.551
REMARK UNBOUND:                -5.629
REMARK SMILES CCCCCCCCCCCCCCCCCCCCCCCC(=O)[O-]
REMARK SMILES IDX 13 1 14 2 15 3 16 4 17 5 18 6 19 7 20 8 21 9 22 10 23 11
REMARK SMILES IDX 24 12 25 13 26 14 12 15 11 16 10 17 9 18 8 19 7 20 6 21 5 22
REMARK SMILES IDX 4 23 3 24 2 25 1 26
REMARK H PARENT
REMARK Flexibility Score: inf
ROOT
ATOM      1  C   UNL     1     178.784 184.087 202.299  1.00  0.00     0.000 C 
ENDROOT
BRANCH   1   2
ATOM      2  C   UNL     1     179.193 182.753 201.654  1.00  0.00     0.000 C 
BRANCH   2   3
ATOM      3  C   UNL     1     179.214 182.820 200.117  1.00  0.00     0.000 C 
BRANCH   3   4
ATOM      4  C   UNL     1     178.644 184.144 199.578  1.00  0.00     0.000 C 
BRANCH   4   5
ATOM      5  C   UNL     1     179.321 184.581 198.266  1.00  0.00     0.000 C 
BRANCH   5   6
ATOM      6  C   UNL     1     180.385 183.579 197.787  1.00  0.00     0.000 C 
BRANCH   6   7
ATOM      7  C   UNL     1     181.625 184.273 197.197  1.00  0.00     0.000 C 
BRANCH   7   8
ATOM      8  C   UNL     1     181.474 185.803 197.128  1.00  0.00     0.000 C 
BRANCH   8   9
ATOM      9  C   UNL     1     182.799 186.563 197.351  1.00  0.00     0.000 C 
BRANCH   9  10
ATOM     10  C   UNL     1     182.565 188.002 197.830  1.00  0.00     0.006 C 
BRANCH  10  11
ATOM     11  C   UNL     1     183.633 188.427 198.842  1.00  0.00     0.053 C 
BRANCH  11  12
ATOM     12  C   UNL     1     183.219 189.681 199.547  1.00  0.00     0.041 C 
ATOM     13  O   UNL     1     181.998 189.932 199.728  1.00  0.00    -0.550 OA
ATOM     14  O   UNL     1     184.180 190.597 199.959  1.00  0.00    -0.550 OA
ENDBRANCH  11  12
ENDBRANCH  10  11
ENDBRANCH   9  10
ENDBRANCH   8   9
ENDBRANCH   7   8
ENDBRANCH   6   7
ENDBRANCH   5   6
ENDBRANCH   4   5
ENDBRANCH   3   4
ENDBRANCH   2   3
ENDBRANCH   1   2
BRANCH   1  15
ATOM     15  C   UNL     1     179.545 184.374 203.604  1.00  0.00     0.000 C 
BRANCH  15  16
ATOM     16  C   UNL     1     180.679 183.366 203.864  1.00  0.00     0.000 C 
BRANCH  16  17
ATOM     17  C   UNL     1     182.016 183.989 204.316  1.00  0.00     0.000 C 
BRANCH  17  18
ATOM     18  C   UNL     1     183.124 184.014 203.245  1.00  0.00    -0.000 C 
BRANCH  18  19
ATOM     19  C   UNL     1     182.853 183.145 202.003  1.00  0.00    -0.000 C 
BRANCH  19  20
ATOM     20  C   UNL     1     182.662 183.976 200.722  1.00  0.00    -0.000 C 
BRANCH  20  21
ATOM     21  C   UNL     1     182.765 185.488 200.980  1.00  0.00    -0.000 C 
BRANCH  21  22
ATOM     22  C   UNL     1     181.407 186.205 200.864  1.00  0.00    -0.000 C 
BRANCH  22  23
ATOM     23  C   UNL     1     181.206 187.271 201.955  1.00  0.00    -0.000 C 
BRANCH  23  24
ATOM     24  C   UNL     1     182.527 187.681 202.629  1.00  0.00    -0.000 C 
BRANCH  24  25
ATOM     25  C   UNL     1     182.429 187.688 204.162  1.00  0.00    -0.003 C 
ATOM     26  C   UNL     1     180.987 187.607 204.666  1.00  0.00     0.004 C 
ENDBRANCH  24  25
ENDBRANCH  23  24
ENDBRANCH  22  23
ENDBRANCH  21  22
ENDBRANCH  20  21
ENDBRANCH  19  20
ENDBRANCH  18  19
ENDBRANCH  17  18
ENDBRANCH  16  17
ENDBRANCH  15  16
ENDBRANCH   1  15
TORSDOF 22
ENDMDL
MODEL 9
REMARK VINA RESULT:     0.037      6.209      9.552
REMARK INTER + INTRA:          -5.545
REMARK INTER:                   0.000
REMARK INTRA:                  -5.545
REMARK UNBOUND:                -5.629
REMARK SMILES CCCCCCCCCCCCCCCCCCCCCCCC(=O)[O-]
REMARK SMILES IDX 13 1 14 2 15 3 16 4 17 5 18 6 19 7 20 8 21 9 22 10 23 11
REMARK SMILES IDX 24 12 25 13 26 14 12 15 11 16 10 17 9 18 8 19 7 20 6 21 5 22
REMARK SMILES IDX 4 23 3 24 2 25 1 26
REMARK H PARENT
REMARK Flexibility Score: inf
ROOT
ATOM      1  C   UNL     1     175.339 187.861 201.332  1.00  0.00     0.000 C 
ENDROOT
BRANCH   1   2
ATOM      2  C   UNL     1     173.901 187.640 200.834  1.00  0.00     0.000 C 
BRANCH   2   3
ATOM      3  C   UNL     1     173.242 186.398 201.459  1.00  0.00     0.000 C 
BRANCH   3   4
ATOM      4  C   UNL     1     173.802 186.075 202.856  1.00  0.00     0.000 C 
BRANCH   4   5
ATOM      5  C   UNL     1     172.950 186.687 203.983  1.00  0.00     0.000 C 
BRANCH   5   6
ATOM      6  C   UNL     1     173.718 187.738 204.801  1.00  0.00     0.000 C 
BRANCH   6   7
ATOM      7  C   UNL     1     173.469 189.172 204.302  1.00  0.00     0.000 C 
BRANCH   7   8
ATOM      8  C   UNL     1     174.740 190.037 204.321  1.00  0.00     0.000 C 
BRANCH   8   9
ATOM      9  C   UNL     1     174.629 191.314 203.459  1.00  0.00     0.000 C 
BRANCH   9  10
ATOM     10  C   UNL     1     173.772 191.089 202.205  1.00  0.00     0.006 C 
BRANCH  10  11
ATOM     11  C   UNL     1     174.312 191.892 201.017  1.00  0.00     0.053 C 
BRANCH  11  12
ATOM     12  C   UNL     1     174.040 191.175 199.733  1.00  0.00     0.041 C 
ATOM     13  O   UNL     1     174.981 190.933 198.931  1.00  0.00    -0.550 OA
ATOM     14  O   UNL     1     172.740 190.819 199.396  1.00  0.00    -0.550 OA
ENDBRANCH  11  12
ENDBRANCH  10  11
ENDBRANCH   9  10
ENDBRANCH   8   9
ENDBRANCH   7   8
ENDBRANCH   6   7
ENDBRANCH   5   6
ENDBRANCH   4   5
ENDBRANCH   3   4
ENDBRANCH   2   3
ENDBRANCH   1   2
BRANCH   1  15
ATOM     15  C   UNL     1     176.358 187.949 200.184  1.00  0.00     0.000 C 
BRANCH  15  16
ATOM     16  C   UNL     1     177.660 188.661 200.598  1.00  0.00     0.000 C 
BRANCH  16  17
ATOM     17  C   UNL     1     177.464 189.992 201.351  1.00  0.00     0.000 C 
BRANCH  17  18
ATOM     18  C   UNL     1     178.098 190.053 202.755  1.00  0.00    -0.000 C 
BRANCH  18  19
ATOM     19  C   UNL     1     179.388 189.232 202.925  1.00  0.00    -0.000 C 
BRANCH  19  20
ATOM     20  C   UNL     1     179.243 188.094 203.950  1.00  0.00    -0.000 C 
BRANCH  20  21
ATOM     21  C   UNL     1     177.800 187.939 204.457  1.00  0.00    -0.000 C 
BRANCH  21  22
ATOM     22  C   UNL     1     177.221 186.539 204.185  1.00  0.00    -0.000 C 
BRANCH  22  23
ATOM     23  C   UNL     1     177.959 185.801 203.056  1.00  0.00    -0.000 C 
BRANCH  23  24
ATOM     24  C   UNL     1     177.138 184.635 202.478  1.00  0.00    -0.000 C 
BRANCH  24  25
ATOM     25  C   UNL     1     177.317 184.483 200.960  1.00  0.00    -0.003 C 
ATOM     26  C   UNL     1     176.004 184.194 200.233  1.00  0.00     0.004 C 
ENDBRANCH  24  25
ENDBRANCH  23  24
ENDBRANCH  22  23
ENDBRANCH  21  22
ENDBRANCH  20  21
ENDBRANCH  19  20
ENDBRANCH  18  19
ENDBRANCH  17  18
ENDBRANCH  16  17
ENDBRANCH  15  16
ENDBRANCH   1  15
TORSDOF 22
ENDMDL
