MODEL 1
REMARK VINA RESULT:    -4.782      0.000      0.000
REMARK INTER + INTRA:          -6.952
REMARK INTER:                  -6.459
REMARK INTRA:                  -0.493
REMARK UNBOUND:                -0.493
REMARK SMILES C[C@@H](O)[C@H](O)[C@@H](O)[C@@H](O)C=O
REMARK SMILES IDX 4 1 2 2 1 3 3 4 6 6 8 7 10 8 11 9 9 10 7 12 5 14
REMARK H PARENT 3 5 9 11 7 13 5 15
REMARK Flexibility Score: inf
ROOT
ATOM      1  C   UNL     1     -56.239 120.964 -10.089  1.00  0.00     0.174 C 
ENDROOT
BRANCH   1   2
ATOM      2  C   UNL     1     -56.901 119.784 -10.859  1.00  0.00     0.142 C 
ATOM      3  C   UNL     1     -57.989 120.226 -11.844  1.00  0.00     0.041 C 
BRANCH   2   4
ATOM      4  O   UNL     1     -55.920 119.041 -11.541  1.00  0.00    -0.391 OA
ATOM      5  H   UNL     1     -55.531 119.630 -12.239  1.00  0.00     0.211 HD
ENDBRANCH   2   4
ENDBRANCH   1   2
BRANCH   1   6
ATOM      6  C   UNL     1     -55.305 121.853 -10.984  1.00  0.00     0.181 C 
BRANCH   6   7
ATOM      7  C   UNL     1     -53.957 122.218 -10.297  1.00  0.00     0.209 C 
BRANCH   7   8
ATOM      8  C   UNL     1     -52.967 121.079 -10.261  1.00  0.00     0.258 C 
ATOM      9  O   UNL     1     -53.104 120.100 -10.979  1.00  0.00    -0.300 OA
ENDBRANCH   7   8
BRANCH   7  10
ATOM     10  O   UNL     1     -54.172 122.725  -9.003  1.00  0.00    -0.383 OA
ATOM     11  H   UNL     1     -53.314 122.671  -8.507  1.00  0.00     0.211 HD
ENDBRANCH   7  10
ENDBRANCH   6   7
BRANCH   6  12
ATOM     12  O   UNL     1     -55.961 123.016 -11.435  1.00  0.00    -0.387 OA
ATOM     13  H   UNL     1     -56.681 122.739 -12.058  1.00  0.00     0.211 HD
ENDBRANCH   6  12
ENDBRANCH   1   6
BRANCH   1  14
ATOM     14  O   UNL     1     -57.248 121.746  -9.494  1.00  0.00    -0.388 OA
ATOM     15  H   UNL     1     -58.114 121.472  -9.897  1.00  0.00     0.211 HD
ENDBRANCH   1  14
TORSDOF 8
ENDMDL
MODEL 2
REMARK VINA RESULT:    -4.639      1.023      1.541
REMARK INTER + INTRA:          -6.760
REMARK INTER:                  -6.214
REMARK INTRA:                  -0.546
REMARK UNBOUND:                -0.493
REMARK SMILES C[C@@H](O)[C@H](O)[C@@H](O)[C@@H](O)C=O
REMARK SMILES IDX 4 1 2 2 1 3 3 4 6 6 8 7 10 8 11 9 9 10 7 12 5 14
REMARK H PARENT 3 5 9 11 7 13 5 15
REMARK Flexibility Score: inf
ROOT
ATOM      1  C   UNL     1     -56.185 120.647  -9.819  1.00  0.00     0.174 C 
ENDROOT
BRANCH   1   2
ATOM      2  C   UNL     1     -56.830 119.663 -10.840  1.00  0.00     0.142 C 
ATOM      3  C   UNL     1     -57.954 120.292 -11.673  1.00  0.00     0.041 C 
BRANCH   2   4
ATOM      4  O   UNL     1     -55.844 119.140 -11.696  1.00  0.00    -0.391 OA
ATOM      5  H   UNL     1     -55.263 119.894 -11.979  1.00  0.00     0.211 HD
ENDBRANCH   2   4
ENDBRANCH   1   2
BRANCH   1   6
ATOM      6  C   UNL     1     -54.797 121.214 -10.285  1.00  0.00     0.181 C 
BRANCH   6   7
ATOM      7  C   UNL     1     -53.590 120.594  -9.521  1.00  0.00     0.209 C 
BRANCH   7   8
ATOM      8  C   UNL     1     -52.282 121.306  -9.774  1.00  0.00     0.258 C 
ATOM      9  O   UNL     1     -52.025 121.783 -10.868  1.00  0.00    -0.300 OA
ENDBRANCH   7   8
BRANCH   7  10
ATOM     10  O   UNL     1     -53.466 119.222  -9.804  1.00  0.00    -0.383 OA
ATOM     11  H   UNL     1     -52.661 119.099 -10.372  1.00  0.00     0.211 HD
ENDBRANCH   7  10
ENDBRANCH   6   7
BRANCH   6  12
ATOM     12  O   UNL     1     -54.755 122.621 -10.217  1.00  0.00    -0.387 OA
ATOM     13  H   UNL     1     -54.534 122.876  -9.285  1.00  0.00     0.211 HD
ENDBRANCH   6  12
ENDBRANCH   1   6
BRANCH   1  14
ATOM     14  O   UNL     1     -57.088 121.696  -9.560  1.00  0.00    -0.388 OA
ATOM     15  H   UNL     1     -56.620 122.358  -8.986  1.00  0.00     0.211 HD
ENDBRANCH   1  14
TORSDOF 8
ENDMDL
MODEL 3
REMARK VINA RESULT:    -4.608      1.529      4.183
REMARK INTER + INTRA:          -6.717
REMARK INTER:                  -6.243
REMARK INTRA:                  -0.474
REMARK UNBOUND:                -0.493
REMARK SMILES C[C@@H](O)[C@H](O)[C@@H](O)[C@@H](O)C=O
REMARK SMILES IDX 4 1 2 2 1 3 3 4 6 6 8 7 10 8 11 9 9 10 7 12 5 14
REMARK H PARENT 3 5 9 11 7 13 5 15
REMARK Flexibility Score: inf
ROOT
ATOM      1  C   UNL     1     -54.057 120.259  -9.867  1.00  0.00     0.174 C 
ENDROOT
BRANCH   1   2
ATOM      2  C   UNL     1     -53.532 121.483  -9.059  1.00  0.00     0.142 C 
ATOM      3  C   UNL     1     -52.287 122.136  -9.672  1.00  0.00     0.041 C 
BRANCH   2   4
ATOM      4  O   UNL     1     -54.550 122.444  -8.921  1.00  0.00    -0.391 OA
ATOM      5  H   UNL     1     -55.324 121.999  -8.485  1.00  0.00     0.211 HD
ENDBRANCH   2   4
ENDBRANCH   1   2
BRANCH   1   6
ATOM      6  C   UNL     1     -53.997 120.462 -11.422  1.00  0.00     0.181 C 
BRANCH   6   7
ATOM      7  C   UNL     1     -55.389 120.355 -12.112  1.00  0.00     0.209 C 
BRANCH   7   8
ATOM      8  C   UNL     1     -56.343 121.461 -11.728  1.00  0.00     0.258 C 
ATOM      9  O   UNL     1     -55.952 122.609 -11.584  1.00  0.00    -0.300 OA
ENDBRANCH   7   8
BRANCH   7  10
ATOM     10  O   UNL     1     -55.972 119.097 -11.877  1.00  0.00    -0.383 OA
ATOM     11  H   UNL     1     -56.952 119.186 -12.007  1.00  0.00     0.211 HD
ENDBRANCH   7  10
ENDBRANCH   6   7
BRANCH   6  12
ATOM     12  O   UNL     1     -53.075 119.587 -12.031  1.00  0.00    -0.387 OA
ATOM     13  H   UNL     1     -52.891 119.925 -12.945  1.00  0.00     0.211 HD
ENDBRANCH   6  12
ENDBRANCH   1   6
BRANCH   1  14
ATOM     14  O   UNL     1     -53.331 119.114  -9.486  1.00  0.00    -0.388 OA
ATOM     15  H   UNL     1     -53.893 118.605  -8.844  1.00  0.00     0.211 HD
ENDBRANCH   1  14
TORSDOF 8
ENDMDL
MODEL 4
REMARK VINA RESULT:    -4.462      1.084      4.003
REMARK INTER + INTRA:          -6.520
REMARK INTER:                  -5.872
REMARK INTRA:                  -0.648
REMARK UNBOUND:                -0.493
REMARK SMILES C[C@@H](O)[C@H](O)[C@@H](O)[C@@H](O)C=O
REMARK SMILES IDX 4 1 2 2 1 3 3 4 6 6 8 7 10 8 11 9 9 10 7 12 5 14
REMARK H PARENT 3 5 9 11 7 13 5 15
REMARK Flexibility Score: inf
ROOT
ATOM      1  C   UNL     1     -54.005 122.215 -11.150  1.00  0.00     0.174 C 
ENDROOT
BRANCH   1   2
ATOM      2  C   UNL     1     -53.368 122.160  -9.730  1.00  0.00     0.142 C 
ATOM      3  C   UNL     1     -51.835 122.195  -9.743  1.00  0.00     0.041 C 
BRANCH   2   4
ATOM      4  O   UNL     1     -53.857 123.215  -8.939  1.00  0.00    -0.391 OA
ATOM      5  H   UNL     1     -53.956 124.009  -9.527  1.00  0.00     0.211 HD
ENDBRANCH   2   4
ENDBRANCH   1   2
BRANCH   1   6
ATOM      6  C   UNL     1     -55.025 121.054 -11.426  1.00  0.00     0.181 C 
BRANCH   6   7
ATOM      7  C   UNL     1     -56.046 120.841 -10.269  1.00  0.00     0.209 C 
BRANCH   7   8
ATOM      8  C   UNL     1     -57.049 119.745 -10.539  1.00  0.00     0.258 C 
ATOM      9  O   UNL     1     -56.691 118.588 -10.700  1.00  0.00    -0.300 OA
ENDBRANCH   7   8
BRANCH   7  10
ATOM     10  O   UNL     1     -56.703 122.043  -9.950  1.00  0.00    -0.383 OA
ATOM     11  H   UNL     1     -56.457 122.288  -9.020  1.00  0.00     0.211 HD
ENDBRANCH   7  10
ENDBRANCH   6   7
BRANCH   6  12
ATOM     12  O   UNL     1     -54.373 119.844 -11.738  1.00  0.00    -0.387 OA
ATOM     13  H   UNL     1     -55.035 119.110 -11.658  1.00  0.00     0.211 HD
ENDBRANCH   6  12
ENDBRANCH   1   6
BRANCH   1  14
ATOM     14  O   UNL     1     -54.620 123.469 -11.328  1.00  0.00    -0.388 OA
ATOM     15  H   UNL     1     -53.964 124.163 -11.054  1.00  0.00     0.211 HD
ENDBRANCH   1  14
TORSDOF 8
ENDMDL
MODEL 5
REMARK VINA RESULT:    -4.404      1.133      3.473
REMARK INTER + INTRA:          -6.442
REMARK INTER:                  -5.561
REMARK INTRA:                  -0.881
REMARK UNBOUND:                -0.493
REMARK SMILES C[C@@H](O)[C@H](O)[C@@H](O)[C@@H](O)C=O
REMARK SMILES IDX 4 1 2 2 1 3 3 4 6 6 8 7 10 8 11 9 9 10 7 12 5 14
REMARK H PARENT 3 5 9 11 7 13 5 15
REMARK Flexibility Score: inf
ROOT
ATOM      1  C   UNL     1     -53.789 121.664 -10.448  1.00  0.00     0.174 C 
ENDROOT
BRANCH   1   2
ATOM      2  C   UNL     1     -53.095 120.850 -11.579  1.00  0.00     0.142 C 
ATOM      3  C   UNL     1     -51.573 121.035 -11.623  1.00  0.00     0.041 C 
BRANCH   2   4
ATOM      4  O   UNL     1     -53.401 119.483 -11.450  1.00  0.00    -0.391 OA
ATOM      5  H   UNL     1     -54.370 119.375 -11.638  1.00  0.00     0.211 HD
ENDBRANCH   2   4
ENDBRANCH   1   2
BRANCH   1   6
ATOM      6  C   UNL     1     -55.327 121.876 -10.681  1.00  0.00     0.181 C 
BRANCH   6   7
ATOM      7  C   UNL     1     -56.217 121.119  -9.651  1.00  0.00     0.209 C 
BRANCH   7   8
ATOM      8  C   UNL     1     -56.935 119.924 -10.233  1.00  0.00     0.258 C 
ATOM      9  O   UNL     1     -56.332 119.074 -10.870  1.00  0.00    -0.300 OA
ENDBRANCH   7   8
BRANCH   7  10
ATOM     10  O   UNL     1     -57.132 121.993  -9.038  1.00  0.00    -0.383 OA
ATOM     11  H   UNL     1     -56.901 122.918  -9.312  1.00  0.00     0.211 HD
ENDBRANCH   7  10
ENDBRANCH   6   7
BRANCH   6  12
ATOM     12  O   UNL     1     -55.709 121.550 -11.998  1.00  0.00    -0.387 OA
ATOM     13  H   UNL     1     -55.017 121.905 -12.613  1.00  0.00     0.211 HD
ENDBRANCH   6  12
ENDBRANCH   1   6
BRANCH   1  14
ATOM     14  O   UNL     1     -53.556 121.026  -9.215  1.00  0.00    -0.388 OA
ATOM     15  H   UNL     1     -54.258 121.335  -8.583  1.00  0.00     0.211 HD
ENDBRANCH   1  14
TORSDOF 8
ENDMDL
MODEL 6
REMARK VINA RESULT:    -4.379      1.282      4.067
REMARK INTER + INTRA:          -6.408
REMARK INTER:                  -5.545
REMARK INTRA:                  -0.863
REMARK UNBOUND:                -0.493
REMARK SMILES C[C@@H](O)[C@H](O)[C@@H](O)[C@@H](O)C=O
REMARK SMILES IDX 4 1 2 2 1 3 3 4 6 6 8 7 10 8 11 9 9 10 7 12 5 14
REMARK H PARENT 3 5 9 11 7 13 5 15
REMARK Flexibility Score: inf
ROOT
ATOM      1  C   UNL     1     -54.482 121.043  -9.247  1.00  0.00     0.174 C 
ENDROOT
BRANCH   1   2
ATOM      2  C   UNL     1     -54.244 122.581  -9.203  1.00  0.00     0.142 C 
ATOM      3  C   UNL     1     -52.907 122.978  -8.564  1.00  0.00     0.041 C 
BRANCH   2   4
ATOM      4  O   UNL     1     -54.327 123.121 -10.499  1.00  0.00    -0.391 OA
ATOM      5  H   UNL     1     -54.792 123.996 -10.430  1.00  0.00     0.211 HD
ENDBRANCH   2   4
ENDBRANCH   1   2
BRANCH   1   6
ATOM      6  C   UNL     1     -55.938 120.645  -9.679  1.00  0.00     0.181 C 
BRANCH   6   7
ATOM      7  C   UNL     1     -56.022 120.097 -11.134  1.00  0.00     0.209 C 
BRANCH   7   8
ATOM      8  C   UNL     1     -56.762 121.009 -12.083  1.00  0.00     0.258 C 
ATOM      9  O   UNL     1     -56.521 122.206 -12.125  1.00  0.00    -0.300 OA
ENDBRANCH   7   8
BRANCH   7  10
ATOM     10  O   UNL     1     -56.580 118.806 -11.155  1.00  0.00    -0.383 OA
ATOM     11  H   UNL     1     -57.320 118.783 -10.494  1.00  0.00     0.211 HD
ENDBRANCH   7  10
ENDBRANCH   6   7
BRANCH   6  12
ATOM     12  O   UNL     1     -56.849 121.704  -9.496  1.00  0.00    -0.387 OA
ATOM     13  H   UNL     1     -56.374 122.438  -9.028  1.00  0.00     0.211 HD
ENDBRANCH   6  12
ENDBRANCH   1   6
BRANCH   1  14
ATOM     14  O   UNL     1     -53.531 120.456 -10.104  1.00  0.00    -0.388 OA
ATOM     15  H   UNL     1     -52.731 121.045 -10.108  1.00  0.00     0.211 HD
ENDBRANCH   1  14
TORSDOF 8
ENDMDL
MODEL 7
REMARK VINA RESULT:    -4.363      1.456      3.102
REMARK INTER + INTRA:          -6.386
REMARK INTER:                  -5.815
REMARK INTRA:                  -0.571
REMARK UNBOUND:                -0.493
REMARK SMILES C[C@@H](O)[C@H](O)[C@@H](O)[C@@H](O)C=O
REMARK SMILES IDX 4 1 2 2 1 3 3 4 6 6 8 7 10 8 11 9 9 10 7 12 5 14
REMARK H PARENT 3 5 9 11 7 13 5 15
REMARK Flexibility Score: inf
ROOT
ATOM      1  C   UNL     1     -54.790 120.678 -11.082  1.00  0.00     0.174 C 
ENDROOT
BRANCH   1   2
ATOM      2  C   UNL     1     -56.105 121.444 -10.752  1.00  0.00     0.142 C 
ATOM      3  C   UNL     1     -56.534 121.325  -9.285  1.00  0.00     0.041 C 
BRANCH   2   4
ATOM      4  O   UNL     1     -55.975 122.801 -11.098  1.00  0.00    -0.391 OA
ATOM      5  H   UNL     1     -55.244 123.182 -10.543  1.00  0.00     0.211 HD
ENDBRANCH   2   4
ENDBRANCH   1   2
BRANCH   1   6
ATOM      6  C   UNL     1     -53.866 120.451  -9.833  1.00  0.00     0.181 C 
BRANCH   6   7
ATOM      7  C   UNL     1     -52.746 121.524  -9.691  1.00  0.00     0.209 C 
BRANCH   7   8
ATOM      8  C   UNL     1     -53.057 122.594  -8.671  1.00  0.00     0.258 C 
ATOM      9  O   UNL     1     -53.868 123.476  -8.910  1.00  0.00    -0.300 OA
ENDBRANCH   7   8
BRANCH   7  10
ATOM     10  O   UNL     1     -52.443 122.103 -10.936  1.00  0.00    -0.383 OA
ATOM     11  H   UNL     1     -52.078 123.011 -10.770  1.00  0.00     0.211 HD
ENDBRANCH   7  10
ENDBRANCH   6   7
BRANCH   6  12
ATOM     12  O   UNL     1     -53.314 119.155  -9.816  1.00  0.00    -0.387 OA
ATOM     13  H   UNL     1     -53.954 118.544 -10.263  1.00  0.00     0.211 HD
ENDBRANCH   6  12
ENDBRANCH   1   6
BRANCH   1  14
ATOM     14  O   UNL     1     -55.114 119.450 -11.689  1.00  0.00    -0.388 OA
ATOM     15  H   UNL     1     -56.103 119.414 -11.778  1.00  0.00     0.211 HD
ENDBRANCH   1  14
TORSDOF 8
ENDMDL
MODEL 8
REMARK VINA RESULT:    -4.328      1.858      4.072
REMARK INTER + INTRA:          -6.339
REMARK INTER:                  -6.188
REMARK INTRA:                  -0.151
REMARK UNBOUND:                -0.493
REMARK SMILES C[C@@H](O)[C@H](O)[C@@H](O)[C@@H](O)C=O
REMARK SMILES IDX 4 1 2 2 1 3 3 4 6 6 8 7 10 8 11 9 9 10 7 12 5 14
REMARK H PARENT 3 5 9 11 7 13 5 15
REMARK Flexibility Score: inf
ROOT
ATOM      1  C   UNL     1     -53.849 120.386 -10.573  1.00  0.00     0.174 C 
ENDROOT
BRANCH   1   2
ATOM      2  C   UNL     1     -52.690 120.762 -11.542  1.00  0.00     0.142 C 
ATOM      3  C   UNL     1     -51.586 121.600 -10.885  1.00  0.00     0.041 C 
BRANCH   2   4
ATOM      4  O   UNL     1     -52.129 119.598 -12.100  1.00  0.00    -0.391 OA
ATOM      5  H   UNL     1     -52.767 118.854 -11.942  1.00  0.00     0.211 HD
ENDBRANCH   2   4
ENDBRANCH   1   2
BRANCH   1   6
ATOM      6  C   UNL     1     -55.266 120.420 -11.247  1.00  0.00     0.181 C 
BRANCH   6   7
ATOM      7  C   UNL     1     -56.385 120.952 -10.304  1.00  0.00     0.209 C 
BRANCH   7   8
ATOM      8  C   UNL     1     -55.866 121.506  -8.998  1.00  0.00     0.258 C 
ATOM      9  O   UNL     1     -56.619 122.022  -8.188  1.00  0.00    -0.300 OA
ENDBRANCH   7   8
BRANCH   7  10
ATOM     10  O   UNL     1     -57.357 119.964 -10.068  1.00  0.00    -0.383 OA
ATOM     11  H   UNL     1     -57.493 119.461 -10.913  1.00  0.00     0.211 HD
ENDBRANCH   7  10
ENDBRANCH   6   7
BRANCH   6  12
ATOM     12  O   UNL     1     -55.624 119.166 -11.780  1.00  0.00    -0.387 OA
ATOM     13  H   UNL     1     -56.609 119.152 -11.894  1.00  0.00     0.211 HD
ENDBRANCH   6  12
ENDBRANCH   1   6
BRANCH   1  14
ATOM     14  O   UNL     1     -53.591 119.118 -10.020  1.00  0.00    -0.388 OA
ATOM     15  H   UNL     1     -53.860 119.149  -9.064  1.00  0.00     0.211 HD
ENDBRANCH   1  14
TORSDOF 8
ENDMDL
MODEL 9
REMARK VINA RESULT:    -4.317      1.315      2.282
REMARK INTER + INTRA:          -6.325
REMARK INTER:                  -5.736
REMARK INTRA:                  -0.589
REMARK UNBOUND:                -0.493
REMARK SMILES C[C@@H](O)[C@H](O)[C@@H](O)[C@@H](O)C=O
REMARK SMILES IDX 4 1 2 2 1 3 3 4 6 6 8 7 10 8 11 9 9 10 7 12 5 14
REMARK H PARENT 3 5 9 11 7 13 5 15
REMARK Flexibility Score: inf
ROOT
ATOM      1  C   UNL     1     -55.349 120.614 -11.913  1.00  0.00     0.174 C 
ENDROOT
BRANCH   1   2
ATOM      2  C   UNL     1     -56.662 120.099 -11.252  1.00  0.00     0.142 C 
ATOM      3  C   UNL     1     -57.908 120.297 -12.125  1.00  0.00     0.041 C 
BRANCH   2   4
ATOM      4  O   UNL     1     -56.533 118.740 -10.914  1.00  0.00    -0.391 OA
ATOM      5  H   UNL     1     -55.998 118.689 -10.079  1.00  0.00     0.211 HD
ENDBRANCH   2   4
ENDBRANCH   1   2
BRANCH   1   6
ATOM      6  C   UNL     1     -54.630 121.739 -11.088  1.00  0.00     0.181 C 
BRANCH   6   7
ATOM      7  C   UNL     1     -54.336 121.330  -9.614  1.00  0.00     0.209 C 
BRANCH   7   8
ATOM      8  C   UNL     1     -53.598 122.388  -8.828  1.00  0.00     0.258 C 
ATOM      9  O   UNL     1     -54.143 123.435  -8.513  1.00  0.00    -0.300 OA
ENDBRANCH   7   8
BRANCH   7  10
ATOM     10  O   UNL     1     -53.647 120.106  -9.559  1.00  0.00    -0.383 OA
ATOM     11  H   UNL     1     -54.119 119.463 -10.149  1.00  0.00     0.211 HD
ENDBRANCH   7  10
ENDBRANCH   6   7
BRANCH   6  12
ATOM     12  O   UNL     1     -55.337 122.957 -11.131  1.00  0.00    -0.387 OA
ATOM     13  H   UNL     1     -54.994 123.537 -10.405  1.00  0.00     0.211 HD
ENDBRANCH   6  12
ENDBRANCH   1   6
BRANCH   1  14
ATOM     14  O   UNL     1     -54.485 119.523 -12.125  1.00  0.00    -0.388 OA
ATOM     15  H   UNL     1     -54.023 119.673 -12.992  1.00  0.00     0.211 HD
ENDBRANCH   1  14
TORSDOF 8
ENDMDL
