MODEL 1
REMARK VINA RESULT:    -5.379      0.000      0.000
REMARK INTER + INTRA:          -9.477
REMARK INTER:                  -8.208
REMARK INTRA:                  -1.269
REMARK UNBOUND:                -1.269
REMARK SMILES CC(=O)CCC=C(C)CCC=C(C)CCC=C(C)C
REMARK SMILES IDX 10 1 11 2 12 3 13 4 14 5 15 6 16 7 18 8 17 9 19 10 9 11 7 12
REMARK SMILES IDX 6 13 8 14 5 15 4 16 2 17 3 18 1 19
REMARK H PARENT
REMARK Flexibility Score: inf
ROOT
ATOM      1  C   UNL     1     -28.617  22.564  26.241  1.00  0.00     0.032 C 
ENDROOT
BRANCH   1   2
ATOM      2  C   UNL     1     -29.350  21.824  25.148  1.00  0.00    -0.028 C 
ATOM      3  C   UNL     1     -28.887  21.656  23.888  1.00  0.00    -0.077 C 
ATOM      4  C   UNL     1     -27.525  22.153  23.465  1.00  0.00     0.039 C 
BRANCH   3   5
ATOM      5  C   UNL     1     -29.752  20.932  22.877  1.00  0.00     0.034 C 
BRANCH   5   6
ATOM      6  C   UNL     1     -30.084  19.502  23.326  1.00  0.00     0.032 C 
BRANCH   6   7
ATOM      7  C   UNL     1     -31.561  19.324  23.587  1.00  0.00    -0.028 C 
ATOM      8  C   UNL     1     -31.268  19.064  26.061  1.00  0.00     0.039 C 
ATOM      9  C   UNL     1     -32.109  19.168  24.814  1.00  0.00    -0.080 C 
ATOM     10  C   UNL     1     -33.603  19.029  24.953  1.00  0.00     0.039 C 
ENDBRANCH   6   7
ENDBRANCH   5   6
ENDBRANCH   3   5
ENDBRANCH   1   2
BRANCH   1  11
ATOM     11  C   UNL     1     -28.387  21.679  27.474  1.00  0.00     0.034 C 
BRANCH  11  12
ATOM     12  C   UNL     1     -29.531  21.777  28.462  1.00  0.00    -0.077 C 
ATOM     13  C   UNL     1     -30.283  22.901  28.488  1.00  0.00    -0.028 C 
ATOM     14  C   UNL     1     -29.785  20.626  29.409  1.00  0.00     0.039 C 
BRANCH  13  15
ATOM     15  C   UNL     1     -31.466  23.118  29.399  1.00  0.00     0.035 C 
BRANCH  15  16
ATOM     16  C   UNL     1     -31.558  24.585  29.830  1.00  0.00     0.079 C 
BRANCH  16  17
ATOM     17  C   UNL     1     -32.633  24.771  30.864  1.00  0.00     0.130 C 
ATOM     18  O   UNL     1     -32.453  24.371  32.005  1.00  0.00    -0.300 OA
ATOM     19  C   UNL     1     -33.934  25.419  30.500  1.00  0.00     0.087 C 
ENDBRANCH  16  17
ENDBRANCH  15  16
ENDBRANCH  13  15
ENDBRANCH  11  12
ENDBRANCH   1  11
TORSDOF 9
ENDMDL
MODEL 2
REMARK VINA RESULT:    -5.280      2.264      4.804
REMARK INTER + INTRA:          -9.328
REMARK INTER:                  -7.911
REMARK INTRA:                  -1.417
REMARK UNBOUND:                -1.269
REMARK SMILES CC(=O)CCC=C(C)CCC=C(C)CCC=C(C)C
REMARK SMILES IDX 10 1 11 2 12 3 13 4 14 5 15 6 16 7 18 8 17 9 19 10 9 11 7 12
REMARK SMILES IDX 6 13 8 14 5 15 4 16 2 17 3 18 1 19
REMARK H PARENT
REMARK Flexibility Score: inf
ROOT
ATOM      1  C   UNL     1     -29.906  19.590  23.470  1.00  0.00     0.032 C 
ENDROOT
BRANCH   1   2
ATOM      2  C   UNL     1     -31.399  19.413  23.606  1.00  0.00    -0.028 C 
ATOM      3  C   UNL     1     -32.046  19.208  24.776  1.00  0.00    -0.077 C 
ATOM      4  C   UNL     1     -31.319  19.201  26.100  1.00  0.00     0.039 C 
BRANCH   3   5
ATOM      5  C   UNL     1     -33.547  18.998  24.761  1.00  0.00     0.034 C 
BRANCH   5   6
ATOM      6  C   UNL     1     -33.917  17.517  24.598  1.00  0.00     0.032 C 
BRANCH   6   7
ATOM      7  C   UNL     1     -34.355  16.901  25.906  1.00  0.00    -0.028 C 
ATOM      8  C   UNL     1     -32.786  14.957  25.712  1.00  0.00     0.039 C 
ATOM      9  C   UNL     1     -33.826  15.775  26.436  1.00  0.00    -0.080 C 
ATOM     10  C   UNL     1     -34.324  15.270  27.766  1.00  0.00     0.039 C 
ENDBRANCH   6   7
ENDBRANCH   5   6
ENDBRANCH   3   5
ENDBRANCH   1   2
BRANCH   1  11
ATOM     11  C   UNL     1     -29.547  20.960  22.876  1.00  0.00     0.034 C 
BRANCH  11  12
ATOM     12  C   UNL     1     -28.684  21.775  23.817  1.00  0.00    -0.077 C 
ATOM     13  C   UNL     1     -29.098  21.969  25.090  1.00  0.00    -0.028 C 
ATOM     14  C   UNL     1     -27.394  22.370  23.300  1.00  0.00     0.039 C 
BRANCH  13  15
ATOM     15  C   UNL     1     -28.325  22.733  26.135  1.00  0.00     0.035 C 
BRANCH  15  16
ATOM     16  C   UNL     1     -27.993  21.835  27.331  1.00  0.00     0.079 C 
BRANCH  16  17
ATOM     17  C   UNL     1     -29.202  21.641  28.203  1.00  0.00     0.130 C 
ATOM     18  O   UNL     1     -29.414  20.550  28.713  1.00  0.00    -0.300 OA
ATOM     19  C   UNL     1     -30.163  22.768  28.432  1.00  0.00     0.087 C 
ENDBRANCH  16  17
ENDBRANCH  15  16
ENDBRANCH  13  15
ENDBRANCH  11  12
ENDBRANCH   1  11
TORSDOF 9
ENDMDL
MODEL 3
REMARK VINA RESULT:    -5.244      1.213      2.023
REMARK INTER + INTRA:          -9.272
REMARK INTER:                  -8.150
REMARK INTRA:                  -1.122
REMARK UNBOUND:                -1.269
REMARK SMILES CC(=O)CCC=C(C)CCC=C(C)CCC=C(C)C
REMARK SMILES IDX 10 1 11 2 12 3 13 4 14 5 15 6 16 7 18 8 17 9 19 10 9 11 7 12
REMARK SMILES IDX 6 13 8 14 5 15 4 16 2 17 3 18 1 19
REMARK H PARENT
REMARK Flexibility Score: inf
ROOT
ATOM      1  C   UNL     1     -29.368  22.332  27.930  1.00  0.00     0.032 C 
ENDROOT
BRANCH   1   2
ATOM      2  C   UNL     1     -29.442  22.183  26.429  1.00  0.00    -0.028 C 
ATOM      3  C   UNL     1     -28.759  21.260  25.714  1.00  0.00    -0.077 C 
ATOM      4  C   UNL     1     -27.885  20.222  26.376  1.00  0.00     0.039 C 
BRANCH   3   5
ATOM      5  C   UNL     1     -28.891  21.256  24.204  1.00  0.00     0.034 C 
BRANCH   5   6
ATOM      6  C   UNL     1     -29.583  19.984  23.692  1.00  0.00     0.032 C 
BRANCH   6   7
ATOM      7  C   UNL     1     -31.083  20.148  23.630  1.00  0.00    -0.028 C 
ATOM      8  C   UNL     1     -31.472  18.990  25.818  1.00  0.00     0.039 C 
ATOM      9  C   UNL     1     -31.939  19.743  24.597  1.00  0.00    -0.080 C 
ATOM     10  C   UNL     1     -33.417  19.988  24.437  1.00  0.00     0.039 C 
ENDBRANCH   6   7
ENDBRANCH   5   6
ENDBRANCH   3   5
ENDBRANCH   1   2
BRANCH   1  11
ATOM     11  C   UNL     1     -30.752  22.212  28.583  1.00  0.00     0.034 C 
BRANCH  11  12
ATOM     12  C   UNL     1     -30.902  23.144  29.768  1.00  0.00    -0.077 C 
ATOM     13  C   UNL     1     -31.731  24.208  29.668  1.00  0.00    -0.028 C 
ATOM     14  C   UNL     1     -30.102  22.872  31.021  1.00  0.00     0.039 C 
BRANCH  13  15
ATOM     15  C   UNL     1     -31.994  25.195  30.778  1.00  0.00     0.035 C 
BRANCH  15  16
ATOM     16  C   UNL     1     -33.020  24.637  31.769  1.00  0.00     0.079 C 
BRANCH  16  17
ATOM     17  C   UNL     1     -34.419  24.981  31.339  1.00  0.00     0.130 C 
ATOM     18  O   UNL     1     -35.366  24.372  31.815  1.00  0.00    -0.300 OA
ATOM     19  C   UNL     1     -34.658  26.047  30.314  1.00  0.00     0.087 C 
ENDBRANCH  16  17
ENDBRANCH  15  16
ENDBRANCH  13  15
ENDBRANCH  11  12
ENDBRANCH   1  11
TORSDOF 9
ENDMDL
MODEL 4
REMARK VINA RESULT:    -5.224      2.718      7.204
REMARK INTER + INTRA:          -9.242
REMARK INTER:                  -8.191
REMARK INTRA:                  -1.050
REMARK UNBOUND:                -1.269
REMARK SMILES CC(=O)CCC=C(C)CCC=C(C)CCC=C(C)C
REMARK SMILES IDX 10 1 11 2 12 3 13 4 14 5 15 6 16 7 18 8 17 9 19 10 9 11 7 12
REMARK SMILES IDX 6 13 8 14 5 15 4 16 2 17 3 18 1 19
REMARK H PARENT
REMARK Flexibility Score: inf
ROOT
ATOM      1  C   UNL     1     -30.282  19.806  25.816  1.00  0.00     0.032 C 
ENDROOT
BRANCH   1   2
ATOM      2  C   UNL     1     -30.939  20.387  27.045  1.00  0.00    -0.028 C 
ATOM      3  C   UNL     1     -30.555  21.532  27.654  1.00  0.00    -0.077 C 
ATOM      4  C   UNL     1     -29.442  22.393  27.106  1.00  0.00     0.039 C 
BRANCH   3   5
ATOM      5  C   UNL     1     -31.275  21.974  28.912  1.00  0.00     0.034 C 
BRANCH   5   6
ATOM      6  C   UNL     1     -30.976  23.440  29.258  1.00  0.00     0.032 C 
BRANCH   6   7
ATOM      7  C   UNL     1     -32.240  24.225  29.514  1.00  0.00    -0.028 C 
ATOM      8  C   UNL     1     -31.730  24.586  31.940  1.00  0.00     0.039 C 
ATOM      9  C   UNL     1     -32.570  24.780  30.703  1.00  0.00    -0.080 C 
ATOM     10  C   UNL     1     -33.847  25.569  30.830  1.00  0.00     0.039 C 
ENDBRANCH   6   7
ENDBRANCH   5   6
ENDBRANCH   3   5
ENDBRANCH   1   2
BRANCH   1  11
ATOM     11  C   UNL     1     -31.081  20.117  24.543  1.00  0.00     0.034 C 
BRANCH  11  12
ATOM     12  C   UNL     1     -32.439  19.444  24.547  1.00  0.00    -0.077 C 
ATOM     13  C   UNL     1     -32.505  18.096  24.635  1.00  0.00    -0.028 C 
ATOM     14  C   UNL     1     -33.681  20.297  24.429  1.00  0.00     0.039 C 
BRANCH  13  15
ATOM     15  C   UNL     1     -33.787  17.303  24.680  1.00  0.00     0.035 C 
BRANCH  15  16
ATOM     16  C   UNL     1     -34.282  17.150  26.121  1.00  0.00     0.079 C 
BRANCH  16  17
ATOM     17  C   UNL     1     -33.480  16.108  26.851  1.00  0.00     0.130 C 
ATOM     18  O   UNL     1     -32.753  16.440  27.776  1.00  0.00    -0.300 OA
ATOM     19  C   UNL     1     -33.548  14.669  26.437  1.00  0.00     0.087 C 
ENDBRANCH  16  17
ENDBRANCH  15  16
ENDBRANCH  13  15
ENDBRANCH  11  12
ENDBRANCH   1  11
TORSDOF 9
ENDMDL
MODEL 5
REMARK VINA RESULT:    -5.218      2.273      6.741
REMARK INTER + INTRA:          -9.232
REMARK INTER:                  -8.005
REMARK INTRA:                  -1.227
REMARK UNBOUND:                -1.269
REMARK SMILES CC(=O)CCC=C(C)CCC=C(C)CCC=C(C)C
REMARK SMILES IDX 10 1 11 2 12 3 13 4 14 5 15 6 16 7 18 8 17 9 19 10 9 11 7 12
REMARK SMILES IDX 6 13 8 14 5 15 4 16 2 17 3 18 1 19
REMARK H PARENT
REMARK Flexibility Score: inf
ROOT
ATOM      1  C   UNL     1     -28.205  21.853  26.826  1.00  0.00     0.032 C 
ENDROOT
BRANCH   1   2
ATOM      2  C   UNL     1     -29.308  22.295  27.757  1.00  0.00    -0.028 C 
ATOM      3  C   UNL     1     -30.307  21.497  28.199  1.00  0.00    -0.077 C 
ATOM      4  C   UNL     1     -30.375  20.031  27.842  1.00  0.00     0.039 C 
BRANCH   3   5
ATOM      5  C   UNL     1     -31.378  22.086  29.094  1.00  0.00     0.034 C 
BRANCH   5   6
ATOM      6  C   UNL     1     -31.053  23.528  29.506  1.00  0.00     0.032 C 
BRANCH   6   7
ATOM      7  C   UNL     1     -32.301  24.368  29.643  1.00  0.00    -0.028 C 
ATOM      8  C   UNL     1     -32.014  24.698  32.110  1.00  0.00     0.039 C 
ATOM      9  C   UNL     1     -32.721  24.933  30.798  1.00  0.00    -0.080 C 
ATOM     10  C   UNL     1     -33.969  25.777  30.808  1.00  0.00     0.039 C 
ENDBRANCH   6   7
ENDBRANCH   5   6
ENDBRANCH   3   5
ENDBRANCH   1   2
BRANCH   1  11
ATOM     11  C   UNL     1     -28.274  22.582  25.476  1.00  0.00     0.034 C 
BRANCH  11  12
ATOM     12  C   UNL     1     -28.742  21.668  24.362  1.00  0.00    -0.077 C 
ATOM     13  C   UNL     1     -29.974  21.118  24.438  1.00  0.00    -0.028 C 
ATOM     14  C   UNL     1     -27.808  21.379  23.210  1.00  0.00     0.039 C 
BRANCH  13  15
ATOM     15  C   UNL     1     -30.574  20.216  23.387  1.00  0.00     0.035 C 
BRANCH  15  16
ATOM     16  C   UNL     1     -31.147  18.946  24.023  1.00  0.00     0.079 C 
BRANCH  16  17
ATOM     17  C   UNL     1     -32.542  19.186  24.531  1.00  0.00     0.130 C 
ATOM     18  O   UNL     1     -33.180  20.144  24.120  1.00  0.00    -0.300 OA
ATOM     19  C   UNL     1     -33.146  18.273  25.554  1.00  0.00     0.087 C 
ENDBRANCH  16  17
ENDBRANCH  15  16
ENDBRANCH  13  15
ENDBRANCH  11  12
ENDBRANCH   1  11
TORSDOF 9
ENDMDL
MODEL 6
REMARK VINA RESULT:    -5.205      1.589      2.652
REMARK INTER + INTRA:          -9.213
REMARK INTER:                  -8.063
REMARK INTRA:                  -1.150
REMARK UNBOUND:                -1.269
REMARK SMILES CC(=O)CCC=C(C)CCC=C(C)CCC=C(C)C
REMARK SMILES IDX 10 1 11 2 12 3 13 4 14 5 15 6 16 7 18 8 17 9 19 10 9 11 7 12
REMARK SMILES IDX 6 13 8 14 5 15 4 16 2 17 3 18 1 19
REMARK H PARENT
REMARK Flexibility Score: inf
ROOT
ATOM      1  C   UNL     1     -29.547  20.422  25.849  1.00  0.00     0.032 C 
ENDROOT
BRANCH   1   2
ATOM      2  C   UNL     1     -31.017  20.083  25.774  1.00  0.00    -0.028 C 
ATOM      3  C   UNL     1     -31.697  19.864  24.626  1.00  0.00    -0.077 C 
ATOM      4  C   UNL     1     -31.015  19.874  23.278  1.00  0.00     0.039 C 
BRANCH   3   5
ATOM      5  C   UNL     1     -33.184  19.580  24.694  1.00  0.00     0.034 C 
BRANCH   5   6
ATOM      6  C   UNL     1     -33.508  18.124  24.328  1.00  0.00     0.032 C 
BRANCH   6   7
ATOM      7  C   UNL     1     -34.195  17.400  25.462  1.00  0.00    -0.028 C 
ATOM      8  C   UNL     1     -32.057  16.507  26.415  1.00  0.00     0.039 C 
ATOM      9  C   UNL     1     -33.552  16.705  26.428  1.00  0.00    -0.080 C 
ATOM     10  C   UNL     1     -34.344  16.048  27.529  1.00  0.00     0.039 C 
ENDBRANCH   6   7
ENDBRANCH   5   6
ENDBRANCH   3   5
ENDBRANCH   1   2
BRANCH   1  11
ATOM     11  C   UNL     1     -29.321  21.911  26.147  1.00  0.00     0.034 C 
BRANCH  11  12
ATOM     12  C   UNL     1     -29.377  22.207  27.631  1.00  0.00    -0.077 C 
ATOM     13  C   UNL     1     -30.526  22.682  28.164  1.00  0.00    -0.028 C 
ATOM     14  C   UNL     1     -28.141  21.985  28.471  1.00  0.00     0.039 C 
BRANCH  13  15
ATOM     15  C   UNL     1     -30.727  22.990  29.627  1.00  0.00     0.035 C 
BRANCH  15  16
ATOM     16  C   UNL     1     -31.423  24.343  29.808  1.00  0.00     0.079 C 
BRANCH  16  17
ATOM     17  C   UNL     1     -32.681  24.191  30.617  1.00  0.00     0.130 C 
ATOM     18  O   UNL     1     -32.929  23.124  31.158  1.00  0.00    -0.300 OA
ATOM     19  C   UNL     1     -33.646  25.331  30.742  1.00  0.00     0.087 C 
ENDBRANCH  16  17
ENDBRANCH  15  16
ENDBRANCH  13  15
ENDBRANCH  11  12
ENDBRANCH   1  11
TORSDOF 9
ENDMDL
MODEL 7
REMARK VINA RESULT:    -5.138      2.458      6.719
REMARK INTER + INTRA:          -9.111
REMARK INTER:                  -7.925
REMARK INTRA:                  -1.185
REMARK UNBOUND:                -1.269
REMARK SMILES CC(=O)CCC=C(C)CCC=C(C)CCC=C(C)C
REMARK SMILES IDX 10 1 11 2 12 3 13 4 14 5 15 6 16 7 18 8 17 9 19 10 9 11 7 12
REMARK SMILES IDX 6 13 8 14 5 15 4 16 2 17 3 18 1 19
REMARK H PARENT
REMARK Flexibility Score: inf
ROOT
ATOM      1  C   UNL     1     -28.393  21.355  24.956  1.00  0.00     0.032 C 
ENDROOT
BRANCH   1   2
ATOM      2  C   UNL     1     -28.800  22.210  26.132  1.00  0.00    -0.028 C 
ATOM      3  C   UNL     1     -29.473  21.759  27.215  1.00  0.00    -0.077 C 
ATOM      4  C   UNL     1     -29.833  20.301  27.382  1.00  0.00     0.039 C 
BRANCH   3   5
ATOM      5  C   UNL     1     -29.860  22.740  28.303  1.00  0.00     0.034 C 
BRANCH   5   6
ATOM      6  C   UNL     1     -31.175  22.347  28.989  1.00  0.00     0.032 C 
BRANCH   6   7
ATOM      7  C   UNL     1     -32.013  23.556  29.332  1.00  0.00    -0.028 C 
ATOM      8  C   UNL     1     -31.351  23.543  31.748  1.00  0.00     0.039 C 
ATOM      9  C   UNL     1     -32.068  24.127  30.557  1.00  0.00    -0.080 C 
ATOM     10  C   UNL     1     -32.919  25.352  30.773  1.00  0.00     0.039 C 
ENDBRANCH   6   7
ENDBRANCH   5   6
ENDBRANCH   3   5
ENDBRANCH   1   2
BRANCH   1  11
ATOM     11  C   UNL     1     -29.389  21.475  23.794  1.00  0.00     0.034 C 
BRANCH  11  12
ATOM     12  C   UNL     1     -30.218  20.218  23.627  1.00  0.00    -0.077 C 
ATOM     13  C   UNL     1     -31.447  20.160  24.188  1.00  0.00    -0.028 C 
ATOM     14  C   UNL     1     -29.639  19.054  22.856  1.00  0.00     0.039 C 
BRANCH  13  15
ATOM     15  C   UNL     1     -32.386  18.985  24.075  1.00  0.00     0.035 C 
BRANCH  15  16
ATOM     16  C   UNL     1     -33.159  18.779  25.381  1.00  0.00     0.079 C 
BRANCH  16  17
ATOM     17  C   UNL     1     -33.921  17.483  25.350  1.00  0.00     0.130 C 
ATOM     18  O   UNL     1     -34.527  17.112  26.345  1.00  0.00    -0.300 OA
ATOM     19  C   UNL     1     -33.922  16.631  24.118  1.00  0.00     0.087 C 
ENDBRANCH  16  17
ENDBRANCH  15  16
ENDBRANCH  13  15
ENDBRANCH  11  12
ENDBRANCH   1  11
TORSDOF 9
ENDMDL
MODEL 8
REMARK VINA RESULT:    -5.110      5.116      7.962
REMARK INTER + INTRA:          -9.068
REMARK INTER:                  -8.235
REMARK INTRA:                  -0.833
REMARK UNBOUND:                -1.269
REMARK SMILES CC(=O)CCC=C(C)CCC=C(C)CCC=C(C)C
REMARK SMILES IDX 10 1 11 2 12 3 13 4 14 5 15 6 16 7 18 8 17 9 19 10 9 11 7 12
REMARK SMILES IDX 6 13 8 14 5 15 4 16 2 17 3 18 1 19
REMARK H PARENT
REMARK Flexibility Score: inf
ROOT
ATOM      1  C   UNL     1     -34.249  16.995  24.931  1.00  0.00     0.032 C 
ENDROOT
BRANCH   1   2
ATOM      2  C   UNL     1     -33.450  18.269  24.807  1.00  0.00    -0.028 C 
ATOM      3  C   UNL     1     -32.291  18.386  24.119  1.00  0.00    -0.077 C 
ATOM      4  C   UNL     1     -31.708  17.235  23.334  1.00  0.00     0.039 C 
BRANCH   3   5
ATOM      5  C   UNL     1     -31.567  19.717  24.118  1.00  0.00     0.034 C 
BRANCH   5   6
ATOM      6  C   UNL     1     -30.330  19.697  23.209  1.00  0.00     0.032 C 
BRANCH   6   7
ATOM      7  C   UNL     1     -29.525  20.970  23.328  1.00  0.00    -0.028 C 
ATOM      8  C   UNL     1     -27.338  19.829  22.889  1.00  0.00     0.039 C 
ATOM      9  C   UNL     1     -28.187  21.049  23.146  1.00  0.00    -0.080 C 
ATOM     10  C   UNL     1     -27.495  22.382  23.262  1.00  0.00     0.039 C 
ENDBRANCH   6   7
ENDBRANCH   5   6
ENDBRANCH   3   5
ENDBRANCH   1   2
BRANCH   1  11
ATOM     11  C   UNL     1     -34.442  16.584  26.398  1.00  0.00     0.034 C 
BRANCH  11  12
ATOM     12  C   UNL     1     -33.778  15.257  26.706  1.00  0.00    -0.077 C 
ATOM     13  C   UNL     1     -33.721  14.832  27.989  1.00  0.00    -0.028 C 
ATOM     14  C   UNL     1     -33.178  14.456  25.574  1.00  0.00     0.039 C 
BRANCH  13  15
ATOM     15  C   UNL     1     -33.118  13.522  28.430  1.00  0.00     0.035 C 
BRANCH  15  16
ATOM     16  C   UNL     1     -33.822  12.994  29.684  1.00  0.00     0.079 C 
BRANCH  16  17
ATOM     17  C   UNL     1     -32.896  13.026  30.868  1.00  0.00     0.130 C 
ATOM     18  O   UNL     1     -31.792  13.539  30.762  1.00  0.00    -0.300 OA
ATOM     19  C   UNL     1     -33.308  12.411  32.171  1.00  0.00     0.087 C 
ENDBRANCH  16  17
ENDBRANCH  15  16
ENDBRANCH  13  15
ENDBRANCH  11  12
ENDBRANCH   1  11
TORSDOF 9
ENDMDL
MODEL 9
REMARK VINA RESULT:    -5.091      4.709      7.910
REMARK INTER + INTRA:          -9.039
REMARK INTER:                  -8.076
REMARK INTRA:                  -0.963
REMARK UNBOUND:                -1.269
REMARK SMILES CC(=O)CCC=C(C)CCC=C(C)CCC=C(C)C
REMARK SMILES IDX 10 1 11 2 12 3 13 4 14 5 15 6 16 7 18 8 17 9 19 10 9 11 7 12
REMARK SMILES IDX 6 13 8 14 5 15 4 16 2 17 3 18 1 19
REMARK H PARENT
REMARK Flexibility Score: inf
ROOT
ATOM      1  C   UNL     1     -33.867  17.923  24.513  1.00  0.00     0.032 C 
ENDROOT
BRANCH   1   2
ATOM      2  C   UNL     1     -34.224  17.225  25.804  1.00  0.00    -0.028 C 
ATOM      3  C   UNL     1     -33.693  16.051  26.215  1.00  0.00    -0.077 C 
ATOM      4  C   UNL     1     -32.615  15.342  25.429  1.00  0.00     0.039 C 
BRANCH   3   5
ATOM      5  C   UNL     1     -34.180  15.438  27.512  1.00  0.00     0.034 C 
BRANCH   5   6
ATOM      6  C   UNL     1     -33.456  14.122  27.833  1.00  0.00     0.032 C 
BRANCH   6   7
ATOM      7  C   UNL     1     -32.806  14.157  29.196  1.00  0.00    -0.028 C 
ATOM      8  C   UNL     1     -34.064  12.160  30.036  1.00  0.00     0.039 C 
ATOM      9  C   UNL     1     -33.040  13.258  30.179  1.00  0.00    -0.080 C 
ATOM     10  C   UNL     1     -32.308  13.378  31.491  1.00  0.00     0.039 C 
ENDBRANCH   6   7
ENDBRANCH   5   6
ENDBRANCH   3   5
ENDBRANCH   1   2
BRANCH   1  11
ATOM     11  C   UNL     1     -33.461  19.385  24.751  1.00  0.00     0.034 C 
BRANCH  11  12
ATOM     12  C   UNL     1     -31.956  19.551  24.818  1.00  0.00    -0.077 C 
ATOM     13  C   UNL     1     -31.246  19.583  23.667  1.00  0.00    -0.028 C 
ATOM     14  C   UNL     1     -31.289  19.653  26.170  1.00  0.00     0.039 C 
BRANCH  13  15
ATOM     15  C   UNL     1     -29.752  19.772  23.589  1.00  0.00     0.035 C 
BRANCH  15  16
ATOM     16  C   UNL     1     -29.405  21.225  23.253  1.00  0.00     0.079 C 
BRANCH  16  17
ATOM     17  C   UNL     1     -27.917  21.400  23.116  1.00  0.00     0.130 C 
ATOM     18  O   UNL     1     -27.434  22.523  23.143  1.00  0.00    -0.300 OA
ATOM     19  C   UNL     1     -27.027  20.211  22.922  1.00  0.00     0.087 C 
ENDBRANCH  16  17
ENDBRANCH  15  16
ENDBRANCH  13  15
ENDBRANCH  11  12
ENDBRANCH   1  11
TORSDOF 9
ENDMDL
