MODEL 1
REMARK VINA RESULT:    -5.249      0.000      0.000
REMARK INTER + INTRA:          -5.249
REMARK INTER:                  -5.249
REMARK INTRA:                   0.000
REMARK UNBOUND:                 0.000
REMARK SMILES CC(C)=C1CC[C@@H](C)CC1=O
REMARK SMILES IDX 8 1 7 2 6 3 5 4 4 5 2 6 1 7 3 8 10 9 11 10 9 11
REMARK H PARENT
REMARK Flexibility Score: inf
ROOT
ATOM      1  C   UNL     1       2.743 -18.315  -1.860  1.00  0.00     0.008 C 
ATOM      2  C   UNL     1       2.044 -18.766  -3.147  1.00  0.00    -0.006 C 
ATOM      3  C   UNL     1       1.306 -20.095  -2.925  1.00  0.00     0.008 C 
ATOM      4  C   UNL     1       0.516 -20.509  -4.174  1.00  0.00     0.039 C 
ATOM      5  C   UNL     1       1.375 -20.521  -5.431  1.00  0.00    -0.006 C 
ATOM      6  C   UNL     1       1.135 -21.401  -6.446  1.00  0.00    -0.070 C 
ATOM      7  C   UNL     1       2.015 -21.460  -7.674  1.00  0.00     0.039 C 
ATOM      8  C   UNL     1      -0.006 -22.389  -6.374  1.00  0.00     0.039 C 
ATOM      9  C   UNL     1       2.407 -19.446  -5.530  1.00  0.00     0.159 C 
ATOM     10  O   UNL     1       2.743 -18.961  -6.643  1.00  0.00    -0.295 OA
ATOM     11  C   UNL     1       3.063 -18.915  -4.288  1.00  0.00     0.084 C 
ENDROOT
TORSDOF 0
ENDMDL
MODEL 2
REMARK VINA RESULT:    -5.005      1.104      4.029
REMARK INTER + INTRA:          -5.005
REMARK INTER:                  -5.005
REMARK INTRA:                   0.000
REMARK UNBOUND:                 0.000
REMARK SMILES CC(C)=C1CC[C@@H](C)CC1=O
REMARK SMILES IDX 8 1 7 2 6 3 5 4 4 5 2 6 1 7 3 8 10 9 11 10 9 11
REMARK H PARENT
REMARK Flexibility Score: inf
ROOT
ATOM      1  C   UNL     1       1.365 -21.091  -9.025  1.00  0.00     0.008 C 
ATOM      2  C   UNL     1       1.663 -21.155  -7.523  1.00  0.00    -0.006 C 
ATOM      3  C   UNL     1       0.388 -21.487  -6.732  1.00  0.00     0.008 C 
ATOM      4  C   UNL     1       0.689 -21.655  -5.236  1.00  0.00     0.039 C 
ATOM      5  C   UNL     1       1.445 -20.468  -4.655  1.00  0.00    -0.006 C 
ATOM      6  C   UNL     1       1.270 -20.081  -3.358  1.00  0.00    -0.070 C 
ATOM      7  C   UNL     1       1.971 -18.870  -2.786  1.00  0.00     0.039 C 
ATOM      8  C   UNL     1       0.331 -20.826  -2.437  1.00  0.00     0.039 C 
ATOM      9  C   UNL     1       2.462 -19.837  -5.549  1.00  0.00     0.159 C 
ATOM     10  O   UNL     1       3.510 -19.315  -5.082  1.00  0.00    -0.295 OA
ATOM     11  C   UNL     1       2.252 -19.822  -7.035  1.00  0.00     0.084 C 
ENDROOT
TORSDOF 0
ENDMDL
MODEL 3
REMARK VINA RESULT:    -5.002      1.300      3.969
REMARK INTER + INTRA:          -5.002
REMARK INTER:                  -5.002
REMARK INTRA:                   0.000
REMARK UNBOUND:                 0.000
REMARK SMILES CC(C)=C1CC[C@@H](C)CC1=O
REMARK SMILES IDX 8 1 7 2 6 3 5 4 4 5 2 6 1 7 3 8 10 9 11 10 9 11
REMARK H PARENT
REMARK Flexibility Score: inf
ROOT
ATOM      1  C   UNL     1       0.227 -23.240  -6.759  1.00  0.00     0.008 C 
ATOM      2  C   UNL     1       1.008 -22.089  -6.114  1.00  0.00    -0.006 C 
ATOM      3  C   UNL     1       0.135 -21.355  -5.084  1.00  0.00     0.008 C 
ATOM      4  C   UNL     1       0.933 -20.265  -4.355  1.00  0.00     0.039 C 
ATOM      5  C   UNL     1       1.632 -19.312  -5.314  1.00  0.00    -0.006 C 
ATOM      6  C   UNL     1       1.831 -18.000  -4.993  1.00  0.00    -0.070 C 
ATOM      7  C   UNL     1       2.473 -17.032  -5.959  1.00  0.00     0.039 C 
ATOM      8  C   UNL     1       1.381 -17.442  -3.662  1.00  0.00     0.039 C 
ATOM      9  C   UNL     1       2.183 -19.923  -6.561  1.00  0.00     0.159 C 
ATOM     10  O   UNL     1       3.225 -19.472  -7.107  1.00  0.00    -0.295 OA
ATOM     11  C   UNL     1       1.497 -21.104  -7.186  1.00  0.00     0.084 C 
ENDROOT
TORSDOF 0
ENDMDL
MODEL 4
REMARK VINA RESULT:    -4.974      1.660      4.498
REMARK INTER + INTRA:          -4.974
REMARK INTER:                  -4.974
REMARK INTRA:                   0.000
REMARK UNBOUND:                 0.000
REMARK SMILES CC(C)=C1CC[C@@H](C)CC1=O
REMARK SMILES IDX 8 1 7 2 6 3 5 4 4 5 2 6 1 7 3 8 10 9 11 10 9 11
REMARK H PARENT
REMARK Flexibility Score: inf
ROOT
ATOM      1  C   UNL     1       0.138 -23.572  -6.704  1.00  0.00     0.008 C 
ATOM      2  C   UNL     1       0.312 -22.072  -6.444  1.00  0.00    -0.006 C 
ATOM      3  C   UNL     1       1.586 -21.548  -7.124  1.00  0.00     0.008 C 
ATOM      4  C   UNL     1       1.722 -20.028  -6.959  1.00  0.00     0.039 C 
ATOM      5  C   UNL     1       1.611 -19.586  -5.506  1.00  0.00    -0.006 C 
ATOM      6  C   UNL     1       2.292 -18.498  -5.042  1.00  0.00    -0.070 C 
ATOM      7  C   UNL     1       2.234 -18.083  -3.589  1.00  0.00     0.039 C 
ATOM      8  C   UNL     1       3.171 -17.674  -5.955  1.00  0.00     0.039 C 
ATOM      9  C   UNL     1       0.633 -20.338  -4.665  1.00  0.00     0.159 C 
ATOM     10  O   UNL     1       0.009 -19.777  -3.725  1.00  0.00    -0.295 OA
ATOM     11  C   UNL     1       0.370 -21.792  -4.934  1.00  0.00     0.084 C 
ENDROOT
TORSDOF 0
ENDMDL
MODEL 5
REMARK VINA RESULT:    -4.972      1.713      2.562
REMARK INTER + INTRA:          -4.972
REMARK INTER:                  -4.972
REMARK INTRA:                   0.000
REMARK UNBOUND:                 0.000
REMARK SMILES CC(C)=C1CC[C@@H](C)CC1=O
REMARK SMILES IDX 8 1 7 2 6 3 5 4 4 5 2 6 1 7 3 8 10 9 11 10 9 11
REMARK H PARENT
REMARK Flexibility Score: inf
ROOT
ATOM      1  C   UNL     1       1.317 -16.816  -3.269  1.00  0.00     0.008 C 
ATOM      2  C   UNL     1       1.632 -18.141  -3.971  1.00  0.00    -0.006 C 
ATOM      3  C   UNL     1       1.859 -17.917  -5.475  1.00  0.00     0.008 C 
ATOM      4  C   UNL     1       2.275 -19.218  -6.175  1.00  0.00     0.039 C 
ATOM      5  C   UNL     1       1.317 -20.367  -5.893  1.00  0.00    -0.006 C 
ATOM      6  C   UNL     1       1.087 -21.343  -6.819  1.00  0.00    -0.070 C 
ATOM      7  C   UNL     1       0.096 -22.457  -6.572  1.00  0.00     0.039 C 
ATOM      8  C   UNL     1       1.790 -21.335  -8.158  1.00  0.00     0.039 C 
ATOM      9  C   UNL     1       0.744 -20.419  -4.515  1.00  0.00     0.159 C 
ATOM     10  O   UNL     1       0.467 -21.517  -3.962  1.00  0.00    -0.295 OA
ATOM     11  C   UNL     1       0.492 -19.148  -3.756  1.00  0.00     0.084 C 
ENDROOT
TORSDOF 0
ENDMDL
MODEL 6
REMARK VINA RESULT:    -4.930      1.826      2.926
REMARK INTER + INTRA:          -4.930
REMARK INTER:                  -4.930
REMARK INTRA:                   0.000
REMARK UNBOUND:                 0.000
REMARK SMILES CC(C)=C1CC[C@@H](C)CC1=O
REMARK SMILES IDX 8 1 7 2 6 3 5 4 4 5 2 6 1 7 3 8 10 9 11 10 9 11
REMARK H PARENT
REMARK Flexibility Score: inf
ROOT
ATOM      1  C   UNL     1       0.396 -20.587  -2.262  1.00  0.00     0.008 C 
ATOM      2  C   UNL     1       1.131 -21.002  -3.541  1.00  0.00    -0.006 C 
ATOM      3  C   UNL     1       2.175 -19.945  -3.933  1.00  0.00     0.008 C 
ATOM      4  C   UNL     1       2.991 -20.393  -5.154  1.00  0.00     0.039 C 
ATOM      5  C   UNL     1       2.110 -20.808  -6.325  1.00  0.00    -0.006 C 
ATOM      6  C   UNL     1       2.514 -20.624  -7.616  1.00  0.00    -0.070 C 
ATOM      7  C   UNL     1       1.625 -20.980  -8.786  1.00  0.00     0.039 C 
ATOM      8  C   UNL     1       3.861 -20.018  -7.938  1.00  0.00     0.039 C 
ATOM      9  C   UNL     1       0.847 -21.524  -5.974  1.00  0.00     0.159 C 
ATOM     10  O   UNL     1       0.361 -22.404  -6.734  1.00  0.00    -0.295 OA
ATOM     11  C   UNL     1       0.134 -21.208  -4.692  1.00  0.00     0.084 C 
ENDROOT
TORSDOF 0
ENDMDL
MODEL 7
REMARK VINA RESULT:    -4.921      1.655      4.566
REMARK INTER + INTRA:          -4.921
REMARK INTER:                  -4.921
REMARK INTRA:                   0.000
REMARK UNBOUND:                 0.000
REMARK SMILES CC(C)=C1CC[C@@H](C)CC1=O
REMARK SMILES IDX 8 1 7 2 6 3 5 4 4 5 2 6 1 7 3 8 10 9 11 10 9 11
REMARK H PARENT
REMARK Flexibility Score: inf
ROOT
ATOM      1  C   UNL     1       1.609 -21.042  -8.651  1.00  0.00     0.008 C 
ATOM      2  C   UNL     1       1.686 -20.324  -7.299  1.00  0.00    -0.006 C 
ATOM      3  C   UNL     1       3.149 -20.063  -6.907  1.00  0.00     0.008 C 
ATOM      4  C   UNL     1       3.241 -19.255  -5.606  1.00  0.00     0.039 C 
ATOM      5  C   UNL     1       2.434 -19.876  -4.474  1.00  0.00    -0.006 C 
ATOM      6  C   UNL     1       2.832 -19.761  -3.173  1.00  0.00    -0.070 C 
ATOM      7  C   UNL     1       2.071 -20.420  -2.046  1.00  0.00     0.039 C 
ATOM      8  C   UNL     1       4.081 -18.995  -2.799  1.00  0.00     0.039 C 
ATOM      9  C   UNL     1       1.138 -20.508  -4.862  1.00  0.00     0.159 C 
ATOM     10  O   UNL     1       0.150 -20.509  -4.081  1.00  0.00    -0.295 OA
ATOM     11  C   UNL     1       0.990 -21.154  -6.209  1.00  0.00     0.084 C 
ENDROOT
TORSDOF 0
ENDMDL
MODEL 8
REMARK VINA RESULT:    -4.876      1.885      4.361
REMARK INTER + INTRA:          -4.876
REMARK INTER:                  -4.876
REMARK INTRA:                   0.000
REMARK UNBOUND:                 0.000
REMARK SMILES CC(C)=C1CC[C@@H](C)CC1=O
REMARK SMILES IDX 8 1 7 2 6 3 5 4 4 5 2 6 1 7 3 8 10 9 11 10 9 11
REMARK H PARENT
REMARK Flexibility Score: inf
ROOT
ATOM      1  C   UNL     1       1.626 -20.999  -8.690  1.00  0.00     0.008 C 
ATOM      2  C   UNL     1       1.991 -21.177  -7.212  1.00  0.00    -0.006 C 
ATOM      3  C   UNL     1       1.295 -20.111  -6.351  1.00  0.00     0.008 C 
ATOM      4  C   UNL     1       1.568 -20.336  -4.857  1.00  0.00     0.039 C 
ATOM      5  C   UNL     1       3.053 -20.460  -4.547  1.00  0.00    -0.006 C 
ATOM      6  C   UNL     1       3.567 -20.034  -3.356  1.00  0.00    -0.070 C 
ATOM      7  C   UNL     1       5.047 -20.099  -3.058  1.00  0.00     0.039 C 
ATOM      8  C   UNL     1       2.679 -19.438  -2.287  1.00  0.00     0.039 C 
ATOM      9  C   UNL     1       3.879 -21.174  -5.566  1.00  0.00     0.159 C 
ATOM     10  O   UNL     1       4.885 -21.855  -5.233  1.00  0.00    -0.295 OA
ATOM     11  C   UNL     1       3.513 -21.094  -7.020  1.00  0.00     0.084 C 
ENDROOT
TORSDOF 0
ENDMDL
MODEL 9
REMARK VINA RESULT:    -4.807      1.891      3.406
REMARK INTER + INTRA:          -4.807
REMARK INTER:                  -4.807
REMARK INTRA:                   0.000
REMARK UNBOUND:                 0.000
REMARK SMILES CC(C)=C1CC[C@@H](C)CC1=O
REMARK SMILES IDX 8 1 7 2 6 3 5 4 4 5 2 6 1 7 3 8 10 9 11 10 9 11
REMARK H PARENT
REMARK Flexibility Score: inf
ROOT
ATOM      1  C   UNL     1       5.724 -18.958  -7.418  1.00  0.00     0.008 C 
ATOM      2  C   UNL     1       4.233 -19.189  -7.147  1.00  0.00    -0.006 C 
ATOM      3  C   UNL     1       3.969 -19.306  -5.638  1.00  0.00     0.008 C 
ATOM      4  C   UNL     1       2.468 -19.436  -5.343  1.00  0.00     0.039 C 
ATOM      5  C   UNL     1       1.811 -20.554  -6.140  1.00  0.00    -0.006 C 
ATOM      6  C   UNL     1       0.757 -21.260  -5.635  1.00  0.00    -0.070 C 
ATOM      7  C   UNL     1       0.132 -22.409  -6.393  1.00  0.00     0.039 C 
ATOM      8  C   UNL     1       0.185 -20.947  -4.272  1.00  0.00     0.039 C 
ATOM      9  C   UNL     1       2.312 -20.749  -7.534  1.00  0.00     0.159 C 
ATOM     10  O   UNL     1       1.550 -21.150  -8.453  1.00  0.00    -0.295 OA
ATOM     11  C   UNL     1       3.747 -20.458  -7.865  1.00  0.00     0.084 C 
ENDROOT
TORSDOF 0
ENDMDL
