MODEL 1
REMARK VINA RESULT:    -4.989      0.000      0.000
REMARK INTER + INTRA:          -6.169
REMARK INTER:                  -6.010
REMARK INTRA:                  -0.159
REMARK UNBOUND:                -0.159
REMARK SMILES [NH3+][C@@H](Cc1cnc[nH]1)C(=O)[O-]
REMARK SMILES IDX 3 1 2 2 1 3 9 7 10 8 11 9 4 10 5 11 8 12 6 13 7 14
REMARK H PARENT 1 4 1 5 1 6 8 15
REMARK Flexibility Score: inf
ROOT
ATOM      1  C   UNL     1     -24.721 -22.306 -13.283  1.00  0.00     0.127 C 
ENDROOT
BRANCH   1   2
ATOM      2  C   UNL     1     -24.122 -23.162 -14.417  1.00  0.00     0.233 C 
BRANCH   2   3
ATOM      3  N   UNL     1     -24.813 -22.891 -15.683  1.00  0.00    -0.350 N 
ATOM      4  H   UNL     1     -25.595 -23.572 -15.812  1.00  0.00     0.345 HD
ATOM      5  H   UNL     1     -25.220 -21.927 -15.666  1.00  0.00     0.345 HD
ATOM      6  H   UNL     1     -24.152 -22.972 -16.490  1.00  0.00     0.345 HD
ENDBRANCH   2   3
BRANCH   2   7
ATOM      7  C   UNL     1     -24.208 -24.630 -14.084  1.00  0.00     0.099 C 
ATOM      8  O   UNL     1     -23.758 -25.058 -12.990  1.00  0.00    -0.544 OA
ATOM      9  O   UNL     1     -24.798 -25.518 -14.977  1.00  0.00    -0.544 OA
ENDBRANCH   2   7
ENDBRANCH   1   2
BRANCH   1  10
ATOM     10  C   UNL     1     -24.526 -20.840 -13.537  1.00  0.00     0.041 A 
ATOM     11  C   UNL     1     -25.517 -19.896 -13.687  1.00  0.00     0.134 A 
ATOM     12  N   UNL     1     -23.338 -20.251 -13.740  1.00  0.00    -0.348 N 
ATOM     13  N   UNL     1     -24.951 -18.706 -13.972  1.00  0.00    -0.245 NA
ATOM     14  C   UNL     1     -23.626 -18.961 -13.995  1.00  0.00     0.196 A 
ATOM     15  H   UNL     1     -22.393 -20.696 -13.718  1.00  0.00     0.167 HD
ENDBRANCH   1  10
TORSDOF 4
ENDMDL
MODEL 2
REMARK VINA RESULT:    -4.882      1.921      2.386
REMARK INTER + INTRA:          -6.040
REMARK INTER:                  -5.909
REMARK INTRA:                  -0.131
REMARK UNBOUND:                -0.159
REMARK SMILES [NH3+][C@@H](Cc1cnc[nH]1)C(=O)[O-]
REMARK SMILES IDX 3 1 2 2 1 3 9 7 10 8 11 9 4 10 5 11 8 12 6 13 7 14
REMARK H PARENT 1 4 1 5 1 6 8 15
REMARK Flexibility Score: inf
ROOT
ATOM      1  C   UNL     1     -26.159 -23.071 -13.517  1.00  0.00     0.127 C 
ENDROOT
BRANCH   1   2
ATOM      2  C   UNL     1     -24.979 -23.576 -14.373  1.00  0.00     0.233 C 
BRANCH   2   3
ATOM      3  N   UNL     1     -24.978 -22.915 -15.683  1.00  0.00    -0.350 N 
ATOM      4  H   UNL     1     -24.583 -21.952 -15.594  1.00  0.00     0.345 HD
ATOM      5  H   UNL     1     -24.379 -23.453 -16.352  1.00  0.00     0.345 HD
ATOM      6  H   UNL     1     -25.950 -22.852 -16.067  1.00  0.00     0.345 HD
ENDBRANCH   2   3
BRANCH   2   7
ATOM      7  C   UNL     1     -25.042 -25.071 -14.547  1.00  0.00     0.099 C 
ATOM      8  O   UNL     1     -26.092 -25.614 -14.978  1.00  0.00    -0.544 OA
ATOM      9  O   UNL     1     -23.936 -25.859 -14.249  1.00  0.00    -0.544 OA
ENDBRANCH   2   7
ENDBRANCH   1   2
BRANCH   1  10
ATOM     10  C   UNL     1     -25.761 -21.907 -12.660  1.00  0.00     0.041 A 
ATOM     11  C   UNL     1     -24.476 -21.537 -12.326  1.00  0.00     0.134 A 
ATOM     12  N   UNL     1     -26.620 -21.099 -12.020  1.00  0.00    -0.348 N 
ATOM     13  N   UNL     1     -24.526 -20.485 -11.485  1.00  0.00    -0.245 NA
ATOM     14  C   UNL     1     -25.845 -20.248 -11.323  1.00  0.00     0.196 A 
ATOM     15  H   UNL     1     -27.663 -21.131 -12.045  1.00  0.00     0.167 HD
ENDBRANCH   1  10
TORSDOF 4
ENDMDL
MODEL 3
REMARK VINA RESULT:    -4.875      1.667      2.182
REMARK INTER + INTRA:          -6.032
REMARK INTER:                  -5.873
REMARK INTRA:                  -0.159
REMARK UNBOUND:                -0.159
REMARK SMILES [NH3+][C@@H](Cc1cnc[nH]1)C(=O)[O-]
REMARK SMILES IDX 3 1 2 2 1 3 9 7 10 8 11 9 4 10 5 11 8 12 6 13 7 14
REMARK H PARENT 1 4 1 5 1 6 8 15
REMARK Flexibility Score: inf
ROOT
ATOM      1  C   UNL     1     -26.407 -23.551 -13.605  1.00  0.00     0.127 C 
ENDROOT
BRANCH   1   2
ATOM      2  C   UNL     1     -25.600 -24.500 -14.513  1.00  0.00     0.233 C 
BRANCH   2   3
ATOM      3  N   UNL     1     -26.473 -25.539 -15.073  1.00  0.00    -0.350 N 
ATOM      4  H   UNL     1     -27.186 -25.101 -15.700  1.00  0.00     0.345 HD
ATOM      5  H   UNL     1     -25.907 -26.210 -15.641  1.00  0.00     0.345 HD
ATOM      6  H   UNL     1     -26.963 -26.061 -14.309  1.00  0.00     0.345 HD
ENDBRANCH   2   3
BRANCH   2   7
ATOM      7  C   UNL     1     -24.463 -25.134 -13.754  1.00  0.00     0.099 C 
ATOM      8  O   UNL     1     -23.715 -25.973 -14.320  1.00  0.00    -0.544 OA
ATOM      9  O   UNL     1     -24.223 -24.786 -12.430  1.00  0.00    -0.544 OA
ENDBRANCH   2   7
ENDBRANCH   1   2
BRANCH   1  10
ATOM     10  C   UNL     1     -25.976 -22.124 -13.776  1.00  0.00     0.041 A 
ATOM     11  C   UNL     1     -25.803 -21.194 -12.775  1.00  0.00     0.134 A 
ATOM     12  N   UNL     1     -25.775 -21.523 -14.959  1.00  0.00    -0.348 N 
ATOM     13  N   UNL     1     -25.480 -20.008 -13.327  1.00  0.00    -0.245 NA
ATOM     14  C   UNL     1     -25.472 -20.247 -14.655  1.00  0.00     0.196 A 
ATOM     15  H   UNL     1     -25.850 -21.947 -15.910  1.00  0.00     0.167 HD
ENDBRANCH   1  10
TORSDOF 4
ENDMDL
MODEL 4
REMARK VINA RESULT:    -4.846      3.020      4.789
REMARK INTER + INTRA:          -5.997
REMARK INTER:                  -5.833
REMARK INTRA:                  -0.163
REMARK UNBOUND:                -0.159
REMARK SMILES [NH3+][C@@H](Cc1cnc[nH]1)C(=O)[O-]
REMARK SMILES IDX 3 1 2 2 1 3 9 7 10 8 11 9 4 10 5 11 8 12 6 13 7 14
REMARK H PARENT 1 4 1 5 1 6 8 15
REMARK Flexibility Score: inf
ROOT
ATOM      1  C   UNL     1     -23.221 -21.062 -13.096  1.00  0.00     0.127 C 
ENDROOT
BRANCH   1   2
ATOM      2  C   UNL     1     -24.131 -19.990 -13.728  1.00  0.00     0.233 C 
BRANCH   2   3
ATOM      3  N   UNL     1     -23.323 -18.935 -14.350  1.00  0.00    -0.350 N 
ATOM      4  H   UNL     1     -23.541 -18.876 -15.370  1.00  0.00     0.345 HD
ATOM      5  H   UNL     1     -23.550 -18.011 -13.914  1.00  0.00     0.345 HD
ATOM      6  H   UNL     1     -22.302 -19.130 -14.229  1.00  0.00     0.345 HD
ENDBRANCH   2   3
BRANCH   2   7
ATOM      7  C   UNL     1     -25.056 -19.394 -12.698  1.00  0.00     0.099 C 
ATOM      8  O   UNL     1     -25.952 -18.583 -13.047  1.00  0.00    -0.544 OA
ATOM      9  O   UNL     1     -24.936 -19.749 -11.359  1.00  0.00    -0.544 OA
ENDBRANCH   2   7
ENDBRANCH   1   2
BRANCH   1  10
ATOM     10  C   UNL     1     -23.606 -22.443 -13.539  1.00  0.00     0.041 A 
ATOM     11  C   UNL     1     -23.243 -23.628 -12.937  1.00  0.00     0.134 A 
ATOM     12  N   UNL     1     -24.300 -22.723 -14.652  1.00  0.00    -0.348 N 
ATOM     13  N   UNL     1     -23.722 -24.656 -13.665  1.00  0.00    -0.245 NA
ATOM     14  C   UNL     1     -24.359 -24.067 -14.698  1.00  0.00     0.196 A 
ATOM     15  H   UNL     1     -24.699 -22.048 -15.342  1.00  0.00     0.167 HD
ENDBRANCH   1  10
TORSDOF 4
ENDMDL
MODEL 5
REMARK VINA RESULT:    -4.825      1.877      2.249
REMARK INTER + INTRA:          -5.971
REMARK INTER:                  -5.786
REMARK INTRA:                  -0.185
REMARK UNBOUND:                -0.159
REMARK SMILES [NH3+][C@@H](Cc1cnc[nH]1)C(=O)[O-]
REMARK SMILES IDX 3 1 2 2 1 3 9 7 10 8 11 9 4 10 5 11 8 12 6 13 7 14
REMARK H PARENT 1 4 1 5 1 6 8 15
REMARK Flexibility Score: inf
ROOT
ATOM      1  C   UNL     1     -25.830 -22.109 -13.484  1.00  0.00     0.127 C 
ENDROOT
BRANCH   1   2
ATOM      2  C   UNL     1     -24.617 -22.220 -14.429  1.00  0.00     0.233 C 
BRANCH   2   3
ATOM      3  N   UNL     1     -25.000 -22.890 -15.678  1.00  0.00    -0.350 N 
ATOM      4  H   UNL     1     -25.072 -22.188 -16.449  1.00  0.00     0.345 HD
ATOM      5  H   UNL     1     -24.269 -23.592 -15.942  1.00  0.00     0.345 HD
ATOM      6  H   UNL     1     -25.920 -23.376 -15.569  1.00  0.00     0.345 HD
ENDBRANCH   2   3
BRANCH   2   7
ATOM      7  C   UNL     1     -23.485 -22.964 -13.768  1.00  0.00     0.099 C 
ATOM      8  O   UNL     1     -22.434 -22.356 -13.441  1.00  0.00    -0.544 OA
ATOM      9  O   UNL     1     -23.602 -24.324 -13.500  1.00  0.00    -0.544 OA
ENDBRANCH   2   7
ENDBRANCH   1   2
BRANCH   1  10
ATOM     10  C   UNL     1     -25.804 -20.830 -12.701  1.00  0.00     0.041 A 
ATOM     11  C   UNL     1     -25.127 -19.678 -13.035  1.00  0.00     0.134 A 
ATOM     12  N   UNL     1     -26.379 -20.656 -11.502  1.00  0.00    -0.348 N 
ATOM     13  N   UNL     1     -25.288 -18.771 -12.051  1.00  0.00    -0.245 NA
ATOM     14  C   UNL     1     -26.055 -19.402 -11.137  1.00  0.00     0.196 A 
ATOM     15  H   UNL     1     -26.946 -21.346 -10.960  1.00  0.00     0.167 HD
ENDBRANCH   1  10
TORSDOF 4
ENDMDL
MODEL 6
REMARK VINA RESULT:    -4.818      2.302      2.843
REMARK INTER + INTRA:          -5.962
REMARK INTER:                  -5.842
REMARK INTRA:                  -0.120
REMARK UNBOUND:                -0.159
REMARK SMILES [NH3+][C@@H](Cc1cnc[nH]1)C(=O)[O-]
REMARK SMILES IDX 3 1 2 2 1 3 9 7 10 8 11 9 4 10 5 11 8 12 6 13 7 14
REMARK H PARENT 1 4 1 5 1 6 8 15
REMARK Flexibility Score: inf
ROOT
ATOM      1  C   UNL     1     -25.810 -20.798 -14.315  1.00  0.00     0.127 C 
ENDROOT
BRANCH   1   2
ATOM      2  C   UNL     1     -25.360 -22.270 -14.396  1.00  0.00     0.233 C 
BRANCH   2   3
ATOM      3  N   UNL     1     -24.842 -22.574 -15.736  1.00  0.00    -0.350 N 
ATOM      4  H   UNL     1     -24.078 -21.903 -15.980  1.00  0.00     0.345 HD
ATOM      5  H   UNL     1     -24.445 -23.542 -15.751  1.00  0.00     0.345 HD
ATOM      6  H   UNL     1     -25.602 -22.503 -16.451  1.00  0.00     0.345 HD
ENDBRANCH   2   3
BRANCH   2   7
ATOM      7  C   UNL     1     -26.497 -23.200 -14.058  1.00  0.00     0.099 C 
ATOM      8  O   UNL     1     -26.998 -23.935 -14.948  1.00  0.00    -0.544 OA
ATOM      9  O   UNL     1     -26.990 -23.262 -12.760  1.00  0.00    -0.544 OA
ENDBRANCH   2   7
ENDBRANCH   1   2
BRANCH   1  10
ATOM     10  C   UNL     1     -25.659 -20.251 -12.926  1.00  0.00     0.041 A 
ATOM     11  C   UNL     1     -24.711 -20.623 -11.998  1.00  0.00     0.134 A 
ATOM     12  N   UNL     1     -26.493 -19.368 -12.357  1.00  0.00    -0.348 N 
ATOM     13  N   UNL     1     -24.941 -19.962 -10.846  1.00  0.00    -0.245 NA
ATOM     14  C   UNL     1     -26.031 -19.209 -11.103  1.00  0.00     0.196 A 
ATOM     15  H   UNL     1     -27.328 -18.912 -12.786  1.00  0.00     0.167 HD
ENDBRANCH   1  10
TORSDOF 4
ENDMDL
MODEL 7
REMARK VINA RESULT:    -4.811      1.786      2.001
REMARK INTER + INTRA:          -5.954
REMARK INTER:                  -5.737
REMARK INTRA:                  -0.216
REMARK UNBOUND:                -0.159
REMARK SMILES [NH3+][C@@H](Cc1cnc[nH]1)C(=O)[O-]
REMARK SMILES IDX 3 1 2 2 1 3 9 7 10 8 11 9 4 10 5 11 8 12 6 13 7 14
REMARK H PARENT 1 4 1 5 1 6 8 15
REMARK Flexibility Score: inf
ROOT
ATOM      1  C   UNL     1     -23.148 -22.840 -13.145  1.00  0.00     0.127 C 
ENDROOT
BRANCH   1   2
ATOM      2  C   UNL     1     -24.302 -23.858 -13.236  1.00  0.00     0.233 C 
BRANCH   2   3
ATOM      3  N   UNL     1     -23.954 -25.092 -12.521  1.00  0.00    -0.350 N 
ATOM      4  H   UNL     1     -24.367 -25.916 -13.014  1.00  0.00     0.345 HD
ATOM      5  H   UNL     1     -22.914 -25.210 -12.503  1.00  0.00     0.345 HD
ATOM      6  H   UNL     1     -24.314 -25.065 -11.538  1.00  0.00     0.345 HD
ENDBRANCH   2   3
BRANCH   2   7
ATOM      7  C   UNL     1     -24.633 -24.169 -14.673  1.00  0.00     0.099 C 
ATOM      8  O   UNL     1     -24.919 -25.346 -15.015  1.00  0.00    -0.544 OA
ATOM      9  O   UNL     1     -24.641 -23.157 -15.626  1.00  0.00    -0.544 OA
ENDBRANCH   2   7
ENDBRANCH   1   2
BRANCH   1  10
ATOM     10  C   UNL     1     -23.660 -21.435 -13.021  1.00  0.00     0.041 A 
ATOM     11  C   UNL     1     -24.385 -20.918 -11.970  1.00  0.00     0.134 A 
ATOM     12  N   UNL     1     -23.552 -20.496 -13.972  1.00  0.00    -0.348 N 
ATOM     13  N   UNL     1     -24.723 -19.644 -12.254  1.00  0.00    -0.245 NA
ATOM     14  C   UNL     1     -24.199 -19.423 -13.478  1.00  0.00     0.196 A 
ATOM     15  H   UNL     1     -23.081 -20.579 -14.900  1.00  0.00     0.167 HD
ENDBRANCH   1  10
TORSDOF 4
ENDMDL
MODEL 8
REMARK VINA RESULT:    -4.754      3.254      4.968
REMARK INTER + INTRA:          -5.885
REMARK INTER:                  -5.708
REMARK INTRA:                  -0.177
REMARK UNBOUND:                -0.159
REMARK SMILES [NH3+][C@@H](Cc1cnc[nH]1)C(=O)[O-]
REMARK SMILES IDX 3 1 2 2 1 3 9 7 10 8 11 9 4 10 5 11 8 12 6 13 7 14
REMARK H PARENT 1 4 1 5 1 6 8 15
REMARK Flexibility Score: inf
ROOT
ATOM      1  C   UNL     1     -25.678 -20.239 -14.624  1.00  0.00     0.127 C 
ENDROOT
BRANCH   1   2
ATOM      2  C   UNL     1     -25.308 -19.527 -13.307  1.00  0.00     0.233 C 
BRANCH   2   3
ATOM      3  N   UNL     1     -26.488 -18.873 -12.729  1.00  0.00    -0.350 N 
ATOM      4  H   UNL     1     -26.941 -19.510 -12.035  1.00  0.00     0.345 HD
ATOM      5  H   UNL     1     -26.201 -17.999 -12.231  1.00  0.00     0.345 HD
ATOM      6  H   UNL     1     -27.181 -18.632 -13.476  1.00  0.00     0.345 HD
ENDBRANCH   2   3
BRANCH   2   7
ATOM      7  C   UNL     1     -24.214 -18.515 -13.532  1.00  0.00     0.099 C 
ATOM      8  O   UNL     1     -23.133 -18.863 -14.073  1.00  0.00    -0.544 OA
ATOM      9  O   UNL     1     -24.397 -17.189 -13.157  1.00  0.00    -0.544 OA
ENDBRANCH   2   7
ENDBRANCH   1   2
BRANCH   1  10
ATOM     10  C   UNL     1     -25.308 -21.692 -14.588  1.00  0.00     0.041 A 
ATOM     11  C   UNL     1     -25.032 -22.440 -13.465  1.00  0.00     0.134 A 
ATOM     12  N   UNL     1     -25.110 -22.457 -15.672  1.00  0.00    -0.348 N 
ATOM     13  N   UNL     1     -24.672 -23.683 -13.841  1.00  0.00    -0.245 NA
ATOM     14  C   UNL     1     -24.733 -23.656 -15.189  1.00  0.00     0.196 A 
ATOM     15  H   UNL     1     -25.214 -22.182 -16.674  1.00  0.00     0.167 HD
ENDBRANCH   1  10
TORSDOF 4
ENDMDL
MODEL 9
REMARK VINA RESULT:    -4.629      2.731      4.543
REMARK INTER + INTRA:          -5.735
REMARK INTER:                  -5.761
REMARK INTRA:                   0.025
REMARK UNBOUND:                -0.159
REMARK SMILES [NH3+][C@@H](Cc1cnc[nH]1)C(=O)[O-]
REMARK SMILES IDX 3 1 2 2 1 3 9 7 10 8 11 9 4 10 5 11 8 12 6 13 7 14
REMARK H PARENT 1 4 1 5 1 6 8 15
REMARK Flexibility Score: inf
ROOT
ATOM      1  C   UNL     1     -26.468 -22.588 -13.637  1.00  0.00     0.127 C 
ENDROOT
BRANCH   1   2
ATOM      2  C   UNL     1     -25.724 -21.316 -14.093  1.00  0.00     0.233 C 
BRANCH   2   3
ATOM      3  N   UNL     1     -25.112 -21.525 -15.410  1.00  0.00    -0.350 N 
ATOM      4  H   UNL     1     -24.711 -20.626 -15.761  1.00  0.00     0.345 HD
ATOM      5  H   UNL     1     -24.334 -22.222 -15.334  1.00  0.00     0.345 HD
ATOM      6  H   UNL     1     -25.820 -21.875 -16.097  1.00  0.00     0.345 HD
ENDBRANCH   2   3
BRANCH   2   7
ATOM      7  C   UNL     1     -24.671 -20.920 -13.090  1.00  0.00     0.099 C 
ATOM      8  O   UNL     1     -23.516 -20.605 -13.477  1.00  0.00    -0.544 OA
ATOM      9  O   UNL     1     -24.972 -20.886 -11.733  1.00  0.00    -0.544 OA
ENDBRANCH   2   7
ENDBRANCH   1   2
BRANCH   1  10
ATOM     10  C   UNL     1     -25.664 -23.825 -13.911  1.00  0.00     0.041 A 
ATOM     11  C   UNL     1     -24.624 -24.311 -13.151  1.00  0.00     0.134 A 
ATOM     12  N   UNL     1     -25.795 -24.596 -15.001  1.00  0.00    -0.348 N 
ATOM     13  N   UNL     1     -24.108 -25.400 -13.755  1.00  0.00    -0.245 NA
ATOM     14  C   UNL     1     -24.846 -25.542 -14.876  1.00  0.00     0.196 A 
ATOM     15  H   UNL     1     -26.477 -24.482 -15.784  1.00  0.00     0.167 HD
ENDBRANCH   1  10
TORSDOF 4
ENDMDL
