MODEL 1
REMARK VINA RESULT:    -3.868      0.000      0.000
REMARK INTER + INTRA:          -5.612
REMARK INTER:                  -5.225
REMARK INTRA:                  -0.388
REMARK UNBOUND:                -0.388
REMARK SMILES CCCCCCCC(=O)[O-]
REMARK SMILES IDX 5 1 6 2 7 3 8 4 9 5 10 6 4 7 3 8 2 9 1 10
REMARK H PARENT
REMARK Flexibility Score: inf
ROOT
ATOM      1  C   UNL     1     190.775   4.594  98.070  1.00  0.00     0.000 C 
ENDROOT
BRANCH   1   2
ATOM      2  C   UNL     1     190.074   3.529  97.213  1.00  0.00     0.006 C 
BRANCH   2   3
ATOM      3  C   UNL     1     190.000   3.917  95.730  1.00  0.00     0.053 C 
BRANCH   3   4
ATOM      4  C   UNL     1     191.358   3.857  95.107  1.00  0.00     0.041 C 
ATOM      5  O   UNL     1     192.094   2.850  95.284  1.00  0.00    -0.550 OA
ATOM      6  O   UNL     1     191.794   4.892  94.289  1.00  0.00    -0.550 OA
ENDBRANCH   3   4
ENDBRANCH   2   3
ENDBRANCH   1   2
BRANCH   1   7
ATOM      7  C   UNL     1     192.042   4.056  98.759  1.00  0.00     0.000 C 
BRANCH   7   8
ATOM      8  C   UNL     1     192.050   2.521  98.882  1.00  0.00    -0.000 C 
BRANCH   8   9
ATOM      9  C   UNL     1     192.654   1.977 100.189  1.00  0.00    -0.003 C 
ATOM     10  C   UNL     1     191.750   0.967 100.893  1.00  0.00     0.004 C 
ENDBRANCH   8   9
ENDBRANCH   7   8
ENDBRANCH   1   7
TORSDOF 6
ENDMDL
MODEL 2
REMARK VINA RESULT:    -3.810      1.935      3.059
REMARK INTER + INTRA:          -5.534
REMARK INTER:                  -4.995
REMARK INTRA:                  -0.539
REMARK UNBOUND:                -0.388
REMARK SMILES CCCCCCCC(=O)[O-]
REMARK SMILES IDX 5 1 6 2 7 3 8 4 9 5 10 6 4 7 3 8 2 9 1 10
REMARK H PARENT
REMARK Flexibility Score: inf
ROOT
ATOM      1  C   UNL     1     189.555   3.846  95.640  1.00  0.00     0.000 C 
ENDROOT
BRANCH   1   2
ATOM      2  C   UNL     1     190.635   4.227  94.615  1.00  0.00     0.006 C 
BRANCH   2   3
ATOM      3  C   UNL     1     192.008   3.632  94.953  1.00  0.00     0.053 C 
BRANCH   3   4
ATOM      4  C   UNL     1     192.006   2.154  94.729  1.00  0.00     0.041 C 
ATOM      5  O   UNL     1     191.568   1.677  93.648  1.00  0.00    -0.550 OA
ATOM      6  O   UNL     1     192.533   1.303  95.692  1.00  0.00    -0.550 OA
ENDBRANCH   3   4
ENDBRANCH   2   3
ENDBRANCH   1   2
BRANCH   1   7
ATOM      7  C   UNL     1     189.155   5.028  96.542  1.00  0.00     0.000 C 
BRANCH   7   8
ATOM      8  C   UNL     1     189.801   4.959  97.938  1.00  0.00    -0.000 C 
BRANCH   8   9
ATOM      9  C   UNL     1     190.486   3.621  98.272  1.00  0.00    -0.003 C 
ATOM     10  C   UNL     1     191.957   3.781  98.653  1.00  0.00     0.004 C 
ENDBRANCH   8   9
ENDBRANCH   7   8
ENDBRANCH   1   7
TORSDOF 6
ENDMDL
MODEL 3
REMARK VINA RESULT:    -3.805      0.571      1.144
REMARK INTER + INTRA:          -5.527
REMARK INTER:                  -5.213
REMARK INTRA:                  -0.315
REMARK UNBOUND:                -0.388
REMARK SMILES CCCCCCCC(=O)[O-]
REMARK SMILES IDX 5 1 6 2 7 3 8 4 9 5 10 6 4 7 3 8 2 9 1 10
REMARK H PARENT
REMARK Flexibility Score: inf
ROOT
ATOM      1  C   UNL     1     190.193   4.590  97.719  1.00  0.00     0.000 C 
ENDROOT
BRANCH   1   2
ATOM      2  C   UNL     1     189.655   3.526  96.749  1.00  0.00     0.006 C 
BRANCH   2   3
ATOM      3  C   UNL     1     189.790   3.942  95.278  1.00  0.00     0.053 C 
BRANCH   3   4
ATOM      4  C   UNL     1     191.201   3.766  94.815  1.00  0.00     0.041 C 
ATOM      5  O   UNL     1     191.889   4.768  94.482  1.00  0.00    -0.550 OA
ATOM      6  O   UNL     1     191.774   2.501  94.797  1.00  0.00    -0.550 OA
ENDBRANCH   3   4
ENDBRANCH   2   3
ENDBRANCH   1   2
BRANCH   1   7
ATOM      7  C   UNL     1     191.554   4.202  98.323  1.00  0.00     0.000 C 
BRANCH   7   8
ATOM      8  C   UNL     1     191.675   2.693  98.605  1.00  0.00    -0.000 C 
BRANCH   8   9
ATOM      9  C   UNL     1     192.620   2.322  99.762  1.00  0.00    -0.003 C 
ATOM     10  C   UNL     1     192.281   0.977 100.404  1.00  0.00     0.004 C 
ENDBRANCH   8   9
ENDBRANCH   7   8
ENDBRANCH   1   7
TORSDOF 6
ENDMDL
MODEL 4
REMARK VINA RESULT:    -3.785      2.241      2.625
REMARK INTER + INTRA:          -5.500
REMARK INTER:                  -5.234
REMARK INTRA:                  -0.266
REMARK UNBOUND:                -0.388
REMARK SMILES CCCCCCCC(=O)[O-]
REMARK SMILES IDX 5 1 6 2 7 3 8 4 9 5 10 6 4 7 3 8 2 9 1 10
REMARK H PARENT
REMARK Flexibility Score: inf
ROOT
ATOM      1  C   UNL     1     191.818   4.274  98.563  1.00  0.00     0.000 C 
ENDROOT
BRANCH   1   2
ATOM      2  C   UNL     1     190.773   3.405  97.844  1.00  0.00     0.006 C 
BRANCH   2   3
ATOM      3  C   UNL     1     189.333   3.854  98.128  1.00  0.00     0.053 C 
BRANCH   3   4
ATOM      4  C   UNL     1     188.430   3.448  97.008  1.00  0.00     0.041 C 
ATOM      5  O   UNL     1     187.339   2.868  97.251  1.00  0.00    -0.550 OA
ATOM      6  O   UNL     1     188.769   3.754  95.696  1.00  0.00    -0.550 OA
ENDBRANCH   3   4
ENDBRANCH   2   3
ENDBRANCH   1   2
BRANCH   1   7
ATOM      7  C   UNL     1     192.814   3.437  99.386  1.00  0.00     0.000 C 
BRANCH   7   8
ATOM      8  C   UNL     1     192.337   1.990  99.611  1.00  0.00    -0.000 C 
BRANCH   8   9
ATOM      9  C   UNL     1     192.824   1.341 100.919  1.00  0.00    -0.003 C 
ATOM     10  C   UNL     1     193.494   2.335 101.867  1.00  0.00     0.004 C 
ENDBRANCH   8   9
ENDBRANCH   7   8
ENDBRANCH   1   7
TORSDOF 6
ENDMDL
MODEL 5
REMARK VINA RESULT:    -3.784      1.983      2.616
REMARK INTER + INTRA:          -5.499
REMARK INTER:                  -5.222
REMARK INTRA:                  -0.278
REMARK UNBOUND:                -0.388
REMARK SMILES CCCCCCCC(=O)[O-]
REMARK SMILES IDX 5 1 6 2 7 3 8 4 9 5 10 6 4 7 3 8 2 9 1 10
REMARK H PARENT
REMARK Flexibility Score: inf
ROOT
ATOM      1  C   UNL     1     192.228   3.683  99.003  1.00  0.00     0.000 C 
ENDROOT
BRANCH   1   2
ATOM      2  C   UNL     1     191.251   4.224  97.946  1.00  0.00     0.006 C 
BRANCH   2   3
ATOM      3  C   UNL     1     189.822   3.697  98.136  1.00  0.00     0.053 C 
BRANCH   3   4
ATOM      4  C   UNL     1     189.179   3.445  96.809  1.00  0.00     0.041 C 
ATOM      5  O   UNL     1     189.888   3.302  95.778  1.00  0.00    -0.550 OA
ATOM      6  O   UNL     1     187.799   3.316  96.719  1.00  0.00    -0.550 OA
ENDBRANCH   3   4
ENDBRANCH   2   3
ENDBRANCH   1   2
BRANCH   1   7
ATOM      7  C   UNL     1     192.143   2.154  99.157  1.00  0.00     0.000 C 
BRANCH   7   8
ATOM      8  C   UNL     1     192.696   1.657 100.506  1.00  0.00    -0.000 C 
BRANCH   8   9
ATOM      9  C   UNL     1     193.422   2.725 101.344  1.00  0.00    -0.003 C 
ATOM     10  C   UNL     1     193.527   2.357 102.823  1.00  0.00     0.004 C 
ENDBRANCH   8   9
ENDBRANCH   7   8
ENDBRANCH   1   7
TORSDOF 6
ENDMDL
MODEL 6
REMARK VINA RESULT:    -3.565      2.187      3.589
REMARK INTER + INTRA:          -5.203
REMARK INTER:                  -4.676
REMARK INTRA:                  -0.527
REMARK UNBOUND:                -0.388
REMARK SMILES CCCCCCCC(=O)[O-]
REMARK SMILES IDX 5 1 6 2 7 3 8 4 9 5 10 6 4 7 3 8 2 9 1 10
REMARK H PARENT
REMARK Flexibility Score: inf
ROOT
ATOM      1  C   UNL     1     191.392   4.049  97.877  1.00  0.00     0.000 C 
ENDROOT
BRANCH   1   2
ATOM      2  C   UNL     1     191.584   3.194  96.614  1.00  0.00     0.006 C 
BRANCH   2   3
ATOM      3  C   UNL     1     191.631   4.035  95.331  1.00  0.00     0.053 C 
BRANCH   3   4
ATOM      4  C   UNL     1     191.033   3.277  94.189  1.00  0.00     0.041 C 
ATOM      5  O   UNL     1     190.253   3.851  93.385  1.00  0.00    -0.550 OA
ATOM      6  O   UNL     1     191.378   1.947  93.981  1.00  0.00    -0.550 OA
ENDBRANCH   3   4
ENDBRANCH   2   3
ENDBRANCH   1   2
BRANCH   1   7
ATOM      7  C   UNL     1     190.025   4.756  97.908  1.00  0.00     0.000 C 
BRANCH   7   8
ATOM      8  C   UNL     1     188.860   3.791  98.197  1.00  0.00    -0.000 C 
BRANCH   8   9
ATOM      9  C   UNL     1     187.979   3.453  96.980  1.00  0.00    -0.003 C 
ATOM     10  C   UNL     1     187.873   4.603  95.980  1.00  0.00     0.004 C 
ENDBRANCH   8   9
ENDBRANCH   7   8
ENDBRANCH   1   7
TORSDOF 6
ENDMDL
MODEL 7
REMARK VINA RESULT:    -3.559      3.543      4.665
REMARK INTER + INTRA:          -5.195
REMARK INTER:                  -4.735
REMARK INTRA:                  -0.460
REMARK UNBOUND:                -0.388
REMARK SMILES CCCCCCCC(=O)[O-]
REMARK SMILES IDX 5 1 6 2 7 3 8 4 9 5 10 6 4 7 3 8 2 9 1 10
REMARK H PARENT
REMARK Flexibility Score: inf
ROOT
ATOM      1  C   UNL     1     190.050   3.995  98.248  1.00  0.00     0.000 C 
ENDROOT
BRANCH   1   2
ATOM      2  C   UNL     1     189.588   5.416  97.888  1.00  0.00     0.006 C 
BRANCH   2   3
ATOM      3  C   UNL     1     188.479   5.427  96.826  1.00  0.00     0.053 C 
BRANCH   3   4
ATOM      4  C   UNL     1     187.185   5.874  97.428  1.00  0.00     0.041 C 
ATOM      5  O   UNL     1     187.132   6.211  98.641  1.00  0.00    -0.550 OA
ATOM      6  O   UNL     1     186.047   5.969  96.637  1.00  0.00    -0.550 OA
ENDBRANCH   3   4
ENDBRANCH   2   3
ENDBRANCH   1   2
BRANCH   1   7
ATOM      7  C   UNL     1     191.470   3.690  97.738  1.00  0.00     0.000 C 
BRANCH   7   8
ATOM      8  C   UNL     1     191.477   3.036  96.343  1.00  0.00    -0.000 C 
BRANCH   8   9
ATOM      9  C   UNL     1     192.229   3.828  95.258  1.00  0.00    -0.003 C 
ATOM     10  C   UNL     1     191.299   4.633  94.351  1.00  0.00     0.004 C 
ENDBRANCH   8   9
ENDBRANCH   7   8
ENDBRANCH   1   7
TORSDOF 6
ENDMDL
MODEL 8
REMARK VINA RESULT:    -3.547      4.266      6.213
REMARK INTER + INTRA:          -5.178
REMARK INTER:                  -4.894
REMARK INTRA:                  -0.285
REMARK UNBOUND:                -0.388
REMARK SMILES CCCCCCCC(=O)[O-]
REMARK SMILES IDX 5 1 6 2 7 3 8 4 9 5 10 6 4 7 3 8 2 9 1 10
REMARK H PARENT
REMARK Flexibility Score: inf
ROOT
ATOM      1  C   UNL     1     192.390   1.870  99.550  1.00  0.00     0.000 C 
ENDROOT
BRANCH   1   2
ATOM      2  C   UNL     1     192.581   1.095 100.864  1.00  0.00     0.006 C 
BRANCH   2   3
ATOM      3  C   UNL     1     193.373   1.890 101.911  1.00  0.00     0.053 C 
BRANCH   3   4
ATOM      4  C   UNL     1     192.729   1.767 103.255  1.00  0.00     0.041 C 
ATOM      5  O   UNL     1     191.995   0.778 103.519  1.00  0.00    -0.550 OA
ATOM      6  O   UNL     1     192.979   2.719 104.236  1.00  0.00    -0.550 OA
ENDBRANCH   3   4
ENDBRANCH   2   3
ENDBRANCH   1   2
BRANCH   1   7
ATOM      7  C   UNL     1     192.797   3.349  99.674  1.00  0.00     0.000 C 
BRANCH   7   8
ATOM      8  C   UNL     1     192.099   4.250  98.638  1.00  0.00    -0.000 C 
BRANCH   8   9
ATOM      9  C   UNL     1     190.913   3.598  97.905  1.00  0.00    -0.003 C 
ATOM     10  C   UNL     1     190.971   3.783  96.389  1.00  0.00     0.004 C 
ENDBRANCH   8   9
ENDBRANCH   7   8
ENDBRANCH   1   7
TORSDOF 6
ENDMDL
MODEL 9
REMARK VINA RESULT:    -3.531      3.346      5.167
REMARK INTER + INTRA:          -5.158
REMARK INTER:                  -4.788
REMARK INTRA:                  -0.370
REMARK UNBOUND:                -0.388
REMARK SMILES CCCCCCCC(=O)[O-]
REMARK SMILES IDX 5 1 6 2 7 3 8 4 9 5 10 6 4 7 3 8 2 9 1 10
REMARK H PARENT
REMARK Flexibility Score: inf
ROOT
ATOM      1  C   UNL     1     191.899   4.317  98.657  1.00  0.00     0.000 C 
ENDROOT
BRANCH   1   2
ATOM      2  C   UNL     1     192.779   3.356  99.472  1.00  0.00     0.006 C 
BRANCH   2   3
ATOM      3  C   UNL     1     192.316   1.897  99.369  1.00  0.00     0.053 C 
BRANCH   3   4
ATOM      4  C   UNL     1     192.405   1.226 100.702  1.00  0.00     0.041 C 
ATOM      5  O   UNL     1     193.522   0.861 101.156  1.00  0.00    -0.550 OA
ATOM      6  O   UNL     1     191.260   1.047 101.469  1.00  0.00    -0.550 OA
ENDBRANCH   3   4
ENDBRANCH   2   3
ENDBRANCH   1   2
BRANCH   1   7
ATOM      7  C   UNL     1     190.562   3.680  98.238  1.00  0.00     0.000 C 
BRANCH   7   8
ATOM      8  C   UNL     1     190.147   4.051  96.802  1.00  0.00    -0.000 C 
BRANCH   8   9
ATOM      9  C   UNL     1     190.915   3.311  95.692  1.00  0.00    -0.003 C 
ATOM     10  C   UNL     1     191.912   4.205  94.956  1.00  0.00     0.004 C 
ENDBRANCH   8   9
ENDBRANCH   7   8
ENDBRANCH   1   7
TORSDOF 6
ENDMDL
