MODEL 1
REMARK VINA RESULT:    -4.159      0.000      0.000
REMARK INTER + INTRA:          -6.016
REMARK INTER:                  -5.374
REMARK INTRA:                  -0.642
REMARK UNBOUND:                -0.642
REMARK SMILES CO[C@]1(CO)O[C@H](CO)[C@@H](O)[C@H]1O
REMARK SMILES IDX 3 1 12 2 10 3 7 4 6 5 2 6 1 7 4 8 5 9 13 11 11 13 8 15 9 16
REMARK H PARENT 5 10 13 12 11 14 9 17
REMARK Flexibility Score: inf
ROOT
ATOM      1  C   UNL     1     -16.420  -7.814 -21.680  1.00  0.00     0.221 C 
ATOM      2  C   UNL     1     -17.757  -8.573 -21.717  1.00  0.00     0.207 C 
ATOM      3  C   UNL     1     -17.878  -8.878 -23.191  1.00  0.00     0.180 C 
ATOM      4  C   UNL     1     -16.416  -9.046 -23.610  1.00  0.00     0.179 C 
ATOM      5  O   UNL     1     -15.587  -8.417 -22.653  1.00  0.00    -0.337 OA
ENDROOT
BRANCH   1   6
ATOM      6  O   UNL     1     -16.714  -6.461 -22.031  1.00  0.00    -0.349 OA
ATOM      7  C   UNL     1     -15.568  -5.644 -22.170  1.00  0.00     0.198 C 
ENDBRANCH   1   6
BRANCH   1   8
ATOM      8  C   UNL     1     -15.759  -7.896 -20.277  1.00  0.00     0.224 C 
BRANCH   8   9
ATOM      9  O   UNL     1     -14.753  -8.872 -20.257  1.00  0.00    -0.391 OA
ATOM     10  H   UNL     1     -15.210  -9.744 -20.388  1.00  0.00     0.210 HD
ENDBRANCH   8   9
ENDBRANCH   1   8
BRANCH   2  11
ATOM     11  O   UNL     1     -17.696  -9.771 -20.978  1.00  0.00    -0.385 OA
ATOM     12  H   UNL     1     -16.979  -9.654 -20.301  1.00  0.00     0.211 HD
ENDBRANCH   2  11
BRANCH   3  13
ATOM     13  O   UNL     1     -18.614 -10.048 -23.439  1.00  0.00    -0.387 OA
ATOM     14  H   UNL     1     -19.226  -9.841 -24.192  1.00  0.00     0.211 HD
ENDBRANCH   3  13
BRANCH   4  15
ATOM     15  C   UNL     1     -16.134  -8.462 -25.001  1.00  0.00     0.191 C 
BRANCH  15  16
ATOM     16  O   UNL     1     -16.680  -7.176 -25.122  1.00  0.00    -0.394 OA
ATOM     17  H   UNL     1     -17.598  -7.220 -24.744  1.00  0.00     0.210 HD
ENDBRANCH  15  16
ENDBRANCH   4  15
TORSDOF 7
ENDMDL
MODEL 2
REMARK VINA RESULT:    -3.453      1.120      3.636
REMARK INTER + INTRA:          -5.104
REMARK INTER:                  -4.825
REMARK INTRA:                  -0.279
REMARK UNBOUND:                -0.642
REMARK SMILES CO[C@]1(CO)O[C@H](CO)[C@@H](O)[C@H]1O
REMARK SMILES IDX 3 1 12 2 10 3 7 4 6 5 2 6 1 7 4 8 5 9 13 11 11 13 8 15 9 16
REMARK H PARENT 5 10 13 12 11 14 9 17
REMARK Flexibility Score: inf
ROOT
ATOM      1  C   UNL     1     -16.551  -8.243 -23.533  1.00  0.00     0.221 C 
ATOM      2  C   UNL     1     -17.220  -9.566 -23.129  1.00  0.00     0.207 C 
ATOM      3  C   UNL     1     -17.089  -9.513 -21.626  1.00  0.00     0.180 C 
ATOM      4  C   UNL     1     -17.182  -8.012 -21.344  1.00  0.00     0.179 C 
ATOM      5  O   UNL     1     -16.880  -7.301 -22.528  1.00  0.00    -0.337 OA
ENDROOT
BRANCH   1   6
ATOM      6  O   UNL     1     -15.144  -8.492 -23.553  1.00  0.00    -0.349 OA
ATOM      7  C   UNL     1     -14.780  -9.661 -24.262  1.00  0.00     0.198 C 
ENDBRANCH   1   6
BRANCH   1   8
ATOM      8  C   UNL     1     -17.051  -7.751 -24.919  1.00  0.00     0.224 C 
BRANCH   8   9
ATOM      9  O   UNL     1     -16.707  -6.409 -25.125  1.00  0.00    -0.391 OA
ATOM     10  H   UNL     1     -17.351  -5.872 -24.593  1.00  0.00     0.210 HD
ENDBRANCH   8   9
ENDBRANCH   1   8
BRANCH   2  11
ATOM     11  O   UNL     1     -18.580  -9.595 -23.496  1.00  0.00    -0.385 OA
ATOM     12  H   UNL     1     -19.068  -9.038 -22.835  1.00  0.00     0.211 HD
ENDBRANCH   2  11
BRANCH   3  13
ATOM     13  O   UNL     1     -18.115 -10.215 -20.972  1.00  0.00    -0.387 OA
ATOM     14  H   UNL     1     -17.743 -10.508 -20.099  1.00  0.00     0.211 HD
ENDBRANCH   3  13
BRANCH   4  15
ATOM     15  C   UNL     1     -16.237  -7.567 -20.220  1.00  0.00     0.191 C 
BRANCH  15  16
ATOM     16  O   UNL     1     -15.046  -8.307 -20.248  1.00  0.00    -0.394 OA
ATOM     17  H   UNL     1     -15.011  -8.756 -21.133  1.00  0.00     0.210 HD
ENDBRANCH  15  16
ENDBRANCH   4  15
TORSDOF 7
ENDMDL
MODEL 3
REMARK VINA RESULT:    -3.443     14.901     16.475
REMARK INTER + INTRA:          -5.091
REMARK INTER:                  -4.534
REMARK INTRA:                  -0.557
REMARK UNBOUND:                -0.642
REMARK SMILES CO[C@]1(CO)O[C@H](CO)[C@@H](O)[C@H]1O
REMARK SMILES IDX 3 1 12 2 10 3 7 4 6 5 2 6 1 7 4 8 5 9 13 11 11 13 8 15 9 16
REMARK H PARENT 5 10 13 12 11 14 9 17
REMARK Flexibility Score: inf
ROOT
ATOM      1  C   UNL     1     -16.405  -8.211  -5.847  1.00  0.00     0.221 C 
ATOM      2  C   UNL     1     -16.289  -7.509  -7.210  1.00  0.00     0.207 C 
ATOM      3  C   UNL     1     -14.830  -7.118  -7.215  1.00  0.00     0.180 C 
ATOM      4  C   UNL     1     -14.187  -8.254  -6.417  1.00  0.00     0.179 C 
ATOM      5  O   UNL     1     -15.180  -8.892  -5.640  1.00  0.00    -0.337 OA
ENDROOT
BRANCH   1   6
ATOM      6  O   UNL     1     -16.581  -7.178  -4.875  1.00  0.00    -0.349 OA
ATOM      7  C   UNL     1     -17.725  -6.376  -5.095  1.00  0.00     0.198 C 
ENDBRANCH   1   6
BRANCH   1   8
ATOM      8  C   UNL     1     -17.591  -9.211  -5.821  1.00  0.00     0.224 C 
BRANCH   8   9
ATOM      9  O   UNL     1     -17.207 -10.453  -6.345  1.00  0.00    -0.391 OA
ATOM     10  H   UNL     1     -16.744 -10.262  -7.202  1.00  0.00     0.210 HD
ENDBRANCH   8   9
ENDBRANCH   1   8
BRANCH   2  11
ATOM     11  O   UNL     1     -16.557  -8.392  -8.275  1.00  0.00    -0.385 OA
ATOM     12  H   UNL     1     -15.995  -8.099  -9.039  1.00  0.00     0.211 HD
ENDBRANCH   2  11
BRANCH   3  13
ATOM     13  O   UNL     1     -14.298  -7.046  -8.512  1.00  0.00    -0.387 OA
ATOM     14  H   UNL     1     -14.816  -6.348  -8.991  1.00  0.00     0.211 HD
ENDBRANCH   3  13
BRANCH   4  15
ATOM     15  C   UNL     1     -13.056  -7.761  -5.504  1.00  0.00     0.191 C 
BRANCH  15  16
ATOM     16  O   UNL     1     -12.807  -6.396  -5.710  1.00  0.00    -0.394 OA
ATOM     17  H   UNL     1     -12.848  -6.245  -6.691  1.00  0.00     0.210 HD
ENDBRANCH  15  16
ENDBRANCH   4  15
TORSDOF 7
ENDMDL
MODEL 4
REMARK VINA RESULT:    -3.149     18.149     20.078
REMARK INTER + INTRA:          -4.712
REMARK INTER:                  -4.276
REMARK INTRA:                  -0.436
REMARK UNBOUND:                -0.642
REMARK SMILES CO[C@]1(CO)O[C@H](CO)[C@@H](O)[C@H]1O
REMARK SMILES IDX 3 1 12 2 10 3 7 4 6 5 2 6 1 7 4 8 5 9 13 11 11 13 8 15 9 16
REMARK H PARENT 5 10 13 12 11 14 9 17
REMARK Flexibility Score: inf
ROOT
ATOM      1  C   UNL     1      -4.811  -8.563  -6.156  1.00  0.00     0.221 C 
ATOM      2  C   UNL     1      -3.613  -9.382  -5.648  1.00  0.00     0.207 C 
ATOM      3  C   UNL     1      -3.435 -10.370  -6.775  1.00  0.00     0.180 C 
ATOM      4  C   UNL     1      -3.872  -9.556  -7.994  1.00  0.00     0.179 C 
ATOM      5  O   UNL     1      -4.667  -8.469  -7.562  1.00  0.00    -0.337 OA
ENDROOT
BRANCH   1   6
ATOM      6  O   UNL     1      -5.982  -9.306  -5.814  1.00  0.00    -0.349 OA
ATOM      7  C   UNL     1      -7.172  -8.788  -6.377  1.00  0.00     0.198 C 
ENDBRANCH   1   6
BRANCH   1   8
ATOM      8  C   UNL     1      -4.843  -7.146  -5.521  1.00  0.00     0.224 C 
BRANCH   8   9
ATOM      9  O   UNL     1      -4.165  -6.223  -6.329  1.00  0.00    -0.391 OA
ATOM     10  H   UNL     1      -4.749  -6.062  -7.116  1.00  0.00     0.210 HD
ENDBRANCH   8   9
ENDBRANCH   1   8
BRANCH   2  11
ATOM     11  O   UNL     1      -2.458  -8.586  -5.514  1.00  0.00    -0.385 OA
ATOM     12  H   UNL     1      -2.715  -7.662  -5.770  1.00  0.00     0.211 HD
ENDBRANCH   2  11
BRANCH   3  13
ATOM     13  O   UNL     1      -2.106 -10.803  -6.906  1.00  0.00    -0.387 OA
ATOM     14  H   UNL     1      -1.792 -10.485  -7.792  1.00  0.00     0.211 HD
ENDBRANCH   3  13
BRANCH   4  15
ATOM     15  C   UNL     1      -4.657 -10.396  -9.010  1.00  0.00     0.191 C 
BRANCH  15  16
ATOM     16  O   UNL     1      -3.887 -10.639 -10.157  1.00  0.00    -0.394 OA
ATOM     17  H   UNL     1      -4.514 -10.965 -10.856  1.00  0.00     0.210 HD
ENDBRANCH  15  16
ENDBRANCH   4  15
TORSDOF 7
ENDMDL
MODEL 5
REMARK VINA RESULT:    -3.105     18.176     19.297
REMARK INTER + INTRA:          -4.654
REMARK INTER:                  -4.249
REMARK INTRA:                  -0.406
REMARK UNBOUND:                -0.642
REMARK SMILES CO[C@]1(CO)O[C@H](CO)[C@@H](O)[C@H]1O
REMARK SMILES IDX 3 1 12 2 10 3 7 4 6 5 2 6 1 7 4 8 5 9 13 11 11 13 8 15 9 16
REMARK H PARENT 5 10 13 12 11 14 9 17
REMARK Flexibility Score: inf
ROOT
ATOM      1  C   UNL     1      -5.675 -10.306  -6.579  1.00  0.00     0.221 C 
ATOM      2  C   UNL     1      -5.477  -8.784  -6.684  1.00  0.00     0.207 C 
ATOM      3  C   UNL     1      -4.543  -8.692  -7.866  1.00  0.00     0.180 C 
ATOM      4  C   UNL     1      -4.979  -9.884  -8.720  1.00  0.00     0.179 C 
ATOM      5  O   UNL     1      -5.678 -10.803  -7.905  1.00  0.00    -0.337 OA
ENDROOT
BRANCH   1   6
ATOM      6  O   UNL     1      -4.553 -10.809  -5.851  1.00  0.00    -0.349 OA
ATOM      7  C   UNL     1      -4.053  -9.912  -4.878  1.00  0.00     0.198 C 
ENDBRANCH   1   6
BRANCH   1   8
ATOM      8  C   UNL     1      -7.008 -10.659  -5.865  1.00  0.00     0.224 C 
BRANCH   8   9
ATOM      9  O   UNL     1      -8.062 -10.730  -6.786  1.00  0.00    -0.391 OA
ATOM     10  H   UNL     1      -8.887 -10.507  -6.281  1.00  0.00     0.210 HD
ENDBRANCH   8   9
ENDBRANCH   1   8
BRANCH   2  11
ATOM     11  O   UNL     1      -6.687  -8.121  -6.969  1.00  0.00    -0.385 OA
ATOM     12  H   UNL     1      -6.645  -7.844  -7.922  1.00  0.00     0.211 HD
ENDBRANCH   2  11
BRANCH   3  13
ATOM     13  O   UNL     1      -4.686  -7.486  -8.571  1.00  0.00    -0.387 OA
ATOM     14  H   UNL     1      -5.270  -6.905  -8.019  1.00  0.00     0.211 HD
ENDBRANCH   3  13
BRANCH   4  15
ATOM     15  C   UNL     1      -3.793 -10.589  -9.392  1.00  0.00     0.191 C 
BRANCH  15  16
ATOM     16  O   UNL     1      -2.801 -10.902  -8.451  1.00  0.00    -0.394 OA
ATOM     17  H   UNL     1      -2.330 -11.707  -8.793  1.00  0.00     0.210 HD
ENDBRANCH  15  16
ENDBRANCH   4  15
TORSDOF 7
ENDMDL
MODEL 6
REMARK VINA RESULT:    -3.059     15.085     16.914
REMARK INTER + INTRA:          -4.596
REMARK INTER:                  -4.376
REMARK INTRA:                  -0.219
REMARK UNBOUND:                -0.642
REMARK SMILES CO[C@]1(CO)O[C@H](CO)[C@@H](O)[C@H]1O
REMARK SMILES IDX 3 1 12 2 10 3 7 4 6 5 2 6 1 7 4 8 5 9 13 11 11 13 8 15 9 16
REMARK H PARENT 5 10 13 12 11 14 9 17
REMARK Flexibility Score: inf
ROOT
ATOM      1  C   UNL     1     -14.922  -7.602  -6.050  1.00  0.00     0.221 C 
ATOM      2  C   UNL     1     -14.901  -9.064  -5.574  1.00  0.00     0.207 C 
ATOM      3  C   UNL     1     -16.248  -9.172  -4.900  1.00  0.00     0.180 C 
ATOM      4  C   UNL     1     -17.106  -8.217  -5.732  1.00  0.00     0.179 C 
ATOM      5  O   UNL     1     -16.259  -7.320  -6.423  1.00  0.00    -0.337 OA
ENDROOT
BRANCH   1   6
ATOM      6  O   UNL     1     -14.530  -6.808  -4.929  1.00  0.00    -0.349 OA
ATOM      7  C   UNL     1     -13.142  -6.541  -4.875  1.00  0.00     0.198 C 
ENDBRANCH   1   6
BRANCH   1   8
ATOM      8  C   UNL     1     -13.967  -7.381  -7.253  1.00  0.00     0.224 C 
BRANCH   8   9
ATOM      9  O   UNL     1     -14.687  -7.022  -8.401  1.00  0.00    -0.391 OA
ATOM     10  H   UNL     1     -15.505  -7.585  -8.403  1.00  0.00     0.210 HD
ENDBRANCH   8   9
ENDBRANCH   1   8
BRANCH   2  11
ATOM     11  O   UNL     1     -14.828  -9.963  -6.656  1.00  0.00    -0.385 OA
ATOM     12  H   UNL     1     -14.401 -10.791  -6.314  1.00  0.00     0.211 HD
ENDBRANCH   2  11
BRANCH   3  13
ATOM     13  O   UNL     1     -16.764 -10.478  -4.936  1.00  0.00    -0.387 OA
ATOM     14  H   UNL     1     -16.224 -11.011  -4.296  1.00  0.00     0.211 HD
ENDBRANCH   3  13
BRANCH   4  15
ATOM     15  C   UNL     1     -18.104  -7.428  -4.875  1.00  0.00     0.191 C 
BRANCH  15  16
ATOM     16  O   UNL     1     -18.382  -6.181  -5.454  1.00  0.00    -0.394 OA
ATOM     17  H   UNL     1     -17.567  -5.911  -5.952  1.00  0.00     0.210 HD
ENDBRANCH  15  16
ENDBRANCH   4  15
TORSDOF 7
ENDMDL
MODEL 7
REMARK VINA RESULT:    -2.982     14.362     16.640
REMARK INTER + INTRA:          -4.496
REMARK INTER:                  -4.021
REMARK INTRA:                  -0.475
REMARK UNBOUND:                -0.642
REMARK SMILES CO[C@]1(CO)O[C@H](CO)[C@@H](O)[C@H]1O
REMARK SMILES IDX 3 1 12 2 10 3 7 4 6 5 2 6 1 7 4 8 5 9 13 11 11 13 8 15 9 16
REMARK H PARENT 5 10 13 12 11 14 9 17
REMARK Flexibility Score: inf
ROOT
ATOM      1  C   UNL     1     -15.556  -7.733  -6.582  1.00  0.00     0.221 C 
ATOM      2  C   UNL     1     -14.047  -7.438  -6.565  1.00  0.00     0.207 C 
ATOM      3  C   UNL     1     -13.534  -8.587  -5.730  1.00  0.00     0.180 C 
ATOM      4  C   UNL     1     -14.510  -9.709  -6.086  1.00  0.00     0.179 C 
ATOM      5  O   UNL     1     -15.690  -9.143  -6.620  1.00  0.00    -0.337 OA
ENDROOT
BRANCH   1   6
ATOM      6  O   UNL     1     -16.084  -7.206  -5.363  1.00  0.00    -0.349 OA
ATOM      7  C   UNL     1     -17.492  -7.303  -5.261  1.00  0.00     0.198 C 
ENDBRANCH   1   6
BRANCH   1   8
ATOM      8  C   UNL     1     -16.248  -7.091  -7.814  1.00  0.00     0.224 C 
BRANCH   8   9
ATOM      9  O   UNL     1     -16.255  -7.977  -8.900  1.00  0.00    -0.391 OA
ATOM     10  H   UNL     1     -16.343  -7.417  -9.715  1.00  0.00     0.210 HD
ENDBRANCH   8   9
ENDBRANCH   1   8
BRANCH   2  11
ATOM     11  O   UNL     1     -13.492  -7.493  -7.858  1.00  0.00    -0.385 OA
ATOM     12  H   UNL     1     -13.650  -6.606  -8.276  1.00  0.00     0.211 HD
ENDBRANCH   2  11
BRANCH   3  13
ATOM     13  O   UNL     1     -12.215  -8.940  -6.056  1.00  0.00    -0.387 OA
ATOM     14  H   UNL     1     -12.183  -9.028  -7.044  1.00  0.00     0.211 HD
ENDBRANCH   3  13
BRANCH   4  15
ATOM     15  C   UNL     1     -14.861 -10.587  -4.877  1.00  0.00     0.191 C 
BRANCH  15  16
ATOM     16  O   UNL     1     -16.219 -10.934  -4.890  1.00  0.00    -0.394 OA
ATOM     17  H   UNL     1     -16.381 -11.413  -5.745  1.00  0.00     0.210 HD
ENDBRANCH  15  16
ENDBRANCH   4  15
TORSDOF 7
ENDMDL
MODEL 8
REMARK VINA RESULT:    -2.952     18.619     19.787
REMARK INTER + INTRA:          -4.457
REMARK INTER:                  -3.938
REMARK INTRA:                  -0.519
REMARK UNBOUND:                -0.642
REMARK SMILES CO[C@]1(CO)O[C@H](CO)[C@@H](O)[C@H]1O
REMARK SMILES IDX 3 1 12 2 10 3 7 4 6 5 2 6 1 7 4 8 5 9 13 11 11 13 8 15 9 16
REMARK H PARENT 5 10 13 12 11 14 9 17
REMARK Flexibility Score: inf
ROOT
ATOM      1  C   UNL     1      -3.966 -10.297  -7.356  1.00  0.00     0.221 C 
ATOM      2  C   UNL     1      -5.445 -10.663  -7.150  1.00  0.00     0.207 C 
ATOM      3  C   UNL     1      -5.941  -9.457  -6.388  1.00  0.00     0.180 C 
ATOM      4  C   UNL     1      -5.074  -8.333  -6.957  1.00  0.00     0.179 C 
ATOM      5  O   UNL     1      -3.922  -8.895  -7.552  1.00  0.00    -0.337 OA
ENDROOT
BRANCH   1   6
ATOM      6  O   UNL     1      -3.288 -10.662  -6.152  1.00  0.00    -0.349 OA
ATOM      7  C   UNL     1      -2.005 -10.083  -6.019  1.00  0.00     0.198 C 
ENDBRANCH   1   6
BRANCH   1   8
ATOM      8  C   UNL     1      -3.362 -11.033  -8.582  1.00  0.00     0.224 C 
BRANCH   8   9
ATOM      9  O   UNL     1      -3.702 -10.378  -9.773  1.00  0.00    -0.391 OA
ATOM     10  H   UNL     1      -4.186  -9.552  -9.508  1.00  0.00     0.210 HD
ENDBRANCH   8   9
ENDBRANCH   1   8
BRANCH   2  11
ATOM     11  O   UNL     1      -6.129 -10.775  -8.377  1.00  0.00    -0.385 OA
ATOM     12  H   UNL     1      -7.077 -10.973  -8.160  1.00  0.00     0.211 HD
ENDBRANCH   2  11
BRANCH   3  13
ATOM     13  O   UNL     1      -7.305  -9.207  -6.607  1.00  0.00    -0.387 OA
ATOM     14  H   UNL     1      -7.356  -8.591  -7.384  1.00  0.00     0.211 HD
ENDBRANCH   3  13
BRANCH   4  15
ATOM     15  C   UNL     1      -4.659  -7.314  -5.888  1.00  0.00     0.191 C 
BRANCH  15  16
ATOM     16  O   UNL     1      -5.762  -6.562  -5.460  1.00  0.00    -0.394 OA
ATOM     17  H   UNL     1      -6.371  -6.482  -6.240  1.00  0.00     0.210 HD
ENDBRANCH  15  16
ENDBRANCH   4  15
TORSDOF 7
ENDMDL
MODEL 9
REMARK VINA RESULT:    -2.940     15.118     16.936
REMARK INTER + INTRA:          -4.441
REMARK INTER:                  -4.046
REMARK INTRA:                  -0.395
REMARK UNBOUND:                -0.642
REMARK SMILES CO[C@]1(CO)O[C@H](CO)[C@@H](O)[C@H]1O
REMARK SMILES IDX 3 1 12 2 10 3 7 4 6 5 2 6 1 7 4 8 5 9 13 11 11 13 8 15 9 16
REMARK H PARENT 5 10 13 12 11 14 9 17
REMARK Flexibility Score: inf
ROOT
ATOM      1  C   UNL     1     -14.504  -8.058  -5.432  1.00  0.00     0.221 C 
ATOM      2  C   UNL     1     -14.773  -8.166  -6.942  1.00  0.00     0.207 C 
ATOM      3  C   UNL     1     -16.268  -7.962  -6.988  1.00  0.00     0.180 C 
ATOM      4  C   UNL     1     -16.503  -7.008  -5.815  1.00  0.00     0.179 C 
ATOM      5  O   UNL     1     -15.401  -7.083  -4.932  1.00  0.00    -0.337 OA
ENDROOT
BRANCH   1   6
ATOM      6  O   UNL     1     -14.790  -9.344  -4.879  1.00  0.00    -0.349 OA
ATOM      7  C   UNL     1     -13.907 -10.361  -5.308  1.00  0.00     0.198 C 
ENDBRANCH   1   6
BRANCH   1   8
ATOM      8  C   UNL     1     -13.036  -7.640  -5.144  1.00  0.00     0.224 C 
BRANCH   8   9
ATOM      9  O   UNL     1     -12.876  -6.255  -5.286  1.00  0.00    -0.391 OA
ATOM     10  H   UNL     1     -13.792  -5.873  -5.328  1.00  0.00     0.210 HD
ENDBRANCH   8   9
ENDBRANCH   1   8
BRANCH   2  11
ATOM     11  O   UNL     1     -14.122  -7.144  -7.661  1.00  0.00    -0.385 OA
ATOM     12  H   UNL     1     -13.647  -6.582  -6.995  1.00  0.00     0.211 HD
ENDBRANCH   2  11
BRANCH   3  13
ATOM     13  O   UNL     1     -16.696  -7.392  -8.198  1.00  0.00    -0.387 OA
ATOM     14  H   UNL     1     -15.986  -6.757  -8.477  1.00  0.00     0.211 HD
ENDBRANCH   3  13
BRANCH   4  15
ATOM     15  C   UNL     1     -17.797  -7.321  -5.054  1.00  0.00     0.191 C 
BRANCH  15  16
ATOM     16  O   UNL     1     -18.719  -6.273  -5.184  1.00  0.00    -0.394 OA
ATOM     17  H   UNL     1     -19.249  -6.255  -4.344  1.00  0.00     0.210 HD
ENDBRANCH  15  16
ENDBRANCH   4  15
TORSDOF 7
ENDMDL
