MODEL 1
REMARK VINA RESULT:    -3.421      0.000      0.000
REMARK INTER + INTRA:          -3.421
REMARK INTER:                  -3.421
REMARK INTRA:                   0.000
REMARK UNBOUND:                 0.000
REMARK SMILES CC1(C)C(=O)[C@]2(C)CC[C@H]1C2
REMARK SMILES IDX 1 1 2 2 10 3 9 4 8 5 6 6 11 7 4 8 5 9 7 10 3 11
REMARK H PARENT
REMARK Flexibility Score: inf
ROOT
ATOM      1  C   UNL     1     112.194 109.450 106.290  1.00  0.00     0.020 C 
ATOM      2  C   UNL     1     111.923 110.400 105.105  1.00  0.00     0.027 C 
ATOM      3  C   UNL     1     112.183 111.900 105.494  1.00  0.00     0.003 C 
ATOM      4  C   UNL     1     112.086 112.825 104.253  1.00  0.00     0.005 C 
ATOM      5  C   UNL     1     110.583 112.769 103.893  1.00  0.00     0.015 C 
ATOM      6  C   UNL     1     109.998 111.906 105.027  1.00  0.00     0.027 C 
ATOM      7  C   UNL     1     110.883 112.293 106.194  1.00  0.00     0.019 C 
ATOM      8  C   UNL     1     110.455 110.491 104.806  1.00  0.00     0.144 C 
ATOM      9  O   UNL     1     109.763 109.579 104.378  1.00  0.00    -0.298 OA
ATOM     10  C   UNL     1     108.498 112.079 105.275  1.00  0.00     0.020 C 
ATOM     11  C   UNL     1     112.723 109.916 103.875  1.00  0.00     0.020 C 
ENDROOT
TORSDOF 0
ENDMDL
MODEL 2
REMARK VINA RESULT:    -3.415      2.680      4.656
REMARK INTER + INTRA:          -3.415
REMARK INTER:                  -3.415
REMARK INTRA:                   0.000
REMARK UNBOUND:                 0.000
REMARK SMILES CC1(C)C(=O)[C@]2(C)CC[C@H]1C2
REMARK SMILES IDX 1 1 2 2 10 3 9 4 8 5 6 6 11 7 4 8 5 9 7 10 3 11
REMARK H PARENT
REMARK Flexibility Score: inf
ROOT
ATOM      1  C   UNL     1     107.929 110.612 106.299  1.00  0.00     0.020 C 
ATOM      2  C   UNL     1     108.197 109.663 105.111  1.00  0.00     0.027 C 
ATOM      3  C   UNL     1     107.964 108.160 105.506  1.00  0.00     0.003 C 
ATOM      4  C   UNL     1     108.057 107.235 104.266  1.00  0.00     0.005 C 
ATOM      5  C   UNL     1     109.553 107.311 103.885  1.00  0.00     0.015 C 
ATOM      6  C   UNL     1     110.142 108.185 105.010  1.00  0.00     0.027 C 
ATOM      7  C   UNL     1     109.279 107.787 106.189  1.00  0.00     0.019 C 
ATOM      8  C   UNL     1     109.662 109.593 104.792  1.00  0.00     0.144 C 
ATOM      9  O   UNL     1     110.335 110.514 104.352  1.00  0.00    -0.298 OA
ATOM     10  C   UNL     1     111.648 108.034 105.237  1.00  0.00     0.020 C 
ATOM     11  C   UNL     1     107.374 110.134 103.892  1.00  0.00     0.020 C 
ENDROOT
TORSDOF 0
ENDMDL
MODEL 3
REMARK VINA RESULT:    -3.391      1.723      3.243
REMARK INTER + INTRA:          -3.391
REMARK INTER:                  -3.391
REMARK INTRA:                   0.000
REMARK UNBOUND:                 0.000
REMARK SMILES CC1(C)C(=O)[C@]2(C)CC[C@H]1C2
REMARK SMILES IDX 1 1 2 2 10 3 9 4 8 5 6 6 11 7 4 8 5 9 7 10 3 11
REMARK H PARENT
REMARK Flexibility Score: inf
ROOT
ATOM      1  C   UNL     1     109.477 108.040 106.273  1.00  0.00     0.020 C 
ATOM      2  C   UNL     1     110.450 108.265 105.094  1.00  0.00     0.027 C 
ATOM      3  C   UNL     1     111.942 108.022 105.521  1.00  0.00     0.003 C 
ATOM      4  C   UNL     1     112.889 108.071 104.295  1.00  0.00     0.005 C 
ATOM      5  C   UNL     1     112.840 109.559 103.875  1.00  0.00     0.015 C 
ATOM      6  C   UNL     1     111.957 110.188 104.969  1.00  0.00     0.027 C 
ATOM      7  C   UNL     1     112.322 109.349 106.177  1.00  0.00     0.019 C 
ATOM      8  C   UNL     1     110.546 109.721 104.740  1.00  0.00     0.144 C 
ATOM      9  O   UNL     1     109.641 110.395 104.268  1.00  0.00    -0.298 OA
ATOM     10  C   UNL     1     112.125 111.696 105.162  1.00  0.00     0.020 C 
ATOM     11  C   UNL     1     109.988 107.418 103.889  1.00  0.00     0.020 C 
ENDROOT
TORSDOF 0
ENDMDL
MODEL 4
REMARK VINA RESULT:    -3.370      1.796      3.373
REMARK INTER + INTRA:          -3.370
REMARK INTER:                  -3.370
REMARK INTRA:                   0.000
REMARK UNBOUND:                 0.000
REMARK SMILES CC1(C)C(=O)[C@]2(C)CC[C@H]1C2
REMARK SMILES IDX 1 1 2 2 10 3 9 4 8 5 6 6 11 7 4 8 5 9 7 10 3 11
REMARK H PARENT
REMARK Flexibility Score: inf
ROOT
ATOM      1  C   UNL     1     110.553 112.120 106.292  1.00  0.00     0.020 C 
ATOM      2  C   UNL     1     109.625 111.799 105.101  1.00  0.00     0.027 C 
ATOM      3  C   UNL     1     108.111 111.974 105.484  1.00  0.00     0.003 C 
ATOM      4  C   UNL     1     107.199 111.828 104.239  1.00  0.00     0.005 C 
ATOM      5  C   UNL     1     107.340 110.331 103.876  1.00  0.00     0.015 C 
ATOM      6  C   UNL     1     108.229 109.792 105.013  1.00  0.00     0.027 C 
ATOM      7  C   UNL     1     107.788 110.652 106.180  1.00  0.00     0.019 C 
ATOM      8  C   UNL     1     109.618 110.328 104.799  1.00  0.00     0.144 C 
ATOM      9  O   UNL     1     110.569 109.689 104.374  1.00  0.00    -0.298 OA
ATOM     10  C   UNL     1     108.140 108.285 105.258  1.00  0.00     0.020 C 
ATOM     11  C   UNL     1     110.069 112.627 103.876  1.00  0.00     0.020 C 
ENDROOT
TORSDOF 0
ENDMDL
MODEL 5
REMARK VINA RESULT:    -3.193      1.999      3.985
REMARK INTER + INTRA:          -3.193
REMARK INTER:                  -3.193
REMARK INTRA:                   0.000
REMARK UNBOUND:                 0.000
REMARK SMILES CC1(C)C(=O)[C@]2(C)CC[C@H]1C2
REMARK SMILES IDX 1 1 2 2 10 3 9 4 8 5 6 6 11 7 4 8 5 9 7 10 3 11
REMARK H PARENT
REMARK Flexibility Score: inf
ROOT
ATOM      1  C   UNL     1     107.763 110.281 107.385  1.00  0.00     0.020 C 
ATOM      2  C   UNL     1     107.876 111.430 106.360  1.00  0.00     0.027 C 
ATOM      3  C   UNL     1     107.628 110.924 104.893  1.00  0.00     0.003 C 
ATOM      4  C   UNL     1     107.563 112.109 103.896  1.00  0.00     0.005 C 
ATOM      5  C   UNL     1     109.016 112.638 103.887  1.00  0.00     0.015 C 
ATOM      6  C   UNL     1     109.746 111.631 104.796  1.00  0.00     0.027 C 
ATOM      7  C   UNL     1     108.990 110.351 104.503  1.00  0.00     0.019 C 
ATOM      8  C   UNL     1     109.299 111.886 106.209  1.00  0.00     0.144 C 
ATOM      9  O   UNL     1     109.959 112.443 107.074  1.00  0.00    -0.298 OA
ATOM     10  C   UNL     1     111.260 111.542 104.594  1.00  0.00     0.020 C 
ATOM     11  C   UNL     1     106.954 112.590 106.796  1.00  0.00     0.020 C 
ENDROOT
TORSDOF 0
ENDMDL
MODEL 6
REMARK VINA RESULT:    -3.173      1.578      2.909
REMARK INTER + INTRA:          -3.173
REMARK INTER:                  -3.173
REMARK INTRA:                   0.000
REMARK UNBOUND:                 0.000
REMARK SMILES CC1(C)C(=O)[C@]2(C)CC[C@H]1C2
REMARK SMILES IDX 1 1 2 2 10 3 9 4 8 5 6 6 11 7 4 8 5 9 7 10 3 11
REMARK H PARENT
REMARK Flexibility Score: inf
ROOT
ATOM      1  C   UNL     1     110.302 112.241 107.385  1.00  0.00     0.020 C 
ATOM      2  C   UNL     1     111.477 112.152 106.388  1.00  0.00     0.027 C 
ATOM      3  C   UNL     1     111.027 112.520 104.928  1.00  0.00     0.003 C 
ATOM      4  C   UNL     1     112.245 112.605 103.973  1.00  0.00     0.005 C 
ATOM      5  C   UNL     1     112.717 111.136 103.877  1.00  0.00     0.015 C 
ATOM      6  C   UNL     1     111.654 110.387 104.704  1.00  0.00     0.027 C 
ATOM      7  C   UNL     1     110.415 111.213 104.428  1.00  0.00     0.019 C 
ATOM      8  C   UNL     1     111.882 110.725 106.152  1.00  0.00     0.144 C 
ATOM      9  O   UNL     1     112.386 109.986 106.984  1.00  0.00    -0.298 OA
ATOM     10  C   UNL     1     111.514 108.895 104.394  1.00  0.00     0.020 C 
ATOM     11  C   UNL     1     112.657 112.994 106.920  1.00  0.00     0.020 C 
ENDROOT
TORSDOF 0
ENDMDL
MODEL 7
REMARK VINA RESULT:    -3.167      2.579      4.313
REMARK INTER + INTRA:          -3.167
REMARK INTER:                  -3.167
REMARK INTRA:                   0.000
REMARK UNBOUND:                 0.000
REMARK SMILES CC1(C)C(=O)[C@]2(C)CC[C@H]1C2
REMARK SMILES IDX 1 1 2 2 10 3 9 4 8 5 6 6 11 7 4 8 5 9 7 10 3 11
REMARK H PARENT
REMARK Flexibility Score: inf
ROOT
ATOM      1  C   UNL     1     106.994 111.850 105.213  1.00  0.00     0.020 C 
ATOM      2  C   UNL     1     108.277 110.992 105.256  1.00  0.00     0.027 C 
ATOM      3  C   UNL     1     108.552 110.291 103.877  1.00  0.00     0.003 C 
ATOM      4  C   UNL     1     109.930 109.583 103.875  1.00  0.00     0.005 C 
ATOM      5  C   UNL     1     109.726 108.418 104.871  1.00  0.00     0.015 C 
ATOM      6  C   UNL     1     108.235 108.546 105.237  1.00  0.00     0.027 C 
ATOM      7  C   UNL     1     107.646 109.062 103.941  1.00  0.00     0.019 C 
ATOM      8  C   UNL     1     108.082 109.767 106.103  1.00  0.00     0.144 C 
ATOM      9  O   UNL     1     107.904 109.763 107.312  1.00  0.00    -0.298 OA
ATOM     10  C   UNL     1     107.581 107.274 105.778  1.00  0.00     0.020 C 
ATOM     11  C   UNL     1     109.446 111.857 105.774  1.00  0.00     0.020 C 
ENDROOT
TORSDOF 0
ENDMDL
MODEL 8
REMARK VINA RESULT:    -3.167      2.748      3.853
REMARK INTER + INTRA:          -3.167
REMARK INTER:                  -3.167
REMARK INTRA:                   0.000
REMARK UNBOUND:                 0.000
REMARK SMILES CC1(C)C(=O)[C@]2(C)CC[C@H]1C2
REMARK SMILES IDX 1 1 2 2 10 3 9 4 8 5 6 6 11 7 4 8 5 9 7 10 3 11
REMARK H PARENT
REMARK Flexibility Score: inf
ROOT
ATOM      1  C   UNL     1     111.400 108.118 106.870  1.00  0.00     0.020 C 
ATOM      2  C   UNL     1     110.528 108.857 105.832  1.00  0.00     0.027 C 
ATOM      3  C   UNL     1     109.089 109.152 106.389  1.00  0.00     0.003 C 
ATOM      4  C   UNL     1     108.285 110.049 105.414  1.00  0.00     0.005 C 
ATOM      5  C   UNL     1     108.051 109.122 104.199  1.00  0.00     0.015 C 
ATOM      6  C   UNL     1     108.659 107.788 104.672  1.00  0.00     0.027 C 
ATOM      7  C   UNL     1     108.363 107.827 106.157  1.00  0.00     0.019 C 
ATOM      8  C   UNL     1     110.153 107.951 104.695  1.00  0.00     0.144 C 
ATOM      9  O   UNL     1     110.932 107.486 103.875  1.00  0.00    -0.298 OA
ATOM     10  C   UNL     1     108.146 106.541 103.949  1.00  0.00     0.020 C 
ATOM     11  C   UNL     1     111.285 110.108 105.334  1.00  0.00     0.020 C 
ENDROOT
TORSDOF 0
ENDMDL
MODEL 9
REMARK VINA RESULT:    -2.351      3.171      4.369
REMARK INTER + INTRA:          -2.351
REMARK INTER:                  -2.351
REMARK INTRA:                   0.000
REMARK UNBOUND:                 0.000
REMARK SMILES CC1(C)C(=O)[C@]2(C)CC[C@H]1C2
REMARK SMILES IDX 1 1 2 2 10 3 9 4 8 5 6 6 11 7 4 8 5 9 7 10 3 11
REMARK H PARENT
REMARK Flexibility Score: inf
ROOT
ATOM      1  C   UNL     1     109.922 107.832 107.272  1.00  0.00     0.020 C 
ATOM      2  C   UNL     1     108.721 107.936 106.307  1.00  0.00     0.027 C 
ATOM      3  C   UNL     1     109.145 107.648 104.821  1.00  0.00     0.003 C 
ATOM      4  C   UNL     1     107.908 107.574 103.890  1.00  0.00     0.005 C 
ATOM      5  C   UNL     1     107.396 109.033 103.875  1.00  0.00     0.015 C 
ATOM      6  C   UNL     1     108.458 109.771 104.712  1.00  0.00     0.027 C 
ATOM      7  C   UNL     1     109.711 108.993 104.369  1.00  0.00     0.019 C 
ATOM      8  C   UNL     1     108.274 109.360 106.147  1.00  0.00     0.144 C 
ATOM      9  O   UNL     1     107.770 110.046 107.024  1.00  0.00    -0.298 OA
ATOM     10  C   UNL     1     108.552 111.279 104.470  1.00  0.00     0.020 C 
ATOM     11  C   UNL     1     107.577 107.038 106.825  1.00  0.00     0.020 C 
ENDROOT
TORSDOF 0
ENDMDL
