MODEL 1
REMARK VINA RESULT:    -3.734      0.000      0.000
REMARK INTER + INTRA:          -8.293
REMARK INTER:                  -6.353
REMARK INTRA:                  -1.940
REMARK UNBOUND:                -1.940
REMARK SMILES CCCCCCCCCCCCCC(=O)[O-]
REMARK SMILES IDX 8 1 9 2 10 3 11 4 12 5 13 6 14 7 15 8 16 9 7 10 6 11 5 12
REMARK SMILES IDX 4 13 3 14 2 15 1 16
REMARK H PARENT
REMARK Flexibility Score: inf
ROOT
ATOM      1  C   UNL     1     -23.128   8.557  19.291  1.00  0.00     0.000 C 
ENDROOT
BRANCH   1   2
ATOM      2  C   UNL     1     -22.005   8.017  18.389  1.00  0.00     0.000 C 
BRANCH   2   3
ATOM      3  C   UNL     1     -22.480   6.887  17.459  1.00  0.00     0.000 C 
BRANCH   3   4
ATOM      4  C   UNL     1     -21.327   6.117  16.781  1.00  0.00     0.000 C 
BRANCH   4   5
ATOM      5  C   UNL     1     -20.353   7.057  16.050  1.00  0.00     0.006 C 
BRANCH   5   6
ATOM      6  C   UNL     1     -18.903   6.557  16.113  1.00  0.00     0.053 C 
BRANCH   6   7
ATOM      7  C   UNL     1     -18.388   6.517  17.519  1.00  0.00     0.041 C 
ATOM      8  O   UNL     1     -17.805   5.489  17.951  1.00  0.00    -0.550 OA
ATOM      9  O   UNL     1     -18.523   7.628  18.342  1.00  0.00    -0.550 OA
ENDBRANCH   6   7
ENDBRANCH   5   6
ENDBRANCH   4   5
ENDBRANCH   3   4
ENDBRANCH   2   3
ENDBRANCH   1   2
BRANCH   1  10
ATOM     10  C   UNL     1     -23.057   7.997  20.721  1.00  0.00     0.000 C 
BRANCH  10  11
ATOM     11  C   UNL     1     -24.165   6.973  21.012  1.00  0.00    -0.000 C 
BRANCH  11  12
ATOM     12  C   UNL     1     -23.578   5.682  21.597  1.00  0.00    -0.000 C 
BRANCH  12  13
ATOM     13  C   UNL     1     -23.013   4.782  20.487  1.00  0.00    -0.000 C 
BRANCH  13  14
ATOM     14  C   UNL     1     -21.597   4.275  20.799  1.00  0.00    -0.000 C 
BRANCH  14  15
ATOM     15  C   UNL     1     -20.503   5.176  20.209  1.00  0.00    -0.003 C 
ATOM     16  C   UNL     1     -19.873   6.053  21.288  1.00  0.00     0.004 C 
ENDBRANCH  14  15
ENDBRANCH  13  14
ENDBRANCH  12  13
ENDBRANCH  11  12
ENDBRANCH  10  11
ENDBRANCH   1  10
TORSDOF 12
ENDMDL
MODEL 2
REMARK VINA RESULT:    -3.609      2.032      4.588
REMARK INTER + INTRA:          -8.080
REMARK INTER:                  -6.501
REMARK INTRA:                  -1.580
REMARK UNBOUND:                -1.940
REMARK SMILES CCCCCCCCCCCCCC(=O)[O-]
REMARK SMILES IDX 8 1 9 2 10 3 11 4 12 5 13 6 14 7 15 8 16 9 7 10 6 11 5 12
REMARK SMILES IDX 4 13 3 14 2 15 1 16
REMARK H PARENT
REMARK Flexibility Score: inf
ROOT
ATOM      1  C   UNL     1     -22.012   8.092  20.116  1.00  0.00     0.000 C 
ENDROOT
BRANCH   1   2
ATOM      2  C   UNL     1     -23.544   8.007  20.208  1.00  0.00     0.000 C 
BRANCH   2   3
ATOM      3  C   UNL     1     -24.026   6.788  21.011  1.00  0.00     0.000 C 
BRANCH   3   4
ATOM      4  C   UNL     1     -22.906   5.778  21.337  1.00  0.00     0.000 C 
BRANCH   4   5
ATOM      5  C   UNL     1     -22.809   4.660  20.284  1.00  0.00     0.006 C 
BRANCH   5   6
ATOM      6  C   UNL     1     -21.355   4.285  19.965  1.00  0.00     0.053 C 
BRANCH   6   7
ATOM      7  C   UNL     1     -20.977   2.964  20.561  1.00  0.00     0.041 C 
ATOM      8  O   UNL     1     -20.023   2.301  20.077  1.00  0.00    -0.550 OA
ATOM      9  O   UNL     1     -21.657   2.480  21.672  1.00  0.00    -0.550 OA
ENDBRANCH   6   7
ENDBRANCH   5   6
ENDBRANCH   4   5
ENDBRANCH   3   4
ENDBRANCH   2   3
ENDBRANCH   1   2
BRANCH   1  10
ATOM     10  C   UNL     1     -21.511   8.166  18.664  1.00  0.00     0.000 C 
BRANCH  10  11
ATOM     11  C   UNL     1     -22.372   7.339  17.697  1.00  0.00    -0.000 C 
BRANCH  11  12
ATOM     12  C   UNL     1     -21.516   6.322  16.934  1.00  0.00    -0.000 C 
BRANCH  12  13
ATOM     13  C   UNL     1     -20.460   7.028  16.070  1.00  0.00    -0.000 C 
BRANCH  13  14
ATOM     14  C   UNL     1     -19.107   6.300  16.076  1.00  0.00    -0.000 C 
BRANCH  14  15
ATOM     15  C   UNL     1     -18.260   6.636  17.312  1.00  0.00    -0.003 C 
ATOM     16  C   UNL     1     -18.147   5.431  18.243  1.00  0.00     0.004 C 
ENDBRANCH  14  15
ENDBRANCH  13  14
ENDBRANCH  12  13
ENDBRANCH  11  12
ENDBRANCH  10  11
ENDBRANCH   1  10
TORSDOF 12
ENDMDL
MODEL 3
REMARK VINA RESULT:    -3.589      2.781      5.415
REMARK INTER + INTRA:          -8.046
REMARK INTER:                  -6.314
REMARK INTRA:                  -1.732
REMARK UNBOUND:                -1.940
REMARK SMILES CCCCCCCCCCCCCC(=O)[O-]
REMARK SMILES IDX 8 1 9 2 10 3 11 4 12 5 13 6 14 7 15 8 16 9 7 10 6 11 5 12
REMARK SMILES IDX 4 13 3 14 2 15 1 16
REMARK H PARENT
REMARK Flexibility Score: inf
ROOT
ATOM      1  C   UNL     1     -22.415   6.443  17.549  1.00  0.00     0.000 C 
ENDROOT
BRANCH   1   2
ATOM      2  C   UNL     1     -22.030   7.809  18.141  1.00  0.00     0.000 C 
BRANCH   2   3
ATOM      3  C   UNL     1     -22.107   7.837  19.676  1.00  0.00     0.000 C 
BRANCH   3   4
ATOM      4  C   UNL     1     -23.511   8.175  20.220  1.00  0.00     0.000 C 
BRANCH   4   5
ATOM      5  C   UNL     1     -24.129   7.000  20.999  1.00  0.00     0.006 C 
BRANCH   5   6
ATOM      6  C   UNL     1     -23.159   5.819  21.139  1.00  0.00     0.053 C 
BRANCH   6   7
ATOM      7  C   UNL     1     -23.726   4.732  21.999  1.00  0.00     0.041 C 
ATOM      8  O   UNL     1     -24.509   5.015  22.944  1.00  0.00    -0.550 OA
ATOM      9  O   UNL     1     -23.416   3.403  21.737  1.00  0.00    -0.550 OA
ENDBRANCH   6   7
ENDBRANCH   5   6
ENDBRANCH   4   5
ENDBRANCH   3   4
ENDBRANCH   2   3
ENDBRANCH   1   2
BRANCH   1  10
ATOM     10  C   UNL     1     -21.513   6.033  16.374  1.00  0.00     0.000 C 
BRANCH  10  11
ATOM     11  C   UNL     1     -20.396   7.053  16.100  1.00  0.00    -0.000 C 
BRANCH  11  12
ATOM     12  C   UNL     1     -19.017   6.387  16.173  1.00  0.00    -0.000 C 
BRANCH  12  13
ATOM     13  C   UNL     1     -18.297   6.754  17.480  1.00  0.00    -0.000 C 
BRANCH  13  14
ATOM     14  C   UNL     1     -18.124   5.549  18.418  1.00  0.00    -0.000 C 
BRANCH  14  15
ATOM     15  C   UNL     1     -19.025   5.632  19.659  1.00  0.00    -0.003 C 
ATOM     16  C   UNL     1     -20.070   4.519  19.653  1.00  0.00     0.004 C 
ENDBRANCH  14  15
ENDBRANCH  13  14
ENDBRANCH  12  13
ENDBRANCH  11  12
ENDBRANCH  10  11
ENDBRANCH   1  10
TORSDOF 12
ENDMDL
MODEL 4
REMARK VINA RESULT:    -3.574      2.441      5.289
REMARK INTER + INTRA:          -8.021
REMARK INTER:                  -5.954
REMARK INTRA:                  -2.066
REMARK UNBOUND:                -1.940
REMARK SMILES CCCCCCCCCCCCCC(=O)[O-]
REMARK SMILES IDX 8 1 9 2 10 3 11 4 12 5 13 6 14 7 15 8 16 9 7 10 6 11 5 12
REMARK SMILES IDX 4 13 3 14 2 15 1 16
REMARK H PARENT
REMARK Flexibility Score: inf
ROOT
ATOM      1  C   UNL     1     -18.318   6.782  17.583  1.00  0.00     0.000 C 
ENDROOT
BRANCH   1   2
ATOM      2  C   UNL     1     -18.475   5.671  18.634  1.00  0.00     0.000 C 
BRANCH   2   3
ATOM      3  C   UNL     1     -18.843   6.213  20.025  1.00  0.00     0.000 C 
BRANCH   3   4
ATOM      4  C   UNL     1     -20.096   5.552  20.637  1.00  0.00     0.000 C 
BRANCH   4   5
ATOM      5  C   UNL     1     -20.766   4.566  19.663  1.00  0.00     0.006 C 
BRANCH   5   6
ATOM      6  C   UNL     1     -22.237   4.309  20.015  1.00  0.00     0.053 C 
BRANCH   6   7
ATOM      7  C   UNL     1     -22.422   2.994  20.707  1.00  0.00     0.041 C 
ATOM      8  O   UNL     1     -23.462   2.775  21.383  1.00  0.00    -0.550 OA
ATOM      9  O   UNL     1     -21.464   1.997  20.578  1.00  0.00    -0.550 OA
ENDBRANCH   6   7
ENDBRANCH   5   6
ENDBRANCH   4   5
ENDBRANCH   3   4
ENDBRANCH   2   3
ENDBRANCH   1   2
BRANCH   1  10
ATOM     10  C   UNL     1     -18.997   6.433  16.249  1.00  0.00     0.000 C 
BRANCH  10  11
ATOM     11  C   UNL     1     -20.359   7.126  16.078  1.00  0.00    -0.000 C 
BRANCH  11  12
ATOM     12  C   UNL     1     -21.488   6.266  16.660  1.00  0.00    -0.000 C 
BRANCH  12  13
ATOM     13  C   UNL     1     -22.407   7.103  17.562  1.00  0.00    -0.000 C 
BRANCH  13  14
ATOM     14  C   UNL     1     -21.673   8.277  18.230  1.00  0.00    -0.000 C 
BRANCH  14  15
ATOM     15  C   UNL     1     -22.171   8.550  19.656  1.00  0.00    -0.003 C 
ATOM     16  C   UNL     1     -23.543   7.922  19.889  1.00  0.00     0.004 C 
ENDBRANCH  14  15
ENDBRANCH  13  14
ENDBRANCH  12  13
ENDBRANCH  11  12
ENDBRANCH  10  11
ENDBRANCH   1  10
TORSDOF 12
ENDMDL
MODEL 5
REMARK VINA RESULT:    -3.526      2.365      4.925
REMARK INTER + INTRA:          -7.940
REMARK INTER:                  -6.298
REMARK INTRA:                  -1.642
REMARK UNBOUND:                -1.940
REMARK SMILES CCCCCCCCCCCCCC(=O)[O-]
REMARK SMILES IDX 8 1 9 2 10 3 11 4 12 5 13 6 14 7 15 8 16 9 7 10 6 11 5 12
REMARK SMILES IDX 4 13 3 14 2 15 1 16
REMARK H PARENT
REMARK Flexibility Score: inf
ROOT
ATOM      1  C   UNL     1     -20.434   6.930  15.875  1.00  0.00     0.000 C 
ENDROOT
BRANCH   1   2
ATOM      2  C   UNL     1     -21.553   6.127  16.559  1.00  0.00     0.000 C 
BRANCH   2   3
ATOM      3  C   UNL     1     -22.374   6.973  17.547  1.00  0.00     0.000 C 
BRANCH   3   4
ATOM      4  C   UNL     1     -21.600   8.176  18.125  1.00  0.00     0.000 C 
BRANCH   4   5
ATOM      5  C   UNL     1     -22.028   8.501  19.567  1.00  0.00     0.006 C 
BRANCH   5   6
ATOM      6  C   UNL     1     -23.517   8.221  19.811  1.00  0.00     0.053 C 
BRANCH   6   7
ATOM      7  C   UNL     1     -23.725   7.244  20.926  1.00  0.00     0.041 C 
ATOM      8  O   UNL     1     -24.888   6.994  21.340  1.00  0.00    -0.550 OA
ATOM      9  O   UNL     1     -22.639   6.583  21.485  1.00  0.00    -0.550 OA
ENDBRANCH   6   7
ENDBRANCH   5   6
ENDBRANCH   4   5
ENDBRANCH   3   4
ENDBRANCH   2   3
ENDBRANCH   1   2
BRANCH   1  10
ATOM     10  C   UNL     1     -19.051   6.280  16.047  1.00  0.00     0.000 C 
BRANCH  10  11
ATOM     11  C   UNL     1     -18.317   6.773  17.304  1.00  0.00    -0.000 C 
BRANCH  11  12
ATOM     12  C   UNL     1     -18.143   5.637  18.319  1.00  0.00    -0.000 C 
BRANCH  12  13
ATOM     13  C   UNL     1     -19.037   5.857  19.549  1.00  0.00    -0.000 C 
BRANCH  13  14
ATOM     14  C   UNL     1     -19.589   4.542  20.122  1.00  0.00    -0.000 C 
BRANCH  14  15
ATOM     15  C   UNL     1     -21.041   4.277  19.700  1.00  0.00    -0.003 C 
ATOM     16  C   UNL     1     -21.584   3.014  20.365  1.00  0.00     0.004 C 
ENDBRANCH  14  15
ENDBRANCH  13  14
ENDBRANCH  12  13
ENDBRANCH  11  12
ENDBRANCH  10  11
ENDBRANCH   1  10
TORSDOF 12
ENDMDL
MODEL 6
REMARK VINA RESULT:    -3.508      2.489      5.137
REMARK INTER + INTRA:          -7.908
REMARK INTER:                  -5.915
REMARK INTRA:                  -1.994
REMARK UNBOUND:                -1.940
REMARK SMILES CCCCCCCCCCCCCC(=O)[O-]
REMARK SMILES IDX 8 1 9 2 10 3 11 4 12 5 13 6 14 7 15 8 16 9 7 10 6 11 5 12
REMARK SMILES IDX 4 13 3 14 2 15 1 16
REMARK H PARENT
REMARK Flexibility Score: inf
ROOT
ATOM      1  C   UNL     1     -21.268   6.080  16.352  1.00  0.00     0.000 C 
ENDROOT
BRANCH   1   2
ATOM      2  C   UNL     1     -21.961   6.662  17.595  1.00  0.00     0.000 C 
BRANCH   2   3
ATOM      3  C   UNL     1     -21.572   8.126  17.864  1.00  0.00     0.000 C 
BRANCH   3   4
ATOM      4  C   UNL     1     -22.216   8.715  19.136  1.00  0.00     0.000 C 
BRANCH   4   5
ATOM      5  C   UNL     1     -23.540   8.017  19.493  1.00  0.00     0.006 C 
BRANCH   5   6
ATOM      6  C   UNL     1     -23.631   7.666  20.984  1.00  0.00     0.053 C 
BRANCH   6   7
ATOM      7  C   UNL     1     -23.835   6.199  21.200  1.00  0.00     0.041 C 
ATOM      8  O   UNL     1     -23.275   5.363  20.443  1.00  0.00    -0.550 OA
ATOM      9  O   UNL     1     -24.617   5.752  22.258  1.00  0.00    -0.550 OA
ENDBRANCH   6   7
ENDBRANCH   5   6
ENDBRANCH   4   5
ENDBRANCH   3   4
ENDBRANCH   2   3
ENDBRANCH   1   2
BRANCH   1  10
ATOM     10  C   UNL     1     -20.009   6.868  15.954  1.00  0.00     0.000 C 
BRANCH  10  11
ATOM     11  C   UNL     1     -18.711   6.167  16.386  1.00  0.00    -0.000 C 
BRANCH  11  12
ATOM     12  C   UNL     1     -17.925   7.034  17.377  1.00  0.00    -0.000 C 
BRANCH  12  13
ATOM     13  C   UNL     1     -18.133   6.547  18.820  1.00  0.00    -0.000 C 
BRANCH  13  14
ATOM     14  C   UNL     1     -18.677   5.112  18.888  1.00  0.00    -0.000 C 
BRANCH  14  15
ATOM     15  C   UNL     1     -19.755   4.938  19.967  1.00  0.00    -0.003 C 
ATOM     16  C   UNL     1     -19.938   6.223  20.771  1.00  0.00     0.004 C 
ENDBRANCH  14  15
ENDBRANCH  13  14
ENDBRANCH  12  13
ENDBRANCH  11  12
ENDBRANCH  10  11
ENDBRANCH   1  10
TORSDOF 12
ENDMDL
MODEL 7
REMARK VINA RESULT:    -3.420      4.054      6.222
REMARK INTER + INTRA:          -7.759
REMARK INTER:                  -6.227
REMARK INTRA:                  -1.532
REMARK UNBOUND:                -1.940
REMARK SMILES CCCCCCCCCCCCCC(=O)[O-]
REMARK SMILES IDX 8 1 9 2 10 3 11 4 12 5 13 6 14 7 15 8 16 9 7 10 6 11 5 12
REMARK SMILES IDX 4 13 3 14 2 15 1 16
REMARK H PARENT
REMARK Flexibility Score: inf
ROOT
ATOM      1  C   UNL     1     -21.986   6.011  21.468  1.00  0.00     0.000 C 
ENDROOT
BRANCH   1   2
ATOM      2  C   UNL     1     -21.253   4.851  20.775  1.00  0.00     0.000 C 
BRANCH   2   3
ATOM      3  C   UNL     1     -22.207   3.743  20.299  1.00  0.00     0.000 C 
BRANCH   3   4
ATOM      4  C   UNL     1     -21.904   2.359  20.909  1.00  0.00     0.000 C 
BRANCH   4   5
ATOM      5  C   UNL     1     -23.168   1.491  21.035  1.00  0.00     0.006 C 
BRANCH   5   6
ATOM      6  C   UNL     1     -24.304   2.218  21.767  1.00  0.00     0.053 C 
BRANCH   6   7
ATOM      7  C   UNL     1     -24.987   1.329  22.759  1.00  0.00     0.041 C 
ATOM      8  O   UNL     1     -24.726   0.097  22.791  1.00  0.00    -0.550 OA
ATOM      9  O   UNL     1     -25.888   1.864  23.671  1.00  0.00    -0.550 OA
ENDBRANCH   6   7
ENDBRANCH   5   6
ENDBRANCH   4   5
ENDBRANCH   3   4
ENDBRANCH   2   3
ENDBRANCH   1   2
BRANCH   1  10
ATOM     10  C   UNL     1     -23.513   5.836  21.455  1.00  0.00     0.000 C 
BRANCH  10  11
ATOM     11  C   UNL     1     -24.247   7.077  20.922  1.00  0.00    -0.000 C 
BRANCH  11  12
ATOM     12  C   UNL     1     -23.252   8.168  20.510  1.00  0.00    -0.000 C 
BRANCH  12  13
ATOM     13  C   UNL     1     -23.162   8.284  18.981  1.00  0.00    -0.000 C 
BRANCH  13  14
ATOM     14  C   UNL     1     -21.713   8.359  18.476  1.00  0.00    -0.000 C 
BRANCH  14  15
ATOM     15  C   UNL     1     -21.374   7.237  17.484  1.00  0.00    -0.003 C 
ATOM     16  C   UNL     1     -22.459   6.164  17.477  1.00  0.00     0.004 C 
ENDBRANCH  14  15
ENDBRANCH  13  14
ENDBRANCH  12  13
ENDBRANCH  11  12
ENDBRANCH  10  11
ENDBRANCH   1  10
TORSDOF 12
ENDMDL
MODEL 8
REMARK VINA RESULT:    -3.401      1.154      3.637
REMARK INTER + INTRA:          -7.727
REMARK INTER:                  -5.722
REMARK INTRA:                  -2.005
REMARK UNBOUND:                -1.940
REMARK SMILES CCCCCCCCCCCCCC(=O)[O-]
REMARK SMILES IDX 8 1 9 2 10 3 11 4 12 5 13 6 14 7 15 8 16 9 7 10 6 11 5 12
REMARK SMILES IDX 4 13 3 14 2 15 1 16
REMARK H PARENT
REMARK Flexibility Score: inf
ROOT
ATOM      1  C   UNL     1     -23.877   6.797  21.102  1.00  0.00     0.000 C 
ENDROOT
BRANCH   1   2
ATOM      2  C   UNL     1     -23.449   5.321  21.053  1.00  0.00     0.000 C 
BRANCH   2   3
ATOM      3  C   UNL     1     -21.924   5.140  21.131  1.00  0.00     0.000 C 
BRANCH   3   4
ATOM      4  C   UNL     1     -21.334   4.334  19.955  1.00  0.00     0.000 C 
BRANCH   4   5
ATOM      5  C   UNL     1     -19.835   4.616  19.752  1.00  0.00     0.006 C 
BRANCH   5   6
ATOM      6  C   UNL     1     -19.486   6.094  19.972  1.00  0.00     0.053 C 
BRANCH   6   7
ATOM      7  C   UNL     1     -18.008   6.306  20.091  1.00  0.00     0.041 C 
ATOM      8  O   UNL     1     -17.314   5.538  20.807  1.00  0.00    -0.550 OA
ATOM      9  O   UNL     1     -17.392   7.332  19.385  1.00  0.00    -0.550 OA
ENDBRANCH   6   7
ENDBRANCH   5   6
ENDBRANCH   4   5
ENDBRANCH   3   4
ENDBRANCH   2   3
ENDBRANCH   1   2
BRANCH   1  10
ATOM     10  C   UNL     1     -22.764   7.750  20.636  1.00  0.00     0.000 C 
BRANCH  10  11
ATOM     11  C   UNL     1     -23.088   8.429  19.296  1.00  0.00    -0.000 C 
BRANCH  11  12
ATOM     12  C   UNL     1     -22.077   8.023  18.217  1.00  0.00    -0.000 C 
BRANCH  12  13
ATOM     13  C   UNL     1     -22.510   6.725  17.517  1.00  0.00    -0.000 C 
BRANCH  13  14
ATOM     14  C   UNL     1     -21.380   6.093  16.690  1.00  0.00    -0.000 C 
BRANCH  14  15
ATOM     15  C   UNL     1     -20.396   7.135  16.139  1.00  0.00    -0.003 C 
ATOM     16  C   UNL     1     -18.952   6.669  16.306  1.00  0.00     0.004 C 
ENDBRANCH  14  15
ENDBRANCH  13  14
ENDBRANCH  12  13
ENDBRANCH  11  12
ENDBRANCH  10  11
ENDBRANCH   1  10
TORSDOF 12
ENDMDL
MODEL 9
REMARK VINA RESULT:    -3.393      1.644      3.764
REMARK INTER + INTRA:          -7.712
REMARK INTER:                  -5.591
REMARK INTRA:                  -2.121
REMARK UNBOUND:                -1.940
REMARK SMILES CCCCCCCCCCCCCC(=O)[O-]
REMARK SMILES IDX 8 1 9 2 10 3 11 4 12 5 13 6 14 7 15 8 16 9 7 10 6 11 5 12
REMARK SMILES IDX 4 13 3 14 2 15 1 16
REMARK H PARENT
REMARK Flexibility Score: inf
ROOT
ATOM      1  C   UNL     1     -23.010   5.763  21.422  1.00  0.00     0.000 C 
ENDROOT
BRANCH   1   2
ATOM      2  C   UNL     1     -22.927   4.652  20.362  1.00  0.00     0.000 C 
BRANCH   2   3
ATOM      3  C   UNL     1     -21.479   4.246  20.037  1.00  0.00     0.000 C 
BRANCH   3   4
ATOM      4  C   UNL     1     -20.440   4.809  21.028  1.00  0.00     0.000 C 
BRANCH   4   5
ATOM      5  C   UNL     1     -19.345   5.626  20.318  1.00  0.00     0.006 C 
BRANCH   5   6
ATOM      6  C   UNL     1     -18.768   4.891  19.101  1.00  0.00     0.053 C 
BRANCH   6   7
ATOM      7  C   UNL     1     -17.863   3.768  19.504  1.00  0.00     0.041 C 
ATOM      8  O   UNL     1     -18.179   2.577  19.247  1.00  0.00    -0.550 OA
ATOM      9  O   UNL     1     -16.655   4.038  20.134  1.00  0.00    -0.550 OA
ENDBRANCH   6   7
ENDBRANCH   5   6
ENDBRANCH   4   5
ENDBRANCH   3   4
ENDBRANCH   2   3
ENDBRANCH   1   2
BRANCH   1  10
ATOM     10  C   UNL     1     -24.133   6.771  21.133  1.00  0.00     0.000 C 
BRANCH  10  11
ATOM     11  C   UNL     1     -23.635   8.012  20.374  1.00  0.00    -0.000 C 
BRANCH  11  12
ATOM     12  C   UNL     1     -22.131   8.219  20.589  1.00  0.00    -0.000 C 
BRANCH  12  13
ATOM     13  C   UNL     1     -21.399   8.375  19.247  1.00  0.00    -0.000 C 
BRANCH  13  14
ATOM     14  C   UNL     1     -22.250   7.918  18.052  1.00  0.00    -0.000 C 
BRANCH  14  15
ATOM     15  C   UNL     1     -21.693   6.656  17.379  1.00  0.00    -0.003 C 
ATOM     16  C   UNL     1     -20.505   6.991  16.481  1.00  0.00     0.004 C 
ENDBRANCH  14  15
ENDBRANCH  13  14
ENDBRANCH  12  13
ENDBRANCH  11  12
ENDBRANCH  10  11
ENDBRANCH   1  10
TORSDOF 12
ENDMDL
