MODEL 1
REMARK VINA RESULT:    -2.647      0.000      0.000
REMARK INTER + INTRA:          -2.647
REMARK INTER:                  -2.647
REMARK INTRA:                   0.000
REMARK UNBOUND:                 0.000
REMARK SMILES CC(=O)[O-]
REMARK SMILES IDX 1 1 2 2 3 3 4 4
REMARK H PARENT
REMARK Flexibility Score: inf
ROOT
ATOM      1  C   UNL     1      15.224 -36.277 -11.354  1.00  0.00     0.063 C 
ATOM      2  C   UNL     1      13.898 -36.943 -11.504  1.00  0.00     0.038 C 
ATOM      3  O   UNL     1      13.507 -37.773 -10.643  1.00  0.00    -0.550 OA
ATOM      4  O   UNL     1      13.114 -36.689 -12.623  1.00  0.00    -0.550 OA
ENDROOT
TORSDOF 0
ENDMDL
MODEL 2
REMARK VINA RESULT:    -2.421     12.098     12.324
REMARK INTER + INTRA:          -2.421
REMARK INTER:                  -2.421
REMARK INTRA:                   0.000
REMARK UNBOUND:                 0.000
REMARK SMILES CC(=O)[O-]
REMARK SMILES IDX 1 1 2 2 3 3 4 4
REMARK H PARENT
REMARK Flexibility Score: inf
ROOT
ATOM      1  C   UNL     1       5.797 -32.842  -4.633  1.00  0.00     0.063 C 
ATOM      2  C   UNL     1       4.365 -32.725  -5.034  1.00  0.00     0.038 C 
ATOM      3  O   UNL     1       3.711 -33.753  -5.347  1.00  0.00    -0.550 OA
ATOM      4  O   UNL     1       3.765 -31.474  -5.117  1.00  0.00    -0.550 OA
ENDROOT
TORSDOF 0
ENDMDL
MODEL 3
REMARK VINA RESULT:    -2.399     14.117     14.452
REMARK INTER + INTRA:          -2.399
REMARK INTER:                  -2.399
REMARK INTRA:                   0.000
REMARK UNBOUND:                 0.000
REMARK SMILES CC(=O)[O-]
REMARK SMILES IDX 1 1 2 2 3 3 4 4
REMARK H PARENT
REMARK Flexibility Score: inf
ROOT
ATOM      1  C   UNL     1       0.685 -36.151  -8.854  1.00  0.00     0.063 C 
ATOM      2  C   UNL     1       0.144 -35.238  -7.806  1.00  0.00     0.038 C 
ATOM      3  O   UNL     1      -1.099 -35.099  -7.669  1.00  0.00    -0.550 OA
ATOM      4  O   UNL     1       1.012 -34.497  -7.013  1.00  0.00    -0.550 OA
ENDROOT
TORSDOF 0
ENDMDL
MODEL 4
REMARK VINA RESULT:    -2.375     12.282     12.607
REMARK INTER + INTRA:          -2.375
REMARK INTER:                  -2.375
REMARK INTRA:                   0.000
REMARK UNBOUND:                 0.000
REMARK SMILES CC(=O)[O-]
REMARK SMILES IDX 1 1 2 2 3 3 4 4
REMARK H PARENT
REMARK Flexibility Score: inf
ROOT
ATOM      1  C   UNL     1       6.115 -32.550  -4.179  1.00  0.00     0.063 C 
ATOM      2  C   UNL     1       6.420 -31.885  -2.879  1.00  0.00     0.038 C 
ATOM      3  O   UNL     1       5.595 -31.942  -1.931  1.00  0.00    -0.550 OA
ATOM      4  O   UNL     1       7.592 -31.153  -2.730  1.00  0.00    -0.550 OA
ENDROOT
TORSDOF 0
ENDMDL
MODEL 5
REMARK VINA RESULT:    -2.309      1.379      2.066
REMARK INTER + INTRA:          -2.309
REMARK INTER:                  -2.309
REMARK INTRA:                   0.000
REMARK UNBOUND:                 0.000
REMARK SMILES CC(=O)[O-]
REMARK SMILES IDX 1 1 2 2 3 3 4 4
REMARK H PARENT
REMARK Flexibility Score: inf
ROOT
ATOM      1  C   UNL     1      13.479 -37.665 -10.540  1.00  0.00     0.063 C 
ATOM      2  C   UNL     1      13.974 -36.781 -11.635  1.00  0.00     0.038 C 
ATOM      3  O   UNL     1      13.299 -36.640 -12.687  1.00  0.00    -0.550 OA
ATOM      4  O   UNL     1      15.209 -36.154 -11.519  1.00  0.00    -0.550 OA
ENDROOT
TORSDOF 0
ENDMDL
MODEL 6
REMARK VINA RESULT:    -2.286     12.761     13.110
REMARK INTER + INTRA:          -2.286
REMARK INTER:                  -2.286
REMARK INTRA:                   0.000
REMARK UNBOUND:                 0.000
REMARK SMILES CC(=O)[O-]
REMARK SMILES IDX 1 1 2 2 3 3 4 4
REMARK H PARENT
REMARK Flexibility Score: inf
ROOT
ATOM      1  C   UNL     1       6.020 -32.598  -4.275  1.00  0.00     0.063 C 
ATOM      2  C   UNL     1       5.362 -31.743  -3.245  1.00  0.00     0.038 C 
ATOM      3  O   UNL     1       4.584 -30.818  -3.595  1.00  0.00    -0.550 OA
ATOM      4  O   UNL     1       5.648 -31.931  -1.898  1.00  0.00    -0.550 OA
ENDROOT
TORSDOF 0
ENDMDL
MODEL 7
REMARK VINA RESULT:    -2.236     10.452     10.847
REMARK INTER + INTRA:          -2.236
REMARK INTER:                  -2.236
REMARK INTRA:                   0.000
REMARK UNBOUND:                 0.000
REMARK SMILES CC(=O)[O-]
REMARK SMILES IDX 1 1 2 2 3 3 4 4
REMARK H PARENT
REMARK Flexibility Score: inf
ROOT
ATOM      1  C   UNL     1       7.307 -42.870  -7.232  1.00  0.00     0.063 C 
ATOM      2  C   UNL     1       7.651 -44.219  -6.698  1.00  0.00     0.038 C 
ATOM      3  O   UNL     1       8.538 -44.342  -5.814  1.00  0.00    -0.550 OA
ATOM      4  O   UNL     1       7.033 -45.351  -7.215  1.00  0.00    -0.550 OA
ENDROOT
TORSDOF 0
ENDMDL
MODEL 8
REMARK VINA RESULT:    -2.107     10.357     10.687
REMARK INTER + INTRA:          -2.107
REMARK INTER:                  -2.107
REMARK INTRA:                   0.000
REMARK UNBOUND:                 0.000
REMARK SMILES CC(=O)[O-]
REMARK SMILES IDX 1 1 2 2 3 3 4 4
REMARK H PARENT
REMARK Flexibility Score: inf
ROOT
ATOM      1  C   UNL     1       7.142 -44.778  -8.010  1.00  0.00     0.063 C 
ATOM      2  C   UNL     1       7.592 -43.936  -6.864  1.00  0.00     0.038 C 
ATOM      3  O   UNL     1       8.279 -44.442  -5.940  1.00  0.00    -0.550 OA
ATOM      4  O   UNL     1       7.206 -42.603  -6.787  1.00  0.00    -0.550 OA
ENDROOT
TORSDOF 0
ENDMDL
MODEL 9
REMARK VINA RESULT:    -2.096     15.923     16.089
REMARK INTER + INTRA:          -2.096
REMARK INTER:                  -2.096
REMARK INTRA:                   0.000
REMARK UNBOUND:                 0.000
REMARK SMILES CC(=O)[O-]
REMARK SMILES IDX 1 1 2 2 3 3 4 4
REMARK H PARENT
REMARK Flexibility Score: inf
ROOT
ATOM      1  C   UNL     1       4.713 -49.799  -8.310  1.00  0.00     0.063 C 
ATOM      2  C   UNL     1       4.505 -49.018  -7.057  1.00  0.00     0.038 C 
ATOM      3  O   UNL     1       3.466 -48.323  -6.911  1.00  0.00    -0.550 OA
ATOM      4  O   UNL     1       5.483 -49.012  -6.070  1.00  0.00    -0.550 OA
ENDROOT
TORSDOF 0
ENDMDL
