MODEL 1
REMARK VINA RESULT:    -6.375      0.000      0.000
REMARK INTER + INTRA:          -8.031
REMARK INTER:                  -7.866
REMARK INTRA:                  -0.165
REMARK UNBOUND:                -0.165
REMARK SMILES CCOC(=O)c1ccc(O)c(O)c1
REMARK SMILES IDX 4 1 5 2 3 3 2 4 1 5 6 6 13 7 7 8 11 9 8 10 9 11 12 12 10 14
REMARK H PARENT 12 13 10 15
REMARK Flexibility Score: inf
ROOT
ATOM      1  C   UNL     1     -31.093  -4.124 -17.001  1.00  0.00     0.338 C 
ATOM      2  O   UNL     1     -31.968  -3.752 -16.171  1.00  0.00    -0.246 OA
ENDROOT
BRANCH   1   3
ATOM      3  O   UNL     1     -30.251  -5.199 -16.696  1.00  0.00    -0.462 OA
BRANCH   3   4
ATOM      4  C   UNL     1     -30.693  -6.552 -16.715  1.00  0.00     0.230 C 
ATOM      5  C   UNL     1     -29.502  -7.479 -16.536  1.00  0.00     0.049 C 
ENDBRANCH   3   4
ENDBRANCH   1   3
BRANCH   1   6
ATOM      6  C   UNL     1     -30.954  -3.425 -18.299  1.00  0.00     0.064 A 
ATOM      7  C   UNL     1     -32.088  -2.954 -18.986  1.00  0.00     0.065 A 
ATOM      8  C   UNL     1     -29.682  -3.223 -18.862  1.00  0.00     0.020 A 
ATOM      9  C   UNL     1     -31.951  -2.291 -20.215  1.00  0.00     0.158 A 
ATOM     10  C   UNL     1     -29.547  -2.563 -20.087  1.00  0.00     0.051 A 
ATOM     11  C   UNL     1     -30.680  -2.096 -20.766  1.00  0.00     0.157 A 
BRANCH   9  12
ATOM     12  O   UNL     1     -33.077  -1.825 -20.892  1.00  0.00    -0.504 OA
ATOM     13  H   UNL     1     -33.338  -2.189 -21.802  1.00  0.00     0.293 HD
ENDBRANCH   9  12
BRANCH  11  14
ATOM     14  O   UNL     1     -30.549  -1.438 -21.988  1.00  0.00    -0.504 OA
ATOM     15  H   UNL     1     -29.662  -1.400 -22.477  1.00  0.00     0.293 HD
ENDBRANCH  11  14
ENDBRANCH   1   6
TORSDOF 5
ENDMDL
MODEL 2
REMARK VINA RESULT:    -6.034      1.767      2.301
REMARK INTER + INTRA:          -7.610
REMARK INTER:                  -7.412
REMARK INTRA:                  -0.198
REMARK UNBOUND:                -0.165
REMARK SMILES CCOC(=O)c1ccc(O)c(O)c1
REMARK SMILES IDX 4 1 5 2 3 3 2 4 1 5 6 6 13 7 7 8 11 9 8 10 9 11 12 12 10 14
REMARK H PARENT 12 13 10 15
REMARK Flexibility Score: inf
ROOT
ATOM      1  C   UNL     1     -32.312  -4.076 -16.894  1.00  0.00     0.338 C 
ATOM      2  O   UNL     1     -31.534  -4.645 -16.080  1.00  0.00    -0.246 OA
ENDROOT
BRANCH   1   3
ATOM      3  O   UNL     1     -33.687  -4.038 -16.637  1.00  0.00    -0.462 OA
BRANCH   3   4
ATOM      4  C   UNL     1     -34.324  -4.920 -15.718  1.00  0.00     0.230 C 
ATOM      5  C   UNL     1     -35.085  -5.990 -16.484  1.00  0.00     0.049 C 
ENDBRANCH   3   4
ENDBRANCH   1   3
BRANCH   1   6
ATOM      6  C   UNL     1     -31.775  -3.446 -18.121  1.00  0.00     0.064 A 
ATOM      7  C   UNL     1     -32.641  -2.926 -19.100  1.00  0.00     0.065 A 
ATOM      8  C   UNL     1     -30.387  -3.359 -18.322  1.00  0.00     0.020 A 
ATOM      9  C   UNL     1     -32.127  -2.329 -20.261  1.00  0.00     0.158 A 
ATOM     10  C   UNL     1     -29.875  -2.764 -19.480  1.00  0.00     0.051 A 
ATOM     11  C   UNL     1     -30.743  -2.248 -20.451  1.00  0.00     0.157 A 
BRANCH   9  12
ATOM     12  O   UNL     1     -32.988  -1.814 -21.228  1.00  0.00    -0.504 OA
ATOM     13  H   UNL     1     -33.988  -1.977 -21.191  1.00  0.00     0.293 HD
ENDBRANCH   9  12
BRANCH  11  14
ATOM     14  O   UNL     1     -30.236  -1.655 -21.606  1.00  0.00    -0.504 OA
ATOM     15  H   UNL     1     -30.053  -2.195 -22.442  1.00  0.00     0.293 HD
ENDBRANCH  11  14
ENDBRANCH   1   6
TORSDOF 5
ENDMDL
MODEL 3
REMARK VINA RESULT:    -5.643      8.424     10.446
REMARK INTER + INTRA:          -7.127
REMARK INTER:                  -6.796
REMARK INTRA:                  -0.331
REMARK UNBOUND:                -0.165
REMARK SMILES CCOC(=O)c1ccc(O)c(O)c1
REMARK SMILES IDX 4 1 5 2 3 3 2 4 1 5 6 6 13 7 7 8 11 9 8 10 9 11 12 12 10 14
REMARK H PARENT 12 13 10 15
REMARK Flexibility Score: inf
ROOT
ATOM      1  C   UNL     1     -36.396  -6.791 -13.419  1.00  0.00     0.338 C 
ATOM      2  O   UNL     1     -35.722  -7.076 -12.391  1.00  0.00    -0.246 OA
ENDROOT
BRANCH   1   3
ATOM      3  O   UNL     1     -35.757  -6.288 -14.558  1.00  0.00    -0.462 OA
BRANCH   3   4
ATOM      4  C   UNL     1     -35.964  -6.827 -15.859  1.00  0.00     0.230 C 
ATOM      5  C   UNL     1     -36.720  -5.822 -16.712  1.00  0.00     0.049 C 
ENDBRANCH   3   4
ENDBRANCH   1   3
BRANCH   1   6
ATOM      6  C   UNL     1     -37.863  -6.988 -13.425  1.00  0.00     0.064 A 
ATOM      7  C   UNL     1     -38.414  -8.281 -13.389  1.00  0.00     0.065 A 
ATOM      8  C   UNL     1     -38.726  -5.879 -13.465  1.00  0.00     0.020 A 
ATOM      9  C   UNL     1     -39.806  -8.463 -13.393  1.00  0.00     0.158 A 
ATOM     10  C   UNL     1     -40.112  -6.061 -13.470  1.00  0.00     0.051 A 
ATOM     11  C   UNL     1     -40.655  -7.352 -13.434  1.00  0.00     0.157 A 
BRANCH   9  12
ATOM     12  O   UNL     1     -40.348  -9.746 -13.358  1.00  0.00    -0.504 OA
ATOM     13  H   UNL     1     -40.907 -10.065 -12.575  1.00  0.00     0.293 HD
ENDBRANCH   9  12
BRANCH  11  14
ATOM     14  O   UNL     1     -42.037  -7.536 -13.438  1.00  0.00    -0.504 OA
ATOM     15  H   UNL     1     -42.461  -8.350 -13.866  1.00  0.00     0.293 HD
ENDBRANCH  11  14
ENDBRANCH   1   6
TORSDOF 5
ENDMDL
MODEL 4
REMARK VINA RESULT:    -5.563      6.744      8.993
REMARK INTER + INTRA:          -7.029
REMARK INTER:                  -6.823
REMARK INTRA:                  -0.206
REMARK UNBOUND:                -0.165
REMARK SMILES CCOC(=O)c1ccc(O)c(O)c1
REMARK SMILES IDX 4 1 5 2 3 3 2 4 1 5 6 6 13 7 7 8 11 9 8 10 9 11 12 12 10 14
REMARK H PARENT 12 13 10 15
REMARK Flexibility Score: inf
ROOT
ATOM      1  C   UNL     1     -36.228  -5.603 -15.931  1.00  0.00     0.338 C 
ATOM      2  O   UNL     1     -36.252  -4.422 -15.485  1.00  0.00    -0.246 OA
ENDROOT
BRANCH   1   3
ATOM      3  O   UNL     1     -35.619  -5.874 -17.162  1.00  0.00    -0.462 OA
BRANCH   3   4
ATOM      4  C   UNL     1     -34.527  -5.112 -17.665  1.00  0.00     0.230 C 
ATOM      5  C   UNL     1     -33.220  -5.698 -17.156  1.00  0.00     0.049 C 
ENDBRANCH   3   4
ENDBRANCH   1   3
BRANCH   1   6
ATOM      6  C   UNL     1     -36.841  -6.704 -15.155  1.00  0.00     0.064 A 
ATOM      7  C   UNL     1     -38.030  -7.315 -15.592  1.00  0.00     0.065 A 
ATOM      8  C   UNL     1     -36.239  -7.154 -13.967  1.00  0.00     0.020 A 
ATOM      9  C   UNL     1     -38.608  -8.359 -14.853  1.00  0.00     0.158 A 
ATOM     10  C   UNL     1     -36.815  -8.194 -13.232  1.00  0.00     0.051 A 
ATOM     11  C   UNL     1     -37.999  -8.799 -13.672  1.00  0.00     0.157 A 
BRANCH   9  12
ATOM     12  O   UNL     1     -39.785  -8.963 -15.289  1.00  0.00    -0.504 OA
ATOM     13  H   UNL     1     -39.790  -9.896 -15.684  1.00  0.00     0.293 HD
ENDBRANCH   9  12
BRANCH  11  14
ATOM     14  O   UNL     1     -38.576  -9.836 -12.941  1.00  0.00    -0.504 OA
ATOM     15  H   UNL     1     -38.818  -9.724 -11.964  1.00  0.00     0.293 HD
ENDBRANCH  11  14
ENDBRANCH   1   6
TORSDOF 5
ENDMDL
MODEL 5
REMARK VINA RESULT:    -5.469      7.910     10.051
REMARK INTER + INTRA:          -6.913
REMARK INTER:                  -6.616
REMARK INTRA:                  -0.297
REMARK UNBOUND:                -0.165
REMARK SMILES CCOC(=O)c1ccc(O)c(O)c1
REMARK SMILES IDX 4 1 5 2 3 3 2 4 1 5 6 6 13 7 7 8 11 9 8 10 9 11 12 12 10 14
REMARK H PARENT 12 13 10 15
REMARK Flexibility Score: inf
ROOT
ATOM      1  C   UNL     1     -36.363  -5.850 -13.418  1.00  0.00     0.338 C 
ATOM      2  O   UNL     1     -36.423  -4.840 -12.663  1.00  0.00    -0.246 OA
ENDROOT
BRANCH   1   3
ATOM      3  O   UNL     1     -35.264  -6.026 -14.266  1.00  0.00    -0.462 OA
BRANCH   3   4
ATOM      4  C   UNL     1     -35.140  -5.355 -15.515  1.00  0.00     0.230 C 
ATOM      5  C   UNL     1     -35.708  -6.230 -16.621  1.00  0.00     0.049 C 
ENDBRANCH   3   4
ENDBRANCH   1   3
BRANCH   1   6
ATOM      6  C   UNL     1     -37.454  -6.850 -13.410  1.00  0.00     0.064 A 
ATOM      7  C   UNL     1     -38.801  -6.444 -13.409  1.00  0.00     0.065 A 
ATOM      8  C   UNL     1     -37.155  -8.223 -13.404  1.00  0.00     0.020 A 
ATOM      9  C   UNL     1     -39.832  -7.396 -13.402  1.00  0.00     0.158 A 
ATOM     10  C   UNL     1     -38.183  -9.171 -13.397  1.00  0.00     0.051 A 
ATOM     11  C   UNL     1     -39.522  -8.761 -13.396  1.00  0.00     0.157 A 
BRANCH   9  12
ATOM     12  O   UNL     1     -41.165  -6.990 -13.402  1.00  0.00    -0.504 OA
ATOM     13  H   UNL     1     -41.762  -7.126 -12.594  1.00  0.00     0.293 HD
ENDBRANCH   9  12
BRANCH  11  14
ATOM     14  O   UNL     1     -40.549  -9.703 -13.389  1.00  0.00    -0.504 OA
ATOM     15  H   UNL     1     -40.827 -10.178 -12.538  1.00  0.00     0.293 HD
ENDBRANCH  11  14
ENDBRANCH   1   6
TORSDOF 5
ENDMDL
MODEL 6
REMARK VINA RESULT:    -5.388      7.028      9.387
REMARK INTER + INTRA:          -6.813
REMARK INTER:                  -6.513
REMARK INTRA:                  -0.300
REMARK UNBOUND:                -0.165
REMARK SMILES CCOC(=O)c1ccc(O)c(O)c1
REMARK SMILES IDX 4 1 5 2 3 3 2 4 1 5 6 6 13 7 7 8 11 9 8 10 9 11 12 12 10 14
REMARK H PARENT 12 13 10 15
REMARK Flexibility Score: inf
ROOT
ATOM      1  C   UNL     1     -36.099  -5.773 -16.076  1.00  0.00     0.338 C 
ATOM      2  O   UNL     1     -35.048  -6.045 -16.720  1.00  0.00    -0.246 OA
ENDROOT
BRANCH   1   3
ATOM      3  O   UNL     1     -36.649  -4.489 -16.145  1.00  0.00    -0.462 OA
BRANCH   3   4
ATOM      4  C   UNL     1     -36.244  -3.430 -15.283  1.00  0.00     0.230 C 
ATOM      5  C   UNL     1     -37.229  -3.305 -14.133  1.00  0.00     0.049 C 
ENDBRANCH   3   4
ENDBRANCH   1   3
BRANCH   1   6
ATOM      6  C   UNL     1     -36.752  -6.811 -15.248  1.00  0.00     0.064 A 
ATOM      7  C   UNL     1     -37.966  -7.395 -15.654  1.00  0.00     0.065 A 
ATOM      8  C   UNL     1     -36.165  -7.228 -14.041  1.00  0.00     0.020 A 
ATOM      9  C   UNL     1     -38.582  -8.379 -14.866  1.00  0.00     0.158 A 
ATOM     10  C   UNL     1     -36.779  -8.209 -13.257  1.00  0.00     0.051 A 
ATOM     11  C   UNL     1     -37.988  -8.786 -13.666  1.00  0.00     0.157 A 
BRANCH   9  12
ATOM     12  O   UNL     1     -39.785  -8.956 -15.272  1.00  0.00    -0.504 OA
ATOM     13  H   UNL     1     -40.421  -9.381 -14.607  1.00  0.00     0.293 HD
ENDBRANCH   9  12
BRANCH  11  14
ATOM     14  O   UNL     1     -38.603  -9.764 -12.886  1.00  0.00    -0.504 OA
ATOM     15  H   UNL     1     -39.578 -10.007 -13.012  1.00  0.00     0.293 HD
ENDBRANCH  11  14
ENDBRANCH   1   6
TORSDOF 5
ENDMDL
MODEL 7
REMARK VINA RESULT:    -5.344      6.891      8.595
REMARK INTER + INTRA:          -6.758
REMARK INTER:                  -6.469
REMARK INTRA:                  -0.289
REMARK UNBOUND:                -0.165
REMARK SMILES CCOC(=O)c1ccc(O)c(O)c1
REMARK SMILES IDX 4 1 5 2 3 3 2 4 1 5 6 6 13 7 7 8 11 9 8 10 9 11 12 12 10 14
REMARK H PARENT 12 13 10 15
REMARK Flexibility Score: inf
ROOT
ATOM      1  C   UNL     1     -37.933  -8.063 -14.792  1.00  0.00     0.338 C 
ATOM      2  O   UNL     1     -38.347  -8.594 -15.860  1.00  0.00    -0.246 OA
ENDROOT
BRANCH   1   3
ATOM      3  O   UNL     1     -38.477  -8.448 -13.562  1.00  0.00    -0.462 OA
BRANCH   3   4
ATOM      4  C   UNL     1     -39.876  -8.425 -13.297  1.00  0.00     0.230 C 
ATOM      5  C   UNL     1     -40.283  -7.035 -12.836  1.00  0.00     0.049 C 
ENDBRANCH   3   4
ENDBRANCH   1   3
BRANCH   1   6
ATOM      6  C   UNL     1     -36.872  -7.033 -14.838  1.00  0.00     0.064 A 
ATOM      7  C   UNL     1     -36.583  -6.248 -13.707  1.00  0.00     0.065 A 
ATOM      8  C   UNL     1     -36.136  -6.826 -16.018  1.00  0.00     0.020 A 
ATOM      9  C   UNL     1     -35.575  -5.273 -13.754  1.00  0.00     0.158 A 
ATOM     10  C   UNL     1     -35.132  -5.854 -16.064  1.00  0.00     0.051 A 
ATOM     11  C   UNL     1     -34.849  -5.076 -14.934  1.00  0.00     0.157 A 
BRANCH   9  12
ATOM     12  O   UNL     1     -35.292  -4.497 -12.632  1.00  0.00    -0.504 OA
ATOM     13  H   UNL     1     -36.024  -4.176 -12.009  1.00  0.00     0.293 HD
ENDBRANCH   9  12
BRANCH  11  14
ATOM     14  O   UNL     1     -33.848  -4.106 -14.978  1.00  0.00    -0.504 OA
ATOM     15  H   UNL     1     -32.868  -4.358 -15.020  1.00  0.00     0.293 HD
ENDBRANCH  11  14
ENDBRANCH   1   6
TORSDOF 5
ENDMDL
MODEL 8
REMARK VINA RESULT:    -5.308      8.478     10.657
REMARK INTER + INTRA:          -6.715
REMARK INTER:                  -6.412
REMARK INTRA:                  -0.302
REMARK UNBOUND:                -0.165
REMARK SMILES CCOC(=O)c1ccc(O)c(O)c1
REMARK SMILES IDX 4 1 5 2 3 3 2 4 1 5 6 6 13 7 7 8 11 9 8 10 9 11 12 12 10 14
REMARK H PARENT 12 13 10 15
REMARK Flexibility Score: inf
ROOT
ATOM      1  C   UNL     1     -36.901  -5.421 -13.397  1.00  0.00     0.338 C 
ATOM      2  O   UNL     1     -35.652  -5.547 -13.272  1.00  0.00    -0.246 OA
ENDROOT
BRANCH   1   3
ATOM      3  O   UNL     1     -37.466  -4.148 -13.536  1.00  0.00    -0.462 OA
BRANCH   3   4
ATOM      4  C   UNL     1     -37.173  -3.075 -12.647  1.00  0.00     0.230 C 
ATOM      5  C   UNL     1     -37.664  -3.421 -11.251  1.00  0.00     0.049 C 
ENDBRANCH   3   4
ENDBRANCH   1   3
BRANCH   1   6
ATOM      6  C   UNL     1     -37.773  -6.617 -13.399  1.00  0.00     0.064 A 
ATOM      7  C   UNL     1     -39.173  -6.486 -13.350  1.00  0.00     0.065 A 
ATOM      8  C   UNL     1     -37.210  -7.904 -13.450  1.00  0.00     0.020 A 
ATOM      9  C   UNL     1     -39.996  -7.622 -13.352  1.00  0.00     0.158 A 
ATOM     10  C   UNL     1     -38.030  -9.036 -13.453  1.00  0.00     0.051 A 
ATOM     11  C   UNL     1     -39.423  -8.899 -13.404  1.00  0.00     0.157 A 
BRANCH   9  12
ATOM     12  O   UNL     1     -41.382  -7.489 -13.304  1.00  0.00    -0.504 OA
ATOM     13  H   UNL     1     -41.976  -8.235 -12.962  1.00  0.00     0.293 HD
ENDBRANCH   9  12
BRANCH  11  14
ATOM     14  O   UNL     1     -40.244 -10.026 -13.406  1.00  0.00    -0.504 OA
ATOM     15  H   UNL     1     -40.546 -10.459 -14.270  1.00  0.00     0.293 HD
ENDBRANCH  11  14
ENDBRANCH   1   6
TORSDOF 5
ENDMDL
MODEL 9
REMARK VINA RESULT:    -5.196      2.734      4.799
REMARK INTER + INTRA:          -6.576
REMARK INTER:                  -6.414
REMARK INTRA:                  -0.161
REMARK UNBOUND:                -0.165
REMARK SMILES CCOC(=O)c1ccc(O)c(O)c1
REMARK SMILES IDX 4 1 5 2 3 3 2 4 1 5 6 6 13 7 7 8 11 9 8 10 9 11 12 12 10 14
REMARK H PARENT 12 13 10 15
REMARK Flexibility Score: inf
ROOT
ATOM      1  C   UNL     1     -31.506  -2.798 -18.045  1.00  0.00     0.338 C 
ATOM      2  O   UNL     1     -30.763  -2.741 -17.027  1.00  0.00    -0.246 OA
ENDROOT
BRANCH   1   3
ATOM      3  O   UNL     1     -31.105  -2.191 -19.240  1.00  0.00    -0.462 OA
BRANCH   3   4
ATOM      4  C   UNL     1     -29.996  -2.652 -20.003  1.00  0.00     0.230 C 
ATOM      5  C   UNL     1     -29.932  -1.892 -21.318  1.00  0.00     0.049 C 
ENDBRANCH   3   4
ENDBRANCH   1   3
BRANCH   1   6
ATOM      6  C   UNL     1     -32.804  -3.508 -17.979  1.00  0.00     0.064 A 
ATOM      7  C   UNL     1     -33.904  -3.066 -18.736  1.00  0.00     0.065 A 
ATOM      8  C   UNL     1     -32.951  -4.639 -17.157  1.00  0.00     0.020 A 
ATOM      9  C   UNL     1     -35.131  -3.742 -18.671  1.00  0.00     0.158 A 
ATOM     10  C   UNL     1     -34.175  -5.312 -17.093  1.00  0.00     0.051 A 
ATOM     11  C   UNL     1     -35.267  -4.866 -17.849  1.00  0.00     0.157 A 
BRANCH   9  12
ATOM     12  O   UNL     1     -36.219  -3.301 -19.423  1.00  0.00    -0.504 OA
ATOM     13  H   UNL     1     -36.186  -3.264 -20.435  1.00  0.00     0.293 HD
ENDBRANCH   9  12
BRANCH  11  14
ATOM     14  O   UNL     1     -36.488  -5.536 -17.787  1.00  0.00    -0.504 OA
ATOM     15  H   UNL     1     -36.856  -5.887 -16.911  1.00  0.00     0.293 HD
ENDBRANCH  11  14
ENDBRANCH   1   6
TORSDOF 5
ENDMDL
