MODEL 1
REMARK VINA RESULT:    -4.742      0.000      0.000
REMARK INTER + INTRA:          -8.208
REMARK INTER:                  -7.513
REMARK INTRA:                  -0.695
REMARK UNBOUND:                -0.695
REMARK SMILES CCCCCCCCCCCC(=O)[O-]
REMARK SMILES IDX 7 1 8 2 9 3 10 4 11 5 12 6 13 7 14 8 6 9 5 10 4 11 3 12 2 13
REMARK SMILES IDX 1 14
REMARK H PARENT
REMARK Flexibility Score: inf
ROOT
ATOM      1  C   UNL     1      48.296  34.175  12.303  1.00  0.00     0.000 C 
ENDROOT
BRANCH   1   2
ATOM      2  C   UNL     1      48.705  34.462  13.757  1.00  0.00     0.000 C 
BRANCH   2   3
ATOM      3  C   UNL     1      48.284  33.338  14.720  1.00  0.00     0.000 C 
BRANCH   3   4
ATOM      4  C   UNL     1      47.465  33.858  15.913  1.00  0.00     0.006 C 
BRANCH   4   5
ATOM      5  C   UNL     1      48.285  33.917  17.209  1.00  0.00     0.053 C 
BRANCH   5   6
ATOM      6  C   UNL     1      48.701  32.542  17.626  1.00  0.00     0.041 C 
ATOM      7  O   UNL     1      47.832  31.666  17.877  1.00  0.00    -0.550 OA
ATOM      8  O   UNL     1      50.049  32.213  17.690  1.00  0.00    -0.550 OA
ENDBRANCH   5   6
ENDBRANCH   4   5
ENDBRANCH   3   4
ENDBRANCH   2   3
ENDBRANCH   1   2
BRANCH   1   9
ATOM      9  C   UNL     1      46.826  34.528  12.024  1.00  0.00     0.000 C 
BRANCH   9  10
ATOM     10  C   UNL     1      46.373  35.809  12.746  1.00  0.00    -0.000 C 
BRANCH  10  11
ATOM     11  C   UNL     1      44.924  35.741  13.273  1.00  0.00    -0.000 C 
BRANCH  11  12
ATOM     12  C   UNL     1      43.888  35.887  12.144  1.00  0.00    -0.000 C 
BRANCH  12  13
ATOM     13  C   UNL     1      42.869  37.002  12.419  1.00  0.00    -0.003 C 
ATOM     14  C   UNL     1      42.968  38.154  11.418  1.00  0.00     0.004 C 
ENDBRANCH  12  13
ENDBRANCH  11  12
ENDBRANCH  10  11
ENDBRANCH   9  10
ENDBRANCH   1   9
TORSDOF 10
ENDMDL
MODEL 2
REMARK VINA RESULT:    -4.714      1.183      2.019
REMARK INTER + INTRA:          -8.164
REMARK INTER:                  -7.638
REMARK INTRA:                  -0.526
REMARK UNBOUND:                -0.695
REMARK SMILES CCCCCCCCCCCC(=O)[O-]
REMARK SMILES IDX 7 1 8 2 9 3 10 4 11 5 12 6 13 7 14 8 6 9 5 10 4 11 3 12 2 13
REMARK SMILES IDX 1 14
REMARK H PARENT
REMARK Flexibility Score: inf
ROOT
ATOM      1  C   UNL     1      48.878  34.481  13.850  1.00  0.00     0.000 C 
ENDROOT
BRANCH   1   2
ATOM      2  C   UNL     1      48.305  33.582  14.956  1.00  0.00     0.000 C 
BRANCH   2   3
ATOM      3  C   UNL     1      48.666  34.080  16.367  1.00  0.00     0.000 C 
BRANCH   3   4
ATOM      4  C   UNL     1      49.045  32.935  17.320  1.00  0.00     0.006 C 
BRANCH   4   5
ATOM      5  C   UNL     1      48.778  31.551  16.712  1.00  0.00     0.053 C 
BRANCH   5   6
ATOM      6  C   UNL     1      47.955  30.721  17.646  1.00  0.00     0.041 C 
ATOM      7  O   UNL     1      47.716  29.514  17.377  1.00  0.00    -0.550 OA
ATOM      8  O   UNL     1      47.494  31.266  18.837  1.00  0.00    -0.550 OA
ENDBRANCH   5   6
ENDBRANCH   4   5
ENDBRANCH   3   4
ENDBRANCH   2   3
ENDBRANCH   1   2
BRANCH   1   9
ATOM      9  C   UNL     1      48.584  33.942  12.440  1.00  0.00     0.000 C 
BRANCH   9  10
ATOM     10  C   UNL     1      47.162  34.280  11.958  1.00  0.00    -0.000 C 
BRANCH  10  11
ATOM     11  C   UNL     1      46.611  35.600  12.537  1.00  0.00    -0.000 C 
BRANCH  11  12
ATOM     12  C   UNL     1      45.139  35.476  12.966  1.00  0.00    -0.000 C 
BRANCH  12  13
ATOM     13  C   UNL     1      44.268  36.622  12.428  1.00  0.00    -0.003 C 
ATOM     14  C   UNL     1      42.812  36.209  12.215  1.00  0.00     0.004 C 
ENDBRANCH  12  13
ENDBRANCH  11  12
ENDBRANCH  10  11
ENDBRANCH   9  10
ENDBRANCH   1   9
TORSDOF 10
ENDMDL
MODEL 3
REMARK VINA RESULT:    -4.625      3.325      4.644
REMARK INTER + INTRA:          -8.024
REMARK INTER:                  -7.195
REMARK INTRA:                  -0.829
REMARK UNBOUND:                -0.695
REMARK SMILES CCCCCCCCCCCC(=O)[O-]
REMARK SMILES IDX 7 1 8 2 9 3 10 4 11 5 12 6 13 7 14 8 6 9 5 10 4 11 3 12 2 13
REMARK SMILES IDX 1 14
REMARK H PARENT
REMARK Flexibility Score: inf
ROOT
ATOM      1  C   UNL     1      47.658  34.144  16.661  1.00  0.00     0.000 C 
ENDROOT
BRANCH   1   2
ATOM      2  C   UNL     1      49.001  33.649  17.219  1.00  0.00     0.000 C 
BRANCH   2   3
ATOM      3  C   UNL     1      48.931  32.195  17.721  1.00  0.00     0.000 C 
BRANCH   3   4
ATOM      4  C   UNL     1      50.012  31.301  17.093  1.00  0.00     0.006 C 
BRANCH   4   5
ATOM      5  C   UNL     1      49.441  29.993  16.530  1.00  0.00     0.053 C 
BRANCH   5   6
ATOM      6  C   UNL     1      48.383  30.280  15.513  1.00  0.00     0.041 C 
ATOM      7  O   UNL     1      48.702  30.704  14.370  1.00  0.00    -0.550 OA
ATOM      8  O   UNL     1      47.050  30.031  15.808  1.00  0.00    -0.550 OA
ENDBRANCH   5   6
ENDBRANCH   4   5
ENDBRANCH   3   4
ENDBRANCH   2   3
ENDBRANCH   1   2
BRANCH   1   9
ATOM      9  C   UNL     1      47.488  33.828  15.166  1.00  0.00     0.000 C 
BRANCH   9  10
ATOM     10  C   UNL     1      48.752  34.138  14.345  1.00  0.00    -0.000 C 
BRANCH  10  11
ATOM     11  C   UNL     1      48.455  34.558  12.890  1.00  0.00    -0.000 C 
BRANCH  11  12
ATOM     12  C   UNL     1      48.211  33.346  11.974  1.00  0.00    -0.000 C 
BRANCH  12  13
ATOM     13  C   UNL     1      48.792  33.543  10.566  1.00  0.00    -0.003 C 
ATOM     14  C   UNL     1      50.317  33.652  10.565  1.00  0.00     0.004 C 
ENDBRANCH  12  13
ENDBRANCH  11  12
ENDBRANCH  10  11
ENDBRANCH   9  10
ENDBRANCH   1   9
TORSDOF 10
ENDMDL
MODEL 4
REMARK VINA RESULT:    -4.614      3.395      5.210
REMARK INTER + INTRA:          -8.006
REMARK INTER:                  -7.181
REMARK INTRA:                  -0.824
REMARK UNBOUND:                -0.695
REMARK SMILES CCCCCCCCCCCC(=O)[O-]
REMARK SMILES IDX 7 1 8 2 9 3 10 4 11 5 12 6 13 7 14 8 6 9 5 10 4 11 3 12 2 13
REMARK SMILES IDX 1 14
REMARK H PARENT
REMARK Flexibility Score: inf
ROOT
ATOM      1  C   UNL     1      49.215  32.289  17.594  1.00  0.00     0.000 C 
ENDROOT
BRANCH   1   2
ATOM      2  C   UNL     1      47.891  31.703  18.110  1.00  0.00     0.000 C 
BRANCH   2   3
ATOM      3  C   UNL     1      47.689  30.238  17.684  1.00  0.00     0.000 C 
BRANCH   3   4
ATOM      4  C   UNL     1      47.472  30.088  16.170  1.00  0.00     0.006 C 
BRANCH   4   5
ATOM      5  C   UNL     1      47.953  28.731  15.638  1.00  0.00     0.053 C 
BRANCH   5   6
ATOM      6  C   UNL     1      49.383  28.502  16.009  1.00  0.00     0.041 C 
ATOM      7  O   UNL     1      49.710  27.481  16.671  1.00  0.00    -0.550 OA
ATOM      8  O   UNL     1      50.363  29.388  15.581  1.00  0.00    -0.550 OA
ENDBRANCH   5   6
ENDBRANCH   4   5
ENDBRANCH   3   4
ENDBRANCH   2   3
ENDBRANCH   1   2
BRANCH   1   9
ATOM      9  C   UNL     1      49.048  33.704  17.018  1.00  0.00     0.000 C 
BRANCH   9  10
ATOM     10  C   UNL     1      47.984  33.776  15.909  1.00  0.00    -0.000 C 
BRANCH  10  11
ATOM     11  C   UNL     1      48.483  33.268  14.540  1.00  0.00    -0.000 C 
BRANCH  11  12
ATOM     12  C   UNL     1      48.245  34.294  13.418  1.00  0.00    -0.000 C 
BRANCH  12  13
ATOM     13  C   UNL     1      48.480  33.705  12.019  1.00  0.00    -0.003 C 
ATOM     14  C   UNL     1      49.963  33.564  11.678  1.00  0.00     0.004 C 
ENDBRANCH  12  13
ENDBRANCH  11  12
ENDBRANCH  10  11
ENDBRANCH   9  10
ENDBRANCH   1   9
TORSDOF 10
ENDMDL
MODEL 5
REMARK VINA RESULT:    -4.532      8.135     11.615
REMARK INTER + INTRA:          -7.877
REMARK INTER:                  -6.944
REMARK INTRA:                  -0.933
REMARK UNBOUND:                -0.695
REMARK SMILES CCCCCCCCCCCC(=O)[O-]
REMARK SMILES IDX 7 1 8 2 9 3 10 4 11 5 12 6 13 7 14 8 6 9 5 10 4 11 3 12 2 13
REMARK SMILES IDX 1 14
REMARK H PARENT
REMARK Flexibility Score: inf
ROOT
ATOM      1  C   UNL     1      48.423  25.735  19.459  1.00  0.00     0.000 C 
ENDROOT
BRANCH   1   2
ATOM      2  C   UNL     1      49.626  24.982  18.868  1.00  0.00     0.000 C 
BRANCH   2   3
ATOM      3  C   UNL     1      49.563  24.885  17.333  1.00  0.00     0.000 C 
BRANCH   3   4
ATOM      4  C   UNL     1      48.376  25.660  16.739  1.00  0.00     0.006 C 
BRANCH   4   5
ATOM      5  C   UNL     1      48.821  26.814  15.831  1.00  0.00     0.053 C 
BRANCH   5   6
ATOM      6  C   UNL     1      49.225  27.998  16.650  1.00  0.00     0.041 C 
ATOM      7  O   UNL     1      50.421  28.393  16.647  1.00  0.00    -0.550 OA
ATOM      8  O   UNL     1      48.271  28.697  17.378  1.00  0.00    -0.550 OA
ENDBRANCH   5   6
ENDBRANCH   4   5
ENDBRANCH   3   4
ENDBRANCH   2   3
ENDBRANCH   1   2
BRANCH   1   9
ATOM      9  C   UNL     1      48.228  25.451  20.957  1.00  0.00     0.000 C 
BRANCH   9  10
ATOM     10  C   UNL     1      48.188  26.733  21.807  1.00  0.00    -0.000 C 
BRANCH  10  11
ATOM     11  C   UNL     1      49.477  26.975  22.620  1.00  0.00    -0.000 C 
BRANCH  11  12
ATOM     12  C   UNL     1      50.364  25.719  22.690  1.00  0.00    -0.000 C 
BRANCH  12  13
ATOM     13  C   UNL     1      51.785  25.969  22.164  1.00  0.00    -0.003 C 
ATOM     14  C   UNL     1      52.254  27.407  22.387  1.00  0.00     0.004 C 
ENDBRANCH  12  13
ENDBRANCH  11  12
ENDBRANCH  10  11
ENDBRANCH   9  10
ENDBRANCH   1   9
TORSDOF 10
ENDMDL
MODEL 6
REMARK VINA RESULT:    -4.520     11.147     12.439
REMARK INTER + INTRA:          -7.856
REMARK INTER:                  -6.363
REMARK INTRA:                  -1.493
REMARK UNBOUND:                -0.695
REMARK SMILES CCCCCCCCCCCC(=O)[O-]
REMARK SMILES IDX 7 1 8 2 9 3 10 4 11 5 12 6 13 7 14 8 6 9 5 10 4 11 3 12 2 13
REMARK SMILES IDX 1 14
REMARK H PARENT
REMARK Flexibility Score: inf
ROOT
ATOM      1  C   UNL     1      38.836  38.976  24.700  1.00  0.00     0.000 C 
ENDROOT
BRANCH   1   2
ATOM      2  C   UNL     1      38.006  37.841  24.080  1.00  0.00     0.000 C 
BRANCH   2   3
ATOM      3  C   UNL     1      38.859  36.884  23.227  1.00  0.00     0.000 C 
BRANCH   3   4
ATOM      4  C   UNL     1      40.231  36.595  23.858  1.00  0.00     0.006 C 
BRANCH   4   5
ATOM      5  C   UNL     1      41.392  36.872  22.894  1.00  0.00     0.053 C 
BRANCH   5   6
ATOM      6  C   UNL     1      42.461  37.664  23.578  1.00  0.00     0.041 C 
ATOM      7  O   UNL     1      43.489  38.021  22.945  1.00  0.00    -0.550 OA
ATOM      8  O   UNL     1      42.298  38.053  24.901  1.00  0.00    -0.550 OA
ENDBRANCH   5   6
ENDBRANCH   4   5
ENDBRANCH   3   4
ENDBRANCH   2   3
ENDBRANCH   1   2
BRANCH   1   9
ATOM      9  C   UNL     1      38.228  40.363  24.435  1.00  0.00     0.000 C 
BRANCH   9  10
ATOM     10  C   UNL     1      39.292  41.432  24.132  1.00  0.00    -0.000 C 
BRANCH  10  11
ATOM     11  C   UNL     1      39.619  41.569  22.630  1.00  0.00    -0.000 C 
BRANCH  11  12
ATOM     12  C   UNL     1      40.789  40.665  22.205  1.00  0.00    -0.000 C 
BRANCH  12  13
ATOM     13  C   UNL     1      40.425  39.736  21.038  1.00  0.00    -0.003 C 
ATOM     14  C   UNL     1      38.922  39.685  20.769  1.00  0.00     0.004 C 
ENDBRANCH  12  13
ENDBRANCH  11  12
ENDBRANCH  10  11
ENDBRANCH   9  10
ENDBRANCH   1   9
TORSDOF 10
ENDMDL
MODEL 7
REMARK VINA RESULT:    -4.482     11.077     12.417
REMARK INTER + INTRA:          -7.796
REMARK INTER:                  -6.269
REMARK INTRA:                  -1.527
REMARK UNBOUND:                -0.695
REMARK SMILES CCCCCCCCCCCC(=O)[O-]
REMARK SMILES IDX 7 1 8 2 9 3 10 4 11 5 12 6 13 7 14 8 6 9 5 10 4 11 3 12 2 13
REMARK SMILES IDX 1 14
REMARK H PARENT
REMARK Flexibility Score: inf
ROOT
ATOM      1  C   UNL     1      37.823  39.018  22.730  1.00  0.00     0.000 C 
ENDROOT
BRANCH   1   2
ATOM      2  C   UNL     1      37.902  37.880  23.760  1.00  0.00     0.000 C 
BRANCH   2   3
ATOM      3  C   UNL     1      38.840  36.744  23.313  1.00  0.00     0.000 C 
BRANCH   3   4
ATOM      4  C   UNL     1      40.193  36.775  24.042  1.00  0.00     0.006 C 
BRANCH   4   5
ATOM      5  C   UNL     1      41.382  36.827  23.073  1.00  0.00     0.053 C 
BRANCH   5   6
ATOM      6  C   UNL     1      42.438  37.750  23.592  1.00  0.00     0.041 C 
ATOM      7  O   UNL     1      43.182  38.376  22.791  1.00  0.00    -0.550 OA
ATOM      8  O   UNL     1      42.567  37.960  24.959  1.00  0.00    -0.550 OA
ENDBRANCH   5   6
ENDBRANCH   4   5
ENDBRANCH   3   4
ENDBRANCH   2   3
ENDBRANCH   1   2
BRANCH   1   9
ATOM      9  C   UNL     1      38.687  38.749  21.488  1.00  0.00     0.000 C 
BRANCH   9  10
ATOM     10  C   UNL     1      39.857  39.739  21.350  1.00  0.00    -0.000 C 
BRANCH  10  11
ATOM     11  C   UNL     1      39.784  40.922  22.339  1.00  0.00    -0.000 C 
BRANCH  11  12
ATOM     12  C   UNL     1      41.168  41.299  22.896  1.00  0.00    -0.000 C 
BRANCH  12  13
ATOM     13  C   UNL     1      41.168  41.455  24.424  1.00  0.00    -0.003 C 
ATOM     14  C   UNL     1      40.190  40.506  25.116  1.00  0.00     0.004 C 
ENDBRANCH  12  13
ENDBRANCH  11  12
ENDBRANCH  10  11
ENDBRANCH   9  10
ENDBRANCH   1   9
TORSDOF 10
ENDMDL
MODEL 8
REMARK VINA RESULT:    -4.471      6.011      8.487
REMARK INTER + INTRA:          -7.779
REMARK INTER:                  -6.464
REMARK INTRA:                  -1.315
REMARK UNBOUND:                -0.695
REMARK SMILES CCCCCCCCCCCC(=O)[O-]
REMARK SMILES IDX 7 1 8 2 9 3 10 4 11 5 12 6 13 7 14 8 6 9 5 10 4 11 3 12 2 13
REMARK SMILES IDX 1 14
REMARK H PARENT
REMARK Flexibility Score: inf
ROOT
ATOM      1  C   UNL     1      40.020  34.635  11.114  1.00  0.00     0.000 C 
ENDROOT
BRANCH   1   2
ATOM      2  C   UNL     1      39.505  35.090  12.488  1.00  0.00     0.000 C 
BRANCH   2   3
ATOM      3  C   UNL     1      39.206  36.599  12.536  1.00  0.00     0.000 C 
BRANCH   3   4
ATOM      4  C   UNL     1      39.690  37.257  13.838  1.00  0.00     0.006 C 
BRANCH   4   5
ATOM      5  C   UNL     1      40.490  38.542  13.588  1.00  0.00     0.053 C 
BRANCH   5   6
ATOM      6  C   UNL     1      39.875  39.691  14.322  1.00  0.00     0.041 C 
ATOM      7  O   UNL     1      39.032  39.482  15.235  1.00  0.00    -0.550 OA
ATOM      8  O   UNL     1      40.269  40.991  14.034  1.00  0.00    -0.550 OA
ENDBRANCH   5   6
ENDBRANCH   4   5
ENDBRANCH   3   4
ENDBRANCH   2   3
ENDBRANCH   1   2
BRANCH   1   9
ATOM      9  C   UNL     1      40.269  35.814  10.158  1.00  0.00     0.000 C 
BRANCH   9  10
ATOM     10  C   UNL     1      41.765  36.108   9.951  1.00  0.00    -0.000 C 
BRANCH  10  11
ATOM     11  C   UNL     1      42.180  37.530  10.385  1.00  0.00    -0.000 C 
BRANCH  11  12
ATOM     12  C   UNL     1      43.178  37.511  11.556  1.00  0.00    -0.000 C 
BRANCH  12  13
ATOM     13  C   UNL     1      43.232  36.149  12.264  1.00  0.00    -0.003 C 
ATOM     14  C   UNL     1      44.634  35.796  12.761  1.00  0.00     0.004 C 
ENDBRANCH  12  13
ENDBRANCH  11  12
ENDBRANCH  10  11
ENDBRANCH   9  10
ENDBRANCH   1   9
TORSDOF 10
ENDMDL
MODEL 9
REMARK VINA RESULT:    -4.407     11.706     13.148
REMARK INTER + INTRA:          -7.678
REMARK INTER:                  -6.180
REMARK INTRA:                  -1.497
REMARK UNBOUND:                -0.695
REMARK SMILES CCCCCCCCCCCC(=O)[O-]
REMARK SMILES IDX 7 1 8 2 9 3 10 4 11 5 12 6 13 7 14 8 6 9 5 10 4 11 3 12 2 13
REMARK SMILES IDX 1 14
REMARK H PARENT
REMARK Flexibility Score: inf
ROOT
ATOM      1  C   UNL     1      38.559  37.233  23.131  1.00  0.00     0.000 C 
ENDROOT
BRANCH   1   2
ATOM      2  C   UNL     1      38.169  38.402  24.048  1.00  0.00     0.000 C 
BRANCH   2   3
ATOM      3  C   UNL     1      38.101  39.744  23.297  1.00  0.00     0.000 C 
BRANCH   3   4
ATOM      4  C   UNL     1      38.995  40.822  23.930  1.00  0.00     0.006 C 
BRANCH   4   5
ATOM      5  C   UNL     1      39.865  40.272  25.068  1.00  0.00     0.053 C 
BRANCH   5   6
ATOM      6  C   UNL     1      40.992  41.209  25.364  1.00  0.00     0.041 C 
ATOM      7  O   UNL     1      41.341  42.069  24.512  1.00  0.00    -0.550 OA
ATOM      8  O   UNL     1      41.624  41.168  26.600  1.00  0.00    -0.550 OA
ENDBRANCH   5   6
ENDBRANCH   4   5
ENDBRANCH   3   4
ENDBRANCH   2   3
ENDBRANCH   1   2
BRANCH   1   9
ATOM      9  C   UNL     1      39.557  36.270  23.795  1.00  0.00     0.000 C 
BRANCH   9  10
ATOM     10  C   UNL     1      40.954  36.888  23.972  1.00  0.00    -0.000 C 
BRANCH  10  11
ATOM     11  C   UNL     1      41.777  36.939  22.668  1.00  0.00    -0.000 C 
BRANCH  11  12
ATOM     12  C   UNL     1      42.816  38.074  22.680  1.00  0.00    -0.000 C 
BRANCH  12  13
ATOM     13  C   UNL     1      42.207  39.436  22.314  1.00  0.00    -0.003 C 
ATOM     14  C   UNL     1      41.214  39.348  21.155  1.00  0.00     0.004 C 
ENDBRANCH  12  13
ENDBRANCH  11  12
ENDBRANCH  10  11
ENDBRANCH   9  10
ENDBRANCH   1   9
TORSDOF 10
ENDMDL
