MODEL 1
REMARK VINA RESULT:    -4.178      0.000      0.000
REMARK INTER + INTRA:         -10.541
REMARK INTER:                  -7.841
REMARK INTRA:                  -2.700
REMARK UNBOUND:                -2.700
REMARK SMILES CCCCCCCCC=CCCCCCCCC(=O)[O-]
REMARK SMILES IDX 10 1 9 2 11 3 12 4 13 5 14 6 15 7 16 8 17 9 18 10 19 11
REMARK SMILES IDX 20 12 8 13 7 14 6 15 5 16 4 17 3 18 2 19 1 20
REMARK H PARENT
REMARK Flexibility Score: inf
ROOT
ATOM      1  C   UNL     1     106.352  94.791 117.496  1.00  0.00    -0.031 C 
ATOM      2  C   UNL     1     107.066  93.835 116.883  1.00  0.00    -0.031 C 
ENDROOT
BRANCH   1   3
ATOM      3  C   UNL     1     106.960  96.119 117.852  1.00  0.00     0.027 C 
BRANCH   3   4
ATOM      4  C   UNL     1     106.540  97.206 116.855  1.00  0.00     0.004 C 
BRANCH   4   5
ATOM      5  C   UNL     1     107.637  97.442 115.807  1.00  0.00     0.000 C 
BRANCH   5   6
ATOM      6  C   UNL     1     109.033  97.006 116.291  1.00  0.00     0.000 C 
BRANCH   6   7
ATOM      7  C   UNL     1     109.851  96.188 115.275  1.00  0.00     0.000 C 
BRANCH   7   8
ATOM      8  C   UNL     1     110.238  94.796 115.798  1.00  0.00     0.006 C 
BRANCH   8   9
ATOM      9  C   UNL     1     110.990  94.868 117.135  1.00  0.00     0.053 C 
BRANCH   9  10
ATOM     10  C   UNL     1     112.224  95.711 117.036  1.00  0.00     0.041 C 
ATOM     11  O   UNL     1     113.206  95.318 116.352  1.00  0.00    -0.550 OA
ATOM     12  O   UNL     1     112.279  96.944 117.674  1.00  0.00    -0.550 OA
ENDBRANCH   9  10
ENDBRANCH   8   9
ENDBRANCH   7   8
ENDBRANCH   6   7
ENDBRANCH   5   6
ENDBRANCH   4   5
ENDBRANCH   3   4
ENDBRANCH   1   3
BRANCH   2  13
ATOM     13  C   UNL     1     106.482  92.483 116.575  1.00  0.00     0.027 C 
BRANCH  13  14
ATOM     14  C   UNL     1     105.041  92.359 117.091  1.00  0.00     0.004 C 
BRANCH  14  15
ATOM     15  C   UNL     1     104.028  91.887 116.028  1.00  0.00     0.000 C 
BRANCH  15  16
ATOM     16  C   UNL     1     104.303  92.383 114.592  1.00  0.00     0.000 C 
BRANCH  16  17
ATOM     17  C   UNL     1     103.536  93.651 114.175  1.00  0.00    -0.000 C 
BRANCH  17  18
ATOM     18  C   UNL     1     104.176  94.941 114.716  1.00  0.00    -0.000 C 
BRANCH  18  19
ATOM     19  C   UNL     1     105.001  95.680 113.651  1.00  0.00    -0.003 C 
ATOM     20  C   UNL     1     106.397  95.086 113.462  1.00  0.00     0.004 C 
ENDBRANCH  18  19
ENDBRANCH  17  18
ENDBRANCH  16  17
ENDBRANCH  15  16
ENDBRANCH  14  15
ENDBRANCH  13  14
ENDBRANCH   2  13
TORSDOF 15
ENDMDL
MODEL 2
REMARK VINA RESULT:    -4.094      3.283      6.450
REMARK INTER + INTRA:         -10.385
REMARK INTER:                  -7.986
REMARK INTRA:                  -2.399
REMARK UNBOUND:                -2.700
REMARK SMILES CCCCCCCCC=CCCCCCCCC(=O)[O-]
REMARK SMILES IDX 10 1 9 2 11 3 12 4 13 5 14 6 15 7 16 8 17 9 18 10 19 11
REMARK SMILES IDX 20 12 8 13 7 14 6 15 5 16 4 17 3 18 2 19 1 20
REMARK H PARENT
REMARK Flexibility Score: inf
ROOT
ATOM      1  C   UNL     1     109.396  96.126 115.374  1.00  0.00    -0.031 C 
ATOM      2  C   UNL     1     109.408  94.811 115.636  1.00  0.00    -0.031 C 
ENDROOT
BRANCH   1   3
ATOM      3  C   UNL     1     108.299  96.755 114.561  1.00  0.00     0.027 C 
BRANCH   3   4
ATOM      4  C   UNL     1     107.697  97.966 115.285  1.00  0.00     0.004 C 
BRANCH   4   5
ATOM      5  C   UNL     1     107.900  97.853 116.803  1.00  0.00     0.000 C 
BRANCH   5   6
ATOM      6  C   UNL     1     106.648  97.346 117.540  1.00  0.00     0.000 C 
BRANCH   6   7
ATOM      7  C   UNL     1     106.650  95.843 117.875  1.00  0.00     0.000 C 
BRANCH   7   8
ATOM      8  C   UNL     1     105.839  95.004 116.873  1.00  0.00     0.006 C 
BRANCH   8   9
ATOM      9  C   UNL     1     106.171  93.508 116.969  1.00  0.00     0.053 C 
BRANCH   9  10
ATOM     10  C   UNL     1     105.345  92.692 116.023  1.00  0.00     0.041 C 
ATOM     11  O   UNL     1     104.390  91.993 116.455  1.00  0.00    -0.550 OA
ATOM     12  O   UNL     1     105.611  92.726 114.659  1.00  0.00    -0.550 OA
ENDBRANCH   9  10
ENDBRANCH   8   9
ENDBRANCH   7   8
ENDBRANCH   6   7
ENDBRANCH   5   6
ENDBRANCH   4   5
ENDBRANCH   3   4
ENDBRANCH   1   3
BRANCH   2  13
ATOM     13  C   UNL     1     110.533  94.165 116.400  1.00  0.00     0.027 C 
BRANCH  13  14
ATOM     14  C   UNL     1     111.071  95.088 117.502  1.00  0.00     0.004 C 
BRANCH  14  15
ATOM     15  C   UNL     1     112.360  95.844 117.119  1.00  0.00     0.000 C 
BRANCH  15  16
ATOM     16  C   UNL     1     113.037  95.368 115.816  1.00  0.00     0.000 C 
BRANCH  16  17
ATOM     17  C   UNL     1     113.119  96.420 114.695  1.00  0.00    -0.000 C 
BRANCH  17  18
ATOM     18  C   UNL     1     113.165  95.794 113.290  1.00  0.00    -0.000 C 
BRANCH  18  19
ATOM     19  C   UNL     1     111.848  95.100 112.911  1.00  0.00    -0.003 C 
ATOM     20  C   UNL     1     112.039  93.636 112.515  1.00  0.00     0.004 C 
ENDBRANCH  18  19
ENDBRANCH  17  18
ENDBRANCH  16  17
ENDBRANCH  15  16
ENDBRANCH  14  15
ENDBRANCH  13  14
ENDBRANCH   2  13
TORSDOF 15
ENDMDL
MODEL 3
REMARK VINA RESULT:    -4.035      1.355      3.015
REMARK INTER + INTRA:         -10.274
REMARK INTER:                  -7.760
REMARK INTRA:                  -2.514
REMARK UNBOUND:                -2.700
REMARK SMILES CCCCCCCCC=CCCCCCCCC(=O)[O-]
REMARK SMILES IDX 10 1 9 2 11 3 12 4 13 5 14 6 15 7 16 8 17 9 18 10 19 11
REMARK SMILES IDX 20 12 8 13 7 14 6 15 5 16 4 17 3 18 2 19 1 20
REMARK H PARENT
REMARK Flexibility Score: inf
ROOT
ATOM      1  C   UNL     1     107.409  97.375 115.369  1.00  0.00    -0.031 C 
ATOM      2  C   UNL     1     107.032  96.096 115.221  1.00  0.00    -0.031 C 
ENDROOT
BRANCH   1   3
ATOM      3  C   UNL     1     107.163  98.123 116.650  1.00  0.00     0.027 C 
BRANCH   3   4
ATOM      4  C   UNL     1     107.592  97.293 117.867  1.00  0.00     0.004 C 
BRANCH   4   5
ATOM      5  C   UNL     1     108.880  97.855 118.487  1.00  0.00     0.000 C 
BRANCH   5   6
ATOM      6  C   UNL     1     110.152  97.390 117.754  1.00  0.00     0.000 C 
BRANCH   6   7
ATOM      7  C   UNL     1     110.231  95.878 117.478  1.00  0.00     0.000 C 
BRANCH   7   8
ATOM      8  C   UNL     1     110.541  95.552 116.008  1.00  0.00     0.006 C 
BRANCH   8   9
ATOM      9  C   UNL     1     111.258  94.203 115.853  1.00  0.00     0.053 C 
BRANCH   9  10
ATOM     10  C   UNL     1     112.685  94.375 115.431  1.00  0.00     0.041 C 
ATOM     11  O   UNL     1     113.429  95.194 116.033  1.00  0.00    -0.550 OA
ATOM     12  O   UNL     1     113.202  93.609 114.393  1.00  0.00    -0.550 OA
ENDBRANCH   9  10
ENDBRANCH   8   9
ENDBRANCH   7   8
ENDBRANCH   6   7
ENDBRANCH   5   6
ENDBRANCH   4   5
ENDBRANCH   3   4
ENDBRANCH   1   3
BRANCH   2  13
ATOM     13  C   UNL     1     107.222  95.359 113.922  1.00  0.00     0.027 C 
BRANCH  13  14
ATOM     14  C   UNL     1     105.991  94.511 113.569  1.00  0.00     0.004 C 
BRANCH  14  15
ATOM     15  C   UNL     1     104.699  94.939 114.296  1.00  0.00     0.000 C 
BRANCH  15  16
ATOM     16  C   UNL     1     103.986  93.818 115.081  1.00  0.00     0.000 C 
BRANCH  16  17
ATOM     17  C   UNL     1     104.858  92.596 115.423  1.00  0.00    -0.000 C 
BRANCH  17  18
ATOM     18  C   UNL     1     105.115  92.450 116.933  1.00  0.00    -0.000 C 
BRANCH  18  19
ATOM     19  C   UNL     1     106.188  93.423 117.445  1.00  0.00    -0.003 C 
ATOM     20  C   UNL     1     107.611  92.938 117.171  1.00  0.00     0.004 C 
ENDBRANCH  18  19
ENDBRANCH  17  18
ENDBRANCH  16  17
ENDBRANCH  15  16
ENDBRANCH  14  15
ENDBRANCH  13  14
ENDBRANCH   2  13
TORSDOF 15
ENDMDL
MODEL 4
REMARK VINA RESULT:    -3.992      1.497      2.065
REMARK INTER + INTRA:         -10.194
REMARK INTER:                  -7.890
REMARK INTRA:                  -2.304
REMARK UNBOUND:                -2.700
REMARK SMILES CCCCCCCCC=CCCCCCCCC(=O)[O-]
REMARK SMILES IDX 10 1 9 2 11 3 12 4 13 5 14 6 15 7 16 8 17 9 18 10 19 11
REMARK SMILES IDX 20 12 8 13 7 14 6 15 5 16 4 17 3 18 2 19 1 20
REMARK H PARENT
REMARK Flexibility Score: inf
ROOT
ATOM      1  C   UNL     1     106.676  95.139 117.518  1.00  0.00    -0.031 C 
ATOM      2  C   UNL     1     107.153  94.583 116.394  1.00  0.00    -0.031 C 
ENDROOT
BRANCH   1   3
ATOM      3  C   UNL     1     106.940  96.581 117.853  1.00  0.00     0.027 C 
BRANCH   3   4
ATOM      4  C   UNL     1     108.115  97.134 117.036  1.00  0.00     0.004 C 
BRANCH   4   5
ATOM      5  C   UNL     1     109.375  97.260 117.906  1.00  0.00     0.000 C 
BRANCH   5   6
ATOM      6  C   UNL     1     110.639  96.720 117.214  1.00  0.00     0.000 C 
BRANCH   6   7
ATOM      7  C   UNL     1     111.020  95.275 117.583  1.00  0.00     0.000 C 
BRANCH   7   8
ATOM      8  C   UNL     1     110.793  94.282 116.432  1.00  0.00     0.006 C 
BRANCH   8   9
ATOM      9  C   UNL     1     112.063  94.063 115.597  1.00  0.00     0.053 C 
BRANCH   9  10
ATOM     10  C   UNL     1     112.017  94.816 114.303  1.00  0.00     0.041 C 
ATOM     11  O   UNL     1     112.460  95.993 114.239  1.00  0.00    -0.550 OA
ATOM     12  O   UNL     1     111.512  94.207 113.160  1.00  0.00    -0.550 OA
ENDBRANCH   9  10
ENDBRANCH   8   9
ENDBRANCH   7   8
ENDBRANCH   6   7
ENDBRANCH   5   6
ENDBRANCH   4   5
ENDBRANCH   3   4
ENDBRANCH   1   3
BRANCH   2  13
ATOM     13  C   UNL     1     106.943  93.126 116.080  1.00  0.00     0.027 C 
BRANCH  13  14
ATOM     14  C   UNL     1     106.022  92.453 117.108  1.00  0.00     0.004 C 
BRANCH  14  15
ATOM     15  C   UNL     1     104.602  92.153 116.583  1.00  0.00     0.000 C 
BRANCH  15  16
ATOM     16  C   UNL     1     104.408  92.354 115.065  1.00  0.00     0.000 C 
BRANCH  16  17
ATOM     17  C   UNL     1     103.262  93.303 114.668  1.00  0.00    -0.000 C 
BRANCH  17  18
ATOM     18  C   UNL     1     103.648  94.265 113.531  1.00  0.00    -0.000 C 
BRANCH  18  19
ATOM     19  C   UNL     1     104.581  95.390 114.004  1.00  0.00    -0.003 C 
ATOM     20  C   UNL     1     103.999  96.198 115.163  1.00  0.00     0.004 C 
ENDBRANCH  18  19
ENDBRANCH  17  18
ENDBRANCH  16  17
ENDBRANCH  15  16
ENDBRANCH  14  15
ENDBRANCH  13  14
ENDBRANCH   2  13
TORSDOF 15
ENDMDL
MODEL 5
REMARK VINA RESULT:    -3.985      4.378      7.800
REMARK INTER + INTRA:         -10.180
REMARK INTER:                  -8.401
REMARK INTRA:                  -1.779
REMARK UNBOUND:                -2.700
REMARK SMILES CCCCCCCCC=CCCCCCCCC(=O)[O-]
REMARK SMILES IDX 10 1 9 2 11 3 12 4 13 5 14 6 15 7 16 8 17 9 18 10 19 11
REMARK SMILES IDX 20 12 8 13 7 14 6 15 5 16 4 17 3 18 2 19 1 20
REMARK H PARENT
REMARK Flexibility Score: inf
ROOT
ATOM      1  C   UNL     1     107.263  93.766 116.853  1.00  0.00    -0.031 C 
ATOM      2  C   UNL     1     106.636  94.797 117.439  1.00  0.00    -0.031 C 
ENDROOT
BRANCH   1   3
ATOM      3  C   UNL     1     106.615  92.414 116.741  1.00  0.00     0.027 C 
BRANCH   3   4
ATOM      4  C   UNL     1     105.133  92.476 117.134  1.00  0.00     0.004 C 
BRANCH   4   5
ATOM      5  C   UNL     1     104.246  91.905 116.018  1.00  0.00     0.000 C 
BRANCH   5   6
ATOM      6  C   UNL     1     104.282  92.749 114.731  1.00  0.00     0.000 C 
BRANCH   6   7
ATOM      7  C   UNL     1     103.993  94.249 114.925  1.00  0.00     0.000 C 
BRANCH   7   8
ATOM      8  C   UNL     1     102.706  94.708 114.221  1.00  0.00     0.006 C 
BRANCH   8   9
ATOM      9  C   UNL     1     101.525  93.768 114.505  1.00  0.00     0.053 C 
BRANCH   9  10
ATOM     10  C   UNL     1     100.225  94.509 114.567  1.00  0.00     0.041 C 
ATOM     11  O   UNL     1      99.816  94.982 115.661  1.00  0.00    -0.550 OA
ATOM     12  O   UNL     1      99.478  94.706 113.411  1.00  0.00    -0.550 OA
ENDBRANCH   9  10
ENDBRANCH   8   9
ENDBRANCH   7   8
ENDBRANCH   6   7
ENDBRANCH   5   6
ENDBRANCH   4   5
ENDBRANCH   3   4
ENDBRANCH   1   3
BRANCH   2  13
ATOM     13  C   UNL     1     107.301  96.137 117.608  1.00  0.00     0.027 C 
BRANCH  13  14
ATOM     14  C   UNL     1     107.873  96.655 116.280  1.00  0.00     0.004 C 
BRANCH  14  15
ATOM     15  C   UNL     1     109.412  96.763 116.256  1.00  0.00     0.000 C 
BRANCH  15  16
ATOM     16  C   UNL     1     110.122  96.324 117.554  1.00  0.00     0.000 C 
BRANCH  16  17
ATOM     17  C   UNL     1     110.985  95.054 117.434  1.00  0.00    -0.000 C 
BRANCH  17  18
ATOM     18  C   UNL     1     110.906  94.407 116.041  1.00  0.00    -0.000 C 
BRANCH  18  19
ATOM     19  C   UNL     1     112.293  94.151 115.432  1.00  0.00    -0.003 C 
ATOM     20  C   UNL     1     113.064  95.439 115.145  1.00  0.00     0.004 C 
ENDBRANCH  18  19
ENDBRANCH  17  18
ENDBRANCH  16  17
ENDBRANCH  15  16
ENDBRANCH  14  15
ENDBRANCH  13  14
ENDBRANCH   2  13
TORSDOF 15
ENDMDL
MODEL 6
REMARK VINA RESULT:    -3.975      1.953      4.110
REMARK INTER + INTRA:         -10.162
REMARK INTER:                  -7.601
REMARK INTRA:                  -2.561
REMARK UNBOUND:                -2.700
REMARK SMILES CCCCCCCCC=CCCCCCCCC(=O)[O-]
REMARK SMILES IDX 10 1 9 2 11 3 12 4 13 5 14 6 15 7 16 8 17 9 18 10 19 11
REMARK SMILES IDX 20 12 8 13 7 14 6 15 5 16 4 17 3 18 2 19 1 20
REMARK H PARENT
REMARK Flexibility Score: inf
ROOT
ATOM      1  C   UNL     1     108.926  95.541 114.350  1.00  0.00    -0.031 C 
ATOM      2  C   UNL     1     109.153  96.739 114.909  1.00  0.00    -0.031 C 
ENDROOT
BRANCH   1   3
ATOM      3  C   UNL     1     109.504  95.177 113.011  1.00  0.00     0.027 C 
BRANCH   3   4
ATOM      4  C   UNL     1     110.584  96.179 112.583  1.00  0.00     0.004 C 
BRANCH   4   5
ATOM      5  C   UNL     1     111.858  95.450 112.131  1.00  0.00     0.000 C 
BRANCH   5   6
ATOM      6  C   UNL     1     112.891  95.289 113.261  1.00  0.00     0.000 C 
BRANCH   6   7
ATOM      7  C   UNL     1     112.781  93.981 114.067  1.00  0.00     0.000 C 
BRANCH   7   8
ATOM      8  C   UNL     1     112.319  94.206 115.516  1.00  0.00     0.006 C 
BRANCH   8   9
ATOM      9  C   UNL     1     112.671  95.612 116.023  1.00  0.00     0.053 C 
BRANCH   9  10
ATOM     10  C   UNL     1     111.916  95.960 117.269  1.00  0.00     0.041 C 
ATOM     11  O   UNL     1     111.352  95.056 117.941  1.00  0.00    -0.550 OA
ATOM     12  O   UNL     1     111.861  97.278 117.706  1.00  0.00    -0.550 OA
ENDBRANCH   9  10
ENDBRANCH   8   9
ENDBRANCH   7   8
ENDBRANCH   6   7
ENDBRANCH   5   6
ENDBRANCH   4   5
ENDBRANCH   3   4
ENDBRANCH   1   3
BRANCH   2  13
ATOM     13  C   UNL     1     108.531  97.133 116.222  1.00  0.00     0.027 C 
BRANCH  13  14
ATOM     14  C   UNL     1     108.060  95.905 117.015  1.00  0.00     0.004 C 
BRANCH  14  15
ATOM     15  C   UNL     1     106.612  96.008 117.538  1.00  0.00     0.000 C 
BRANCH  15  16
ATOM     16  C   UNL     1     105.529  96.153 116.448  1.00  0.00     0.000 C 
BRANCH  16  17
ATOM     17  C   UNL     1     105.131  94.846 115.738  1.00  0.00    -0.000 C 
BRANCH  17  18
ATOM     18  C   UNL     1     105.306  93.604 116.630  1.00  0.00    -0.000 C 
BRANCH  18  19
ATOM     19  C   UNL     1     106.328  92.609 116.060  1.00  0.00    -0.003 C 
ATOM     20  C   UNL     1     107.469  92.306 117.031  1.00  0.00     0.004 C 
ENDBRANCH  18  19
ENDBRANCH  17  18
ENDBRANCH  16  17
ENDBRANCH  15  16
ENDBRANCH  14  15
ENDBRANCH  13  14
ENDBRANCH   2  13
TORSDOF 15
ENDMDL
MODEL 7
REMARK VINA RESULT:    -3.948      2.540      4.080
REMARK INTER + INTRA:         -10.110
REMARK INTER:                  -7.601
REMARK INTRA:                  -2.509
REMARK UNBOUND:                -2.700
REMARK SMILES CCCCCCCCC=CCCCCCCCC(=O)[O-]
REMARK SMILES IDX 10 1 9 2 11 3 12 4 13 5 14 6 15 7 16 8 17 9 18 10 19 11
REMARK SMILES IDX 20 12 8 13 7 14 6 15 5 16 4 17 3 18 2 19 1 20
REMARK H PARENT
REMARK Flexibility Score: inf
ROOT
ATOM      1  C   UNL     1     108.097  93.373 116.636  1.00  0.00    -0.031 C 
ATOM      2  C   UNL     1     107.268  92.884 117.569  1.00  0.00    -0.031 C 
ENDROOT
BRANCH   1   3
ATOM      3  C   UNL     1     109.542  93.655 116.940  1.00  0.00     0.027 C 
BRANCH   3   4
ATOM      4  C   UNL     1     110.087  94.778 116.047  1.00  0.00     0.004 C 
BRANCH   4   5
ATOM      5  C   UNL     1     109.173  96.011 116.099  1.00  0.00     0.000 C 
BRANCH   5   6
ATOM      6  C   UNL     1     109.348  96.835 117.387  1.00  0.00     0.000 C 
BRANCH   6   7
ATOM      7  C   UNL     1     108.048  97.130 118.157  1.00  0.00     0.000 C 
BRANCH   7   8
ATOM      8  C   UNL     1     106.805  96.515 117.493  1.00  0.00     0.006 C 
BRANCH   8   9
ATOM      9  C   UNL     1     105.665  97.533 117.343  1.00  0.00     0.053 C 
BRANCH   9  10
ATOM     10  C   UNL     1     106.170  98.876 116.914  1.00  0.00     0.041 C 
ATOM     11  O   UNL     1     106.069  99.867 117.686  1.00  0.00    -0.550 OA
ATOM     12  O   UNL     1     106.780  99.029 115.674  1.00  0.00    -0.550 OA
ENDBRANCH   9  10
ENDBRANCH   8   9
ENDBRANCH   7   8
ENDBRANCH   6   7
ENDBRANCH   5   6
ENDBRANCH   4   5
ENDBRANCH   3   4
ENDBRANCH   1   3
BRANCH   2  13
ATOM     13  C   UNL     1     105.806  92.653 117.289  1.00  0.00     0.027 C 
BRANCH  13  14
ATOM     14  C   UNL     1     105.475  92.863 115.805  1.00  0.00     0.004 C 
BRANCH  14  15
ATOM     15  C   UNL     1     104.687  94.157 115.510  1.00  0.00     0.000 C 
BRANCH  15  16
ATOM     16  C   UNL     1     105.258  95.028 114.371  1.00  0.00     0.000 C 
BRANCH  16  17
ATOM     17  C   UNL     1     106.589  94.538 113.772  1.00  0.00    -0.000 C 
BRANCH  17  18
ATOM     18  C   UNL     1     106.654  94.706 112.244  1.00  0.00    -0.000 C 
BRANCH  18  19
ATOM     19  C   UNL     1     106.870  93.371 111.514  1.00  0.00    -0.003 C 
ATOM     20  C   UNL     1     106.109  92.211 112.157  1.00  0.00     0.004 C 
ENDBRANCH  18  19
ENDBRANCH  17  18
ENDBRANCH  16  17
ENDBRANCH  15  16
ENDBRANCH  14  15
ENDBRANCH  13  14
ENDBRANCH   2  13
TORSDOF 15
ENDMDL
MODEL 8
REMARK VINA RESULT:    -3.942      2.685      5.338
REMARK INTER + INTRA:         -10.100
REMARK INTER:                  -7.555
REMARK INTRA:                  -2.544
REMARK UNBOUND:                -2.700
REMARK SMILES CCCCCCCCC=CCCCCCCCC(=O)[O-]
REMARK SMILES IDX 10 1 9 2 11 3 12 4 13 5 14 6 15 7 16 8 17 9 18 10 19 11
REMARK SMILES IDX 20 12 8 13 7 14 6 15 5 16 4 17 3 18 2 19 1 20
REMARK H PARENT
REMARK Flexibility Score: inf
ROOT
ATOM      1  C   UNL     1     105.465  93.671 114.665  1.00  0.00    -0.031 C 
ATOM      2  C   UNL     1     104.633  93.062 115.522  1.00  0.00    -0.031 C 
ENDROOT
BRANCH   1   3
ATOM      3  C   UNL     1     104.957  94.343 113.420  1.00  0.00     0.027 C 
BRANCH   3   4
ATOM      4  C   UNL     1     106.069  95.142 112.728  1.00  0.00     0.004 C 
BRANCH   4   5
ATOM      5  C   UNL     1     107.407  94.966 113.462  1.00  0.00     0.000 C 
BRANCH   5   6
ATOM      6  C   UNL     1     107.967  96.290 114.014  1.00  0.00     0.000 C 
BRANCH   6   7
ATOM      7  C   UNL     1     106.926  97.221 114.662  1.00  0.00     0.000 C 
BRANCH   7   8
ATOM      8  C   UNL     1     106.653  96.881 116.136  1.00  0.00     0.006 C 
BRANCH   8   9
ATOM      9  C   UNL     1     105.218  97.231 116.555  1.00  0.00     0.053 C 
BRANCH   9  10
ATOM     10  C   UNL     1     105.167  98.477 117.383  1.00  0.00     0.041 C 
ATOM     11  O   UNL     1     104.091  98.824 117.940  1.00  0.00    -0.550 OA
ATOM     12  O   UNL     1     106.313  99.241 117.564  1.00  0.00    -0.550 OA
ENDBRANCH   9  10
ENDBRANCH   8   9
ENDBRANCH   7   8
ENDBRANCH   6   7
ENDBRANCH   5   6
ENDBRANCH   4   5
ENDBRANCH   3   4
ENDBRANCH   1   3
BRANCH   2  13
ATOM     13  C   UNL     1     105.139  92.336 116.740  1.00  0.00     0.027 C 
BRANCH  13  14
ATOM     14  C   UNL     1     106.153  93.184 117.522  1.00  0.00     0.004 C 
BRANCH  14  15
ATOM     15  C   UNL     1     107.627  92.818 117.249  1.00  0.00     0.000 C 
BRANCH  15  16
ATOM     16  C   UNL     1     108.529  93.998 116.829  1.00  0.00     0.000 C 
BRANCH  16  17
ATOM     17  C   UNL     1     110.036  93.689 116.780  1.00  0.00    -0.000 C 
BRANCH  17  18
ATOM     18  C   UNL     1     110.899  94.828 117.348  1.00  0.00    -0.000 C 
BRANCH  18  19
ATOM     19  C   UNL     1     110.642  96.169 116.643  1.00  0.00    -0.003 C 
ATOM     20  C   UNL     1     110.054  97.228 117.575  1.00  0.00     0.004 C 
ENDBRANCH  18  19
ENDBRANCH  17  18
ENDBRANCH  16  17
ENDBRANCH  15  16
ENDBRANCH  14  15
ENDBRANCH  13  14
ENDBRANCH   2  13
TORSDOF 15
ENDMDL
MODEL 9
REMARK VINA RESULT:    -3.909      1.217      4.127
REMARK INTER + INTRA:         -10.037
REMARK INTER:                  -7.582
REMARK INTRA:                  -2.456
REMARK UNBOUND:                -2.700
REMARK SMILES CCCCCCCCC=CCCCCCCCC(=O)[O-]
REMARK SMILES IDX 10 1 9 2 11 3 12 4 13 5 14 6 15 7 16 8 17 9 18 10 19 11
REMARK SMILES IDX 20 12 8 13 7 14 6 15 5 16 4 17 3 18 2 19 1 20
REMARK H PARENT
REMARK Flexibility Score: inf
ROOT
ATOM      1  C   UNL     1     104.417  92.698 114.574  1.00  0.00    -0.031 C 
ATOM      2  C   UNL     1     104.570  94.004 114.311  1.00  0.00    -0.031 C 
ENDROOT
BRANCH   1   3
ATOM      3  C   UNL     1     104.312  92.188 115.984  1.00  0.00     0.027 C 
BRANCH   3   4
ATOM      4  C   UNL     1     105.398  92.803 116.877  1.00  0.00     0.004 C 
BRANCH   4   5
ATOM      5  C   UNL     1     106.736  92.071 116.694  1.00  0.00     0.000 C 
BRANCH   5   6
ATOM      6  C   UNL     1     107.895  92.740 117.456  1.00  0.00     0.000 C 
BRANCH   6   7
ATOM      7  C   UNL     1     108.704  93.768 116.645  1.00  0.00     0.000 C 
BRANCH   7   8
ATOM      8  C   UNL     1     110.206  93.744 116.974  1.00  0.00     0.006 C 
BRANCH   8   9
ATOM      9  C   UNL     1     110.891  95.078 116.646  1.00  0.00     0.053 C 
BRANCH   9  10
ATOM     10  C   UNL     1     112.178  94.877 115.907  1.00  0.00     0.041 C 
ATOM     11  O   UNL     1     113.223  95.473 116.282  1.00  0.00    -0.550 OA
ATOM     12  O   UNL     1     112.232  94.009 114.823  1.00  0.00    -0.550 OA
ENDBRANCH   9  10
ENDBRANCH   8   9
ENDBRANCH   7   8
ENDBRANCH   6   7
ENDBRANCH   5   6
ENDBRANCH   4   5
ENDBRANCH   3   4
ENDBRANCH   1   3
BRANCH   2  13
ATOM     13  C   UNL     1     104.733  94.516 112.904  1.00  0.00     0.027 C 
BRANCH  13  14
ATOM     14  C   UNL     1     106.205  94.802 112.574  1.00  0.00     0.004 C 
BRANCH  14  15
ATOM     15  C   UNL     1     107.105  94.991 113.813  1.00  0.00     0.000 C 
BRANCH  15  16
ATOM     16  C   UNL     1     107.709  96.402 113.977  1.00  0.00     0.000 C 
BRANCH  16  17
ATOM     17  C   UNL     1     107.391  97.104 115.310  1.00  0.00    -0.000 C 
BRANCH  17  18
ATOM     18  C   UNL     1     106.297  96.384 116.118  1.00  0.00    -0.000 C 
BRANCH  18  19
ATOM     19  C   UNL     1     106.475  96.558 117.634  1.00  0.00    -0.003 C 
ATOM     20  C   UNL     1     107.886  97.000 118.021  1.00  0.00     0.004 C 
ENDBRANCH  18  19
ENDBRANCH  17  18
ENDBRANCH  16  17
ENDBRANCH  15  16
ENDBRANCH  14  15
ENDBRANCH  13  14
ENDBRANCH   2  13
TORSDOF 15
ENDMDL
