MODEL 1
REMARK VINA RESULT:    -6.934      0.000      0.000
REMARK INTER + INTRA:          -8.052
REMARK INTER:                  -7.947
REMARK INTRA:                  -0.105
REMARK UNBOUND:                -0.105
REMARK SMILES O=C1C[C@@H](c2ccc(O)cc2)Oc2cc(O)cc(O)c21
REMARK SMILES IDX 3 1 4 2 12 3 13 4 14 5 15 6 17 7 18 8 20 9 2 10 1 11 5 12
REMARK SMILES IDX 6 13 11 14 7 15 10 16 8 17 9 18 19 20 16 22
REMARK H PARENT 9 19 19 21 16 23
REMARK Flexibility Score: inf
ROOT
ATOM      1  C   UNL     1      12.788  11.940  13.148  1.00  0.00     0.131 C 
ATOM      2  C   UNL     1      12.555  11.174  14.464  1.00  0.00     0.211 C 
ATOM      3  O   UNL     1      13.521  10.131  14.646  1.00  0.00    -0.484 OA
ATOM      4  C   UNL     1      14.088   9.402  13.589  1.00  0.00     0.138 A 
ATOM      5  C   UNL     1      14.872   8.282  13.877  1.00  0.00     0.093 A 
ATOM      6  C   UNL     1      15.415   7.516  12.843  1.00  0.00     0.123 A 
ATOM      7  C   UNL     1      15.178   7.876  11.511  1.00  0.00     0.093 A 
ATOM      8  C   UNL     1      14.407   9.007  11.208  1.00  0.00     0.133 A 
ATOM      9  C   UNL     1      13.859   9.782  12.254  1.00  0.00     0.102 A 
ATOM     10  C   UNL     1      13.057  10.999  12.010  1.00  0.00     0.174 C 
ATOM     11  O   UNL     1      12.640  11.288  10.856  1.00  0.00    -0.294 OA
ENDROOT
BRANCH   2  12
ATOM     12  C   UNL     1      11.136  10.642  14.553  1.00  0.00    -0.007 A 
ATOM     13  C   UNL     1      10.158  11.399  15.223  1.00  0.00     0.011 A 
ATOM     14  C   UNL     1      10.753   9.440  13.927  1.00  0.00     0.011 A 
ATOM     15  C   UNL     1       8.835  10.953  15.290  1.00  0.00     0.046 A 
ATOM     16  C   UNL     1       9.429   8.996  13.996  1.00  0.00     0.046 A 
ATOM     17  C   UNL     1       8.466   9.750  14.679  1.00  0.00     0.115 A 
BRANCH  17  18
ATOM     18  O   UNL     1       7.145   9.317  14.754  1.00  0.00    -0.508 OA
ATOM     19  H   UNL     1       6.889   8.484  15.271  1.00  0.00     0.293 HD
ENDBRANCH  17  18
ENDBRANCH   2  12
BRANCH   8  20
ATOM     20  O   UNL     1      14.197   9.363   9.875  1.00  0.00    -0.507 OA
ATOM     21  H   UNL     1      14.533  10.243   9.501  1.00  0.00     0.293 HD
ENDBRANCH   8  20
BRANCH   6  22
ATOM     22  O   UNL     1      16.187   6.396  13.150  1.00  0.00    -0.508 OA
ATOM     23  H   UNL     1      17.145   6.485  13.468  1.00  0.00     0.293 HD
ENDBRANCH   6  22
TORSDOF 4
ENDMDL
MODEL 2
REMARK VINA RESULT:    -6.814      1.380      6.106
REMARK INTER + INTRA:          -7.914
REMARK INTER:                  -7.848
REMARK INTRA:                  -0.066
REMARK UNBOUND:                -0.105
REMARK SMILES O=C1C[C@@H](c2ccc(O)cc2)Oc2cc(O)cc(O)c21
REMARK SMILES IDX 3 1 4 2 12 3 13 4 14 5 15 6 17 7 18 8 20 9 2 10 1 11 5 12
REMARK SMILES IDX 6 13 11 14 7 15 10 16 8 17 9 18 19 20 16 22
REMARK H PARENT 9 19 19 21 16 23
REMARK Flexibility Score: inf
ROOT
ATOM      1  C   UNL     1      14.007  10.901  12.836  1.00  0.00     0.131 C 
ATOM      2  C   UNL     1      13.769   9.943  11.654  1.00  0.00     0.211 C 
ATOM      3  O   UNL     1      12.371   9.717  11.430  1.00  0.00    -0.484 OA
ATOM      4  C   UNL     1      11.412   9.697  12.454  1.00  0.00     0.138 A 
ATOM      5  C   UNL     1      10.111   9.281  12.161  1.00  0.00     0.093 A 
ATOM      6  C   UNL     1       9.147   9.214  13.170  1.00  0.00     0.123 A 
ATOM      7  C   UNL     1       9.486   9.573  14.481  1.00  0.00     0.093 A 
ATOM      8  C   UNL     1      10.783  10.008  14.785  1.00  0.00     0.133 A 
ATOM      9  C   UNL     1      11.756  10.077  13.764  1.00  0.00     0.102 A 
ATOM     10  C   UNL     1      13.136  10.548  14.007  1.00  0.00     0.174 C 
ATOM     11  O   UNL     1      13.576  10.710  15.177  1.00  0.00    -0.294 OA
ENDROOT
BRANCH   2  12
ATOM     12  C   UNL     1      14.523   8.639  11.837  1.00  0.00    -0.007 A 
ATOM     13  C   UNL     1      14.908   7.901  10.702  1.00  0.00     0.011 A 
ATOM     14  C   UNL     1      14.907   8.174  13.110  1.00  0.00     0.011 A 
ATOM     15  C   UNL     1      15.634   6.714  10.837  1.00  0.00     0.046 A 
ATOM     16  C   UNL     1      15.633   6.987  13.242  1.00  0.00     0.046 A 
ATOM     17  C   UNL     1      15.998   6.253  12.106  1.00  0.00     0.115 A 
BRANCH  17  18
ATOM     18  O   UNL     1      16.721   5.069  12.226  1.00  0.00    -0.508 OA
ATOM     19  H   UNL     1      17.661   4.982  11.855  1.00  0.00     0.293 HD
ENDBRANCH  17  18
ENDBRANCH   2  12
BRANCH   8  20
ATOM     20  O   UNL     1      11.097  10.381  16.093  1.00  0.00    -0.507 OA
ATOM     21  H   UNL     1      11.836   9.922  16.614  1.00  0.00     0.293 HD
ENDBRANCH   8  20
BRANCH   6  22
ATOM     22  O   UNL     1       7.857   8.786  12.860  1.00  0.00    -0.508 OA
ATOM     23  H   UNL     1       7.040   9.277  13.207  1.00  0.00     0.293 HD
ENDBRANCH   6  22
TORSDOF 4
ENDMDL
MODEL 3
REMARK VINA RESULT:    -6.407      1.851      2.601
REMARK INTER + INTRA:          -7.448
REMARK INTER:                  -7.290
REMARK INTRA:                  -0.158
REMARK UNBOUND:                -0.105
REMARK SMILES O=C1C[C@@H](c2ccc(O)cc2)Oc2cc(O)cc(O)c21
REMARK SMILES IDX 3 1 4 2 12 3 13 4 14 5 15 6 17 7 18 8 20 9 2 10 1 11 5 12
REMARK SMILES IDX 6 13 11 14 7 15 10 16 8 17 9 18 19 20 16 22
REMARK H PARENT 9 19 19 21 16 23
REMARK Flexibility Score: inf
ROOT
ATOM      1  C   UNL     1      11.625  11.548  14.536  1.00  0.00     0.131 C 
ATOM      2  C   UNL     1      11.503  10.013  14.547  1.00  0.00     0.211 C 
ATOM      3  O   UNL     1      12.737   9.383  14.179  1.00  0.00    -0.484 OA
ATOM      4  C   UNL     1      13.648   9.932  13.264  1.00  0.00     0.138 A 
ATOM      5  C   UNL     1      14.726   9.156  12.827  1.00  0.00     0.093 A 
ATOM      6  C   UNL     1      15.625   9.664  11.887  1.00  0.00     0.123 A 
ATOM      7  C   UNL     1      15.451  10.960  11.386  1.00  0.00     0.093 A 
ATOM      8  C   UNL     1      14.383  11.755  11.829  1.00  0.00     0.133 A 
ATOM      9  C   UNL     1      13.475  11.241  12.779  1.00  0.00     0.102 A 
ATOM     10  C   UNL     1      12.342  12.029  13.309  1.00  0.00     0.174 C 
ATOM     11  O   UNL     1      12.002  13.123  12.781  1.00  0.00    -0.294 OA
ENDROOT
BRANCH   2  12
ATOM     12  C   UNL     1      10.354   9.541  13.676  1.00  0.00    -0.007 A 
ATOM     13  C   UNL     1      10.620   9.088  12.371  1.00  0.00     0.011 A 
ATOM     14  C   UNL     1       9.031   9.484  14.156  1.00  0.00     0.011 A 
ATOM     15  C   UNL     1       9.587   8.613  11.557  1.00  0.00     0.046 A 
ATOM     16  C   UNL     1       8.000   9.009  13.340  1.00  0.00     0.046 A 
ATOM     17  C   UNL     1       8.275   8.574  12.037  1.00  0.00     0.115 A 
BRANCH  17  18
ATOM     18  O   UNL     1       7.255   8.100  11.216  1.00  0.00    -0.508 OA
ATOM     19  H   UNL     1       6.824   7.196  11.375  1.00  0.00     0.293 HD
ENDBRANCH  17  18
ENDBRANCH   2  12
BRANCH   8  20
ATOM     20  O   UNL     1      14.236  13.051  11.333  1.00  0.00    -0.507 OA
ATOM     21  H   UNL     1      14.895  13.787  11.563  1.00  0.00     0.293 HD
ENDBRANCH   8  20
BRANCH   6  22
ATOM     22  O   UNL     1      16.688   8.873  11.455  1.00  0.00    -0.508 OA
ATOM     23  H   UNL     1      17.076   8.971  10.524  1.00  0.00     0.293 HD
ENDBRANCH   6  22
TORSDOF 4
ENDMDL
MODEL 4
REMARK VINA RESULT:    -6.282      2.437      3.752
REMARK INTER + INTRA:          -7.305
REMARK INTER:                  -6.850
REMARK INTRA:                  -0.456
REMARK UNBOUND:                -0.105
REMARK SMILES O=C1C[C@@H](c2ccc(O)cc2)Oc2cc(O)cc(O)c21
REMARK SMILES IDX 3 1 4 2 12 3 13 4 14 5 15 6 17 7 18 8 20 9 2 10 1 11 5 12
REMARK SMILES IDX 6 13 11 14 7 15 10 16 8 17 9 18 19 20 16 22
REMARK H PARENT 9 19 19 21 16 23
REMARK Flexibility Score: inf
ROOT
ATOM      1  C   UNL     1      12.650   9.748  10.318  1.00  0.00     0.131 C 
ATOM      2  C   UNL     1      12.348  11.097  10.997  1.00  0.00     0.211 C 
ATOM      3  O   UNL     1      13.459  11.997  10.902  1.00  0.00    -0.484 OA
ATOM      4  C   UNL     1      14.799  11.582  10.903  1.00  0.00     0.138 A 
ATOM      5  C   UNL     1      15.810  12.542  10.999  1.00  0.00     0.093 A 
ATOM      6  C   UNL     1      17.151  12.154  11.043  1.00  0.00     0.123 A 
ATOM      7  C   UNL     1      17.484  10.794  10.983  1.00  0.00     0.093 A 
ATOM      8  C   UNL     1      16.481   9.821  10.870  1.00  0.00     0.133 A 
ATOM      9  C   UNL     1      15.126  10.216  10.825  1.00  0.00     0.102 A 
ATOM     10  C   UNL     1      14.017   9.248  10.683  1.00  0.00     0.174 C 
ATOM     11  O   UNL     1      14.210   8.009  10.810  1.00  0.00    -0.294 OA
ENDROOT
BRANCH   2  12
ATOM     12  C   UNL     1      11.906  10.906  12.437  1.00  0.00    -0.007 A 
ATOM     13  C   UNL     1      11.183   9.751  12.788  1.00  0.00     0.011 A 
ATOM     14  C   UNL     1      12.255  11.821  13.449  1.00  0.00     0.011 A 
ATOM     15  C   UNL     1      10.794   9.530  14.112  1.00  0.00     0.046 A 
ATOM     16  C   UNL     1      11.864  11.597  14.772  1.00  0.00     0.046 A 
ATOM     17  C   UNL     1      11.131  10.452  15.107  1.00  0.00     0.115 A 
BRANCH  17  18
ATOM     18  O   UNL     1      10.737  10.219  16.422  1.00  0.00    -0.508 OA
ATOM     19  H   UNL     1      10.180  10.893  16.936  1.00  0.00     0.293 HD
ENDBRANCH  17  18
ENDBRANCH   2  12
BRANCH   8  20
ATOM     20  O   UNL     1      16.832   8.473  10.792  1.00  0.00    -0.507 OA
ATOM     21  H   UNL     1      17.480   8.054  11.449  1.00  0.00     0.293 HD
ENDBRANCH   8  20
BRANCH   6  22
ATOM     22  O   UNL     1      18.145  13.125  11.149  1.00  0.00    -0.508 OA
ATOM     23  H   UNL     1      19.058  12.908  11.532  1.00  0.00     0.293 HD
ENDBRANCH   6  22
TORSDOF 4
ENDMDL
MODEL 5
REMARK VINA RESULT:    -6.088     12.756     15.078
REMARK INTER + INTRA:          -7.082
REMARK INTER:                  -6.622
REMARK INTRA:                  -0.460
REMARK UNBOUND:                -0.105
REMARK SMILES O=C1C[C@@H](c2ccc(O)cc2)Oc2cc(O)cc(O)c21
REMARK SMILES IDX 3 1 4 2 12 3 13 4 14 5 15 6 17 7 18 8 20 9 2 10 1 11 5 12
REMARK SMILES IDX 6 13 11 14 7 15 10 16 8 17 9 18 19 20 16 22
REMARK H PARENT 9 19 19 21 16 23
REMARK Flexibility Score: inf
ROOT
ATOM      1  C   UNL     1       3.184   3.434  21.486  1.00  0.00     0.131 C 
ATOM      2  C   UNL     1       3.548   2.400  22.570  1.00  0.00     0.211 C 
ATOM      3  O   UNL     1       3.235   2.881  23.883  1.00  0.00    -0.484 OA
ATOM      4  C   UNL     1       3.309   4.232  24.256  1.00  0.00     0.138 A 
ATOM      5  C   UNL     1       3.171   4.575  25.604  1.00  0.00     0.093 A 
ATOM      6  C   UNL     1       3.280   5.908  26.007  1.00  0.00     0.123 A 
ATOM      7  C   UNL     1       3.522   6.906  25.054  1.00  0.00     0.093 A 
ATOM      8  C   UNL     1       3.647   6.577  23.697  1.00  0.00     0.133 A 
ATOM      9  C   UNL     1       3.535   5.230  23.290  1.00  0.00     0.102 A 
ATOM     10  C   UNL     1       3.631   4.812  21.875  1.00  0.00     0.174 C 
ATOM     11  O   UNL     1       4.031   5.609  20.984  1.00  0.00    -0.294 OA
ENDROOT
BRANCH   2  12
ATOM     12  C   UNL     1       4.999   1.973  22.463  1.00  0.00    -0.007 A 
ATOM     13  C   UNL     1       5.678   1.543  23.618  1.00  0.00     0.011 A 
ATOM     14  C   UNL     1       5.673   1.932  21.226  1.00  0.00     0.011 A 
ATOM     15  C   UNL     1       7.004   1.109  23.545  1.00  0.00     0.046 A 
ATOM     16  C   UNL     1       7.000   1.497  21.157  1.00  0.00     0.046 A 
ATOM     17  C   UNL     1       7.670   1.086  22.316  1.00  0.00     0.115 A 
BRANCH  17  18
ATOM     18  O   UNL     1       8.992   0.651  22.257  1.00  0.00    -0.508 OA
ATOM     19  H   UNL     1       9.751   1.289  22.043  1.00  0.00     0.293 HD
ENDBRANCH  17  18
ENDBRANCH   2  12
BRANCH   8  20
ATOM     20  O   UNL     1       3.868   7.587  22.759  1.00  0.00    -0.507 OA
ATOM     21  H   UNL     1       4.763   8.057  22.686  1.00  0.00     0.293 HD
ENDBRANCH   8  20
BRANCH   6  22
ATOM     22  O   UNL     1       3.150   6.231  27.357  1.00  0.00    -0.508 OA
ATOM     23  H   UNL     1       2.421   5.821  27.930  1.00  0.00     0.293 HD
ENDBRANCH   6  22
TORSDOF 4
ENDMDL
MODEL 6
REMARK VINA RESULT:    -5.931      1.861      5.951
REMARK INTER + INTRA:          -6.902
REMARK INTER:                  -6.479
REMARK INTRA:                  -0.423
REMARK UNBOUND:                -0.105
REMARK SMILES O=C1C[C@@H](c2ccc(O)cc2)Oc2cc(O)cc(O)c21
REMARK SMILES IDX 3 1 4 2 12 3 13 4 14 5 15 6 17 7 18 8 20 9 2 10 1 11 5 12
REMARK SMILES IDX 6 13 11 14 7 15 10 16 8 17 9 18 19 20 16 22
REMARK H PARENT 9 19 19 21 16 23
REMARK Flexibility Score: inf
ROOT
ATOM      1  C   UNL     1      12.699  12.321  12.289  1.00  0.00     0.131 C 
ATOM      2  C   UNL     1      12.524  11.271  11.175  1.00  0.00     0.211 C 
ATOM      3  O   UNL     1      11.329  10.502  11.357  1.00  0.00    -0.484 OA
ATOM      4  C   UNL     1      10.798  10.174  12.614  1.00  0.00     0.138 A 
ATOM      5  C   UNL     1       9.741   9.263  12.691  1.00  0.00     0.093 A 
ATOM      6  C   UNL     1       9.220   8.890  13.932  1.00  0.00     0.123 A 
ATOM      7  C   UNL     1       9.756   9.437  15.105  1.00  0.00     0.093 A 
ATOM      8  C   UNL     1      10.805  10.365  15.041  1.00  0.00     0.133 A 
ATOM      9  C   UNL     1      11.330  10.743  13.786  1.00  0.00     0.102 A 
ATOM     10  C   UNL     1      12.419  11.732  13.641  1.00  0.00     0.174 C 
ATOM     11  O   UNL     1      13.079  12.129  14.638  1.00  0.00    -0.294 OA
ENDROOT
BRANCH   2  12
ATOM     12  C   UNL     1      13.748  10.382  11.054  1.00  0.00    -0.007 A 
ATOM     13  C   UNL     1      14.991  10.856  11.511  1.00  0.00     0.011 A 
ATOM     14  C   UNL     1      13.665   9.067  10.556  1.00  0.00     0.011 A 
ATOM     15  C   UNL     1      16.129  10.047  11.446  1.00  0.00     0.046 A 
ATOM     16  C   UNL     1      14.805   8.260  10.493  1.00  0.00     0.046 A 
ATOM     17  C   UNL     1      16.040   8.748  10.936  1.00  0.00     0.115 A 
BRANCH  17  18
ATOM     18  O   UNL     1      17.181   7.952  10.878  1.00  0.00    -0.508 OA
ATOM     19  H   UNL     1      17.276   7.118  11.446  1.00  0.00     0.293 HD
ENDBRANCH  17  18
ENDBRANCH   2  12
BRANCH   8  20
ATOM     20  O   UNL     1      11.313  10.916  16.219  1.00  0.00    -0.507 OA
ATOM     21  H   UNL     1      11.491  10.346  17.038  1.00  0.00     0.293 HD
ENDBRANCH   8  20
BRANCH   6  22
ATOM     22  O   UNL     1       8.173   7.971  13.990  1.00  0.00    -0.508 OA
ATOM     23  H   UNL     1       7.992   7.428  14.827  1.00  0.00     0.293 HD
ENDBRANCH   6  22
TORSDOF 4
ENDMDL
MODEL 7
REMARK VINA RESULT:    -5.808      1.954      6.315
REMARK INTER + INTRA:          -6.761
REMARK INTER:                  -6.302
REMARK INTRA:                  -0.459
REMARK UNBOUND:                -0.105
REMARK SMILES O=C1C[C@@H](c2ccc(O)cc2)Oc2cc(O)cc(O)c21
REMARK SMILES IDX 3 1 4 2 12 3 13 4 14 5 15 6 17 7 18 8 20 9 2 10 1 11 5 12
REMARK SMILES IDX 6 13 11 14 7 15 10 16 8 17 9 18 19 20 16 22
REMARK H PARENT 9 19 19 21 16 23
REMARK Flexibility Score: inf
ROOT
ATOM      1  C   UNL     1      15.230  10.891  11.235  1.00  0.00     0.131 C 
ATOM      2  C   UNL     1      14.491  10.017  10.203  1.00  0.00     0.211 C 
ATOM      3  O   UNL     1      13.087   9.943  10.484  1.00  0.00    -0.484 OA
ATOM      4  C   UNL     1      12.549   9.972  11.779  1.00  0.00     0.138 A 
ATOM      5  C   UNL     1      11.190   9.702  11.959  1.00  0.00     0.093 A 
ATOM      6  C   UNL     1      10.638   9.685  13.242  1.00  0.00     0.123 A 
ATOM      7  C   UNL     1      11.449   9.947  14.353  1.00  0.00     0.093 A 
ATOM      8  C   UNL     1      12.811  10.235  14.185  1.00  0.00     0.133 A 
ATOM      9  C   UNL     1      13.368  10.253  12.888  1.00  0.00     0.102 A 
ATOM     10  C   UNL     1      14.789  10.573  12.634  1.00  0.00     0.174 C 
ATOM     11  O   UNL     1      15.625  10.635  13.576  1.00  0.00    -0.294 OA
ENDROOT
BRANCH   2  12
ATOM     12  C   UNL     1      15.113   8.637  10.099  1.00  0.00    -0.007 A 
ATOM     13  C   UNL     1      16.506   8.497  10.236  1.00  0.00     0.011 A 
ATOM     14  C   UNL     1      14.329   7.479   9.931  1.00  0.00     0.011 A 
ATOM     15  C   UNL     1      17.104   7.235  10.180  1.00  0.00     0.046 A 
ATOM     16  C   UNL     1      14.930   6.218   9.875  1.00  0.00     0.046 A 
ATOM     17  C   UNL     1      16.319   6.093   9.998  1.00  0.00     0.115 A 
BRANCH  17  18
ATOM     18  O   UNL     1      16.927   4.841   9.944  1.00  0.00    -0.508 OA
ATOM     19  H   UNL     1      16.769   4.143  10.662  1.00  0.00     0.293 HD
ENDBRANCH  17  18
ENDBRANCH   2  12
BRANCH   8  20
ATOM     20  O   UNL     1      13.600  10.513  15.302  1.00  0.00    -0.507 OA
ATOM     21  H   UNL     1      13.235  11.025  16.097  1.00  0.00     0.293 HD
ENDBRANCH   8  20
BRANCH   6  22
ATOM     22  O   UNL     1       9.282   9.404  13.402  1.00  0.00    -0.508 OA
ATOM     23  H   UNL     1       8.778   8.833  12.734  1.00  0.00     0.293 HD
ENDBRANCH   6  22
TORSDOF 4
ENDMDL
MODEL 8
REMARK VINA RESULT:    -5.722      1.342      2.035
REMARK INTER + INTRA:          -6.663
REMARK INTER:                  -6.421
REMARK INTRA:                  -0.242
REMARK UNBOUND:                -0.105
REMARK SMILES O=C1C[C@@H](c2ccc(O)cc2)Oc2cc(O)cc(O)c21
REMARK SMILES IDX 3 1 4 2 12 3 13 4 14 5 15 6 17 7 18 8 20 9 2 10 1 11 5 12
REMARK SMILES IDX 6 13 11 14 7 15 10 16 8 17 9 18 19 20 16 22
REMARK H PARENT 9 19 19 21 16 23
REMARK Flexibility Score: inf
ROOT
ATOM      1  C   UNL     1      14.783  10.934  13.048  1.00  0.00     0.131 C 
ATOM      2  C   UNL     1      14.264  10.347  14.374  1.00  0.00     0.211 C 
ATOM      3  O   UNL     1      14.781   9.030  14.606  1.00  0.00    -0.484 OA
ATOM      4  C   UNL     1      15.062   8.112  13.583  1.00  0.00     0.138 A 
ATOM      5  C   UNL     1      15.380   6.793  13.918  1.00  0.00     0.093 A 
ATOM      6  C   UNL     1      15.626   5.851  12.917  1.00  0.00     0.123 A 
ATOM      7  C   UNL     1      15.560   6.231  11.571  1.00  0.00     0.093 A 
ATOM      8  C   UNL     1      15.259   7.555  11.221  1.00  0.00     0.133 A 
ATOM      9  C   UNL     1      15.012   8.508  12.233  1.00  0.00     0.102 A 
ATOM     10  C   UNL     1      14.712   9.926  11.940  1.00  0.00     0.174 C 
ATOM     11  O   UNL     1      14.451  10.310  10.768  1.00  0.00    -0.294 OA
ENDROOT
BRANCH   2  12
ATOM     12  C   UNL     1      12.748  10.369  14.434  1.00  0.00    -0.007 A 
ATOM     13  C   UNL     1      12.035   9.165  14.295  1.00  0.00     0.011 A 
ATOM     14  C   UNL     1      12.031  11.555  14.690  1.00  0.00     0.011 A 
ATOM     15  C   UNL     1      10.640   9.148  14.381  1.00  0.00     0.046 A 
ATOM     16  C   UNL     1      10.636  11.536  14.776  1.00  0.00     0.046 A 
ATOM     17  C   UNL     1       9.936  10.333  14.621  1.00  0.00     0.115 A 
BRANCH  17  18
ATOM     18  O   UNL     1       8.547  10.303  14.705  1.00  0.00    -0.508 OA
ATOM     19  H   UNL     1       8.069   9.732  15.394  1.00  0.00     0.293 HD
ENDBRANCH  17  18
ENDBRANCH   2  12
BRANCH   8  20
ATOM     20  O   UNL     1      15.218   7.921   9.875  1.00  0.00    -0.507 OA
ATOM     21  H   UNL     1      15.992   7.731   9.248  1.00  0.00     0.293 HD
ENDBRANCH   8  20
BRANCH   6  22
ATOM     22  O   UNL     1      15.931   4.537  13.271  1.00  0.00    -0.508 OA
ATOM     23  H   UNL     1      15.417   3.753  12.885  1.00  0.00     0.293 HD
ENDBRANCH   6  22
TORSDOF 4
ENDMDL
MODEL 9
REMARK VINA RESULT:    -5.390     15.259     16.521
REMARK INTER + INTRA:          -6.282
REMARK INTER:                  -5.841
REMARK INTRA:                  -0.442
REMARK UNBOUND:                -0.105
REMARK SMILES O=C1C[C@@H](c2ccc(O)cc2)Oc2cc(O)cc(O)c21
REMARK SMILES IDX 3 1 4 2 12 3 13 4 14 5 15 6 17 7 18 8 20 9 2 10 1 11 5 12
REMARK SMILES IDX 6 13 11 14 7 15 10 16 8 17 9 18 19 20 16 22
REMARK H PARENT 9 19 19 21 16 23
REMARK Flexibility Score: inf
ROOT
ATOM      1  C   UNL     1      19.998  -4.748  15.939  1.00  0.00     0.131 C 
ATOM      2  C   UNL     1      19.302  -6.123  15.940  1.00  0.00     0.211 C 
ATOM      3  O   UNL     1      19.483  -6.807  14.693  1.00  0.00    -0.484 OA
ATOM      4  C   UNL     1      19.580  -6.155  13.455  1.00  0.00     0.138 A 
ATOM      5  C   UNL     1      19.564  -6.914  12.281  1.00  0.00     0.093 A 
ATOM      6  C   UNL     1      19.619  -6.287  11.034  1.00  0.00     0.123 A 
ATOM      7  C   UNL     1      19.698  -4.891  10.960  1.00  0.00     0.093 A 
ATOM      8  C   UNL     1      19.733  -4.118  12.129  1.00  0.00     0.133 A 
ATOM      9  C   UNL     1      19.678  -4.753  13.389  1.00  0.00     0.102 A 
ATOM     10  C   UNL     1      19.734  -4.004  14.663  1.00  0.00     0.174 C 
ATOM     11  O   UNL     1      19.617  -2.749  14.691  1.00  0.00    -0.294 OA
ENDROOT
BRANCH   2  12
ATOM     12  C   UNL     1      17.833  -6.001  16.301  1.00  0.00    -0.007 A 
ATOM     13  C   UNL     1      16.940  -7.013  15.905  1.00  0.00     0.011 A 
ATOM     14  C   UNL     1      17.345  -4.932  17.078  1.00  0.00     0.011 A 
ATOM     15  C   UNL     1      15.588  -6.947  16.253  1.00  0.00     0.046 A 
ATOM     16  C   UNL     1      15.992  -4.869  17.425  1.00  0.00     0.046 A 
ATOM     17  C   UNL     1      15.110  -5.875  17.013  1.00  0.00     0.115 A 
BRANCH  17  18
ATOM     18  O   UNL     1      13.761  -5.821  17.353  1.00  0.00    -0.508 OA
ATOM     19  H   UNL     1      13.042  -6.165  16.726  1.00  0.00     0.293 HD
ENDBRANCH  17  18
ENDBRANCH   2  12
BRANCH   8  20
ATOM     20  O   UNL     1      19.832  -2.729  12.036  1.00  0.00    -0.507 OA
ATOM     21  H   UNL     1      20.389  -2.283  11.317  1.00  0.00     0.293 HD
ENDBRANCH   8  20
BRANCH   6  22
ATOM     22  O   UNL     1      19.590  -7.060   9.875  1.00  0.00    -0.508 OA
ATOM     23  H   UNL     1      19.146  -6.726   9.027  1.00  0.00     0.293 HD
ENDBRANCH   6  22
TORSDOF 4
ENDMDL
