MODEL 1
REMARK VINA RESULT:    -5.229      0.000      0.000
REMARK INTER + INTRA:          -8.524
REMARK INTER:                  -7.980
REMARK INTRA:                  -0.545
REMARK UNBOUND:                -0.545
REMARK SMILES O=C([O-])CCCCCCCCC(=O)[O-]
REMARK SMILES IDX 7 1 6 2 5 3 4 4 2 5 1 6 3 7 8 8 9 9 10 10 11 11 12 12 13 13
REMARK SMILES IDX 14 14
REMARK H PARENT
REMARK Flexibility Score: inf
ROOT
ATOM      1  C   UNL     1      10.908  23.019 -10.008  1.00  0.00     0.000 C 
ENDROOT
BRANCH   1   2
ATOM      2  C   UNL     1      11.460  24.304  -9.359  1.00  0.00     0.000 C 
BRANCH   2   3
ATOM      3  C   UNL     1      12.585  24.082  -8.328  1.00  0.00     0.006 C 
BRANCH   3   4
ATOM      4  C   UNL     1      12.438  22.798  -7.496  1.00  0.00     0.053 C 
BRANCH   4   5
ATOM      5  C   UNL     1      13.674  22.496  -6.707  1.00  0.00     0.041 C 
ATOM      6  O   UNL     1      14.765  22.278  -7.297  1.00  0.00    -0.550 OA
ATOM      7  O   UNL     1      13.631  22.488  -5.318  1.00  0.00    -0.550 OA
ENDBRANCH   4   5
ENDBRANCH   3   4
ENDBRANCH   2   3
ENDBRANCH   1   2
BRANCH   1   8
ATOM      8  C   UNL     1       9.408  22.756  -9.768  1.00  0.00     0.000 C 
BRANCH   8   9
ATOM      9  C   UNL     1       8.885  23.191  -8.387  1.00  0.00     0.000 C 
BRANCH   9  10
ATOM     10  C   UNL     1       7.666  24.124  -8.477  1.00  0.00     0.006 C 
BRANCH  10  11
ATOM     11  C   UNL     1       6.507  23.649  -7.593  1.00  0.00     0.053 C 
BRANCH  11  12
ATOM     12  C   UNL     1       6.745  23.967  -6.148  1.00  0.00     0.041 C 
ATOM     13  O   UNL     1       6.681  25.158  -5.743  1.00  0.00    -0.550 OA
ATOM     14  O   UNL     1       6.998  22.945  -5.243  1.00  0.00    -0.550 OA
ENDBRANCH  11  12
ENDBRANCH  10  11
ENDBRANCH   9  10
ENDBRANCH   8   9
ENDBRANCH   1   8
TORSDOF 9
ENDMDL
MODEL 2
REMARK VINA RESULT:    -5.228      0.218      5.892
REMARK INTER + INTRA:          -8.524
REMARK INTER:                  -7.980
REMARK INTRA:                  -0.544
REMARK UNBOUND:                -0.545
REMARK SMILES O=C([O-])CCCCCCCCC(=O)[O-]
REMARK SMILES IDX 7 1 6 2 5 3 4 4 2 5 1 6 3 7 8 8 9 9 10 10 11 11 12 12 13 13
REMARK SMILES IDX 14 14
REMARK H PARENT
REMARK Flexibility Score: inf
ROOT
ATOM      1  C   UNL     1       9.433  22.842  -9.792  1.00  0.00     0.000 C 
ENDROOT
BRANCH   1   2
ATOM      2  C   UNL     1       8.830  22.997  -8.381  1.00  0.00     0.000 C 
BRANCH   2   3
ATOM      3  C   UNL     1       7.743  24.083  -8.253  1.00  0.00     0.006 C 
BRANCH   3   4
ATOM      4  C   UNL     1       6.554  23.688  -7.363  1.00  0.00     0.053 C 
BRANCH   4   5
ATOM      5  C   UNL     1       6.794  24.025  -5.924  1.00  0.00     0.041 C 
ATOM      6  O   UNL     1       7.246  23.154  -5.135  1.00  0.00    -0.550 OA
ATOM      7  O   UNL     1       6.551  25.313  -5.460  1.00  0.00    -0.550 OA
ENDBRANCH   4   5
ENDBRANCH   3   4
ENDBRANCH   2   3
ENDBRANCH   1   2
BRANCH   1   8
ATOM      8  C   UNL     1      10.973  22.893  -9.854  1.00  0.00     0.000 C 
BRANCH   8   9
ATOM      9  C   UNL     1      11.593  24.260  -9.515  1.00  0.00     0.000 C 
BRANCH   9  10
ATOM     10  C   UNL     1      12.553  24.198  -8.314  1.00  0.00     0.006 C 
BRANCH  10  11
ATOM     11  C   UNL     1      12.484  22.849  -7.587  1.00  0.00     0.053 C 
BRANCH  11  12
ATOM     12  C   UNL     1      13.697  22.615  -6.739  1.00  0.00     0.041 C 
ATOM     13  O   UNL     1      13.605  22.641  -5.483  1.00  0.00    -0.550 OA
ATOM     14  O   UNL     1      14.919  22.329  -7.334  1.00  0.00    -0.550 OA
ENDBRANCH  11  12
ENDBRANCH  10  11
ENDBRANCH   9  10
ENDBRANCH   8   9
ENDBRANCH   1   8
TORSDOF 9
ENDMDL
MODEL 3
REMARK VINA RESULT:    -5.147      2.146      2.733
REMARK INTER + INTRA:          -8.400
REMARK INTER:                  -7.634
REMARK INTRA:                  -0.766
REMARK UNBOUND:                -0.545
REMARK SMILES O=C([O-])CCCCCCCCC(=O)[O-]
REMARK SMILES IDX 7 1 6 2 5 3 4 4 2 5 1 6 3 7 8 8 9 9 10 10 11 11 12 12 13 13
REMARK SMILES IDX 14 14
REMARK H PARENT
REMARK Flexibility Score: inf
ROOT
ATOM      1  C   UNL     1       8.235  22.133  -9.724  1.00  0.00     0.000 C 
ENDROOT
BRANCH   1   2
ATOM      2  C   UNL     1       9.560  22.917  -9.818  1.00  0.00     0.000 C 
BRANCH   2   3
ATOM      3  C   UNL     1      10.464  22.819  -8.572  1.00  0.00     0.006 C 
BRANCH   3   4
ATOM      4  C   UNL     1       9.940  21.872  -7.482  1.00  0.00     0.053 C 
BRANCH   4   5
ATOM      5  C   UNL     1      10.639  20.549  -7.505  1.00  0.00     0.041 C 
ATOM      6  O   UNL     1      10.031  19.504  -7.152  1.00  0.00    -0.550 OA
ATOM      7  O   UNL     1      11.954  20.462  -7.948  1.00  0.00    -0.550 OA
ENDBRANCH   4   5
ENDBRANCH   3   4
ENDBRANCH   2   3
ENDBRANCH   1   2
BRANCH   1   8
ATOM      8  C   UNL     1       7.034  22.790 -10.434  1.00  0.00     0.000 C 
BRANCH   8   9
ATOM      9  C   UNL     1       6.050  23.521  -9.503  1.00  0.00     0.000 C 
BRANCH   9  10
ATOM     10  C   UNL     1       6.351  23.284  -8.013  1.00  0.00     0.006 C 
BRANCH  10  11
ATOM     11  C   UNL     1       6.894  24.542  -7.326  1.00  0.00     0.053 C 
BRANCH  11  12
ATOM     12  C   UNL     1       6.833  24.429  -5.833  1.00  0.00     0.041 C 
ATOM     13  O   UNL     1       6.534  25.433  -5.134  1.00  0.00    -0.550 OA
ATOM     14  O   UNL     1       7.067  23.207  -5.217  1.00  0.00    -0.550 OA
ENDBRANCH  11  12
ENDBRANCH  10  11
ENDBRANCH   9  10
ENDBRANCH   8   9
ENDBRANCH   1   8
TORSDOF 9
ENDMDL
MODEL 4
REMARK VINA RESULT:    -5.143      1.691      5.764
REMARK INTER + INTRA:          -8.394
REMARK INTER:                  -7.786
REMARK INTRA:                  -0.608
REMARK UNBOUND:                -0.545
REMARK SMILES O=C([O-])CCCCCCCCC(=O)[O-]
REMARK SMILES IDX 7 1 6 2 5 3 4 4 2 5 1 6 3 7 8 8 9 9 10 10 11 11 12 12 13 13
REMARK SMILES IDX 14 14
REMARK H PARENT
REMARK Flexibility Score: inf
ROOT
ATOM      1  C   UNL     1       7.628  22.166 -10.137  1.00  0.00     0.000 C 
ENDROOT
BRANCH   1   2
ATOM      2  C   UNL     1       6.546  23.223  -9.837  1.00  0.00     0.000 C 
BRANCH   2   3
ATOM      3  C   UNL     1       6.154  23.349  -8.351  1.00  0.00     0.006 C 
BRANCH   3   4
ATOM      4  C   UNL     1       6.910  24.447  -7.586  1.00  0.00     0.053 C 
BRANCH   4   5
ATOM      5  C   UNL     1       6.769  24.297  -6.103  1.00  0.00     0.041 C 
ATOM      6  O   UNL     1       6.888  23.164  -5.566  1.00  0.00    -0.550 OA
ATOM      7  O   UNL     1       6.541  25.413  -5.308  1.00  0.00    -0.550 OA
ENDBRANCH   4   5
ENDBRANCH   3   4
ENDBRANCH   2   3
ENDBRANCH   1   2
BRANCH   1   8
ATOM      8  C   UNL     1       9.058  22.552  -9.710  1.00  0.00     0.000 C 
BRANCH   8   9
ATOM      9  C   UNL     1       9.622  21.747  -8.525  1.00  0.00     0.000 C 
BRANCH   9  10
ATOM     10  C   UNL     1      10.455  22.609  -7.561  1.00  0.00     0.006 C 
BRANCH  10  11
ATOM     11  C   UNL     1      11.955  22.541  -7.874  1.00  0.00     0.053 C 
BRANCH  11  12
ATOM     12  C   UNL     1      12.498  23.876  -8.281  1.00  0.00     0.041 C 
ATOM     13  O   UNL     1      13.511  24.351  -7.702  1.00  0.00    -0.550 OA
ATOM     14  O   UNL     1      11.910  24.579  -9.325  1.00  0.00    -0.550 OA
ENDBRANCH  11  12
ENDBRANCH  10  11
ENDBRANCH   9  10
ENDBRANCH   8   9
ENDBRANCH   1   8
TORSDOF 9
ENDMDL
MODEL 5
REMARK VINA RESULT:    -5.135      2.041      5.565
REMARK INTER + INTRA:          -8.381
REMARK INTER:                  -7.871
REMARK INTRA:                  -0.510
REMARK UNBOUND:                -0.545
REMARK SMILES O=C([O-])CCCCCCCCC(=O)[O-]
REMARK SMILES IDX 7 1 6 2 5 3 4 4 2 5 1 6 3 7 8 8 9 9 10 10 11 11 12 12 13 13
REMARK SMILES IDX 14 14
REMARK H PARENT
REMARK Flexibility Score: inf
ROOT
ATOM      1  C   UNL     1       7.211  22.526 -10.222  1.00  0.00     0.000 C 
ENDROOT
BRANCH   1   2
ATOM      2  C   UNL     1       6.320  23.611  -9.586  1.00  0.00     0.000 C 
BRANCH   2   3
ATOM      3  C   UNL     1       6.807  24.136  -8.220  1.00  0.00     0.006 C 
BRANCH   3   4
ATOM      4  C   UNL     1       6.074  23.535  -7.011  1.00  0.00     0.053 C 
BRANCH   4   5
ATOM      5  C   UNL     1       6.752  23.870  -5.719  1.00  0.00     0.041 C 
ATOM      6  O   UNL     1       6.670  25.033  -5.243  1.00  0.00    -0.550 OA
ATOM      7  O   UNL     1       7.449  22.890  -5.022  1.00  0.00    -0.550 OA
ENDBRANCH   4   5
ENDBRANCH   3   4
ENDBRANCH   2   3
ENDBRANCH   1   2
BRANCH   1   8
ATOM      8  C   UNL     1       8.453  22.132  -9.397  1.00  0.00     0.000 C 
BRANCH   8   9
ATOM      9  C   UNL     1       9.761  22.822  -9.823  1.00  0.00     0.000 C 
BRANCH   9  10
ATOM     10  C   UNL     1      10.780  22.930  -8.675  1.00  0.00     0.006 C 
BRANCH  10  11
ATOM     11  C   UNL     1      10.400  22.048  -7.480  1.00  0.00     0.053 C 
BRANCH  11  12
ATOM     12  C   UNL     1      10.965  20.666  -7.609  1.00  0.00     0.041 C 
ATOM     13  O   UNL     1      10.263  19.665  -7.306  1.00  0.00    -0.550 OA
ATOM     14  O   UNL     1      12.251  20.482  -8.099  1.00  0.00    -0.550 OA
ENDBRANCH  11  12
ENDBRANCH  10  11
ENDBRANCH   9  10
ENDBRANCH   8   9
ENDBRANCH   1   8
TORSDOF 9
ENDMDL
MODEL 6
REMARK VINA RESULT:    -5.082      1.709      5.948
REMARK INTER + INTRA:          -8.301
REMARK INTER:                  -7.600
REMARK INTRA:                  -0.700
REMARK UNBOUND:                -0.545
REMARK SMILES O=C([O-])CCCCCCCCC(=O)[O-]
REMARK SMILES IDX 7 1 6 2 5 3 4 4 2 5 1 6 3 7 8 8 9 9 10 10 11 11 12 12 13 13
REMARK SMILES IDX 14 14
REMARK H PARENT
REMARK Flexibility Score: inf
ROOT
ATOM      1  C   UNL     1       8.887  22.275  -8.603  1.00  0.00     0.000 C 
ENDROOT
BRANCH   1   2
ATOM      2  C   UNL     1       8.489  23.764  -8.625  1.00  0.00     0.000 C 
BRANCH   2   3
ATOM      3  C   UNL     1       7.025  24.053  -8.236  1.00  0.00     0.006 C 
BRANCH   3   4
ATOM      4  C   UNL     1       6.827  24.451  -6.765  1.00  0.00     0.053 C 
BRANCH   4   5
ATOM      5  C   UNL     1       6.243  23.334  -5.955  1.00  0.00     0.041 C 
ATOM      6  O   UNL     1       5.021  23.048  -6.057  1.00  0.00    -0.550 OA
ATOM      7  O   UNL     1       7.056  22.585  -5.113  1.00  0.00    -0.550 OA
ENDBRANCH   4   5
ENDBRANCH   3   4
ENDBRANCH   2   3
ENDBRANCH   1   2
BRANCH   1   8
ATOM      8  C   UNL     1       9.616  21.810  -7.326  1.00  0.00     0.000 C 
BRANCH   8   9
ATOM      9  C   UNL     1      10.709  20.750  -7.552  1.00  0.00     0.000 C 
BRANCH   9  10
ATOM     10  C   UNL     1      12.063  21.364  -7.947  1.00  0.00     0.006 C 
BRANCH  10  11
ATOM     11  C   UNL     1      12.437  22.558  -7.059  1.00  0.00     0.053 C 
BRANCH  11  12
ATOM     12  C   UNL     1      12.810  23.759  -7.873  1.00  0.00     0.041 C 
ATOM     13  O   UNL     1      13.857  24.406  -7.604  1.00  0.00    -0.550 OA
ATOM     14  O   UNL     1      12.023  24.142  -8.951  1.00  0.00    -0.550 OA
ENDBRANCH  11  12
ENDBRANCH  10  11
ENDBRANCH   9  10
ENDBRANCH   8   9
ENDBRANCH   1   8
TORSDOF 9
ENDMDL
MODEL 7
REMARK VINA RESULT:    -5.069      1.543      2.103
REMARK INTER + INTRA:          -8.281
REMARK INTER:                  -7.511
REMARK INTRA:                  -0.770
REMARK UNBOUND:                -0.545
REMARK SMILES O=C([O-])CCCCCCCCC(=O)[O-]
REMARK SMILES IDX 7 1 6 2 5 3 4 4 2 5 1 6 3 7 8 8 9 9 10 10 11 11 12 12 13 13
REMARK SMILES IDX 14 14
REMARK H PARENT
REMARK Flexibility Score: inf
ROOT
ATOM      1  C   UNL     1       9.598  21.658  -7.426  1.00  0.00     0.000 C 
ENDROOT
BRANCH   1   2
ATOM      2  C   UNL     1      10.701  20.640  -7.778  1.00  0.00     0.000 C 
BRANCH   2   3
ATOM      3  C   UNL     1      12.123  21.229  -7.876  1.00  0.00     0.006 C 
BRANCH   3   4
ATOM      4  C   UNL     1      12.342  22.500  -7.042  1.00  0.00     0.053 C 
BRANCH   4   5
ATOM      5  C   UNL     1      12.864  23.633  -7.871  1.00  0.00     0.041 C 
ATOM      6  O   UNL     1      12.200  24.056  -8.854  1.00  0.00    -0.550 OA
ATOM      7  O   UNL     1      14.067  24.244  -7.539  1.00  0.00    -0.550 OA
ENDBRANCH   4   5
ENDBRANCH   3   4
ENDBRANCH   2   3
ENDBRANCH   1   2
BRANCH   1   8
ATOM      8  C   UNL     1       8.871  22.281  -8.635  1.00  0.00     0.000 C 
BRANCH   8   9
ATOM      9  C   UNL     1       8.726  23.813  -8.586  1.00  0.00     0.000 C 
BRANCH   9  10
ATOM     10  C   UNL     1       7.259  24.275  -8.625  1.00  0.00     0.006 C 
BRANCH  10  11
ATOM     11  C   UNL     1       6.403  23.571  -7.565  1.00  0.00     0.053 C 
BRANCH  11  12
ATOM     12  C   UNL     1       6.729  24.047  -6.183  1.00  0.00     0.041 C 
ATOM     13  O   UNL     1       6.500  25.241  -5.854  1.00  0.00    -0.550 OA
ATOM     14  O   UNL     1       7.250  23.164  -5.246  1.00  0.00    -0.550 OA
ENDBRANCH  11  12
ENDBRANCH  10  11
ENDBRANCH   9  10
ENDBRANCH   8   9
ENDBRANCH   1   8
TORSDOF 9
ENDMDL
MODEL 8
REMARK VINA RESULT:    -4.935      1.876      2.033
REMARK INTER + INTRA:          -8.077
REMARK INTER:                  -7.399
REMARK INTRA:                  -0.678
REMARK UNBOUND:                -0.545
REMARK SMILES O=C([O-])CCCCCCCCC(=O)[O-]
REMARK SMILES IDX 7 1 6 2 5 3 4 4 2 5 1 6 3 7 8 8 9 9 10 10 11 11 12 12 13 13
REMARK SMILES IDX 14 14
REMARK H PARENT
REMARK Flexibility Score: inf
ROOT
ATOM      1  C   UNL     1      10.522  23.226 -10.104  1.00  0.00     0.000 C 
ENDROOT
BRANCH   1   2
ATOM      2  C   UNL     1      11.072  23.873  -8.817  1.00  0.00     0.000 C 
BRANCH   2   3
ATOM      3  C   UNL     1      12.123  23.032  -8.063  1.00  0.00     0.006 C 
BRANCH   3   4
ATOM      4  C   UNL     1      11.540  22.116  -6.976  1.00  0.00     0.053 C 
BRANCH   4   5
ATOM      5  C   UNL     1      11.270  20.736  -7.491  1.00  0.00     0.041 C 
ATOM      6  O   UNL     1      12.144  20.128  -8.163  1.00  0.00    -0.550 OA
ATOM      7  O   UNL     1      10.065  20.107  -7.201  1.00  0.00    -0.550 OA
ENDBRANCH   4   5
ENDBRANCH   3   4
ENDBRANCH   2   3
ENDBRANCH   1   2
BRANCH   1   8
ATOM      8  C   UNL     1       9.108  22.622  -9.980  1.00  0.00     0.000 C 
BRANCH   8   9
ATOM      9  C   UNL     1       8.439  22.812  -8.607  1.00  0.00     0.000 C 
BRANCH   9  10
ATOM     10  C   UNL     1       7.105  23.573  -8.695  1.00  0.00     0.006 C 
BRANCH  10  11
ATOM     11  C   UNL     1       6.850  24.438  -7.454  1.00  0.00     0.053 C 
BRANCH  11  12
ATOM     12  C   UNL     1       6.376  23.617  -6.293  1.00  0.00     0.041 C 
ATOM     13  O   UNL     1       7.132  23.421  -5.305  1.00  0.00    -0.550 OA
ATOM     14  O   UNL     1       5.086  23.101  -6.286  1.00  0.00    -0.550 OA
ENDBRANCH  11  12
ENDBRANCH  10  11
ENDBRANCH   9  10
ENDBRANCH   8   9
ENDBRANCH   1   8
TORSDOF 9
ENDMDL
MODEL 9
REMARK VINA RESULT:    -4.910      1.887      2.814
REMARK INTER + INTRA:          -8.038
REMARK INTER:                  -7.664
REMARK INTRA:                  -0.374
REMARK UNBOUND:                -0.545
REMARK SMILES O=C([O-])CCCCCCCCC(=O)[O-]
REMARK SMILES IDX 7 1 6 2 5 3 4 4 2 5 1 6 3 7 8 8 9 9 10 10 11 11 12 12 13 13
REMARK SMILES IDX 14 14
REMARK H PARENT
REMARK Flexibility Score: inf
ROOT
ATOM      1  C   UNL     1       7.603  22.216 -10.376  1.00  0.00     0.000 C 
ENDROOT
BRANCH   1   2
ATOM      2  C   UNL     1       8.763  22.243  -9.361  1.00  0.00     0.000 C 
BRANCH   2   3
ATOM      3  C   UNL     1       9.964  23.120  -9.767  1.00  0.00     0.006 C 
BRANCH   3   4
ATOM      4  C   UNL     1      11.144  23.074  -8.785  1.00  0.00     0.053 C 
BRANCH   4   5
ATOM      5  C   UNL     1      12.096  24.210  -8.996  1.00  0.00     0.041 C 
ATOM      6  O   UNL     1      12.068  24.869 -10.069  1.00  0.00    -0.550 OA
ATOM      7  O   UNL     1      12.993  24.564  -7.995  1.00  0.00    -0.550 OA
ENDBRANCH   4   5
ENDBRANCH   3   4
ENDBRANCH   2   3
ENDBRANCH   1   2
BRANCH   1   8
ATOM      8  C   UNL     1       6.429  23.163 -10.054  1.00  0.00     0.000 C 
BRANCH   8   9
ATOM      9  C   UNL     1       5.338  22.561  -9.151  1.00  0.00     0.000 C 
BRANCH   9  10
ATOM     10  C   UNL     1       5.270  23.232  -7.769  1.00  0.00     0.006 C 
BRANCH  10  11
ATOM     11  C   UNL     1       6.544  24.022  -7.446  1.00  0.00     0.053 C 
BRANCH  11  12
ATOM     12  C   UNL     1       6.788  24.101  -5.970  1.00  0.00     0.041 C 
ATOM     13  O   UNL     1       6.677  25.202  -5.368  1.00  0.00    -0.550 OA
ATOM     14  O   UNL     1       7.100  22.954  -5.252  1.00  0.00    -0.550 OA
ENDBRANCH  11  12
ENDBRANCH  10  11
ENDBRANCH   9  10
ENDBRANCH   8   9
ENDBRANCH   1   8
TORSDOF 9
ENDMDL
