MODEL 1
REMARK VINA RESULT:    -5.094      0.000      0.000
REMARK INTER + INTRA:          -8.959
REMARK INTER:                  -7.774
REMARK INTRA:                  -1.185
REMARK UNBOUND:                -1.185
REMARK SMILES CC(=O)CCC=C(C)CCC=C(C)CCC=C(C)C
REMARK SMILES IDX 10 1 11 2 12 3 13 4 14 5 15 6 16 7 18 8 17 9 19 10 9 11 7 12
REMARK SMILES IDX 6 13 8 14 5 15 4 16 2 17 3 18 1 19
REMARK H PARENT
REMARK Flexibility Score: inf
ROOT
ATOM      1  C   UNL     1     100.760 131.468 128.155  1.00  0.00     0.032 C 
ENDROOT
BRANCH   1   2
ATOM      2  C   UNL     1     100.419 131.382 126.689  1.00  0.00    -0.028 C 
ATOM      3  C   UNL     1     101.323 131.511 125.692  1.00  0.00    -0.077 C 
ATOM      4  C   UNL     1     102.800 131.667 125.968  1.00  0.00     0.039 C 
BRANCH   3   5
ATOM      5  C   UNL     1     100.839 131.527 124.256  1.00  0.00     0.034 C 
BRANCH   5   6
ATOM      6  C   UNL     1     100.035 132.800 123.949  1.00  0.00     0.032 C 
BRANCH   6   7
ATOM      7  C   UNL     1     100.826 134.049 124.258  1.00  0.00    -0.028 C 
ATOM      8  C   UNL     1      98.906 135.198 125.376  1.00  0.00     0.039 C 
ATOM      9  C   UNL     1     100.322 135.148 124.857  1.00  0.00    -0.080 C 
ATOM     10  C   UNL     1     101.217 136.352 125.021  1.00  0.00     0.039 C 
ENDBRANCH   6   7
ENDBRANCH   5   6
ENDBRANCH   3   5
ENDBRANCH   1   2
BRANCH   1  11
ATOM     11  C   UNL     1     101.061 130.072 128.715  1.00  0.00     0.034 C 
BRANCH  11  12
ATOM     12  C   UNL     1     102.219 130.111 129.690  1.00  0.00    -0.077 C 
ATOM     13  C   UNL     1     101.961 130.272 131.009  1.00  0.00    -0.028 C 
ATOM     14  C   UNL     1     103.631 130.027 129.156  1.00  0.00     0.039 C 
BRANCH  13  15
ATOM     15  C   UNL     1     103.017 130.318 132.087  1.00  0.00     0.035 C 
BRANCH  15  16
ATOM     16  C   UNL     1     103.487 131.758 132.336  1.00  0.00     0.079 C 
BRANCH  16  17
ATOM     17  C   UNL     1     103.073 132.323 133.676  1.00  0.00     0.130 C 
ATOM     18  O   UNL     1     102.033 132.963 133.741  1.00  0.00    -0.300 OA
ATOM     19  C   UNL     1     103.902 132.154 134.922  1.00  0.00     0.087 C 
ENDBRANCH  16  17
ENDBRANCH  15  16
ENDBRANCH  13  15
ENDBRANCH  11  12
ENDBRANCH   1  11
TORSDOF 9
ENDMDL
MODEL 2
REMARK VINA RESULT:    -4.962     12.589     14.397
REMARK INTER + INTRA:          -8.757
REMARK INTER:                  -6.863
REMARK INTRA:                  -1.894
REMARK UNBOUND:                -1.185
REMARK SMILES CC(=O)CCC=C(C)CCC=C(C)CCC=C(C)C
REMARK SMILES IDX 10 1 11 2 12 3 13 4 14 5 15 6 16 7 18 8 17 9 19 10 9 11 7 12
REMARK SMILES IDX 6 13 8 14 5 15 4 16 2 17 3 18 1 19
REMARK H PARENT
REMARK Flexibility Score: inf
ROOT
ATOM      1  C   UNL     1      98.583 140.862 134.333  1.00  0.00     0.032 C 
ENDROOT
BRANCH   1   2
ATOM      2  C   UNL     1      97.733 141.989 133.805  1.00  0.00    -0.028 C 
ATOM      3  C   UNL     1      97.242 142.991 134.568  1.00  0.00    -0.077 C 
ATOM      4  C   UNL     1      97.584 143.118 136.035  1.00  0.00     0.039 C 
BRANCH   3   5
ATOM      5  C   UNL     1      96.301 144.000 133.944  1.00  0.00     0.034 C 
BRANCH   5   6
ATOM      6  C   UNL     1      96.276 145.313 134.742  1.00  0.00     0.032 C 
BRANCH   6   7
ATOM      7  C   UNL     1      96.890 146.453 133.962  1.00  0.00    -0.028 C 
ATOM      8  C   UNL     1      98.437 147.114 135.814  1.00  0.00     0.039 C 
ATOM      9  C   UNL     1      97.827 147.295 134.445  1.00  0.00    -0.080 C 
ATOM     10  C   UNL     1      98.283 148.440 133.574  1.00  0.00     0.039 C 
ENDBRANCH   6   7
ENDBRANCH   5   6
ENDBRANCH   3   5
ENDBRANCH   1   2
BRANCH   1  11
ATOM     11  C   UNL     1      97.734 139.599 134.526  1.00  0.00     0.034 C 
BRANCH  11  12
ATOM     12  C   UNL     1      97.086 139.578 135.895  1.00  0.00    -0.077 C 
ATOM     13  C   UNL     1      95.752 139.789 135.993  1.00  0.00    -0.028 C 
ATOM     14  C   UNL     1      97.956 139.382 137.116  1.00  0.00     0.039 C 
BRANCH  13  15
ATOM     15  C   UNL     1      94.980 139.785 137.290  1.00  0.00     0.035 C 
BRANCH  15  16
ATOM     16  C   UNL     1      94.701 141.217 137.769  1.00  0.00     0.079 C 
BRANCH  16  17
ATOM     17  C   UNL     1      93.456 141.839 137.175  1.00  0.00     0.130 C 
ATOM     18  O   UNL     1      92.371 141.529 137.644  1.00  0.00    -0.300 OA
ATOM     19  C   UNL     1      93.500 142.798 136.015  1.00  0.00     0.087 C 
ENDBRANCH  16  17
ENDBRANCH  15  16
ENDBRANCH  13  15
ENDBRANCH  11  12
ENDBRANCH   1  11
TORSDOF 9
ENDMDL
MODEL 3
REMARK VINA RESULT:    -4.931     12.274     14.780
REMARK INTER + INTRA:          -8.710
REMARK INTER:                  -6.864
REMARK INTRA:                  -1.846
REMARK UNBOUND:                -1.185
REMARK SMILES CC(=O)CCC=C(C)CCC=C(C)CCC=C(C)C
REMARK SMILES IDX 10 1 11 2 12 3 13 4 14 5 15 6 16 7 18 8 17 9 19 10 9 11 7 12
REMARK SMILES IDX 6 13 8 14 5 15 4 16 2 17 3 18 1 19
REMARK H PARENT
REMARK Flexibility Score: inf
ROOT
ATOM      1  C   UNL     1      98.548 140.358 134.372  1.00  0.00     0.032 C 
ENDROOT
BRANCH   1   2
ATOM      2  C   UNL     1      97.422 139.480 134.858  1.00  0.00    -0.028 C 
ATOM      3  C   UNL     1      97.386 138.900 136.078  1.00  0.00    -0.077 C 
ATOM      4  C   UNL     1      98.452 139.158 137.117  1.00  0.00     0.039 C 
BRANCH   3   5
ATOM      5  C   UNL     1      96.259 137.942 136.405  1.00  0.00     0.034 C 
BRANCH   5   6
ATOM      6  C   UNL     1      94.936 138.690 136.638  1.00  0.00     0.032 C 
BRANCH   6   7
ATOM      7  C   UNL     1      95.075 139.755 137.701  1.00  0.00    -0.028 C 
ATOM      8  C   UNL     1      94.405 141.616 136.169  1.00  0.00     0.039 C 
ATOM      9  C   UNL     1      94.883 141.074 137.494  1.00  0.00    -0.080 C 
ATOM     10  C   UNL     1      95.144 142.026 138.635  1.00  0.00     0.039 C 
ENDBRANCH   6   7
ENDBRANCH   5   6
ENDBRANCH   3   5
ENDBRANCH   1   2
BRANCH   1  11
ATOM     11  C   UNL     1      97.995 141.520 133.538  1.00  0.00     0.034 C 
BRANCH  11  12
ATOM     12  C   UNL     1      97.464 142.627 134.425  1.00  0.00    -0.077 C 
ATOM     13  C   UNL     1      96.624 143.547 133.896  1.00  0.00    -0.028 C 
ATOM     14  C   UNL     1      97.934 142.707 135.861  1.00  0.00     0.039 C 
BRANCH  13  15
ATOM     15  C   UNL     1      96.015 144.693 134.667  1.00  0.00     0.035 C 
BRANCH  15  16
ATOM     16  C   UNL     1      96.655 146.029 134.264  1.00  0.00     0.079 C 
BRANCH  16  17
ATOM     17  C   UNL     1      96.120 147.226 135.018  1.00  0.00     0.130 C 
ATOM     18  O   UNL     1      94.953 147.209 135.384  1.00  0.00    -0.300 OA
ATOM     19  C   UNL     1      96.956 148.444 135.311  1.00  0.00     0.087 C 
ENDBRANCH  16  17
ENDBRANCH  15  16
ENDBRANCH  13  15
ENDBRANCH  11  12
ENDBRANCH   1  11
TORSDOF 9
ENDMDL
MODEL 4
REMARK VINA RESULT:    -4.929     11.803     13.706
REMARK INTER + INTRA:          -8.707
REMARK INTER:                  -7.529
REMARK INTRA:                  -1.179
REMARK UNBOUND:                -1.185
REMARK SMILES CC(=O)CCC=C(C)CCC=C(C)CCC=C(C)C
REMARK SMILES IDX 10 1 11 2 12 3 13 4 14 5 15 6 16 7 18 8 17 9 19 10 9 11 7 12
REMARK SMILES IDX 6 13 8 14 5 15 4 16 2 17 3 18 1 19
REMARK H PARENT
REMARK Flexibility Score: inf
ROOT
ATOM      1  C   UNL     1      98.147 141.095 133.844  1.00  0.00     0.032 C 
ENDROOT
BRANCH   1   2
ATOM      2  C   UNL     1      97.659 142.501 133.600  1.00  0.00    -0.028 C 
ATOM      3  C   UNL     1      96.717 143.117 134.348  1.00  0.00    -0.077 C 
ATOM      4  C   UNL     1      96.121 142.467 135.576  1.00  0.00     0.039 C 
BRANCH   3   5
ATOM      5  C   UNL     1      96.224 144.487 133.930  1.00  0.00     0.034 C 
BRANCH   5   6
ATOM      6  C   UNL     1      96.794 145.589 134.836  1.00  0.00     0.032 C 
BRANCH   6   7
ATOM      7  C   UNL     1      97.328 146.753 134.033  1.00  0.00    -0.028 C 
ATOM      8  C   UNL     1      95.890 148.439 135.195  1.00  0.00     0.039 C 
ATOM      9  C   UNL     1      96.901 148.027 134.152  1.00  0.00    -0.080 C 
ATOM     10  C   UNL     1      97.470 149.067 133.219  1.00  0.00     0.039 C 
ENDBRANCH   6   7
ENDBRANCH   5   6
ENDBRANCH   3   5
ENDBRANCH   1   2
BRANCH   1  11
ATOM     11  C   UNL     1      99.473 141.117 134.614  1.00  0.00     0.034 C 
BRANCH  11  12
ATOM     12  C   UNL     1      99.363 140.354 135.918  1.00  0.00    -0.077 C 
ATOM     13  C   UNL     1      98.269 139.587 136.139  1.00  0.00    -0.028 C 
ATOM     14  C   UNL     1     100.448 140.518 136.958  1.00  0.00     0.039 C 
BRANCH  13  15
ATOM     15  C   UNL     1      98.038 138.769 137.386  1.00  0.00     0.035 C 
BRANCH  15  16
ATOM     16  C   UNL     1      97.055 137.621 137.116  1.00  0.00     0.079 C 
BRANCH  16  17
ATOM     17  C   UNL     1      95.720 138.064 136.559  1.00  0.00     0.130 C 
ATOM     18  O   UNL     1      95.373 137.634 135.469  1.00  0.00    -0.300 OA
ATOM     19  C   UNL     1      94.819 139.033 137.280  1.00  0.00     0.087 C 
ENDBRANCH  16  17
ENDBRANCH  15  16
ENDBRANCH  13  15
ENDBRANCH  11  12
ENDBRANCH   1  11
TORSDOF 9
ENDMDL
MODEL 5
REMARK VINA RESULT:    -4.912     13.028     15.682
REMARK INTER + INTRA:          -8.681
REMARK INTER:                  -6.851
REMARK INTRA:                  -1.830
REMARK UNBOUND:                -1.185
REMARK SMILES CC(=O)CCC=C(C)CCC=C(C)CCC=C(C)C
REMARK SMILES IDX 10 1 11 2 12 3 13 4 14 5 15 6 16 7 18 8 17 9 19 10 9 11 7 12
REMARK SMILES IDX 6 13 8 14 5 15 4 16 2 17 3 18 1 19
REMARK H PARENT
REMARK Flexibility Score: inf
ROOT
ATOM      1  C   UNL     1      95.059 143.733 135.189  1.00  0.00     0.032 C 
ENDROOT
BRANCH   1   2
ATOM      2  C   UNL     1      95.214 142.263 135.484  1.00  0.00    -0.028 C 
ATOM      3  C   UNL     1      95.728 141.770 136.633  1.00  0.00    -0.077 C 
ATOM      4  C   UNL     1      96.121 142.669 137.782  1.00  0.00     0.039 C 
BRANCH   3   5
ATOM      5  C   UNL     1      95.944 140.276 136.763  1.00  0.00     0.034 C 
BRANCH   5   6
ATOM      6  C   UNL     1      96.774 139.726 135.592  1.00  0.00     0.032 C 
BRANCH   6   7
ATOM      7  C   UNL     1      98.216 140.171 135.671  1.00  0.00    -0.028 C 
ATOM      8  C   UNL     1      98.157 141.339 133.460  1.00  0.00     0.039 C 
ATOM      9  C   UNL     1      98.861 140.856 134.705  1.00  0.00    -0.080 C 
ATOM     10  C   UNL     1     100.328 141.156 134.892  1.00  0.00     0.039 C 
ENDBRANCH   6   7
ENDBRANCH   5   6
ENDBRANCH   3   5
ENDBRANCH   1   2
BRANCH   1  11
ATOM     11  C   UNL     1      96.301 144.265 134.464  1.00  0.00     0.034 C 
BRANCH  11  12
ATOM     12  C   UNL     1      96.728 145.608 135.020  1.00  0.00    -0.077 C 
ATOM     13  C   UNL     1      96.363 146.735 134.365  1.00  0.00    -0.028 C 
ATOM     14  C   UNL     1      97.597 145.648 136.257  1.00  0.00     0.039 C 
BRANCH  13  15
ATOM     15  C   UNL     1      96.710 148.134 134.813  1.00  0.00     0.035 C 
BRANCH  15  16
ATOM     16  C   UNL     1      97.607 148.836 133.782  1.00  0.00     0.079 C 
BRANCH  16  17
ATOM     17  C   UNL     1      99.008 148.273 133.693  1.00  0.00     0.130 C 
ATOM     18  O   UNL     1      99.649 148.141 134.725  1.00  0.00    -0.300 OA
ATOM     19  C   UNL     1      99.652 147.897 132.384  1.00  0.00     0.087 C 
ENDBRANCH  16  17
ENDBRANCH  15  16
ENDBRANCH  13  15
ENDBRANCH  11  12
ENDBRANCH   1  11
TORSDOF 9
ENDMDL
MODEL 6
REMARK VINA RESULT:    -4.883     12.996     15.248
REMARK INTER + INTRA:          -8.637
REMARK INTER:                  -6.269
REMARK INTRA:                  -2.368
REMARK UNBOUND:                -1.185
REMARK SMILES CC(=O)CCC=C(C)CCC=C(C)CCC=C(C)C
REMARK SMILES IDX 10 1 11 2 12 3 13 4 14 5 15 6 16 7 18 8 17 9 19 10 9 11 7 12
REMARK SMILES IDX 6 13 8 14 5 15 4 16 2 17 3 18 1 19
REMARK H PARENT
REMARK Flexibility Score: inf
ROOT
ATOM      1  C   UNL     1      97.305 143.625 136.816  1.00  0.00     0.032 C 
ENDROOT
BRANCH   1   2
ATOM      2  C   UNL     1      97.868 142.661 135.803  1.00  0.00    -0.028 C 
ATOM      3  C   UNL     1      97.514 142.640 134.499  1.00  0.00    -0.077 C 
ATOM      4  C   UNL     1      96.568 143.661 133.911  1.00  0.00     0.039 C 
BRANCH   3   5
ATOM      5  C   UNL     1      98.060 141.545 133.605  1.00  0.00     0.034 C 
BRANCH   5   6
ATOM      6  C   UNL     1      98.425 140.290 134.414  1.00  0.00     0.032 C 
BRANCH   6   7
ATOM      7  C   UNL     1      97.227 139.393 134.625  1.00  0.00    -0.028 C 
ATOM      8  C   UNL     1      97.525 139.287 137.107  1.00  0.00     0.039 C 
ATOM      9  C   UNL     1      96.838 138.900 135.819  1.00  0.00    -0.080 C 
ATOM     10  C   UNL     1      95.670 137.947 135.858  1.00  0.00     0.039 C 
ENDBRANCH   6   7
ENDBRANCH   5   6
ENDBRANCH   3   5
ENDBRANCH   1   2
BRANCH   1  11
ATOM     11  C   UNL     1      96.300 142.913 137.730  1.00  0.00     0.034 C 
BRANCH  11  12
ATOM     12  C   UNL     1      94.933 142.833 137.083  1.00  0.00    -0.077 C 
ATOM     13  C   UNL     1      94.233 143.974 136.882  1.00  0.00    -0.028 C 
ATOM     14  C   UNL     1      94.364 141.475 136.735  1.00  0.00     0.039 C 
BRANCH  13  15
ATOM     15  C   UNL     1      92.869 144.038 136.241  1.00  0.00     0.035 C 
BRANCH  15  16
ATOM     16  C   UNL     1      91.806 144.489 137.254  1.00  0.00     0.079 C 
BRANCH  16  17
ATOM     17  C   UNL     1      91.518 143.479 138.342  1.00  0.00     0.130 C 
ATOM     18  O   UNL     1      91.825 143.758 139.491  1.00  0.00    -0.300 OA
ATOM     19  C   UNL     1      90.895 142.136 138.062  1.00  0.00     0.087 C 
ENDBRANCH  16  17
ENDBRANCH  15  16
ENDBRANCH  13  15
ENDBRANCH  11  12
ENDBRANCH   1  11
TORSDOF 9
ENDMDL
MODEL 7
REMARK VINA RESULT:    -4.871     13.404     15.851
REMARK INTER + INTRA:          -8.618
REMARK INTER:                  -6.831
REMARK INTRA:                  -1.787
REMARK UNBOUND:                -1.185
REMARK SMILES CC(=O)CCC=C(C)CCC=C(C)CCC=C(C)C
REMARK SMILES IDX 10 1 11 2 12 3 13 4 14 5 15 6 16 7 18 8 17 9 19 10 9 11 7 12
REMARK SMILES IDX 6 13 8 14 5 15 4 16 2 17 3 18 1 19
REMARK H PARENT
REMARK Flexibility Score: inf
ROOT
ATOM      1  C   UNL     1      94.826 143.128 135.688  1.00  0.00     0.032 C 
ENDROOT
BRANCH   1   2
ATOM      2  C   UNL     1      95.052 141.637 135.680  1.00  0.00    -0.028 C 
ATOM      3  C   UNL     1      95.702 140.964 136.656  1.00  0.00    -0.077 C 
ATOM      4  C   UNL     1      96.192 141.650 137.910  1.00  0.00     0.039 C 
BRANCH   3   5
ATOM      5  C   UNL     1      95.971 139.484 136.475  1.00  0.00     0.034 C 
BRANCH   5   6
ATOM      6  C   UNL     1      96.915 139.225 135.290  1.00  0.00     0.032 C 
BRANCH   6   7
ATOM      7  C   UNL     1      98.272 139.853 135.509  1.00  0.00    -0.028 C 
ATOM      8  C   UNL     1      98.077 141.379 133.536  1.00  0.00     0.039 C 
ATOM      9  C   UNL     1      98.824 140.787 134.706  1.00  0.00    -0.080 C 
ATOM     10  C   UNL     1     100.225 141.258 135.007  1.00  0.00     0.039 C 
ENDBRANCH   6   7
ENDBRANCH   5   6
ENDBRANCH   3   5
ENDBRANCH   1   2
BRANCH   1  11
ATOM     11  C   UNL     1      95.570 143.786 134.519  1.00  0.00     0.034 C 
BRANCH  11  12
ATOM     12  C   UNL     1      96.475 144.900 135.003  1.00  0.00    -0.077 C 
ATOM     13  C   UNL     1      96.425 146.102 134.384  1.00  0.00    -0.028 C 
ATOM     14  C   UNL     1      97.451 144.618 136.124  1.00  0.00     0.039 C 
BRANCH  13  15
ATOM     15  C   UNL     1      97.262 147.298 134.770  1.00  0.00     0.035 C 
BRANCH  15  16
ATOM     16  C   UNL     1      96.456 148.276 135.638  1.00  0.00     0.079 C 
BRANCH  16  17
ATOM     17  C   UNL     1      95.920 149.475 134.887  1.00  0.00     0.130 C 
ATOM     18  O   UNL     1      96.625 149.986 134.029  1.00  0.00    -0.300 OA
ATOM     19  C   UNL     1      94.571 150.078 135.175  1.00  0.00     0.087 C 
ENDBRANCH  16  17
ENDBRANCH  15  16
ENDBRANCH  13  15
ENDBRANCH  11  12
ENDBRANCH   1  11
TORSDOF 9
ENDMDL
MODEL 8
REMARK VINA RESULT:    -4.860     13.272     15.907
REMARK INTER + INTRA:          -8.601
REMARK INTER:                  -6.975
REMARK INTRA:                  -1.627
REMARK UNBOUND:                -1.185
REMARK SMILES CC(=O)CCC=C(C)CCC=C(C)CCC=C(C)C
REMARK SMILES IDX 10 1 11 2 12 3 13 4 14 5 15 6 16 7 18 8 17 9 19 10 9 11 7 12
REMARK SMILES IDX 6 13 8 14 5 15 4 16 2 17 3 18 1 19
REMARK H PARENT
REMARK Flexibility Score: inf
ROOT
ATOM      1  C   UNL     1      96.256 143.515 134.591  1.00  0.00     0.032 C 
ENDROOT
BRANCH   1   2
ATOM      2  C   UNL     1      97.273 142.712 135.362  1.00  0.00    -0.028 C 
ATOM      3  C   UNL     1      98.067 141.767 134.813  1.00  0.00    -0.077 C 
ATOM      4  C   UNL     1      98.068 141.489 133.328  1.00  0.00     0.039 C 
BRANCH   3   5
ATOM      5  C   UNL     1      98.964 140.943 135.714  1.00  0.00     0.034 C 
BRANCH   5   6
ATOM      6  C   UNL     1      98.149 140.178 136.769  1.00  0.00     0.032 C 
BRANCH   6   7
ATOM      7  C   UNL     1      97.352 139.052 136.152  1.00  0.00    -0.028 C 
ATOM      8  C   UNL     1      95.141 140.102 136.668  1.00  0.00     0.039 C 
ATOM      9  C   UNL     1      96.005 138.984 136.138  1.00  0.00    -0.080 C 
ATOM     10  C   UNL     1      95.353 137.752 135.558  1.00  0.00     0.039 C 
ENDBRANCH   6   7
ENDBRANCH   5   6
ENDBRANCH   3   5
ENDBRANCH   1   2
BRANCH   1  11
ATOM     11  C   UNL     1      95.842 144.758 135.389  1.00  0.00     0.034 C 
BRANCH  11  12
ATOM     12  C   UNL     1      96.859 145.870 135.239  1.00  0.00    -0.077 C 
ATOM     13  C   UNL     1      97.087 146.390 134.010  1.00  0.00    -0.028 C 
ATOM     14  C   UNL     1      97.633 146.326 136.456  1.00  0.00     0.039 C 
BRANCH  13  15
ATOM     15  C   UNL     1      98.063 147.505 133.722  1.00  0.00     0.035 C 
BRANCH  15  16
ATOM     16  C   UNL     1      97.324 148.813 133.402  1.00  0.00     0.079 C 
BRANCH  16  17
ATOM     17  C   UNL     1      96.844 149.569 134.622  1.00  0.00     0.130 C 
ATOM     18  O   UNL     1      95.643 149.754 134.755  1.00  0.00    -0.300 OA
ATOM     19  C   UNL     1      97.785 150.124 135.658  1.00  0.00     0.087 C 
ENDBRANCH  16  17
ENDBRANCH  15  16
ENDBRANCH  13  15
ENDBRANCH  11  12
ENDBRANCH   1  11
TORSDOF 9
ENDMDL
MODEL 9
REMARK VINA RESULT:    -4.805      2.281      4.048
REMARK INTER + INTRA:          -8.519
REMARK INTER:                  -7.035
REMARK INTRA:                  -1.483
REMARK UNBOUND:                -1.185
REMARK SMILES CC(=O)CCC=C(C)CCC=C(C)CCC=C(C)C
REMARK SMILES IDX 10 1 11 2 12 3 13 4 14 5 15 6 16 7 18 8 17 9 19 10 9 11 7 12
REMARK SMILES IDX 6 13 8 14 5 15 4 16 2 17 3 18 1 19
REMARK H PARENT
REMARK Flexibility Score: inf
ROOT
ATOM      1  C   UNL     1     100.491 133.304 125.769  1.00  0.00     0.032 C 
ENDROOT
BRANCH   1   2
ATOM      2  C   UNL     1     100.749 134.046 124.482  1.00  0.00    -0.028 C 
ATOM      3  C   UNL     1     101.362 135.248 124.409  1.00  0.00    -0.077 C 
ATOM      4  C   UNL     1     101.932 135.929 125.632  1.00  0.00     0.039 C 
BRANCH   3   5
ATOM      5  C   UNL     1     101.455 135.948 123.069  1.00  0.00     0.034 C 
BRANCH   5   6
ATOM      6  C   UNL     1     102.868 135.837 122.475  1.00  0.00     0.032 C 
BRANCH   6   7
ATOM      7  C   UNL     1     103.234 134.404 122.167  1.00  0.00    -0.028 C 
ATOM      8  C   UNL     1     104.936 134.262 123.996  1.00  0.00     0.039 C 
ATOM      9  C   UNL     1     104.188 133.700 122.811  1.00  0.00    -0.080 C 
ATOM     10  C   UNL     1     104.499 132.303 122.332  1.00  0.00     0.039 C 
ENDBRANCH   6   7
ENDBRANCH   5   6
ENDBRANCH   3   5
ENDBRANCH   1   2
BRANCH   1  11
ATOM     11  C   UNL     1     100.703 131.799 125.569  1.00  0.00     0.034 C 
BRANCH  11  12
ATOM     12  C   UNL     1     101.874 131.296 126.389  1.00  0.00    -0.077 C 
ATOM     13  C   UNL     1     101.649 130.839 127.642  1.00  0.00    -0.028 C 
ATOM     14  C   UNL     1     103.267 131.377 125.805  1.00  0.00     0.039 C 
BRANCH  13  15
ATOM     15  C   UNL     1     102.719 130.301 128.561  1.00  0.00     0.035 C 
BRANCH  15  16
ATOM     16  C   UNL     1     102.180 130.121 129.987  1.00  0.00     0.079 C 
BRANCH  16  17
ATOM     17  C   UNL     1     103.008 130.802 131.055  1.00  0.00     0.130 C 
ATOM     18  O   UNL     1     104.222 130.664 131.025  1.00  0.00    -0.300 OA
ATOM     19  C   UNL     1     102.396 131.617 132.163  1.00  0.00     0.087 C 
ENDBRANCH  16  17
ENDBRANCH  15  16
ENDBRANCH  13  15
ENDBRANCH  11  12
ENDBRANCH   1  11
TORSDOF 9
ENDMDL
