MODEL 1
REMARK VINA RESULT:    -3.866      0.000      0.000
REMARK INTER + INTRA:          -8.330
REMARK INTER:                  -6.804
REMARK INTRA:                  -1.525
REMARK UNBOUND:                -1.525
REMARK SMILES CCCCCCC=CCCCCCCCC(=O)[O-]
REMARK SMILES IDX 10 1 11 2 12 3 13 4 14 5 15 6 16 7 17 8 18 9 9 10 8 11 7 12
REMARK SMILES IDX 6 13 5 14 4 15 3 16 2 17 1 18
REMARK H PARENT
REMARK Flexibility Score: inf
ROOT
ATOM      1  C   UNL     1     -17.048 -21.836   4.958  1.00  0.00     0.004 C 
ENDROOT
BRANCH   1   2
ATOM      2  C   UNL     1     -17.051 -23.003   5.961  1.00  0.00     0.000 C 
BRANCH   2   3
ATOM      3  C   UNL     1     -16.979 -22.586   7.441  1.00  0.00     0.000 C 
BRANCH   3   4
ATOM      4  C   UNL     1     -15.537 -22.524   7.974  1.00  0.00     0.000 C 
BRANCH   4   5
ATOM      5  C   UNL     1     -14.998 -21.087   8.049  1.00  0.00     0.006 C 
BRANCH   5   6
ATOM      6  C   UNL     1     -16.110 -20.034   7.950  1.00  0.00     0.053 C 
BRANCH   6   7
ATOM      7  C   UNL     1     -15.638 -18.850   7.168  1.00  0.00     0.041 C 
ATOM      8  O   UNL     1     -16.211 -18.533   6.092  1.00  0.00    -0.550 OA
ATOM      9  O   UNL     1     -14.537 -18.123   7.602  1.00  0.00    -0.550 OA
ENDBRANCH   6   7
ENDBRANCH   5   6
ENDBRANCH   4   5
ENDBRANCH   3   4
ENDBRANCH   2   3
ENDBRANCH   1   2
BRANCH   1  10
ATOM     10  C   UNL     1     -17.629 -22.224   3.589  1.00  0.00     0.027 C 
BRANCH  10  11
ATOM     11  C   UNL     1     -17.975 -23.691   3.532  1.00  0.00    -0.031 C 
ATOM     12  C   UNL     1     -17.540 -24.556   2.595  1.00  0.00    -0.031 C 
BRANCH  12  13
ATOM     13  C   UNL     1     -16.617 -24.212   1.448  1.00  0.00     0.027 C 
BRANCH  13  14
ATOM     14  C   UNL     1     -15.136 -24.293   1.853  1.00  0.00     0.004 C 
BRANCH  14  15
ATOM     15  C   UNL     1     -14.207 -23.287   1.143  1.00  0.00     0.000 C 
BRANCH  15  16
ATOM     16  C   UNL     1     -14.894 -22.006   0.638  1.00  0.00    -0.000 C 
BRANCH  16  17
ATOM     17  C   UNL     1     -14.280 -20.728   1.228  1.00  0.00    -0.003 C 
ATOM     18  C   UNL     1     -15.354 -19.832   1.837  1.00  0.00     0.004 C 
ENDBRANCH  16  17
ENDBRANCH  15  16
ENDBRANCH  14  15
ENDBRANCH  13  14
ENDBRANCH  12  13
ENDBRANCH  10  11
ENDBRANCH   1  10
TORSDOF 13
ENDMDL
MODEL 2
REMARK VINA RESULT:    -3.570      3.661      6.561
REMARK INTER + INTRA:          -7.808
REMARK INTER:                  -6.206
REMARK INTRA:                  -1.602
REMARK UNBOUND:                -1.525
REMARK SMILES CCCCCCC=CCCCCCCCC(=O)[O-]
REMARK SMILES IDX 10 1 11 2 12 3 13 4 14 5 15 6 16 7 17 8 18 9 9 10 8 11 7 12
REMARK SMILES IDX 6 13 5 14 4 15 3 16 2 17 1 18
REMARK H PARENT
REMARK Flexibility Score: inf
ROOT
ATOM      1  C   UNL     1     -18.021 -22.469   3.886  1.00  0.00     0.004 C 
ENDROOT
BRANCH   1   2
ATOM      2  C   UNL     1     -16.859 -21.665   3.277  1.00  0.00     0.000 C 
BRANCH   2   3
ATOM      3  C   UNL     1     -16.098 -22.381   2.146  1.00  0.00     0.000 C 
BRANCH   3   4
ATOM      4  C   UNL     1     -15.192 -21.431   1.343  1.00  0.00     0.000 C 
BRANCH   4   5
ATOM      5  C   UNL     1     -14.536 -22.122   0.137  1.00  0.00     0.006 C 
BRANCH   5   6
ATOM      6  C   UNL     1     -15.123 -23.512  -0.137  1.00  0.00     0.053 C 
BRANCH   6   7
ATOM      7  C   UNL     1     -15.639 -23.593  -1.539  1.00  0.00     0.041 C 
ATOM      8  O   UNL     1     -16.877 -23.675  -1.754  1.00  0.00    -0.550 OA
ATOM      9  O   UNL     1     -14.751 -23.626  -2.606  1.00  0.00    -0.550 OA
ENDBRANCH   6   7
ENDBRANCH   5   6
ENDBRANCH   4   5
ENDBRANCH   3   4
ENDBRANCH   2   3
ENDBRANCH   1   2
BRANCH   1  10
ATOM     10  C   UNL     1     -17.994 -23.953   3.488  1.00  0.00     0.027 C 
BRANCH  10  11
ATOM     11  C   UNL     1     -18.224 -24.847   4.679  1.00  0.00    -0.031 C 
ATOM     12  C   UNL     1     -17.311 -25.125   5.631  1.00  0.00    -0.031 C 
BRANCH  12  13
ATOM     13  C   UNL     1     -15.903 -24.576   5.679  1.00  0.00     0.027 C 
BRANCH  13  14
ATOM     14  C   UNL     1     -15.684 -23.655   6.891  1.00  0.00     0.004 C 
BRANCH  14  15
ATOM     15  C   UNL     1     -16.973 -23.132   7.558  1.00  0.00     0.000 C 
BRANCH  15  16
ATOM     16  C   UNL     1     -17.137 -21.601   7.555  1.00  0.00    -0.000 C 
BRANCH  16  17
ATOM     17  C   UNL     1     -15.858 -20.865   7.131  1.00  0.00    -0.003 C 
ATOM     18  C   UNL     1     -16.133 -19.386   6.881  1.00  0.00     0.004 C 
ENDBRANCH  16  17
ENDBRANCH  15  16
ENDBRANCH  14  15
ENDBRANCH  13  14
ENDBRANCH  12  13
ENDBRANCH  10  11
ENDBRANCH   1  10
TORSDOF 13
ENDMDL
MODEL 3
REMARK VINA RESULT:    -3.526      1.154      2.096
REMARK INTER + INTRA:          -7.731
REMARK INTER:                  -6.204
REMARK INTRA:                  -1.526
REMARK UNBOUND:                -1.525
REMARK SMILES CCCCCCC=CCCCCCCCC(=O)[O-]
REMARK SMILES IDX 10 1 11 2 12 3 13 4 14 5 15 6 16 7 17 8 18 9 9 10 8 11 7 12
REMARK SMILES IDX 6 13 5 14 4 15 3 16 2 17 1 18
REMARK H PARENT
REMARK Flexibility Score: inf
ROOT
ATOM      1  C   UNL     1     -17.214 -23.328   7.506  1.00  0.00     0.004 C 
ENDROOT
BRANCH   1   2
ATOM      2  C   UNL     1     -16.221 -23.691   8.624  1.00  0.00     0.000 C 
BRANCH   2   3
ATOM      3  C   UNL     1     -14.738 -23.476   8.269  1.00  0.00     0.000 C 
BRANCH   3   4
ATOM      4  C   UNL     1     -14.138 -22.230   8.944  1.00  0.00     0.000 C 
BRANCH   4   5
ATOM      5  C   UNL     1     -14.034 -21.034   7.986  1.00  0.00     0.006 C 
BRANCH   5   6
ATOM      6  C   UNL     1     -14.803 -19.806   8.490  1.00  0.00     0.053 C 
BRANCH   6   7
ATOM      7  C   UNL     1     -16.086 -19.648   7.738  1.00  0.00     0.041 C 
ATOM      8  O   UNL     1     -17.162 -20.083   8.224  1.00  0.00    -0.550 OA
ATOM      9  O   UNL     1     -16.085 -19.063   6.478  1.00  0.00    -0.550 OA
ENDBRANCH   6   7
ENDBRANCH   5   6
ENDBRANCH   4   5
ENDBRANCH   3   4
ENDBRANCH   2   3
ENDBRANCH   1   2
BRANCH   1  10
ATOM     10  C   UNL     1     -16.543 -23.202   6.130  1.00  0.00     0.027 C 
BRANCH  10  11
ATOM     11  C   UNL     1     -17.231 -22.167   5.275  1.00  0.00    -0.031 C 
ATOM     12  C   UNL     1     -17.734 -22.386   4.045  1.00  0.00    -0.031 C 
BRANCH  12  13
ATOM     13  C   UNL     1     -17.713 -23.709   3.313  1.00  0.00     0.027 C 
BRANCH  13  14
ATOM     14  C   UNL     1     -16.351 -23.982   2.652  1.00  0.00     0.004 C 
BRANCH  14  15
ATOM     15  C   UNL     1     -16.195 -23.426   1.222  1.00  0.00     0.000 C 
BRANCH  15  16
ATOM     16  C   UNL     1     -15.004 -22.472   1.017  1.00  0.00    -0.000 C 
BRANCH  16  17
ATOM     17  C   UNL     1     -15.260 -21.069   1.584  1.00  0.00    -0.003 C 
ATOM     18  C   UNL     1     -14.108 -20.124   1.255  1.00  0.00     0.004 C 
ENDBRANCH  16  17
ENDBRANCH  15  16
ENDBRANCH  14  15
ENDBRANCH  13  14
ENDBRANCH  12  13
ENDBRANCH  10  11
ENDBRANCH   1  10
TORSDOF 13
ENDMDL
MODEL 4
REMARK VINA RESULT:    -3.470      2.148      5.918
REMARK INTER + INTRA:          -7.633
REMARK INTER:                  -6.144
REMARK INTRA:                  -1.489
REMARK UNBOUND:                -1.525
REMARK SMILES CCCCCCC=CCCCCCCCC(=O)[O-]
REMARK SMILES IDX 10 1 11 2 12 3 13 4 14 5 15 6 16 7 17 8 18 9 9 10 8 11 7 12
REMARK SMILES IDX 6 13 5 14 4 15 3 16 2 17 1 18
REMARK H PARENT
REMARK Flexibility Score: inf
ROOT
ATOM      1  C   UNL     1     -17.806 -22.436   3.899  1.00  0.00     0.004 C 
ENDROOT
BRANCH   1   2
ATOM      2  C   UNL     1     -18.117 -23.921   3.648  1.00  0.00     0.000 C 
BRANCH   2   3
ATOM      3  C   UNL     1     -17.282 -24.580   2.534  1.00  0.00     0.000 C 
BRANCH   3   4
ATOM      4  C   UNL     1     -15.784 -24.656   2.879  1.00  0.00     0.000 C 
BRANCH   4   5
ATOM      5  C   UNL     1     -14.909 -23.889   1.876  1.00  0.00     0.006 C 
BRANCH   5   6
ATOM      6  C   UNL     1     -15.699 -22.835   1.089  1.00  0.00     0.053 C 
BRANCH   6   7
ATOM      7  C   UNL     1     -14.917 -21.564   0.989  1.00  0.00     0.041 C 
ATOM      8  O   UNL     1     -13.923 -21.491   0.219  1.00  0.00    -0.550 OA
ATOM      9  O   UNL     1     -15.255 -20.475   1.782  1.00  0.00    -0.550 OA
ENDBRANCH   6   7
ENDBRANCH   5   6
ENDBRANCH   4   5
ENDBRANCH   3   4
ENDBRANCH   2   3
ENDBRANCH   1   2
BRANCH   1  10
ATOM     10  C   UNL     1     -17.149 -22.186   5.265  1.00  0.00     0.027 C 
BRANCH  10  11
ATOM     11  C   UNL     1     -17.162 -23.429   6.119  1.00  0.00    -0.031 C 
ATOM     12  C   UNL     1     -16.797 -23.485   7.414  1.00  0.00    -0.031 C 
BRANCH  12  13
ATOM     13  C   UNL     1     -16.327 -22.312   8.243  1.00  0.00     0.027 C 
BRANCH  13  14
ATOM     14  C   UNL     1     -14.802 -22.318   8.440  1.00  0.00     0.004 C 
BRANCH  14  15
ATOM     15  C   UNL     1     -14.089 -21.000   8.072  1.00  0.00     0.000 C 
BRANCH  15  16
ATOM     16  C   UNL     1     -14.704 -19.730   8.685  1.00  0.00    -0.000 C 
BRANCH  16  17
ATOM     17  C   UNL     1     -14.874 -18.597   7.664  1.00  0.00    -0.003 C 
ATOM     18  C   UNL     1     -15.994 -18.912   6.676  1.00  0.00     0.004 C 
ENDBRANCH  16  17
ENDBRANCH  15  16
ENDBRANCH  14  15
ENDBRANCH  13  14
ENDBRANCH  12  13
ENDBRANCH  10  11
ENDBRANCH   1  10
TORSDOF 13
ENDMDL
MODEL 5
REMARK VINA RESULT:    -3.395      2.358      6.299
REMARK INTER + INTRA:          -7.501
REMARK INTER:                  -5.968
REMARK INTRA:                  -1.533
REMARK UNBOUND:                -1.525
REMARK SMILES CCCCCCC=CCCCCCCCC(=O)[O-]
REMARK SMILES IDX 10 1 11 2 12 3 13 4 14 5 15 6 16 7 17 8 18 9 9 10 8 11 7 12
REMARK SMILES IDX 6 13 5 14 4 15 3 16 2 17 1 18
REMARK H PARENT
REMARK Flexibility Score: inf
ROOT
ATOM      1  C   UNL     1     -17.286 -22.911   4.822  1.00  0.00     0.004 C 
ENDROOT
BRANCH   1   2
ATOM      2  C   UNL     1     -18.127 -23.648   3.765  1.00  0.00     0.000 C 
BRANCH   2   3
ATOM      3  C   UNL     1     -17.424 -24.842   3.094  1.00  0.00     0.000 C 
BRANCH   3   4
ATOM      4  C   UNL     1     -17.637 -24.880   1.570  1.00  0.00     0.000 C 
BRANCH   4   5
ATOM      5  C   UNL     1     -16.337 -24.644   0.787  1.00  0.00     0.006 C 
BRANCH   5   6
ATOM      6  C   UNL     1     -15.298 -23.854   1.594  1.00  0.00     0.053 C 
BRANCH   6   7
ATOM      7  C   UNL     1     -15.296 -22.418   1.176  1.00  0.00     0.041 C 
ATOM      8  O   UNL     1     -15.809 -21.541   1.920  1.00  0.00    -0.550 OA
ATOM      9  O   UNL     1     -14.770 -22.052  -0.056  1.00  0.00    -0.550 OA
ENDBRANCH   6   7
ENDBRANCH   5   6
ENDBRANCH   4   5
ENDBRANCH   3   4
ENDBRANCH   2   3
ENDBRANCH   1   2
BRANCH   1  10
ATOM     10  C   UNL     1     -16.372 -23.854   5.620  1.00  0.00     0.027 C 
BRANCH  10  11
ATOM     11  C   UNL     1     -17.143 -24.606   6.675  1.00  0.00    -0.031 C 
ATOM     12  C   UNL     1     -17.313 -24.202   7.949  1.00  0.00    -0.031 C 
BRANCH  12  13
ATOM     13  C   UNL     1     -16.777 -22.918   8.539  1.00  0.00     0.027 C 
BRANCH  13  14
ATOM     14  C   UNL     1     -17.752 -21.743   8.350  1.00  0.00     0.004 C 
BRANCH  14  15
ATOM     15  C   UNL     1     -17.089 -20.383   8.051  1.00  0.00     0.000 C 
BRANCH  15  16
ATOM     16  C   UNL     1     -15.743 -20.460   7.310  1.00  0.00    -0.000 C 
BRANCH  16  17
ATOM     17  C   UNL     1     -14.552 -20.064   8.194  1.00  0.00    -0.003 C 
ATOM     18  C   UNL     1     -14.258 -18.571   8.083  1.00  0.00     0.004 C 
ENDBRANCH  16  17
ENDBRANCH  15  16
ENDBRANCH  14  15
ENDBRANCH  13  14
ENDBRANCH  12  13
ENDBRANCH  10  11
ENDBRANCH   1  10
TORSDOF 13
ENDMDL
MODEL 6
REMARK VINA RESULT:    -3.301      1.877      2.611
REMARK INTER + INTRA:          -7.335
REMARK INTER:                  -6.339
REMARK INTRA:                  -0.995
REMARK UNBOUND:                -1.525
REMARK SMILES CCCCCCC=CCCCCCCCC(=O)[O-]
REMARK SMILES IDX 10 1 11 2 12 3 13 4 14 5 15 6 16 7 17 8 18 9 9 10 8 11 7 12
REMARK SMILES IDX 6 13 5 14 4 15 3 16 2 17 1 18
REMARK H PARENT
REMARK Flexibility Score: inf
ROOT
ATOM      1  C   UNL     1     -17.257 -21.962   5.147  1.00  0.00     0.004 C 
ENDROOT
BRANCH   1   2
ATOM      2  C   UNL     1     -16.863 -23.136   6.060  1.00  0.00     0.000 C 
BRANCH   2   3
ATOM      3  C   UNL     1     -16.503 -22.742   7.504  1.00  0.00     0.000 C 
BRANCH   3   4
ATOM      4  C   UNL     1     -14.984 -22.685   7.745  1.00  0.00     0.000 C 
BRANCH   4   5
ATOM      5  C   UNL     1     -14.472 -21.249   7.939  1.00  0.00     0.006 C 
BRANCH   5   6
ATOM      6  C   UNL     1     -15.605 -20.252   8.217  1.00  0.00     0.053 C 
BRANCH   6   7
ATOM      7  C   UNL     1     -15.421 -19.013   7.400  1.00  0.00     0.041 C 
ATOM      8  O   UNL     1     -14.549 -18.164   7.724  1.00  0.00    -0.550 OA
ATOM      9  O   UNL     1     -16.245 -18.771   6.308  1.00  0.00    -0.550 OA
ENDBRANCH   6   7
ENDBRANCH   5   6
ENDBRANCH   4   5
ENDBRANCH   3   4
ENDBRANCH   2   3
ENDBRANCH   1   2
BRANCH   1  10
ATOM     10  C   UNL     1     -18.000 -22.413   3.881  1.00  0.00     0.027 C 
BRANCH  10  11
ATOM     11  C   UNL     1     -17.476 -23.733   3.374  1.00  0.00    -0.031 C 
ATOM     12  C   UNL     1     -16.546 -23.880   2.409  1.00  0.00    -0.031 C 
BRANCH  12  13
ATOM     13  C   UNL     1     -15.856 -22.751   1.679  1.00  0.00     0.027 C 
BRANCH  13  14
ATOM     14  C   UNL     1     -15.464 -23.145   0.245  1.00  0.00     0.004 C 
BRANCH  14  15
ATOM     15  C   UNL     1     -16.471 -24.062  -0.480  1.00  0.00     0.000 C 
BRANCH  15  16
ATOM     16  C   UNL     1     -16.304 -24.138  -2.008  1.00  0.00    -0.000 C 
BRANCH  16  17
ATOM     17  C   UNL     1     -14.846 -23.963  -2.458  1.00  0.00    -0.003 C 
ATOM     18  C   UNL     1     -14.608 -24.620  -3.815  1.00  0.00     0.004 C 
ENDBRANCH  16  17
ENDBRANCH  15  16
ENDBRANCH  14  15
ENDBRANCH  13  14
ENDBRANCH  12  13
ENDBRANCH  10  11
ENDBRANCH   1  10
TORSDOF 13
ENDMDL
MODEL 7
REMARK VINA RESULT:    -3.242      2.942      6.578
REMARK INTER + INTRA:          -7.232
REMARK INTER:                  -5.527
REMARK INTRA:                  -1.705
REMARK UNBOUND:                -1.525
REMARK SMILES CCCCCCC=CCCCCCCCC(=O)[O-]
REMARK SMILES IDX 10 1 11 2 12 3 13 4 14 5 15 6 16 7 17 8 18 9 9 10 8 11 7 12
REMARK SMILES IDX 6 13 5 14 4 15 3 16 2 17 1 18
REMARK H PARENT
REMARK Flexibility Score: inf
ROOT
ATOM      1  C   UNL     1     -16.440 -20.089   6.289  1.00  0.00     0.004 C 
ENDROOT
BRANCH   1   2
ATOM      2  C   UNL     1     -16.823 -21.485   5.767  1.00  0.00     0.000 C 
BRANCH   2   3
ATOM      3  C   UNL     1     -17.214 -21.535   4.279  1.00  0.00     0.000 C 
BRANCH   3   4
ATOM      4  C   UNL     1     -17.795 -22.897   3.861  1.00  0.00     0.000 C 
BRANCH   4   5
ATOM      5  C   UNL     1     -16.721 -23.858   3.330  1.00  0.00     0.006 C 
BRANCH   5   6
ATOM      6  C   UNL     1     -16.655 -23.880   1.797  1.00  0.00     0.053 C 
BRANCH   6   7
ATOM      7  C   UNL     1     -15.336 -23.357   1.324  1.00  0.00     0.041 C 
ATOM      8  O   UNL     1     -15.291 -22.419   0.485  1.00  0.00    -0.550 OA
ATOM      9  O   UNL     1     -14.156 -23.937   1.772  1.00  0.00    -0.550 OA
ENDBRANCH   6   7
ENDBRANCH   5   6
ENDBRANCH   4   5
ENDBRANCH   3   4
ENDBRANCH   2   3
ENDBRANCH   1   2
BRANCH   1  10
ATOM     10  C   UNL     1     -16.106 -20.083   7.789  1.00  0.00     0.027 C 
BRANCH  10  11
ATOM     11  C   UNL     1     -14.617 -20.042   8.022  1.00  0.00    -0.031 C 
ATOM     12  C   UNL     1     -13.875 -21.065   8.490  1.00  0.00    -0.031 C 
BRANCH  12  13
ATOM     13  C   UNL     1     -14.402 -22.437   8.847  1.00  0.00     0.027 C 
BRANCH  13  14
ATOM     14  C   UNL     1     -14.376 -23.396   7.645  1.00  0.00     0.004 C 
BRANCH  14  15
ATOM     15  C   UNL     1     -15.257 -24.653   7.792  1.00  0.00     0.000 C 
BRANCH  15  16
ATOM     16  C   UNL     1     -16.764 -24.425   7.577  1.00  0.00    -0.000 C 
BRANCH  16  17
ATOM     17  C   UNL     1     -17.536 -24.259   8.893  1.00  0.00    -0.003 C 
ATOM     18  C   UNL     1     -18.199 -22.887   8.972  1.00  0.00     0.004 C 
ENDBRANCH  16  17
ENDBRANCH  15  16
ENDBRANCH  14  15
ENDBRANCH  13  14
ENDBRANCH  12  13
ENDBRANCH  10  11
ENDBRANCH   1  10
TORSDOF 13
ENDMDL
MODEL 8
REMARK VINA RESULT:    -3.199      3.599      7.064
REMARK INTER + INTRA:          -7.155
REMARK INTER:                  -5.776
REMARK INTRA:                  -1.379
REMARK UNBOUND:                -1.525
REMARK SMILES CCCCCCC=CCCCCCCCC(=O)[O-]
REMARK SMILES IDX 10 1 11 2 12 3 13 4 14 5 15 6 16 7 17 8 18 9 9 10 8 11 7 12
REMARK SMILES IDX 6 13 5 14 4 15 3 16 2 17 1 18
REMARK H PARENT
REMARK Flexibility Score: inf
ROOT
ATOM      1  C   UNL     1     -16.891 -21.507   3.136  1.00  0.00     0.004 C 
ENDROOT
BRANCH   1   2
ATOM      2  C   UNL     1     -16.206 -22.576   2.267  1.00  0.00     0.000 C 
BRANCH   2   3
ATOM      3  C   UNL     1     -15.258 -22.022   1.186  1.00  0.00     0.000 C 
BRANCH   3   4
ATOM      4  C   UNL     1     -14.059 -22.947   0.914  1.00  0.00     0.000 C 
BRANCH   4   5
ATOM      5  C   UNL     1     -14.160 -23.657  -0.445  1.00  0.00     0.006 C 
BRANCH   5   6
ATOM      6  C   UNL     1     -15.451 -23.310  -1.197  1.00  0.00     0.053 C 
BRANCH   6   7
ATOM      7  C   UNL     1     -16.322 -24.520  -1.325  1.00  0.00     0.041 C 
ATOM      8  O   UNL     1     -16.452 -25.091  -2.440  1.00  0.00    -0.550 OA
ATOM      9  O   UNL     1     -17.027 -24.989  -0.224  1.00  0.00    -0.550 OA
ENDBRANCH   6   7
ENDBRANCH   5   6
ENDBRANCH   4   5
ENDBRANCH   3   4
ENDBRANCH   2   3
ENDBRANCH   1   2
BRANCH   1  10
ATOM     10  C   UNL     1     -17.615 -22.102   4.354  1.00  0.00     0.027 C 
BRANCH  10  11
ATOM     11  C   UNL     1     -17.882 -23.575   4.171  1.00  0.00    -0.031 C 
ATOM     12  C   UNL     1     -17.390 -24.557   4.952  1.00  0.00    -0.031 C 
BRANCH  12  13
ATOM     13  C   UNL     1     -16.499 -24.354   6.156  1.00  0.00     0.027 C 
BRANCH  13  14
ATOM     14  C   UNL     1     -17.284 -24.431   7.476  1.00  0.00     0.004 C 
BRANCH  14  15
ATOM     15  C   UNL     1     -17.025 -23.274   8.462  1.00  0.00     0.000 C 
BRANCH  15  16
ATOM     16  C   UNL     1     -17.650 -21.924   8.066  1.00  0.00    -0.000 C 
BRANCH  16  17
ATOM     17  C   UNL     1     -16.603 -20.874   7.672  1.00  0.00    -0.003 C 
ATOM     18  C   UNL     1     -15.189 -21.375   7.954  1.00  0.00     0.004 C 
ENDBRANCH  16  17
ENDBRANCH  15  16
ENDBRANCH  14  15
ENDBRANCH  13  14
ENDBRANCH  12  13
ENDBRANCH  10  11
ENDBRANCH   1  10
TORSDOF 13
ENDMDL
MODEL 9
REMARK VINA RESULT:    -0.887      3.000      3.902
REMARK INTER + INTRA:          -3.086
REMARK INTER:                  -2.314
REMARK INTRA:                  -0.772
REMARK UNBOUND:                -1.525
REMARK SMILES CCCCCCC=CCCCCCCCC(=O)[O-]
REMARK SMILES IDX 10 1 11 2 12 3 13 4 14 5 15 6 16 7 17 8 18 9 9 10 8 11 7 12
REMARK SMILES IDX 6 13 5 14 4 15 3 16 2 17 1 18
REMARK H PARENT
REMARK Flexibility Score: inf
ROOT
ATOM      1  C   UNL     1     -16.690 -22.232   2.750  1.00  0.00     0.004 C 
ENDROOT
BRANCH   1   2
ATOM      2  C   UNL     1     -17.595 -22.696   3.905  1.00  0.00     0.000 C 
BRANCH   2   3
ATOM      3  C   UNL     1     -16.943 -23.694   4.879  1.00  0.00     0.000 C 
BRANCH   3   4
ATOM      4  C   UNL     1     -17.182 -23.329   6.355  1.00  0.00     0.000 C 
BRANCH   4   5
ATOM      5  C   UNL     1     -16.146 -22.329   6.890  1.00  0.00     0.006 C 
BRANCH   5   6
ATOM      6  C   UNL     1     -16.778 -21.235   7.760  1.00  0.00     0.053 C 
BRANCH   6   7
ATOM      7  C   UNL     1     -16.037 -19.945   7.595  1.00  0.00     0.041 C 
ATOM      8  O   UNL     1     -15.350 -19.485   8.545  1.00  0.00    -0.550 OA
ATOM      9  O   UNL     1     -16.144 -19.228   6.411  1.00  0.00    -0.550 OA
ENDBRANCH   6   7
ENDBRANCH   5   6
ENDBRANCH   4   5
ENDBRANCH   3   4
ENDBRANCH   2   3
ENDBRANCH   1   2
BRANCH   1  10
ATOM     10  C   UNL     1     -16.489 -23.314   1.678  1.00  0.00     0.027 C 
BRANCH  10  11
ATOM     11  C   UNL     1     -15.286 -23.020   0.817  1.00  0.00    -0.031 C 
ATOM     12  C   UNL     1     -15.236 -23.159  -0.522  1.00  0.00    -0.031 C 
BRANCH  12  13
ATOM     13  C   UNL     1     -16.380 -23.618  -1.398  1.00  0.00     0.027 C 
BRANCH  13  14
ATOM     14  C   UNL     1     -16.069 -24.947  -2.106  1.00  0.00     0.004 C 
BRANCH  14  15
ATOM     15  C   UNL     1     -14.602 -25.125  -2.548  1.00  0.00     0.000 C 
BRANCH  15  16
ATOM     16  C   UNL     1     -14.355 -25.006  -4.062  1.00  0.00    -0.000 C 
BRANCH  16  17
ATOM     17  C   UNL     1     -14.222 -23.551  -4.532  1.00  0.00    -0.003 C 
ATOM     18  C   UNL     1     -14.251 -23.461  -6.056  1.00  0.00     0.004 C 
ENDBRANCH  16  17
ENDBRANCH  15  16
ENDBRANCH  14  15
ENDBRANCH  13  14
ENDBRANCH  12  13
ENDBRANCH  10  11
ENDBRANCH   1  10
TORSDOF 13
ENDMDL
