MODEL 1
REMARK VINA RESULT:    -5.651      0.000      0.000
REMARK INTER + INTRA:          -7.346
REMARK INTER:                  -6.973
REMARK INTRA:                  -0.373
REMARK UNBOUND:                -0.373
REMARK SMILES Oc1cc(O)c2cc(O)c(-c3cc(O)c(O)c(O)c3)[o+]c2c1.[Cl-]
REMARK SMILES IDX 10 1 20 2 21 3 22 4 2 5 3 6 4 7 6 8 7 9 8 10 11 11 12 12
REMARK SMILES IDX 13 13 19 14 15 15 17 16 14 17 16 19 18 21 9 23 1 25 5 27
REMARK H PARENT 14 18 16 20 18 22 9 24 1 26 5 28
REMARK Flexibility Score: inf
ROOT
ATOM      1  C   UNL     1      22.289  29.316  21.699  1.00  0.00     0.402 A 
ATOM      2  O   UNL     1      21.564  30.000  20.818  1.00  0.00    -0.202 OA
ATOM      3  C   UNL     1      21.800  29.988  19.511  1.00  0.00     0.368 A 
ATOM      4  C   UNL     1      20.984  30.742  18.665  1.00  0.00     0.162 A 
ATOM      5  C   UNL     1      21.213  30.749  17.285  1.00  0.00     0.128 A 
ATOM      6  C   UNL     1      22.263  30.000  16.751  1.00  0.00     0.093 A 
ATOM      7  C   UNL     1      23.095  29.235  17.577  1.00  0.00     0.136 A 
ATOM      8  C   UNL     1      22.866  29.223  18.978  1.00  0.00     0.125 A 
ATOM      9  C   UNL     1      23.641  28.476  19.881  1.00  0.00     0.078 A 
ATOM     10  C   UNL     1      23.351  28.509  21.248  1.00  0.00     0.223 A 
ENDROOT
BRANCH   1  11
ATOM     11  C   UNL     1      21.932  29.419  23.132  1.00  0.00     0.091 A 
ATOM     12  C   UNL     1      20.837  28.692  23.625  1.00  0.00     0.068 A 
ATOM     13  C   UNL     1      20.465  28.788  24.973  1.00  0.00     0.162 A 
ATOM     14  C   UNL     1      22.632  30.274  24.001  1.00  0.00     0.068 A 
ATOM     15  C   UNL     1      21.184  29.629  25.839  1.00  0.00     0.200 A 
ATOM     16  C   UNL     1      22.263  30.375  25.349  1.00  0.00     0.162 A 
BRANCH  13  17
ATOM     17  O   UNL     1      19.385  28.050  25.454  1.00  0.00    -0.504 OA
ATOM     18  H   UNL     1      18.531  28.498  25.765  1.00  0.00     0.293 HD
ENDBRANCH  13  17
BRANCH  15  19
ATOM     19  O   UNL     1      20.835  29.739  27.186  1.00  0.00    -0.502 OA
ATOM     20  H   UNL     1      19.887  29.588  27.510  1.00  0.00     0.293 HD
ENDBRANCH  15  19
BRANCH  16  21
ATOM     21  O   UNL     1      22.964  31.219  26.209  1.00  0.00    -0.504 OA
ATOM     22  H   UNL     1      23.299  32.126  25.906  1.00  0.00     0.293 HD
ENDBRANCH  16  21
ENDBRANCH   1  11
BRANCH  10  23
ATOM     23  O   UNL     1      24.088  27.730  22.138  1.00  0.00    -0.500 OA
ATOM     24  H   UNL     1      23.660  27.296  22.948  1.00  0.00     0.294 HD
ENDBRANCH  10  23
BRANCH   5  25
ATOM     25  O   UNL     1      20.403  31.500  16.436  1.00  0.00    -0.507 OA
ATOM     26  H   UNL     1      20.162  31.175  15.508  1.00  0.00     0.293 HD
ENDBRANCH   5  25
BRANCH   7  27
ATOM     27  O   UNL     1      24.125  28.516  16.965  1.00  0.00    -0.507 OA
ATOM     28  H   UNL     1      24.411  27.587  17.235  1.00  0.00     0.293 HD
ENDBRANCH   7  27
TORSDOF 7
ENDMDL
MODEL 2
REMARK VINA RESULT:    -5.618      1.137      7.132
REMARK INTER + INTRA:          -7.305
REMARK INTER:                  -6.925
REMARK INTRA:                  -0.380
REMARK UNBOUND:                -0.373
REMARK SMILES Oc1cc(O)c2cc(O)c(-c3cc(O)c(O)c(O)c3)[o+]c2c1.[Cl-]
REMARK SMILES IDX 10 1 20 2 21 3 22 4 2 5 3 6 4 7 6 8 7 9 8 10 11 11 12 12
REMARK SMILES IDX 13 13 19 14 15 15 17 16 14 17 16 19 18 21 9 23 1 25 5 27
REMARK H PARENT 14 18 16 20 18 22 9 24 1 26 5 28
REMARK Flexibility Score: inf
ROOT
ATOM      1  C   UNL     1      22.279  29.884  21.148  1.00  0.00     0.402 A 
ATOM      2  O   UNL     1      21.379  29.245  21.891  1.00  0.00    -0.202 OA
ATOM      3  C   UNL     1      21.320  29.346  23.214  1.00  0.00     0.368 A 
ATOM      4  C   UNL     1      20.339  28.634  23.908  1.00  0.00     0.162 A 
ATOM      5  C   UNL     1      20.257  28.720  25.302  1.00  0.00     0.128 A 
ATOM      6  C   UNL     1      21.161  29.522  26.003  1.00  0.00     0.093 A 
ATOM      7  C   UNL     1      22.153  30.247  25.331  1.00  0.00     0.136 A 
ATOM      8  C   UNL     1      22.239  30.164  23.916  1.00  0.00     0.125 A 
ATOM      9  C   UNL     1      23.192  30.865  23.158  1.00  0.00     0.078 A 
ATOM     10  C   UNL     1      23.211  30.737  21.766  1.00  0.00     0.223 A 
ENDROOT
BRANCH   1  11
ATOM     11  C   UNL     1      22.248  29.681  19.682  1.00  0.00     0.091 A 
ATOM     12  C   UNL     1      23.028  28.664  19.109  1.00  0.00     0.068 A 
ATOM     13  C   UNL     1      23.033  28.464  17.721  1.00  0.00     0.162 A 
ATOM     14  C   UNL     1      21.496  30.520  18.842  1.00  0.00     0.068 A 
ATOM     15  C   UNL     1      22.262  29.295  16.892  1.00  0.00     0.200 A 
ATOM     16  C   UNL     1      21.498  30.325  17.454  1.00  0.00     0.162 A 
BRANCH  13  17
ATOM     17  O   UNL     1      23.801  27.442  17.166  1.00  0.00    -0.504 OA
ATOM     18  H   UNL     1      24.638  27.637  16.630  1.00  0.00     0.293 HD
ENDBRANCH  13  17
BRANCH  15  19
ATOM     19  O   UNL     1      22.248  29.112  15.508  1.00  0.00    -0.502 OA
ATOM     20  H   UNL     1      21.390  29.142  14.970  1.00  0.00     0.293 HD
ENDBRANCH  15  19
BRANCH  16  21
ATOM     21  O   UNL     1      20.746  31.156  16.625  1.00  0.00    -0.504 OA
ATOM     22  H   UNL     1      19.732  31.152  16.647  1.00  0.00     0.293 HD
ENDBRANCH  16  21
ENDBRANCH   1  11
BRANCH  10  23
ATOM     23  O   UNL     1      24.125  31.471  21.010  1.00  0.00    -0.500 OA
ATOM     24  H   UNL     1      24.491  31.122  20.131  1.00  0.00     0.294 HD
ENDBRANCH  10  23
BRANCH   5  25
ATOM     25  O   UNL     1      19.282  28.012  25.999  1.00  0.00    -0.507 OA
ATOM     26  H   UNL     1      18.317  28.319  26.023  1.00  0.00     0.293 HD
ENDBRANCH   5  25
BRANCH   7  27
ATOM     27  O   UNL     1      23.019  31.022  26.105  1.00  0.00    -0.507 OA
ATOM     28  H   UNL     1      23.454  30.711  26.961  1.00  0.00     0.293 HD
ENDBRANCH   7  27
TORSDOF 7
ENDMDL
MODEL 3
REMARK VINA RESULT:    -5.610      1.144      7.138
REMARK INTER + INTRA:          -7.294
REMARK INTER:                  -6.915
REMARK INTRA:                  -0.379
REMARK UNBOUND:                -0.373
REMARK SMILES Oc1cc(O)c2cc(O)c(-c3cc(O)c(O)c(O)c3)[o+]c2c1.[Cl-]
REMARK SMILES IDX 10 1 20 2 21 3 22 4 2 5 3 6 4 7 6 8 7 9 8 10 11 11 12 12
REMARK SMILES IDX 13 13 19 14 15 15 17 16 14 17 16 19 18 21 9 23 1 25 5 27
REMARK H PARENT 14 18 16 20 18 22 9 24 1 26 5 28
REMARK Flexibility Score: inf
ROOT
ATOM      1  C   UNL     1      22.314  29.869  21.092  1.00  0.00     0.402 A 
ATOM      2  O   UNL     1      21.415  29.208  21.816  1.00  0.00    -0.202 OA
ATOM      3  C   UNL     1      21.326  29.307  23.138  1.00  0.00     0.368 A 
ATOM      4  C   UNL     1      20.349  28.572  23.812  1.00  0.00     0.162 A 
ATOM      5  C   UNL     1      20.236  28.656  25.203  1.00  0.00     0.128 A 
ATOM      6  C   UNL     1      21.105  29.478  25.923  1.00  0.00     0.093 A 
ATOM      7  C   UNL     1      22.093  30.226  25.272  1.00  0.00     0.136 A 
ATOM      8  C   UNL     1      22.210  30.146  23.859  1.00  0.00     0.125 A 
ATOM      9  C   UNL     1      23.162  30.870  23.121  1.00  0.00     0.078 A 
ATOM     10  C   UNL     1      23.213  30.744  21.729  1.00  0.00     0.223 A 
ENDROOT
BRANCH   1  11
ATOM     11  C   UNL     1      22.319  29.666  19.626  1.00  0.00     0.091 A 
ATOM     12  C   UNL     1      21.541  30.503  18.810  1.00  0.00     0.068 A 
ATOM     13  C   UNL     1      21.511  30.320  17.421  1.00  0.00     0.162 A 
ATOM     14  C   UNL     1      23.043  28.617  19.034  1.00  0.00     0.068 A 
ATOM     15  C   UNL     1      22.254  29.281  16.836  1.00  0.00     0.200 A 
ATOM     16  C   UNL     1      23.015  28.428  17.645  1.00  0.00     0.162 A 
BRANCH  13  17
ATOM     17  O   UNL     1      20.745  31.166  16.621  1.00  0.00    -0.504 OA
ATOM     18  H   UNL     1      21.035  32.116  16.422  1.00  0.00     0.293 HD
ENDBRANCH  13  17
BRANCH  15  19
ATOM     19  O   UNL     1      22.243  29.080  15.455  1.00  0.00    -0.502 OA
ATOM     20  H   UNL     1      21.446  28.680  14.975  1.00  0.00     0.293 HD
ENDBRANCH  15  19
BRANCH  16  21
ATOM     21  O   UNL     1      23.740  27.390  17.061  1.00  0.00    -0.504 OA
ATOM     22  H   UNL     1      24.676  27.533  16.700  1.00  0.00     0.293 HD
ENDBRANCH  16  21
ENDBRANCH   1  11
BRANCH  10  23
ATOM     23  O   UNL     1      24.125  31.499  20.992  1.00  0.00    -0.500 OA
ATOM     24  H   UNL     1      24.166  31.446  19.981  1.00  0.00     0.294 HD
ENDBRANCH  10  23
BRANCH   5  25
ATOM     25  O   UNL     1      19.263  27.924  25.881  1.00  0.00    -0.507 OA
ATOM     26  H   UNL     1      18.528  27.432  25.386  1.00  0.00     0.293 HD
ENDBRANCH   5  25
BRANCH   7  27
ATOM     27  O   UNL     1      22.925  31.022  26.064  1.00  0.00    -0.507 OA
ATOM     28  H   UNL     1      23.244  30.771  26.988  1.00  0.00     0.293 HD
ENDBRANCH   7  27
TORSDOF 7
ENDMDL
MODEL 4
REMARK VINA RESULT:    -5.603      0.102      1.790
REMARK INTER + INTRA:          -7.287
REMARK INTER:                  -6.924
REMARK INTRA:                  -0.363
REMARK UNBOUND:                -0.373
REMARK SMILES Oc1cc(O)c2cc(O)c(-c3cc(O)c(O)c(O)c3)[o+]c2c1.[Cl-]
REMARK SMILES IDX 10 1 20 2 21 3 22 4 2 5 3 6 4 7 6 8 7 9 8 10 11 11 12 12
REMARK SMILES IDX 13 13 19 14 15 15 17 16 14 17 16 19 18 21 9 23 1 25 5 27
REMARK H PARENT 14 18 16 20 18 22 9 24 1 26 5 28
REMARK Flexibility Score: inf
ROOT
ATOM      1  C   UNL     1      22.260  29.313  21.634  1.00  0.00     0.402 A 
ATOM      2  O   UNL     1      21.531  29.995  20.754  1.00  0.00    -0.202 OA
ATOM      3  C   UNL     1      21.773  29.992  19.448  1.00  0.00     0.368 A 
ATOM      4  C   UNL     1      20.953  30.742  18.602  1.00  0.00     0.162 A 
ATOM      5  C   UNL     1      21.187  30.759  17.223  1.00  0.00     0.128 A 
ATOM      6  C   UNL     1      22.248  30.024  16.689  1.00  0.00     0.093 A 
ATOM      7  C   UNL     1      23.085  29.264  17.515  1.00  0.00     0.136 A 
ATOM      8  C   UNL     1      22.849  29.241  18.915  1.00  0.00     0.125 A 
ATOM      9  C   UNL     1      23.629  28.498  19.817  1.00  0.00     0.078 A 
ATOM     10  C   UNL     1      23.332  28.520  21.183  1.00  0.00     0.223 A 
ENDROOT
BRANCH   1  11
ATOM     11  C   UNL     1      21.896  29.405  23.066  1.00  0.00     0.091 A 
ATOM     12  C   UNL     1      22.611  30.273  23.906  1.00  0.00     0.068 A 
ATOM     13  C   UNL     1      22.300  30.364  25.270  1.00  0.00     0.162 A 
ATOM     14  C   UNL     1      20.884  28.600  23.617  1.00  0.00     0.068 A 
ATOM     15  C   UNL     1      21.273  29.571  25.807  1.00  0.00     0.200 A 
ATOM     16  C   UNL     1      20.570  28.687  24.981  1.00  0.00     0.162 A 
BRANCH  13  17
ATOM     17  O   UNL     1      23.008  31.240  26.090  1.00  0.00    -0.504 OA
ATOM     18  H   UNL     1      24.021  31.247  26.113  1.00  0.00     0.293 HD
ENDBRANCH  13  17
BRANCH  15  19
ATOM     19  O   UNL     1      20.943  29.647  27.162  1.00  0.00    -0.502 OA
ATOM     20  H   UNL     1      21.569  30.053  27.847  1.00  0.00     0.293 HD
ENDBRANCH  15  19
BRANCH  16  21
ATOM     21  O   UNL     1      19.562  27.891  25.522  1.00  0.00    -0.504 OA
ATOM     22  H   UNL     1      19.723  27.311  26.338  1.00  0.00     0.293 HD
ENDBRANCH  16  21
ENDBRANCH   1  11
BRANCH  10  23
ATOM     23  O   UNL     1      24.075  27.744  22.073  1.00  0.00    -0.500 OA
ATOM     24  H   UNL     1      24.136  26.737  21.978  1.00  0.00     0.294 HD
ENDBRANCH  10  23
BRANCH   5  25
ATOM     25  O   UNL     1      20.373  31.505  16.375  1.00  0.00    -0.507 OA
ATOM     26  H   UNL     1      20.732  32.297  15.855  1.00  0.00     0.293 HD
ENDBRANCH   5  25
BRANCH   7  27
ATOM     27  O   UNL     1      24.125  28.559  16.904  1.00  0.00    -0.507 OA
ATOM     28  H   UNL     1      24.398  27.618  17.147  1.00  0.00     0.293 HD
ENDBRANCH   7  27
TORSDOF 7
ENDMDL
MODEL 5
REMARK VINA RESULT:    -5.041      3.154      4.502
REMARK INTER + INTRA:          -6.593
REMARK INTER:                  -6.588
REMARK INTRA:                  -0.005
REMARK UNBOUND:                -0.373
REMARK SMILES Oc1cc(O)c2cc(O)c(-c3cc(O)c(O)c(O)c3)[o+]c2c1.[Cl-]
REMARK SMILES IDX 10 1 20 2 21 3 22 4 2 5 3 6 4 7 6 8 7 9 8 10 11 11 12 12
REMARK SMILES IDX 13 13 19 14 15 15 17 16 14 17 16 19 18 21 9 23 1 25 5 27
REMARK H PARENT 14 18 16 20 18 22 9 24 1 26 5 28
REMARK Flexibility Score: inf
ROOT
ATOM      1  C   UNL     1      22.852  26.462  24.660  1.00  0.00     0.402 A 
ATOM      2  O   UNL     1      23.062  27.375  23.715  1.00  0.00    -0.202 OA
ATOM      3  C   UNL     1      23.368  27.068  22.459  1.00  0.00     0.368 A 
ATOM      4  C   UNL     1      23.572  28.098  21.537  1.00  0.00     0.162 A 
ATOM      5  C   UNL     1      23.898  27.802  20.210  1.00  0.00     0.128 A 
ATOM      6  C   UNL     1      24.022  26.472  19.804  1.00  0.00     0.093 A 
ATOM      7  C   UNL     1      23.822  25.421  20.708  1.00  0.00     0.136 A 
ATOM      8  C   UNL     1      23.488  25.716  22.056  1.00  0.00     0.125 A 
ATOM      9  C   UNL     1      23.257  24.728  23.027  1.00  0.00     0.078 A 
ATOM     10  C   UNL     1      22.926  25.095  24.336  1.00  0.00     0.223 A 
ENDROOT
BRANCH   1  11
ATOM     11  C   UNL     1      22.528  26.931  26.026  1.00  0.00     0.091 A 
ATOM     12  C   UNL     1      21.661  28.023  26.194  1.00  0.00     0.068 A 
ATOM     13  C   UNL     1      21.353  28.499  27.476  1.00  0.00     0.162 A 
ATOM     14  C   UNL     1      23.112  26.342  27.161  1.00  0.00     0.068 A 
ATOM     15  C   UNL     1      21.926  27.891  28.605  1.00  0.00     0.200 A 
ATOM     16  C   UNL     1      22.809  26.817  28.445  1.00  0.00     0.162 A 
BRANCH  13  17
ATOM     17  O   UNL     1      20.480  29.575  27.630  1.00  0.00    -0.504 OA
ATOM     18  H   UNL     1      20.785  30.531  27.496  1.00  0.00     0.293 HD
ENDBRANCH  13  17
BRANCH  15  19
ATOM     19  O   UNL     1      21.632  28.346  29.891  1.00  0.00    -0.502 OA
ATOM     20  H   UNL     1      21.165  27.762  30.575  1.00  0.00     0.293 HD
ENDBRANCH  15  19
BRANCH  16  21
ATOM     21  O   UNL     1      23.386  26.225  29.568  1.00  0.00    -0.504 OA
ATOM     22  H   UNL     1      23.883  25.344  29.507  1.00  0.00     0.293 HD
ENDBRANCH  16  21
ENDBRANCH   1  11
BRANCH  10  23
ATOM     23  O   UNL     1      22.649  24.115  25.288  1.00  0.00    -0.500 OA
ATOM     24  H   UNL     1      23.332  23.410  25.542  1.00  0.00     0.294 HD
ENDBRANCH  10  23
BRANCH   5  25
ATOM     25  O   UNL     1      24.104  28.824  19.286  1.00  0.00    -0.507 OA
ATOM     26  H   UNL     1      23.329  29.298  18.837  1.00  0.00     0.293 HD
ENDBRANCH   5  25
BRANCH   7  27
ATOM     27  O   UNL     1      23.966  24.119  20.223  1.00  0.00    -0.507 OA
ATOM     28  H   UNL     1      23.388  23.709  19.505  1.00  0.00     0.293 HD
ENDBRANCH   7  27
TORSDOF 7
ENDMDL
MODEL 6
REMARK VINA RESULT:    -5.001      4.735      9.280
REMARK INTER + INTRA:          -6.543
REMARK INTER:                  -6.195
REMARK INTRA:                  -0.349
REMARK UNBOUND:                -0.373
REMARK SMILES Oc1cc(O)c2cc(O)c(-c3cc(O)c(O)c(O)c3)[o+]c2c1.[Cl-]
REMARK SMILES IDX 10 1 20 2 21 3 22 4 2 5 3 6 4 7 6 8 7 9 8 10 11 11 12 12
REMARK SMILES IDX 13 13 19 14 15 15 17 16 14 17 16 19 18 21 9 23 1 25 5 27
REMARK H PARENT 14 18 16 20 18 22 9 24 1 26 5 28
REMARK Flexibility Score: inf
ROOT
ATOM      1  C   UNL     1      21.201  30.054  27.933  1.00  0.00     0.402 A 
ATOM      2  O   UNL     1      19.966  30.053  28.429  1.00  0.00    -0.202 OA
ATOM      3  C   UNL     1      19.522  30.968  29.284  1.00  0.00     0.368 A 
ATOM      4  C   UNL     1      18.209  30.882  29.752  1.00  0.00     0.162 A 
ATOM      5  C   UNL     1      17.717  31.831  30.654  1.00  0.00     0.128 A 
ATOM      6  C   UNL     1      18.544  32.868  31.091  1.00  0.00     0.093 A 
ATOM      7  C   UNL     1      19.864  32.978  30.637  1.00  0.00     0.136 A 
ATOM      8  C   UNL     1      20.366  32.019  29.719  1.00  0.00     0.125 A 
ATOM      9  C   UNL     1      21.672  32.056  29.200  1.00  0.00     0.078 A 
ATOM     10  C   UNL     1      22.095  31.079  28.294  1.00  0.00     0.223 A 
ENDROOT
BRANCH   1  11
ATOM     11  C   UNL     1      21.579  28.973  26.995  1.00  0.00     0.091 A 
ATOM     12  C   UNL     1      21.538  29.212  25.612  1.00  0.00     0.068 A 
ATOM     13  C   UNL     1      21.872  28.199  24.702  1.00  0.00     0.162 A 
ATOM     14  C   UNL     1      21.927  27.692  27.457  1.00  0.00     0.068 A 
ATOM     15  C   UNL     1      22.238  26.928  25.174  1.00  0.00     0.200 A 
ATOM     16  C   UNL     1      22.261  26.676  26.551  1.00  0.00     0.162 A 
BRANCH  13  17
ATOM     17  O   UNL     1      21.840  28.453  23.332  1.00  0.00    -0.504 OA
ATOM     18  H   UNL     1      20.977  28.679  22.853  1.00  0.00     0.293 HD
ENDBRANCH  13  17
BRANCH  15  19
ATOM     19  O   UNL     1      22.578  25.905  24.288  1.00  0.00    -0.502 OA
ATOM     20  H   UNL     1      21.886  25.436  23.716  1.00  0.00     0.293 HD
ENDBRANCH  15  19
BRANCH  16  21
ATOM     21  O   UNL     1      22.611  25.408  27.014  1.00  0.00    -0.504 OA
ATOM     22  H   UNL     1      22.256  24.566  26.576  1.00  0.00     0.293 HD
ENDBRANCH  16  21
ENDBRANCH   1  11
BRANCH  10  23
ATOM     23  O   UNL     1      23.373  31.144  27.742  1.00  0.00    -0.500 OA
ATOM     24  H   UNL     1      24.131  31.630  28.208  1.00  0.00     0.294 HD
ENDBRANCH  10  23
BRANCH   5  25
ATOM     25  O   UNL     1      16.409  31.750  31.125  1.00  0.00    -0.507 OA
ATOM     26  H   UNL     1      15.679  31.298  30.588  1.00  0.00     0.293 HD
ENDBRANCH   5  25
BRANCH   7  27
ATOM     27  O   UNL     1      20.626  34.043  31.124  1.00  0.00    -0.507 OA
ATOM     28  H   UNL     1      21.469  34.388  30.689  1.00  0.00     0.293 HD
ENDBRANCH   7  27
TORSDOF 7
ENDMDL
MODEL 7
REMARK VINA RESULT:    -4.996      5.099      7.883
REMARK INTER + INTRA:          -6.537
REMARK INTER:                  -6.177
REMARK INTRA:                  -0.360
REMARK UNBOUND:                -0.373
REMARK SMILES Oc1cc(O)c2cc(O)c(-c3cc(O)c(O)c(O)c3)[o+]c2c1.[Cl-]
REMARK SMILES IDX 10 1 20 2 21 3 22 4 2 5 3 6 4 7 6 8 7 9 8 10 11 11 12 12
REMARK SMILES IDX 13 13 19 14 15 15 17 16 14 17 16 19 18 21 9 23 1 25 5 27
REMARK H PARENT 14 18 16 20 18 22 9 24 1 26 5 28
REMARK Flexibility Score: inf
ROOT
ATOM      1  C   UNL     1      21.307  29.314  28.733  1.00  0.00     0.402 A 
ATOM      2  O   UNL     1      21.275  29.169  27.411  1.00  0.00    -0.202 OA
ATOM      3  C   UNL     1      21.780  28.115  26.780  1.00  0.00     0.368 A 
ATOM      4  C   UNL     1      21.700  28.053  25.387  1.00  0.00     0.162 A 
ATOM      5  C   UNL     1      22.226  26.956  24.697  1.00  0.00     0.128 A 
ATOM      6  C   UNL     1      22.835  25.917  25.405  1.00  0.00     0.093 A 
ATOM      7  C   UNL     1      22.927  25.954  26.802  1.00  0.00     0.136 A 
ATOM      8  C   UNL     1      22.392  27.065  27.506  1.00  0.00     0.125 A 
ATOM      9  C   UNL     1      22.428  27.181  28.906  1.00  0.00     0.078 A 
ATOM     10  C   UNL     1      21.875  28.303  29.530  1.00  0.00     0.223 A 
ENDROOT
BRANCH   1  11
ATOM     11  C   UNL     1      20.719  30.541  29.318  1.00  0.00     0.091 A 
ATOM     12  C   UNL     1      21.562  31.595  29.702  1.00  0.00     0.068 A 
ATOM     13  C   UNL     1      21.034  32.760  30.276  1.00  0.00     0.162 A 
ATOM     14  C   UNL     1      19.337  30.652  29.548  1.00  0.00     0.068 A 
ATOM     15  C   UNL     1      19.649  32.871  30.483  1.00  0.00     0.200 A 
ATOM     16  C   UNL     1      18.804  31.814  30.124  1.00  0.00     0.162 A 
BRANCH  13  17
ATOM     17  O   UNL     1      21.880  33.805  30.640  1.00  0.00    -0.504 OA
ATOM     18  H   UNL     1      22.879  33.670  30.744  1.00  0.00     0.293 HD
ENDBRANCH  13  17
BRANCH  15  19
ATOM     19  O   UNL     1      19.099  34.021  31.050  1.00  0.00    -0.502 OA
ATOM     20  H   UNL     1      19.280  34.945  30.677  1.00  0.00     0.293 HD
ENDBRANCH  15  19
BRANCH  16  21
ATOM     21  O   UNL     1      17.431  31.923  30.345  1.00  0.00    -0.504 OA
ATOM     22  H   UNL     1      17.061  32.423  31.145  1.00  0.00     0.293 HD
ENDBRANCH  16  21
ENDBRANCH   1  11
BRANCH  10  23
ATOM     23  O   UNL     1      21.866  28.396  30.922  1.00  0.00    -0.500 OA
ATOM     24  H   UNL     1      22.673  28.725  31.439  1.00  0.00     0.294 HD
ENDBRANCH  10  23
BRANCH   5  25
ATOM     25  O   UNL     1      22.151  26.889  23.308  1.00  0.00    -0.507 OA
ATOM     26  H   UNL     1      21.814  26.059  22.834  1.00  0.00     0.293 HD
ENDBRANCH   5  25
BRANCH   7  27
ATOM     27  O   UNL     1      23.553  24.877  27.434  1.00  0.00    -0.507 OA
ATOM     28  H   UNL     1      23.094  24.011  27.676  1.00  0.00     0.293 HD
ENDBRANCH   7  27
TORSDOF 7
ENDMDL
MODEL 8
REMARK VINA RESULT:    -4.948      4.664      8.672
REMARK INTER + INTRA:          -6.478
REMARK INTER:                  -6.136
REMARK INTRA:                  -0.343
REMARK UNBOUND:                -0.373
REMARK SMILES Oc1cc(O)c2cc(O)c(-c3cc(O)c(O)c(O)c3)[o+]c2c1.[Cl-]
REMARK SMILES IDX 10 1 20 2 21 3 22 4 2 5 3 6 4 7 6 8 7 9 8 10 11 11 12 12
REMARK SMILES IDX 13 13 19 14 15 15 17 16 14 17 16 19 18 21 9 23 1 25 5 27
REMARK H PARENT 14 18 16 20 18 22 9 24 1 26 5 28
REMARK Flexibility Score: inf
ROOT
ATOM      1  C   UNL     1      21.401  29.018  26.908  1.00  0.00     0.402 A 
ATOM      2  O   UNL     1      22.197  29.615  27.792  1.00  0.00    -0.202 OA
ATOM      3  C   UNL     1      21.816  30.649  28.534  1.00  0.00     0.368 A 
ATOM      4  C   UNL     1      22.725  31.211  29.434  1.00  0.00     0.162 A 
ATOM      5  C   UNL     1      22.351  32.302  30.226  1.00  0.00     0.128 A 
ATOM      6  C   UNL     1      21.064  32.832  30.116  1.00  0.00     0.093 A 
ATOM      7  C   UNL     1      20.134  32.287  29.222  1.00  0.00     0.136 A 
ATOM      8  C   UNL     1      20.508  31.179  28.418  1.00  0.00     0.125 A 
ATOM      9  C   UNL     1      19.639  30.560  27.504  1.00  0.00     0.078 A 
ATOM     10  C   UNL     1      20.077  29.467  26.750  1.00  0.00     0.223 A 
ENDROOT
BRANCH   1  11
ATOM     11  C   UNL     1      21.945  27.881  26.132  1.00  0.00     0.091 A 
ATOM     12  C   UNL     1      22.155  26.647  26.769  1.00  0.00     0.068 A 
ATOM     13  C   UNL     1      22.688  25.561  26.063  1.00  0.00     0.162 A 
ATOM     14  C   UNL     1      22.310  28.023  24.782  1.00  0.00     0.068 A 
ATOM     15  C   UNL     1      23.031  25.707  24.709  1.00  0.00     0.200 A 
ATOM     16  C   UNL     1      22.845  26.940  24.072  1.00  0.00     0.162 A 
BRANCH  13  17
ATOM     17  O   UNL     1      22.878  24.337  26.703  1.00  0.00    -0.504 OA
ATOM     18  H   UNL     1      23.663  23.736  26.481  1.00  0.00     0.293 HD
ENDBRANCH  13  17
BRANCH  15  19
ATOM     19  O   UNL     1      23.560  24.638  23.983  1.00  0.00    -0.502 OA
ATOM     20  H   UNL     1      24.558  24.488  23.896  1.00  0.00     0.293 HD
ENDBRANCH  15  19
BRANCH  16  21
ATOM     21  O   UNL     1      23.200  27.083  22.731  1.00  0.00    -0.504 OA
ATOM     22  H   UNL     1      24.166  27.202  22.448  1.00  0.00     0.293 HD
ENDBRANCH  16  21
ENDBRANCH   1  11
BRANCH  10  23
ATOM     23  O   UNL     1      19.199  28.822  25.879  1.00  0.00    -0.500 OA
ATOM     24  H   UNL     1      19.529  28.338  25.051  1.00  0.00     0.294 HD
ENDBRANCH  10  23
BRANCH   5  25
ATOM     25  O   UNL     1      23.253  32.867  31.125  1.00  0.00    -0.507 OA
ATOM     26  H   UNL     1      23.114  32.804  32.127  1.00  0.00     0.293 HD
ENDBRANCH   5  25
BRANCH   7  27
ATOM     27  O   UNL     1      18.869  32.878  29.170  1.00  0.00    -0.507 OA
ATOM     28  H   UNL     1      18.671  33.766  28.734  1.00  0.00     0.293 HD
ENDBRANCH   7  27
TORSDOF 7
ENDMDL
