MODEL 1
REMARK VINA RESULT:    -4.570      0.000      0.000
REMARK INTER + INTRA:          -6.969
REMARK INTER:                  -6.707
REMARK INTRA:                  -0.262
REMARK UNBOUND:                -0.262
REMARK SMILES O=C([O-])CCCCCCCC(=O)[O-]
REMARK SMILES IDX 7 1 6 2 5 3 4 4 2 5 1 6 3 7 8 8 9 9 10 10 11 11 12 12 13 13
REMARK H PARENT
REMARK Flexibility Score: inf
ROOT
ATOM      1  C   UNL     1     259.567 -28.467  55.746  1.00  0.00     0.000 C 
ENDROOT
BRANCH   1   2
ATOM      2  C   UNL     1     259.058 -29.398  54.638  1.00  0.00     0.000 C 
BRANCH   2   3
ATOM      3  C   UNL     1     259.115 -28.705  53.268  1.00  0.00     0.006 C 
BRANCH   3   4
ATOM      4  C   UNL     1     260.429 -27.941  53.059  1.00  0.00     0.053 C 
BRANCH   4   5
ATOM      5  C   UNL     1     261.011 -28.196  51.702  1.00  0.00     0.041 C 
ATOM      6  O   UNL     1     262.259 -28.273  51.551  1.00  0.00    -0.550 OA
ATOM      7  O   UNL     1     260.175 -28.313  50.599  1.00  0.00    -0.550 OA
ENDBRANCH   4   5
ENDBRANCH   3   4
ENDBRANCH   2   3
ENDBRANCH   1   2
BRANCH   1   8
ATOM      8  C   UNL     1     260.221 -29.266  56.879  1.00  0.00     0.000 C 
BRANCH   8   9
ATOM      9  C   UNL     1     260.175 -28.485  58.200  1.00  0.00     0.006 C 
BRANCH   9  10
ATOM     10  C   UNL     1     258.743 -28.308  58.722  1.00  0.00     0.053 C 
BRANCH  10  11
ATOM     11  C   UNL     1     258.709 -28.162  60.212  1.00  0.00     0.041 C 
ATOM     12  O   UNL     1     259.318 -28.986  60.944  1.00  0.00    -0.550 OA
ATOM     13  O   UNL     1     257.978 -27.134  60.794  1.00  0.00    -0.550 OA
ENDBRANCH  10  11
ENDBRANCH   9  10
ENDBRANCH   8   9
ENDBRANCH   1   8
TORSDOF 8
ENDMDL
MODEL 2
REMARK VINA RESULT:    -4.425      1.834      2.294
REMARK INTER + INTRA:          -6.756
REMARK INTER:                  -6.360
REMARK INTRA:                  -0.397
REMARK UNBOUND:                -0.262
REMARK SMILES O=C([O-])CCCCCCCC(=O)[O-]
REMARK SMILES IDX 7 1 6 2 5 3 4 4 2 5 1 6 3 7 8 8 9 9 10 10 11 11 12 12 13 13
REMARK H PARENT
REMARK Flexibility Score: inf
ROOT
ATOM      1  C   UNL     1     260.001 -28.486  56.507  1.00  0.00     0.000 C 
ENDROOT
BRANCH   1   2
ATOM      2  C   UNL     1     260.127 -27.002  56.873  1.00  0.00     0.000 C 
BRANCH   2   3
ATOM      3  C   UNL     1     261.342 -26.366  56.181  1.00  0.00     0.006 C 
BRANCH   3   4
ATOM      4  C   UNL     1     261.970 -27.299  55.138  1.00  0.00     0.053 C 
BRANCH   4   5
ATOM      5  C   UNL     1     261.707 -26.829  53.740  1.00  0.00     0.041 C 
ATOM      6  O   UNL     1     262.197 -25.743  53.332  1.00  0.00    -0.550 OA
ATOM      7  O   UNL     1     260.890 -27.575  52.899  1.00  0.00    -0.550 OA
ENDBRANCH   4   5
ENDBRANCH   3   4
ENDBRANCH   2   3
ENDBRANCH   1   2
BRANCH   1   8
ATOM      8  C   UNL     1     260.404 -29.379  57.687  1.00  0.00     0.000 C 
BRANCH   8   9
ATOM      9  C   UNL     1     260.327 -28.608  59.012  1.00  0.00     0.006 C 
BRANCH   9  10
ATOM     10  C   UNL     1     259.106 -29.013  59.850  1.00  0.00     0.053 C 
BRANCH  10  11
ATOM     11  C   UNL     1     259.190 -28.479  61.247  1.00  0.00     0.041 C 
ATOM     12  O   UNL     1     259.898 -29.064  62.108  1.00  0.00    -0.550 OA
ATOM     13  O   UNL     1     258.460 -27.353  61.605  1.00  0.00    -0.550 OA
ENDBRANCH  10  11
ENDBRANCH   9  10
ENDBRANCH   8   9
ENDBRANCH   1   8
TORSDOF 8
ENDMDL
MODEL 3
REMARK VINA RESULT:    -4.380      3.037      6.613
REMARK INTER + INTRA:          -6.690
REMARK INTER:                  -5.925
REMARK INTRA:                  -0.765
REMARK UNBOUND:                -0.262
REMARK SMILES O=C([O-])CCCCCCCC(=O)[O-]
REMARK SMILES IDX 7 1 6 2 5 3 4 4 2 5 1 6 3 7 8 8 9 9 10 10 11 11 12 12 13 13
REMARK H PARENT
REMARK Flexibility Score: inf
ROOT
ATOM      1  C   UNL     1     261.488 -26.365  59.164  1.00  0.00     0.000 C 
ENDROOT
BRANCH   1   2
ATOM      2  C   UNL     1     261.960 -27.262  60.314  1.00  0.00     0.000 C 
BRANCH   2   3
ATOM      3  C   UNL     1     260.815 -27.537  61.302  1.00  0.00     0.006 C 
BRANCH   3   4
ATOM      4  C   UNL     1     259.864 -28.631  60.799  1.00  0.00     0.053 C 
BRANCH   4   5
ATOM      5  C   UNL     1     258.519 -28.077  60.442  1.00  0.00     0.041 C 
ATOM      6  O   UNL     1     257.817 -28.634  59.557  1.00  0.00    -0.550 OA
ATOM      7  O   UNL     1     258.056 -26.923  61.063  1.00  0.00    -0.550 OA
ENDBRANCH   4   5
ENDBRANCH   3   4
ENDBRANCH   2   3
ENDBRANCH   1   2
BRANCH   1   8
ATOM      8  C   UNL     1     262.285 -26.645  57.885  1.00  0.00     0.000 C 
BRANCH   8   9
ATOM      9  C   UNL     1     261.368 -26.640  56.653  1.00  0.00     0.006 C 
BRANCH   9  10
ATOM     10  C   UNL     1     259.970 -27.190  56.967  1.00  0.00     0.053 C 
BRANCH  10  11
ATOM     11  C   UNL     1     259.854 -28.642  56.620  1.00  0.00     0.041 C 
ATOM     12  O   UNL     1     259.235 -28.999  55.583  1.00  0.00    -0.550 OA
ATOM     13  O   UNL     1     260.402 -29.604  57.459  1.00  0.00    -0.550 OA
ENDBRANCH  10  11
ENDBRANCH   9  10
ENDBRANCH   8   9
ENDBRANCH   1   8
TORSDOF 8
ENDMDL
MODEL 4
REMARK VINA RESULT:    -4.380      1.659      7.174
REMARK INTER + INTRA:          -6.690
REMARK INTER:                  -6.283
REMARK INTRA:                  -0.407
REMARK UNBOUND:                -0.262
REMARK SMILES O=C([O-])CCCCCCCC(=O)[O-]
REMARK SMILES IDX 7 1 6 2 5 3 4 4 2 5 1 6 3 7 8 8 9 9 10 10 11 11 12 12 13 13
REMARK H PARENT
REMARK Flexibility Score: inf
ROOT
ATOM      1  C   UNL     1     259.393 -27.862  56.825  1.00  0.00     0.000 C 
ENDROOT
BRANCH   1   2
ATOM      2  C   UNL     1     260.108 -29.118  57.334  1.00  0.00     0.000 C 
BRANCH   2   3
ATOM      3  C   UNL     1     259.962 -29.256  58.858  1.00  0.00     0.006 C 
BRANCH   3   4
ATOM      4  C   UNL     1     258.659 -28.632  59.374  1.00  0.00     0.053 C 
BRANCH   4   5
ATOM      5  C   UNL     1     258.792 -28.155  60.787  1.00  0.00     0.041 C 
ATOM      6  O   UNL     1     258.165 -27.133  61.174  1.00  0.00    -0.550 OA
ATOM      7  O   UNL     1     259.635 -28.821  61.668  1.00  0.00    -0.550 OA
ENDBRANCH   4   5
ENDBRANCH   3   4
ENDBRANCH   2   3
ENDBRANCH   1   2
BRANCH   1   8
ATOM      8  C   UNL     1     260.395 -26.741  56.526  1.00  0.00     0.000 C 
BRANCH   8   9
ATOM      9  C   UNL     1     261.581 -27.269  55.705  1.00  0.00     0.006 C 
BRANCH   9  10
ATOM     10  C   UNL     1     261.903 -26.370  54.503  1.00  0.00     0.053 C 
BRANCH  10  11
ATOM     11  C   UNL     1     261.577 -27.042  53.206  1.00  0.00     0.041 C 
ATOM     12  O   UNL     1     262.286 -26.833  52.187  1.00  0.00    -0.550 OA
ATOM     13  O   UNL     1     260.469 -27.877  53.114  1.00  0.00    -0.550 OA
ENDBRANCH  10  11
ENDBRANCH   9  10
ENDBRANCH   8   9
ENDBRANCH   1   8
TORSDOF 8
ENDMDL
MODEL 5
REMARK VINA RESULT:    -4.376      1.621      7.371
REMARK INTER + INTRA:          -6.685
REMARK INTER:                  -6.394
REMARK INTRA:                  -0.291
REMARK UNBOUND:                -0.262
REMARK SMILES O=C([O-])CCCCCCCC(=O)[O-]
REMARK SMILES IDX 7 1 6 2 5 3 4 4 2 5 1 6 3 7 8 8 9 9 10 10 11 11 12 12 13 13
REMARK H PARENT
REMARK Flexibility Score: inf
ROOT
ATOM      1  C   UNL     1     261.230 -26.801  56.334  1.00  0.00     0.000 C 
ENDROOT
BRANCH   1   2
ATOM      2  C   UNL     1     259.899 -26.802  57.095  1.00  0.00     0.000 C 
BRANCH   2   3
ATOM      3  C   UNL     1     259.364 -28.233  57.265  1.00  0.00     0.006 C 
BRANCH   3   4
ATOM      4  C   UNL     1     259.958 -28.932  58.494  1.00  0.00     0.053 C 
BRANCH   4   5
ATOM      5  C   UNL     1     259.033 -28.870  59.671  1.00  0.00     0.041 C 
ATOM      6  O   UNL     1     257.794 -28.724  59.497  1.00  0.00    -0.550 OA
ATOM      7  O   UNL     1     259.545 -28.938  60.960  1.00  0.00    -0.550 OA
ENDBRANCH   4   5
ENDBRANCH   3   4
ENDBRANCH   2   3
ENDBRANCH   1   2
BRANCH   1   8
ATOM      8  C   UNL     1     261.074 -27.448  54.952  1.00  0.00     0.000 C 
BRANCH   8   9
ATOM      9  C   UNL     1     262.054 -26.832  53.943  1.00  0.00     0.006 C 
BRANCH   9  10
ATOM     10  C   UNL     1     261.491 -26.826  52.515  1.00  0.00     0.053 C 
BRANCH  10  11
ATOM     11  C   UNL     1     262.060 -27.938  51.690  1.00  0.00     0.041 C 
ATOM     12  O   UNL     1     261.304 -28.656  50.984  1.00  0.00    -0.550 OA
ATOM     13  O   UNL     1     263.424 -28.203  51.726  1.00  0.00    -0.550 OA
ENDBRANCH  10  11
ENDBRANCH   9  10
ENDBRANCH   8   9
ENDBRANCH   1   8
TORSDOF 8
ENDMDL
MODEL 6
REMARK VINA RESULT:    -4.346      1.838      2.401
REMARK INTER + INTRA:          -6.641
REMARK INTER:                  -6.195
REMARK INTRA:                  -0.445
REMARK UNBOUND:                -0.262
REMARK SMILES O=C([O-])CCCCCCCC(=O)[O-]
REMARK SMILES IDX 7 1 6 2 5 3 4 4 2 5 1 6 3 7 8 8 9 9 10 10 11 11 12 12 13 13
REMARK H PARENT
REMARK Flexibility Score: inf
ROOT
ATOM      1  C   UNL     1     261.620 -26.691  56.428  1.00  0.00     0.000 C 
ENDROOT
BRANCH   1   2
ATOM      2  C   UNL     1     261.753 -26.070  55.033  1.00  0.00     0.000 C 
BRANCH   2   3
ATOM      3  C   UNL     1     262.210 -27.118  54.006  1.00  0.00     0.006 C 
BRANCH   3   4
ATOM      4  C   UNL     1     261.698 -26.808  52.593  1.00  0.00     0.053 C 
BRANCH   4   5
ATOM      5  C   UNL     1     260.775 -27.874  52.090  1.00  0.00     0.041 C 
ATOM      6  O   UNL     1     259.799 -28.252  52.791  1.00  0.00    -0.550 OA
ATOM      7  O   UNL     1     261.013 -28.476  50.861  1.00  0.00    -0.550 OA
ENDBRANCH   4   5
ENDBRANCH   3   4
ENDBRANCH   2   3
ENDBRANCH   1   2
BRANCH   1   8
ATOM      8  C   UNL     1     260.149 -26.779  56.853  1.00  0.00     0.000 C 
BRANCH   8   9
ATOM      9  C   UNL     1     259.635 -28.223  56.757  1.00  0.00     0.006 C 
BRANCH   9  10
ATOM     10  C   UNL     1     260.269 -29.137  57.815  1.00  0.00     0.053 C 
BRANCH  10  11
ATOM     11  C   UNL     1     259.904 -28.714  59.204  1.00  0.00     0.041 C 
ATOM     12  O   UNL     1     260.747 -28.124  59.930  1.00  0.00    -0.550 OA
ATOM     13  O   UNL     1     258.642 -29.000  59.709  1.00  0.00    -0.550 OA
ENDBRANCH  10  11
ENDBRANCH   9  10
ENDBRANCH   8   9
ENDBRANCH   1   8
TORSDOF 8
ENDMDL
MODEL 7
REMARK VINA RESULT:    -4.334      2.826      3.366
REMARK INTER + INTRA:          -6.623
REMARK INTER:                  -6.095
REMARK INTRA:                  -0.528
REMARK UNBOUND:                -0.262
REMARK SMILES O=C([O-])CCCCCCCC(=O)[O-]
REMARK SMILES IDX 7 1 6 2 5 3 4 4 2 5 1 6 3 7 8 8 9 9 10 10 11 11 12 12 13 13
REMARK H PARENT
REMARK Flexibility Score: inf
ROOT
ATOM      1  C   UNL     1     259.862 -28.465  56.508  1.00  0.00     0.000 C 
ENDROOT
BRANCH   1   2
ATOM      2  C   UNL     1     260.402 -27.044  56.705  1.00  0.00     0.000 C 
BRANCH   2   3
ATOM      3  C   UNL     1     261.474 -26.713  55.655  1.00  0.00     0.006 C 
BRANCH   3   4
ATOM      4  C   UNL     1     262.877 -26.620  56.268  1.00  0.00     0.053 C 
BRANCH   4   5
ATOM      5  C   UNL     1     263.674 -27.864  56.024  1.00  0.00     0.041 C 
ATOM      6  O   UNL     1     264.356 -27.986  54.972  1.00  0.00    -0.550 OA
ATOM      7  O   UNL     1     263.636 -28.905  56.944  1.00  0.00    -0.550 OA
ENDBRANCH   4   5
ENDBRANCH   3   4
ENDBRANCH   2   3
ENDBRANCH   1   2
BRANCH   1   8
ATOM      8  C   UNL     1     260.338 -29.395  57.630  1.00  0.00     0.000 C 
BRANCH   8   9
ATOM      9  C   UNL     1     260.328 -28.672  58.985  1.00  0.00     0.006 C 
BRANCH   9  10
ATOM     10  C   UNL     1     259.092 -29.025  59.824  1.00  0.00     0.053 C 
BRANCH  10  11
ATOM     11  C   UNL     1     259.199 -28.492  61.219  1.00  0.00     0.041 C 
ATOM     12  O   UNL     1     259.926 -29.073  62.067  1.00  0.00    -0.550 OA
ATOM     13  O   UNL     1     258.468 -27.371  61.593  1.00  0.00    -0.550 OA
ENDBRANCH  10  11
ENDBRANCH   9  10
ENDBRANCH   8   9
ENDBRANCH   1   8
TORSDOF 8
ENDMDL
MODEL 8
REMARK VINA RESULT:    -4.307      2.866      6.682
REMARK INTER + INTRA:          -6.583
REMARK INTER:                  -5.968
REMARK INTRA:                  -0.615
REMARK UNBOUND:                -0.262
REMARK SMILES O=C([O-])CCCCCCCC(=O)[O-]
REMARK SMILES IDX 7 1 6 2 5 3 4 4 2 5 1 6 3 7 8 8 9 9 10 10 11 11 12 12 13 13
REMARK H PARENT
REMARK Flexibility Score: inf
ROOT
ATOM      1  C   UNL     1     259.802 -28.261  56.354  1.00  0.00     0.000 C 
ENDROOT
BRANCH   1   2
ATOM      2  C   UNL     1     260.153 -29.395  57.325  1.00  0.00     0.000 C 
BRANCH   2   3
ATOM      3  C   UNL     1     260.295 -28.866  58.761  1.00  0.00     0.006 C 
BRANCH   3   4
ATOM      4  C   UNL     1     259.038 -29.126  59.601  1.00  0.00     0.053 C 
BRANCH   4   5
ATOM      5  C   UNL     1     259.109 -28.445  60.933  1.00  0.00     0.041 C 
ATOM      6  O   UNL     1     259.870 -28.888  61.833  1.00  0.00    -0.550 OA
ATOM      7  O   UNL     1     258.307 -27.340  61.192  1.00  0.00    -0.550 OA
ENDBRANCH   4   5
ENDBRANCH   3   4
ENDBRANCH   2   3
ENDBRANCH   1   2
BRANCH   1   8
ATOM      8  C   UNL     1     260.248 -26.904  56.910  1.00  0.00     0.000 C 
BRANCH   8   9
ATOM      9  C   UNL     1     261.392 -26.315  56.072  1.00  0.00     0.006 C 
BRANCH   9  10
ATOM     10  C   UNL     1     262.745 -26.406  56.791  1.00  0.00     0.053 C 
BRANCH  10  11
ATOM     11  C   UNL     1     263.464 -27.677  56.461  1.00  0.00     0.041 C 
ATOM     12  O   UNL     1     263.590 -28.579  57.330  1.00  0.00    -0.550 OA
ATOM     13  O   UNL     1     264.024 -27.853  55.201  1.00  0.00    -0.550 OA
ENDBRANCH  10  11
ENDBRANCH   9  10
ENDBRANCH   8   9
ENDBRANCH   1   8
TORSDOF 8
ENDMDL
MODEL 9
REMARK VINA RESULT:    -4.256      3.939      5.086
REMARK INTER + INTRA:          -6.508
REMARK INTER:                  -5.739
REMARK INTRA:                  -0.769
REMARK UNBOUND:                -0.262
REMARK SMILES O=C([O-])CCCCCCCC(=O)[O-]
REMARK SMILES IDX 7 1 6 2 5 3 4 4 2 5 1 6 3 7 8 8 9 9 10 10 11 11 12 12 13 13
REMARK H PARENT
REMARK Flexibility Score: inf
ROOT
ATOM      1  C   UNL     1     258.838 -28.007  60.739  1.00  0.00     0.000 C 
ENDROOT
BRANCH   1   2
ATOM      2  C   UNL     1     258.503 -28.900  59.538  1.00  0.00     0.000 C 
BRANCH   2   3
ATOM      3  C   UNL     1     259.237 -28.422  58.275  1.00  0.00     0.006 C 
BRANCH   3   4
ATOM      4  C   UNL     1     260.385 -29.360  57.882  1.00  0.00     0.053 C 
BRANCH   4   5
ATOM      5  C   UNL     1     261.510 -28.618  57.228  1.00  0.00     0.041 C 
ATOM      6  O   UNL     1     261.269 -27.671  56.433  1.00  0.00    -0.550 OA
ATOM      7  O   UNL     1     262.825 -28.996  57.471  1.00  0.00    -0.550 OA
ENDBRANCH   4   5
ENDBRANCH   3   4
ENDBRANCH   2   3
ENDBRANCH   1   2
BRANCH   1   8
ATOM      8  C   UNL     1     259.960 -28.622  61.584  1.00  0.00     0.000 C 
BRANCH   8   9
ATOM      9  C   UNL     1     261.061 -27.591  61.871  1.00  0.00     0.006 C 
BRANCH   9  10
ATOM     10  C   UNL     1     261.195 -26.556  60.745  1.00  0.00     0.053 C 
BRANCH  10  11
ATOM     11  C   UNL     1     262.567 -26.564  60.145  1.00  0.00     0.041 C 
ATOM     12  O   UNL     1     262.815 -25.879  59.118  1.00  0.00    -0.550 OA
ATOM     13  O   UNL     1     263.565 -27.355  60.702  1.00  0.00    -0.550 OA
ENDBRANCH  10  11
ENDBRANCH   9  10
ENDBRANCH   8   9
ENDBRANCH   1   8
TORSDOF 8
ENDMDL
