MODEL 1
REMARK VINA RESULT:    -8.045      0.000      0.000
REMARK INTER + INTRA:         -12.747
REMARK INTER:                 -12.277
REMARK INTRA:                  -0.470
REMARK UNBOUND:                -0.470
REMARK SMILES COc1cc(C=CCOC(=O)C=Cc2ccc(O)c(OC)c2)ccc1O
REMARK SMILES IDX 9 1 8 2 7 3 6 4 5 5 3 6 25 7 4 8 24 9 23 10 2 11 1 12 26 13
REMARK SMILES IDX 10 15 11 16 12 17 13 18 14 19 22 20 15 21 19 22 16 23 17 24
REMARK SMILES IDX 20 25 21 26 18 27
REMARK H PARENT 26 14 18 28
REMARK Flexibility Score: inf
ROOT
ATOM      1  O   UNL     1      20.243  -3.014  69.941  1.00  0.00    -0.458 OA
ENDROOT
BRANCH   1   2
ATOM      2  C   UNL     1      21.535  -3.168  69.356  1.00  0.00     0.261 C 
BRANCH   2   3
ATOM      3  C   UNL     1      21.991  -4.598  69.463  1.00  0.00     0.015 C 
ATOM      4  C   UNL     1      23.278  -4.972  69.503  1.00  0.00     0.007 C 
BRANCH   4   5
ATOM      5  C   UNL     1      24.418  -4.043  69.395  1.00  0.00    -0.022 A 
ATOM      6  C   UNL     1      26.360  -3.170  68.193  1.00  0.00     0.161 A 
ATOM      7  C   UNL     1      26.633  -2.317  69.278  1.00  0.00     0.157 A 
ATOM      8  C   UNL     1      25.252  -4.039  68.264  1.00  0.00     0.058 A 
ATOM      9  C   UNL     1      25.820  -2.344  70.415  1.00  0.00     0.051 A 
ATOM     10  C   UNL     1      24.726  -3.209  70.479  1.00  0.00     0.012 A 
BRANCH   6  11
ATOM     11  O   UNL     1      27.207  -3.135  67.073  1.00  0.00    -0.493 OA
ATOM     12  C   UNL     1      27.501  -4.259  66.249  1.00  0.00     0.278 C 
ENDBRANCH   6  11
BRANCH   7  13
ATOM     13  O   UNL     1      27.718  -1.439  69.250  1.00  0.00    -0.504 OA
ATOM     14  H   UNL     1      28.660  -1.751  69.043  1.00  0.00     0.293 HD
ENDBRANCH   7  13
ENDBRANCH   4   5
ENDBRANCH   2   3
ENDBRANCH   1   2
BRANCH   1  15
ATOM     15  C   UNL     1      19.135  -2.523  69.235  1.00  0.00     0.331 C 
ATOM     16  O   UNL     1      18.945  -1.280  69.133  1.00  0.00    -0.247 OA
BRANCH  15  17
ATOM     17  C   UNL     1      18.178  -3.447  68.605  1.00  0.00     0.094 C 
ATOM     18  C   UNL     1      16.930  -3.600  69.066  1.00  0.00     0.016 C 
BRANCH  18  19
ATOM     19  C   UNL     1      15.930  -4.508  68.452  1.00  0.00    -0.021 A 
ATOM     20  C   UNL     1      15.169  -5.422  69.210  1.00  0.00     0.058 A 
ATOM     21  C   UNL     1      15.711  -4.428  67.067  1.00  0.00     0.012 A 
ATOM     22  C   UNL     1      14.228  -6.266  68.585  1.00  0.00     0.161 A 
ATOM     23  C   UNL     1      14.780  -5.261  66.444  1.00  0.00     0.051 A 
ATOM     24  C   UNL     1      14.042  -6.182  67.197  1.00  0.00     0.157 A 
BRANCH  22  25
ATOM     25  O   UNL     1      13.456  -7.192  69.306  1.00  0.00    -0.493 OA
ATOM     26  C   UNL     1      13.935  -8.446  69.780  1.00  0.00     0.278 C 
ENDBRANCH  22  25
BRANCH  24  27
ATOM     27  O   UNL     1      13.116  -7.017  66.573  1.00  0.00    -0.504 OA
ATOM     28  H   UNL     1      12.518  -7.638  67.104  1.00  0.00     0.293 HD
ENDBRANCH  24  27
ENDBRANCH  18  19
ENDBRANCH  15  17
ENDBRANCH   1  15
TORSDOF 10
ENDMDL
MODEL 2
REMARK VINA RESULT:    -7.990      4.527      8.049
REMARK INTER + INTRA:         -12.664
REMARK INTER:                 -10.887
REMARK INTRA:                  -1.777
REMARK UNBOUND:                -0.470
REMARK SMILES COc1cc(C=CCOC(=O)C=Cc2ccc(O)c(OC)c2)ccc1O
REMARK SMILES IDX 9 1 8 2 7 3 6 4 5 5 3 6 25 7 4 8 24 9 23 10 2 11 1 12 26 13
REMARK SMILES IDX 10 15 11 16 12 17 13 18 14 19 22 20 15 21 19 22 16 23 17 24
REMARK SMILES IDX 20 25 21 26 18 27
REMARK H PARENT 26 14 18 28
REMARK Flexibility Score: inf
ROOT
ATOM      1  O   UNL     1      13.454  -7.372  69.592  1.00  0.00    -0.458 OA
ENDROOT
BRANCH   1   2
ATOM      2  C   UNL     1      14.451  -6.465  69.125  1.00  0.00     0.261 C 
BRANCH   2   3
ATOM      3  C   UNL     1      13.861  -5.512  68.120  1.00  0.00     0.015 C 
ATOM      4  C   UNL     1      14.501  -5.096  67.018  1.00  0.00     0.007 C 
BRANCH   4   5
ATOM      5  C   UNL     1      15.884  -5.472  66.667  1.00  0.00    -0.022 A 
ATOM      6  C   UNL     1      18.298  -5.314  67.020  1.00  0.00     0.161 A 
ATOM      7  C   UNL     1      18.503  -6.144  65.902  1.00  0.00     0.157 A 
ATOM      8  C   UNL     1      16.980  -4.974  67.391  1.00  0.00     0.058 A 
ATOM      9  C   UNL     1      17.411  -6.612  65.165  1.00  0.00     0.051 A 
ATOM     10  C   UNL     1      16.110  -6.270  65.538  1.00  0.00     0.012 A 
BRANCH   6  11
ATOM     11  O   UNL     1      19.415  -4.841  67.727  1.00  0.00    -0.493 OA
ATOM     12  C   UNL     1      19.537  -3.524  68.256  1.00  0.00     0.278 C 
ENDBRANCH   6  11
BRANCH   7  13
ATOM     13  O   UNL     1      19.790  -6.507  65.499  1.00  0.00    -0.504 OA
ATOM     14  H   UNL     1      20.619  -6.162  65.968  1.00  0.00     0.293 HD
ENDBRANCH   7  13
ENDBRANCH   4   5
ENDBRANCH   2   3
ENDBRANCH   1   2
BRANCH   1  15
ATOM     15  C   UNL     1      13.091  -8.537  68.900  1.00  0.00     0.331 C 
ATOM     16  O   UNL     1      12.096  -9.216  69.275  1.00  0.00    -0.247 OA
BRANCH  15  17
ATOM     17  C   UNL     1      13.863  -8.984  67.730  1.00  0.00     0.094 C 
ATOM     18  C   UNL     1      13.471  -8.721  66.477  1.00  0.00     0.016 C 
BRANCH  18  19
ATOM     19  C   UNL     1      14.227  -9.140  65.271  1.00  0.00    -0.021 A 
ATOM     20  C   UNL     1      15.409  -9.906  65.346  1.00  0.00     0.058 A 
ATOM     21  C   UNL     1      13.725  -8.789  64.008  1.00  0.00     0.012 A 
ATOM     22  C   UNL     1      16.094 -10.285  64.173  1.00  0.00     0.161 A 
ATOM     23  C   UNL     1      14.400  -9.162  62.844  1.00  0.00     0.051 A 
ATOM     24  C   UNL     1      15.585  -9.903  62.923  1.00  0.00     0.157 A 
BRANCH  22  25
ATOM     25  O   UNL     1      17.277 -11.042  64.209  1.00  0.00    -0.493 OA
ATOM     26  C   UNL     1      18.517 -10.579  64.733  1.00  0.00     0.278 C 
ENDBRANCH  22  25
BRANCH  24  27
ATOM     27  O   UNL     1      16.262 -10.271  61.761  1.00  0.00    -0.504 OA
ATOM     28  H   UNL     1      17.271 -10.355  61.738  1.00  0.00     0.293 HD
ENDBRANCH  24  27
ENDBRANCH  18  19
ENDBRANCH  15  17
ENDBRANCH   1  15
TORSDOF 10
ENDMDL
MODEL 3
REMARK VINA RESULT:    -7.945      4.504      8.156
REMARK INTER + INTRA:         -12.595
REMARK INTER:                 -10.875
REMARK INTRA:                  -1.720
REMARK UNBOUND:                -0.470
REMARK SMILES COc1cc(C=CCOC(=O)C=Cc2ccc(O)c(OC)c2)ccc1O
REMARK SMILES IDX 9 1 8 2 7 3 6 4 5 5 3 6 25 7 4 8 24 9 23 10 2 11 1 12 26 13
REMARK SMILES IDX 10 15 11 16 12 17 13 18 14 19 22 20 15 21 19 22 16 23 17 24
REMARK SMILES IDX 20 25 21 26 18 27
REMARK H PARENT 26 14 18 28
REMARK Flexibility Score: inf
ROOT
ATOM      1  O   UNL     1      13.572  -7.537  69.530  1.00  0.00    -0.458 OA
ENDROOT
BRANCH   1   2
ATOM      2  C   UNL     1      14.574  -6.639  69.054  1.00  0.00     0.261 C 
BRANCH   2   3
ATOM      3  C   UNL     1      13.974  -5.648  68.092  1.00  0.00     0.015 C 
ATOM      4  C   UNL     1      14.609  -5.177  67.010  1.00  0.00     0.007 C 
BRANCH   4   5
ATOM      5  C   UNL     1      15.995  -5.523  66.643  1.00  0.00    -0.022 A 
ATOM      6  C   UNL     1      18.410  -5.293  66.950  1.00  0.00     0.161 A 
ATOM      7  C   UNL     1      18.618  -6.139  65.846  1.00  0.00     0.157 A 
ATOM      8  C   UNL     1      17.090  -4.981  67.337  1.00  0.00     0.058 A 
ATOM      9  C   UNL     1      17.527  -6.652  65.137  1.00  0.00     0.051 A 
ATOM     10  C   UNL     1      16.223  -6.337  65.526  1.00  0.00     0.012 A 
BRANCH   6  11
ATOM     11  O   UNL     1      19.525  -4.776  67.628  1.00  0.00    -0.493 OA
ATOM     12  C   UNL     1      19.545  -3.529  68.316  1.00  0.00     0.278 C 
ENDBRANCH   6  11
BRANCH   7  13
ATOM     13  O   UNL     1      19.907  -6.475  65.428  1.00  0.00    -0.504 OA
ATOM     14  H   UNL     1      20.133  -6.641  64.454  1.00  0.00     0.293 HD
ENDBRANCH   7  13
ENDBRANCH   4   5
ENDBRANCH   2   3
ENDBRANCH   1   2
BRANCH   1  15
ATOM     15  C   UNL     1      13.314  -8.782  68.940  1.00  0.00     0.331 C 
ATOM     16  O   UNL     1      12.517  -9.594  69.487  1.00  0.00    -0.247 OA
BRANCH  15  17
ATOM     17  C   UNL     1      13.966  -9.162  67.677  1.00  0.00     0.094 C 
ATOM     18  C   UNL     1      13.421  -8.887  66.485  1.00  0.00     0.016 C 
BRANCH  18  19
ATOM     19  C   UNL     1      14.052  -9.239  65.189  1.00  0.00    -0.021 A 
ATOM     20  C   UNL     1      13.428  -8.990  63.949  1.00  0.00     0.058 A 
ATOM     21  C   UNL     1      15.335  -9.810  65.200  1.00  0.00     0.012 A 
ATOM     22  C   UNL     1      14.065  -9.339  62.741  1.00  0.00     0.161 A 
ATOM     23  C   UNL     1      15.970 -10.156  64.006  1.00  0.00     0.051 A 
ATOM     24  C   UNL     1      15.338  -9.928  62.778  1.00  0.00     0.157 A 
BRANCH  22  25
ATOM     25  O   UNL     1      13.472  -9.112  61.488  1.00  0.00    -0.493 OA
ATOM     26  C   UNL     1      12.212  -9.638  61.083  1.00  0.00     0.278 C 
ENDBRANCH  22  25
BRANCH  24  27
ATOM     27  O   UNL     1      15.971 -10.279  61.587  1.00  0.00    -0.504 OA
ATOM     28  H   UNL     1      16.681 -11.001  61.555  1.00  0.00     0.293 HD
ENDBRANCH  24  27
ENDBRANCH  18  19
ENDBRANCH  15  17
ENDBRANCH   1  15
TORSDOF 10
ENDMDL
MODEL 4
REMARK VINA RESULT:    -7.873      1.153      1.832
REMARK INTER + INTRA:         -12.485
REMARK INTER:                 -11.883
REMARK INTRA:                  -0.602
REMARK UNBOUND:                -0.470
REMARK SMILES COc1cc(C=CCOC(=O)C=Cc2ccc(O)c(OC)c2)ccc1O
REMARK SMILES IDX 9 1 8 2 7 3 6 4 5 5 3 6 25 7 4 8 24 9 23 10 2 11 1 12 26 13
REMARK SMILES IDX 10 15 11 16 12 17 13 18 14 19 22 20 15 21 19 22 16 23 17 24
REMARK SMILES IDX 20 25 21 26 18 27
REMARK H PARENT 26 14 18 28
REMARK Flexibility Score: inf
ROOT
ATOM      1  O   UNL     1      20.243  -3.083  69.592  1.00  0.00    -0.458 OA
ENDROOT
BRANCH   1   2
ATOM      2  C   UNL     1      21.648  -3.194  69.374  1.00  0.00     0.261 C 
BRANCH   2   3
ATOM      3  C   UNL     1      22.081  -4.632  69.474  1.00  0.00     0.015 C 
ATOM      4  C   UNL     1      23.361  -5.030  69.479  1.00  0.00     0.007 C 
BRANCH   4   5
ATOM      5  C   UNL     1      24.515  -4.122  69.334  1.00  0.00    -0.022 A 
ATOM      6  C   UNL     1      26.360  -3.200  68.022  1.00  0.00     0.161 A 
ATOM      7  C   UNL     1      26.762  -2.445  69.139  1.00  0.00     0.157 A 
ATOM      8  C   UNL     1      25.237  -4.047  68.132  1.00  0.00     0.058 A 
ATOM      9  C   UNL     1      26.060  -2.545  70.344  1.00  0.00     0.051 A 
ATOM     10  C   UNL     1      24.950  -3.387  70.445  1.00  0.00     0.012 A 
BRANCH   6  11
ATOM     11  O   UNL     1      27.098  -3.096  66.832  1.00  0.00    -0.493 OA
ATOM     12  C   UNL     1      28.099  -4.022  66.418  1.00  0.00     0.278 C 
ENDBRANCH   6  11
BRANCH   7  13
ATOM     13  O   UNL     1      27.866  -1.594  69.075  1.00  0.00    -0.504 OA
ATOM     14  H   UNL     1      28.803  -1.907  69.302  1.00  0.00     0.293 HD
ENDBRANCH   7  13
ENDBRANCH   4   5
ENDBRANCH   2   3
ENDBRANCH   1   2
BRANCH   1  15
ATOM     15  C   UNL     1      19.394  -2.337  68.762  1.00  0.00     0.331 C 
ATOM     16  O   UNL     1      19.688  -1.150  68.451  1.00  0.00    -0.247 OA
BRANCH  15  17
ATOM     17  C   UNL     1      18.149  -2.925  68.243  1.00  0.00     0.094 C 
ATOM     18  C   UNL     1      18.001  -4.246  68.079  1.00  0.00     0.016 C 
BRANCH  18  19
ATOM     19  C   UNL     1      16.758  -4.880  67.573  1.00  0.00    -0.021 A 
ATOM     20  C   UNL     1      16.715  -5.606  66.364  1.00  0.00     0.058 A 
ATOM     21  C   UNL     1      15.590  -4.780  68.346  1.00  0.00     0.012 A 
ATOM     22  C   UNL     1      15.512  -6.194  65.922  1.00  0.00     0.161 A 
ATOM     23  C   UNL     1      14.397  -5.362  67.912  1.00  0.00     0.051 A 
ATOM     24  C   UNL     1      14.354  -6.062  66.702  1.00  0.00     0.157 A 
BRANCH  22  25
ATOM     25  O   UNL     1      15.430  -6.919  64.722  1.00  0.00    -0.493 OA
ATOM     26  C   UNL     1      15.917  -8.245  64.545  1.00  0.00     0.278 C 
ENDBRANCH  22  25
BRANCH  24  27
ATOM     27  O   UNL     1      13.160  -6.638  66.267  1.00  0.00    -0.504 OA
ATOM     28  H   UNL     1      12.446  -6.091  65.801  1.00  0.00     0.293 HD
ENDBRANCH  24  27
ENDBRANCH  18  19
ENDBRANCH  15  17
ENDBRANCH   1  15
TORSDOF 10
ENDMDL
MODEL 5
REMARK VINA RESULT:    -7.815      0.774      1.973
REMARK INTER + INTRA:         -12.397
REMARK INTER:                 -12.049
REMARK INTRA:                  -0.348
REMARK UNBOUND:                -0.470
REMARK SMILES COc1cc(C=CCOC(=O)C=Cc2ccc(O)c(OC)c2)ccc1O
REMARK SMILES IDX 9 1 8 2 7 3 6 4 5 5 3 6 25 7 4 8 24 9 23 10 2 11 1 12 26 13
REMARK SMILES IDX 10 15 11 16 12 17 13 18 14 19 22 20 15 21 19 22 16 23 17 24
REMARK SMILES IDX 20 25 21 26 18 27
REMARK H PARENT 26 14 18 28
REMARK Flexibility Score: inf
ROOT
ATOM      1  O   UNL     1      20.171  -2.945  69.742  1.00  0.00    -0.458 OA
ENDROOT
BRANCH   1   2
ATOM      2  C   UNL     1      21.540  -3.096  69.367  1.00  0.00     0.261 C 
BRANCH   2   3
ATOM      3  C   UNL     1      21.930  -4.549  69.385  1.00  0.00     0.015 C 
ATOM      4  C   UNL     1      23.197  -4.983  69.439  1.00  0.00     0.007 C 
BRANCH   4   5
ATOM      5  C   UNL     1      24.380  -4.101  69.435  1.00  0.00    -0.022 A 
ATOM      6  C   UNL     1      25.679  -2.262  70.387  1.00  0.00     0.161 A 
ATOM      7  C   UNL     1      26.602  -2.384  69.332  1.00  0.00     0.157 A 
ATOM      8  C   UNL     1      24.562  -3.122  70.426  1.00  0.00     0.058 A 
ATOM      9  C   UNL     1      26.401  -3.339  68.330  1.00  0.00     0.051 A 
ATOM     10  C   UNL     1      25.291  -4.185  68.374  1.00  0.00     0.012 A 
BRANCH   6  11
ATOM     11  O   UNL     1      25.895  -1.279  71.366  1.00  0.00    -0.493 OA
ATOM     12  C   UNL     1      24.890  -0.404  71.866  1.00  0.00     0.278 C 
ENDBRANCH   6  11
BRANCH   7  13
ATOM     13  O   UNL     1      27.722  -1.555  69.254  1.00  0.00    -0.504 OA
ATOM     14  H   UNL     1      27.657  -0.549  69.351  1.00  0.00     0.293 HD
ENDBRANCH   7  13
ENDBRANCH   4   5
ENDBRANCH   2   3
ENDBRANCH   1   2
BRANCH   1  15
ATOM     15  C   UNL     1      19.197  -2.406  68.890  1.00  0.00     0.331 C 
ATOM     16  O   UNL     1      19.186  -1.170  68.635  1.00  0.00    -0.247 OA
BRANCH  15  17
ATOM     17  C   UNL     1      18.174  -3.270  68.281  1.00  0.00     0.094 C 
ATOM     18  C   UNL     1      17.124  -3.727  68.976  1.00  0.00     0.016 C 
BRANCH  18  19
ATOM     19  C   UNL     1      16.063  -4.588  68.396  1.00  0.00    -0.021 A 
ATOM     20  C   UNL     1      15.254  -5.431  69.187  1.00  0.00     0.058 A 
ATOM     21  C   UNL     1      15.835  -4.532  67.012  1.00  0.00     0.012 A 
ATOM     22  C   UNL     1      14.256  -6.230  68.594  1.00  0.00     0.161 A 
ATOM     23  C   UNL     1      14.846  -5.322  66.421  1.00  0.00     0.051 A 
ATOM     24  C   UNL     1      14.061  -6.174  67.206  1.00  0.00     0.157 A 
BRANCH  22  25
ATOM     25  O   UNL     1      13.436  -7.086  69.348  1.00  0.00    -0.493 OA
ATOM     26  C   UNL     1      13.836  -8.360  69.842  1.00  0.00     0.278 C 
ENDBRANCH  22  25
BRANCH  24  27
ATOM     27  O   UNL     1      13.078  -6.966  66.614  1.00  0.00    -0.504 OA
ATOM     28  H   UNL     1      13.128  -7.234  65.639  1.00  0.00     0.293 HD
ENDBRANCH  24  27
ENDBRANCH  18  19
ENDBRANCH  15  17
ENDBRANCH   1  15
TORSDOF 10
ENDMDL
MODEL 6
REMARK VINA RESULT:    -7.792      2.484      3.908
REMARK INTER + INTRA:         -12.362
REMARK INTER:                 -10.769
REMARK INTRA:                  -1.592
REMARK UNBOUND:                -0.470
REMARK SMILES COc1cc(C=CCOC(=O)C=Cc2ccc(O)c(OC)c2)ccc1O
REMARK SMILES IDX 9 1 8 2 7 3 6 4 5 5 3 6 25 7 4 8 24 9 23 10 2 11 1 12 26 13
REMARK SMILES IDX 10 15 11 16 12 17 13 18 14 19 22 20 15 21 19 22 16 23 17 24
REMARK SMILES IDX 20 25 21 26 18 27
REMARK H PARENT 26 14 18 28
REMARK Flexibility Score: inf
ROOT
ATOM      1  O   UNL     1      19.087  -0.627  72.291  1.00  0.00    -0.458 OA
ENDROOT
BRANCH   1   2
ATOM      2  C   UNL     1      20.408  -0.664  71.753  1.00  0.00     0.261 C 
BRANCH   2   3
ATOM      3  C   UNL     1      20.423  -0.084  70.363  1.00  0.00     0.015 C 
ATOM      4  C   UNL     1      20.989  -0.685  69.308  1.00  0.00     0.007 C 
BRANCH   4   5
ATOM      5  C   UNL     1      21.717  -1.967  69.371  1.00  0.00    -0.022 A 
ATOM      6  C   UNL     1      23.802  -3.243  69.404  1.00  0.00     0.161 A 
ATOM      7  C   UNL     1      23.058  -4.436  69.400  1.00  0.00     0.157 A 
ATOM      8  C   UNL     1      23.121  -2.008  69.379  1.00  0.00     0.058 A 
ATOM      9  C   UNL     1      21.661  -4.393  69.360  1.00  0.00     0.051 A 
ATOM     10  C   UNL     1      20.994  -3.166  69.335  1.00  0.00     0.012 A 
BRANCH   6  11
ATOM     11  O   UNL     1      25.204  -3.318  69.421  1.00  0.00    -0.493 OA
ATOM     12  C   UNL     1      26.040  -2.594  70.320  1.00  0.00     0.278 C 
ENDBRANCH   6  11
BRANCH   7  13
ATOM     13  O   UNL     1      23.690  -5.681  69.425  1.00  0.00    -0.504 OA
ATOM     14  H   UNL     1      23.480  -6.378  70.129  1.00  0.00     0.293 HD
ENDBRANCH   7  13
ENDBRANCH   4   5
ENDBRANCH   2   3
ENDBRANCH   1   2
BRANCH   1  15
ATOM     15  C   UNL     1      17.934  -0.776  71.507  1.00  0.00     0.331 C 
ATOM     16  O   UNL     1      17.167   0.207  71.309  1.00  0.00    -0.247 OA
BRANCH  15  17
ATOM     17  C   UNL     1      17.601  -2.076  70.904  1.00  0.00     0.094 C 
ATOM     18  C   UNL     1      17.456  -2.230  69.582  1.00  0.00     0.016 C 
BRANCH  18  19
ATOM     19  C   UNL     1      17.135  -3.525  68.932  1.00  0.00    -0.021 A 
ATOM     20  C   UNL     1      17.860  -4.019  67.828  1.00  0.00     0.058 A 
ATOM     21  C   UNL     1      16.092  -4.301  69.462  1.00  0.00     0.012 A 
ATOM     22  C   UNL     1      17.521  -5.257  67.243  1.00  0.00     0.161 A 
ATOM     23  C   UNL     1      15.754  -5.528  68.887  1.00  0.00     0.051 A 
ATOM     24  C   UNL     1      16.461  -6.005  67.777  1.00  0.00     0.157 A 
BRANCH  22  25
ATOM     25  O   UNL     1      18.216  -5.779  66.139  1.00  0.00    -0.493 OA
ATOM     26  C   UNL     1      19.634  -5.793  66.011  1.00  0.00     0.278 C 
ENDBRANCH  22  25
BRANCH  24  27
ATOM     27  O   UNL     1      16.119  -7.227  67.200  1.00  0.00    -0.504 OA
ATOM     28  H   UNL     1      15.888  -7.304  66.216  1.00  0.00     0.293 HD
ENDBRANCH  24  27
ENDBRANCH  18  19
ENDBRANCH  15  17
ENDBRANCH   1  15
TORSDOF 10
ENDMDL
MODEL 7
REMARK VINA RESULT:    -7.549      5.994      9.016
REMARK INTER + INTRA:         -11.991
REMARK INTER:                 -10.272
REMARK INTRA:                  -1.719
REMARK UNBOUND:                -0.470
REMARK SMILES COc1cc(C=CCOC(=O)C=Cc2ccc(O)c(OC)c2)ccc1O
REMARK SMILES IDX 9 1 8 2 7 3 6 4 5 5 3 6 25 7 4 8 24 9 23 10 2 11 1 12 26 13
REMARK SMILES IDX 10 15 11 16 12 17 13 18 14 19 22 20 15 21 19 22 16 23 17 24
REMARK SMILES IDX 20 25 21 26 18 27
REMARK H PARENT 26 14 18 28
REMARK Flexibility Score: inf
ROOT
ATOM      1  O   UNL     1      13.150  -9.356  69.908  1.00  0.00    -0.458 OA
ENDROOT
BRANCH   1   2
ATOM      2  C   UNL     1      13.815  -8.095  69.858  1.00  0.00     0.261 C 
BRANCH   2   3
ATOM      3  C   UNL     1      12.854  -7.012  69.447  1.00  0.00     0.015 C 
ATOM      4  C   UNL     1      13.194  -5.954  68.698  1.00  0.00     0.007 C 
BRANCH   4   5
ATOM      5  C   UNL     1      14.562  -5.679  68.220  1.00  0.00    -0.022 A 
ATOM      6  C   UNL     1      16.339  -5.930  66.560  1.00  0.00     0.161 A 
ATOM      7  C   UNL     1      17.207  -5.204  67.396  1.00  0.00     0.157 A 
ATOM      8  C   UNL     1      15.016  -6.172  66.986  1.00  0.00     0.058 A 
ATOM      9  C   UNL     1      16.761  -4.741  68.638  1.00  0.00     0.051 A 
ATOM     10  C   UNL     1      15.451  -4.986  69.053  1.00  0.00     0.012 A 
BRANCH   6  11
ATOM     11  O   UNL     1      16.821  -6.402  65.328  1.00  0.00    -0.493 OA
ATOM     12  C   UNL     1      16.052  -6.467  64.131  1.00  0.00     0.278 C 
ENDBRANCH   6  11
BRANCH   7  13
ATOM     13  O   UNL     1      18.524  -4.941  67.015  1.00  0.00    -0.504 OA
ATOM     14  H   UNL     1      18.979  -5.447  66.264  1.00  0.00     0.293 HD
ENDBRANCH   7  13
ENDBRANCH   4   5
ENDBRANCH   2   3
ENDBRANCH   1   2
BRANCH   1  15
ATOM     15  C   UNL     1      12.496  -9.924  68.806  1.00  0.00     0.331 C 
ATOM     16  O   UNL     1      11.275 -10.234  68.879  1.00  0.00    -0.247 OA
BRANCH  15  17
ATOM     17  C   UNL     1      13.220 -10.167  67.548  1.00  0.00     0.094 C 
ATOM     18  C   UNL     1      13.196  -9.294  66.533  1.00  0.00     0.016 C 
BRANCH  18  19
ATOM     19  C   UNL     1      13.924  -9.493  65.256  1.00  0.00    -0.021 A 
ATOM     20  C   UNL     1      13.337  -9.234  64.000  1.00  0.00     0.058 A 
ATOM     21  C   UNL     1      15.260  -9.924  65.304  1.00  0.00     0.012 A 
ATOM     22  C   UNL     1      14.067  -9.436  62.811  1.00  0.00     0.161 A 
ATOM     23  C   UNL     1      15.986 -10.124  64.129  1.00  0.00     0.051 A 
ATOM     24  C   UNL     1      15.393  -9.887  62.884  1.00  0.00     0.157 A 
BRANCH  22  25
ATOM     25  O   UNL     1      13.514  -9.194  61.542  1.00  0.00    -0.493 OA
ATOM     26  C   UNL     1      12.533 -10.017  60.918  1.00  0.00     0.278 C 
ENDBRANCH  22  25
BRANCH  24  27
ATOM     27  O   UNL     1      16.118 -10.093  61.711  1.00  0.00    -0.504 OA
ATOM     28  H   UNL     1      17.129 -10.160  61.715  1.00  0.00     0.293 HD
ENDBRANCH  24  27
ENDBRANCH  18  19
ENDBRANCH  15  17
ENDBRANCH   1  15
TORSDOF 10
ENDMDL
MODEL 8
REMARK VINA RESULT:    -7.522      4.582      9.671
REMARK INTER + INTRA:         -11.949
REMARK INTER:                 -10.802
REMARK INTRA:                  -1.147
REMARK UNBOUND:                -0.470
REMARK SMILES COc1cc(C=CCOC(=O)C=Cc2ccc(O)c(OC)c2)ccc1O
REMARK SMILES IDX 9 1 8 2 7 3 6 4 5 5 3 6 25 7 4 8 24 9 23 10 2 11 1 12 26 13
REMARK SMILES IDX 10 15 11 16 12 17 13 18 14 19 22 20 15 21 19 22 16 23 17 24
REMARK SMILES IDX 20 25 21 26 18 27
REMARK H PARENT 26 14 18 28
REMARK Flexibility Score: inf
ROOT
ATOM      1  O   UNL     1      14.359  -8.503  68.066  1.00  0.00    -0.458 OA
ENDROOT
BRANCH   1   2
ATOM      2  C   UNL     1      13.571  -8.828  66.922  1.00  0.00     0.261 C 
BRANCH   2   3
ATOM      3  C   UNL     1      13.552  -7.674  65.955  1.00  0.00     0.015 C 
ATOM      4  C   UNL     1      14.315  -7.607  64.856  1.00  0.00     0.007 C 
BRANCH   4   5
ATOM      5  C   UNL     1      15.311  -8.625  64.471  1.00  0.00    -0.022 A 
ATOM      6  C   UNL     1      15.970 -10.589  63.172  1.00  0.00     0.161 A 
ATOM      7  C   UNL     1      17.209 -10.600  63.839  1.00  0.00     0.157 A 
ATOM      8  C   UNL     1      15.020  -9.600  63.502  1.00  0.00     0.058 A 
ATOM      9  C   UNL     1      17.484  -9.647  64.825  1.00  0.00     0.051 A 
ATOM     10  C   UNL     1      16.537  -8.672  65.148  1.00  0.00     0.012 A 
BRANCH   6  11
ATOM     11  O   UNL     1      15.714 -11.572  62.202  1.00  0.00    -0.493 OA
ATOM     12  C   UNL     1      15.083 -12.821  62.466  1.00  0.00     0.278 C 
ENDBRANCH   6  11
BRANCH   7  13
ATOM     13  O   UNL     1      18.179 -11.559  63.544  1.00  0.00    -0.504 OA
ATOM     14  H   UNL     1      18.207 -12.042  62.653  1.00  0.00     0.293 HD
ENDBRANCH   7  13
ENDBRANCH   4   5
ENDBRANCH   2   3
ENDBRANCH   1   2
BRANCH   1  15
ATOM     15  C   UNL     1      14.080  -7.418  68.908  1.00  0.00     0.331 C 
ATOM     16  O   UNL     1      13.006  -7.385  69.571  1.00  0.00    -0.247 OA
BRANCH  15  17
ATOM     17  C   UNL     1      15.030  -6.302  69.033  1.00  0.00     0.094 C 
ATOM     18  C   UNL     1      15.987  -6.078  68.122  1.00  0.00     0.016 C 
BRANCH  18  19
ATOM     19  C   UNL     1      16.955  -4.957  68.202  1.00  0.00    -0.021 A 
ATOM     20  C   UNL     1      16.725  -3.812  68.993  1.00  0.00     0.058 A 
ATOM     21  C   UNL     1      18.160  -5.058  67.489  1.00  0.00     0.012 A 
ATOM     22  C   UNL     1      17.674  -2.770  69.040  1.00  0.00     0.161 A 
ATOM     23  C   UNL     1      19.103  -4.029  67.534  1.00  0.00     0.051 A 
ATOM     24  C   UNL     1      18.861  -2.884  68.302  1.00  0.00     0.157 A 
BRANCH  22  25
ATOM     25  O   UNL     1      17.478  -1.612  69.812  1.00  0.00    -0.493 OA
ATOM     26  C   UNL     1      17.246  -1.608  71.217  1.00  0.00     0.278 C 
ENDBRANCH  22  25
BRANCH  24  27
ATOM     27  O   UNL     1      19.801  -1.855  68.342  1.00  0.00    -0.504 OA
ATOM     28  H   UNL     1      20.709  -1.947  67.903  1.00  0.00     0.293 HD
ENDBRANCH  24  27
ENDBRANCH  18  19
ENDBRANCH  15  17
ENDBRANCH   1  15
TORSDOF 10
ENDMDL
MODEL 9
REMARK VINA RESULT:    -7.474      4.825      9.848
REMARK INTER + INTRA:         -11.876
REMARK INTER:                 -10.588
REMARK INTRA:                  -1.288
REMARK UNBOUND:                -0.470
REMARK SMILES COc1cc(C=CCOC(=O)C=Cc2ccc(O)c(OC)c2)ccc1O
REMARK SMILES IDX 9 1 8 2 7 3 6 4 5 5 3 6 25 7 4 8 24 9 23 10 2 11 1 12 26 13
REMARK SMILES IDX 10 15 11 16 12 17 13 18 14 19 22 20 15 21 19 22 16 23 17 24
REMARK SMILES IDX 20 25 21 26 18 27
REMARK H PARENT 26 14 18 28
REMARK Flexibility Score: inf
ROOT
ATOM      1  O   UNL     1      13.576  -9.389  67.503  1.00  0.00    -0.458 OA
ENDROOT
BRANCH   1   2
ATOM      2  C   UNL     1      12.822  -9.172  66.312  1.00  0.00     0.261 C 
BRANCH   2   3
ATOM      3  C   UNL     1      13.129  -7.815  65.737  1.00  0.00     0.015 C 
ATOM      4  C   UNL     1      14.148  -7.570  64.902  1.00  0.00     0.007 C 
BRANCH   4   5
ATOM      5  C   UNL     1      15.135  -8.580  64.474  1.00  0.00    -0.022 A 
ATOM      6  C   UNL     1      15.856 -10.358  62.959  1.00  0.00     0.161 A 
ATOM      7  C   UNL     1      17.001 -10.554  63.752  1.00  0.00     0.157 A 
ATOM      8  C   UNL     1      14.919  -9.372  63.334  1.00  0.00     0.058 A 
ATOM      9  C   UNL     1      17.197  -9.785  64.904  1.00  0.00     0.051 A 
ATOM     10  C   UNL     1      16.265  -8.812  65.269  1.00  0.00     0.012 A 
BRANCH   6  11
ATOM     11  O   UNL     1      15.674 -11.160  61.820  1.00  0.00    -0.493 OA
ATOM     12  C   UNL     1      14.523 -11.962  61.572  1.00  0.00     0.278 C 
ENDBRANCH   6  11
BRANCH   7  13
ATOM     13  O   UNL     1      17.954 -11.517  63.418  1.00  0.00    -0.504 OA
ATOM     14  H   UNL     1      18.022 -12.401  63.909  1.00  0.00     0.293 HD
ENDBRANCH   7  13
ENDBRANCH   4   5
ENDBRANCH   2   3
ENDBRANCH   1   2
BRANCH   1  15
ATOM     15  C   UNL     1      13.798  -8.392  68.463  1.00  0.00     0.331 C 
ATOM     16  O   UNL     1      12.959  -8.195  69.384  1.00  0.00    -0.247 OA
BRANCH  15  17
ATOM     17  C   UNL     1      15.011  -7.560  68.412  1.00  0.00     0.094 C 
ATOM     18  C   UNL     1      14.954  -6.222  68.366  1.00  0.00     0.016 C 
BRANCH  18  19
ATOM     19  C   UNL     1      16.151  -5.347  68.329  1.00  0.00    -0.021 A 
ATOM     20  C   UNL     1      17.247  -5.596  67.476  1.00  0.00     0.058 A 
ATOM     21  C   UNL     1      16.176  -4.208  69.149  1.00  0.00     0.012 A 
ATOM     22  C   UNL     1      18.364  -4.736  67.472  1.00  0.00     0.161 A 
ATOM     23  C   UNL     1      17.280  -3.353  69.148  1.00  0.00     0.051 A 
ATOM     24  C   UNL     1      18.375  -3.616  68.317  1.00  0.00     0.157 A 
BRANCH  22  25
ATOM     25  O   UNL     1      19.475  -4.956  66.641  1.00  0.00    -0.493 OA
ATOM     26  C   UNL     1      19.477  -5.815  65.505  1.00  0.00     0.278 C 
ENDBRANCH  22  25
BRANCH  24  27
ATOM     27  O   UNL     1      19.479  -2.765  68.320  1.00  0.00    -0.504 OA
ATOM     28  H   UNL     1      20.138  -2.747  67.551  1.00  0.00     0.293 HD
ENDBRANCH  24  27
ENDBRANCH  18  19
ENDBRANCH  15  17
ENDBRANCH   1  15
TORSDOF 10
ENDMDL
