MODEL 1
REMARK VINA RESULT:    -0.931      0.000      0.000
REMARK INTER + INTRA:          -2.201
REMARK INTER:                  -1.802
REMARK INTRA:                  -0.398
REMARK UNBOUND:                -0.398
REMARK SMILES CCCCCCCCCCCCCCCCCC(=O)[O-]
REMARK SMILES IDX 10 1 11 2 12 3 13 4 14 5 15 6 16 7 17 8 18 9 19 10 20 11
REMARK SMILES IDX 9 12 8 13 7 14 6 15 5 16 4 17 3 18 2 19 1 20
REMARK H PARENT
REMARK Flexibility Score: inf
ROOT
ATOM      1  C   UNL     1       4.699  43.697  10.337  1.00  0.00     0.000 C 
ENDROOT
BRANCH   1   2
ATOM      2  C   UNL     1       6.166  43.716   9.875  1.00  0.00     0.000 C 
BRANCH   2   3
ATOM      3  C   UNL     1       6.860  45.093   9.947  1.00  0.00     0.000 C 
BRANCH   3   4
ATOM      4  C   UNL     1       8.382  45.047  10.180  1.00  0.00     0.000 C 
BRANCH   4   5
ATOM      5  C   UNL     1       8.940  43.655  10.535  1.00  0.00     0.000 C 
BRANCH   5   6
ATOM      6  C   UNL     1       8.730  43.261  12.013  1.00  0.00     0.000 C 
BRANCH   6   7
ATOM      7  C   UNL     1       7.706  42.125  12.178  1.00  0.00     0.006 C 
BRANCH   7   8
ATOM      8  C   UNL     1       7.244  41.966  13.633  1.00  0.00     0.053 C 
BRANCH   8   9
ATOM      9  C   UNL     1       6.014  42.773  13.917  1.00  0.00     0.041 C 
ATOM     10  O   UNL     1       5.779  43.823  13.264  1.00  0.00    -0.550 OA
ATOM     11  O   UNL     1       5.142  42.380  14.925  1.00  0.00    -0.550 OA
ENDBRANCH   8   9
ENDBRANCH   7   8
ENDBRANCH   6   7
ENDBRANCH   5   6
ENDBRANCH   4   5
ENDBRANCH   3   4
ENDBRANCH   2   3
ENDBRANCH   1   2
BRANCH   1  12
ATOM     12  C   UNL     1       3.958  45.008  10.034  1.00  0.00     0.000 C 
BRANCH  12  13
ATOM     13  C   UNL     1       2.445  44.779   9.957  1.00  0.00    -0.000 C 
BRANCH  13  14
ATOM     14  C   UNL     1       2.088  43.329  10.310  1.00  0.00    -0.000 C 
BRANCH  14  15
ATOM     15  C   UNL     1       1.702  43.146  11.789  1.00  0.00    -0.000 C 
BRANCH  15  16
ATOM     16  C   UNL     1       0.253  43.529  12.139  1.00  0.00    -0.000 C 
BRANCH  16  17
ATOM     17  C   UNL     1       0.154  44.415  13.394  1.00  0.00    -0.000 C 
BRANCH  17  18
ATOM     18  C   UNL     1      -0.962  43.961  14.350  1.00  0.00    -0.000 C 
BRANCH  18  19
ATOM     19  C   UNL     1      -1.846  45.125  14.823  1.00  0.00    -0.003 C 
ATOM     20  C   UNL     1      -3.153  44.612  15.421  1.00  0.00     0.004 C 
ENDBRANCH  18  19
ENDBRANCH  17  18
ENDBRANCH  16  17
ENDBRANCH  15  16
ENDBRANCH  14  15
ENDBRANCH  13  14
ENDBRANCH  12  13
ENDBRANCH   1  12
TORSDOF 16
ENDMDL
MODEL 2
REMARK VINA RESULT:     0.634      1.728      3.106
REMARK INTER + INTRA:           0.828
REMARK INTER:                   1.003
REMARK INTRA:                  -0.175
REMARK UNBOUND:                -0.398
REMARK SMILES CCCCCCCCCCCCCCCCCC(=O)[O-]
REMARK SMILES IDX 10 1 11 2 12 3 13 4 14 5 15 6 16 7 17 8 18 9 19 10 20 11
REMARK SMILES IDX 9 12 8 13 7 14 6 15 5 16 4 17 3 18 2 19 1 20
REMARK H PARENT
REMARK Flexibility Score: inf
ROOT
ATOM      1  C   UNL     1       2.356  43.301  10.893  1.00  0.00     0.000 C 
ENDROOT
BRANCH   1   2
ATOM      2  C   UNL     1       3.231  42.289  10.132  1.00  0.00     0.000 C 
BRANCH   2   3
ATOM      3  C   UNL     1       4.687  42.736   9.884  1.00  0.00     0.000 C 
BRANCH   3   4
ATOM      4  C   UNL     1       4.914  44.260   9.895  1.00  0.00     0.000 C 
BRANCH   4   5
ATOM      5  C   UNL     1       6.360  44.696  10.195  1.00  0.00     0.000 C 
BRANCH   5   6
ATOM      6  C   UNL     1       6.608  45.043  11.679  1.00  0.00     0.000 C 
BRANCH   6   7
ATOM      7  C   UNL     1       5.899  44.071  12.636  1.00  0.00     0.006 C 
BRANCH   7   8
ATOM      8  C   UNL     1       6.787  42.878  13.018  1.00  0.00     0.053 C 
BRANCH   8   9
ATOM      9  C   UNL     1       7.873  42.651  12.012  1.00  0.00     0.041 C 
ATOM     10  O   UNL     1       8.872  43.416  11.972  1.00  0.00    -0.550 OA
ATOM     11  O   UNL     1       7.767  41.611  11.097  1.00  0.00    -0.550 OA
ENDBRANCH   8   9
ENDBRANCH   7   8
ENDBRANCH   6   7
ENDBRANCH   5   6
ENDBRANCH   4   5
ENDBRANCH   3   4
ENDBRANCH   2   3
ENDBRANCH   1   2
BRANCH   1  12
ATOM     12  C   UNL     1       0.854  43.014  10.759  1.00  0.00     0.000 C 
BRANCH  12  13
ATOM     13  C   UNL     1       0.132  43.232  12.093  1.00  0.00    -0.000 C 
BRANCH  13  14
ATOM     14  C   UNL     1       0.786  44.367  12.895  1.00  0.00    -0.000 C 
BRANCH  14  15
ATOM     15  C   UNL     1      -0.066  44.827  14.092  1.00  0.00    -0.000 C 
BRANCH  15  16
ATOM     16  C   UNL     1      -1.542  45.125  13.769  1.00  0.00    -0.000 C 
BRANCH  16  17
ATOM     17  C   UNL     1      -2.444  45.104  15.016  1.00  0.00    -0.000 C 
BRANCH  17  18
ATOM     18  C   UNL     1      -2.796  43.676  15.464  1.00  0.00    -0.000 C 
BRANCH  18  19
ATOM     19  C   UNL     1      -2.714  42.658  14.316  1.00  0.00    -0.003 C 
ATOM     20  C   UNL     1      -3.534  41.410  14.630  1.00  0.00     0.004 C 
ENDBRANCH  18  19
ENDBRANCH  17  18
ENDBRANCH  16  17
ENDBRANCH  15  16
ENDBRANCH  14  15
ENDBRANCH  13  14
ENDBRANCH  12  13
ENDBRANCH   1  12
TORSDOF 16
ENDMDL
MODEL 3
REMARK VINA RESULT:     1.337      2.973      7.729
REMARK INTER + INTRA:           2.190
REMARK INTER:                   1.208
REMARK INTRA:                   0.982
REMARK UNBOUND:                -0.398
REMARK SMILES CCCCCCCCCCCCCCCCCC(=O)[O-]
REMARK SMILES IDX 10 1 11 2 12 3 13 4 14 5 15 6 16 7 17 8 18 9 19 10 20 11
REMARK SMILES IDX 9 12 8 13 7 14 6 15 5 16 4 17 3 18 2 19 1 20
REMARK H PARENT
REMARK Flexibility Score: inf
ROOT
ATOM      1  C   UNL     1       4.074  44.790  11.524  1.00  0.00     0.000 C 
ENDROOT
BRANCH   1   2
ATOM      2  C   UNL     1       3.001  43.767  11.937  1.00  0.00     0.000 C 
BRANCH   2   3
ATOM      3  C   UNL     1       2.307  43.036  10.769  1.00  0.00     0.000 C 
BRANCH   3   4
ATOM      4  C   UNL     1       0.786  42.847  10.928  1.00  0.00     0.000 C 
BRANCH   4   5
ATOM      5  C   UNL     1       0.273  42.923  12.379  1.00  0.00     0.000 C 
BRANCH   5   6
ATOM      6  C   UNL     1       0.050  44.365  12.883  1.00  0.00     0.000 C 
BRANCH   6   7
ATOM      7  C   UNL     1      -0.494  44.408  14.321  1.00  0.00     0.006 C 
BRANCH   7   8
ATOM      8  C   UNL     1      -2.026  44.488  14.361  1.00  0.00     0.053 C 
BRANCH   8   9
ATOM      9  C   UNL     1      -2.646  43.142  14.584  1.00  0.00     0.041 C 
ATOM     10  O   UNL     1      -1.993  42.094  14.341  1.00  0.00    -0.550 OA
ATOM     11  O   UNL     1      -3.958  43.047  15.031  1.00  0.00    -0.550 OA
ENDBRANCH   8   9
ENDBRANCH   7   8
ENDBRANCH   6   7
ENDBRANCH   5   6
ENDBRANCH   4   5
ENDBRANCH   3   4
ENDBRANCH   2   3
ENDBRANCH   1   2
BRANCH   1  12
ATOM     12  C   UNL     1       4.478  44.671  10.047  1.00  0.00     0.000 C 
BRANCH  12  13
ATOM     13  C   UNL     1       5.998  44.544   9.902  1.00  0.00    -0.000 C 
BRANCH  13  14
ATOM     14  C   UNL     1       6.706  44.845  11.231  1.00  0.00    -0.000 C 
BRANCH  14  15
ATOM     15  C   UNL     1       6.173  44.000  12.402  1.00  0.00    -0.000 C 
BRANCH  15  16
ATOM     16  C   UNL     1       7.008  42.751  12.741  1.00  0.00    -0.000 C 
BRANCH  16  17
ATOM     17  C   UNL     1       8.098  42.457  11.695  1.00  0.00    -0.000 C 
BRANCH  17  18
ATOM     18  C   UNL     1       8.004  41.029  11.131  1.00  0.00    -0.000 C 
BRANCH  18  19
ATOM     19  C   UNL     1       7.122  40.946   9.875  1.00  0.00    -0.003 C 
ATOM     20  C   UNL     1       6.223  39.713   9.917  1.00  0.00     0.004 C 
ENDBRANCH  18  19
ENDBRANCH  17  18
ENDBRANCH  16  17
ENDBRANCH  15  16
ENDBRANCH  14  15
ENDBRANCH  13  14
ENDBRANCH  12  13
ENDBRANCH   1  12
TORSDOF 16
ENDMDL
MODEL 4
REMARK VINA RESULT:     1.858      2.076      3.876
REMARK INTER + INTRA:           3.197
REMARK INTER:                   4.287
REMARK INTRA:                  -1.091
REMARK UNBOUND:                -0.398
REMARK SMILES CCCCCCCCCCCCCCCCCC(=O)[O-]
REMARK SMILES IDX 10 1 11 2 12 3 13 4 14 5 15 6 16 7 17 8 18 9 19 10 20 11
REMARK SMILES IDX 9 12 8 13 7 14 6 15 5 16 4 17 3 18 2 19 1 20
REMARK H PARENT
REMARK Flexibility Score: inf
ROOT
ATOM      1  C   UNL     1       1.316  43.067  11.478  1.00  0.00     0.000 C 
ENDROOT
BRANCH   1   2
ATOM      2  C   UNL     1       2.564  43.067  10.578  1.00  0.00     0.000 C 
BRANCH   2   3
ATOM      3  C   UNL     1       2.866  44.407   9.875  1.00  0.00     0.000 C 
BRANCH   3   4
ATOM      4  C   UNL     1       4.254  45.004  10.176  1.00  0.00     0.000 C 
BRANCH   4   5
ATOM      5  C   UNL     1       4.885  44.539  11.502  1.00  0.00     0.000 C 
BRANCH   5   6
ATOM      6  C   UNL     1       6.315  45.074  11.731  1.00  0.00     0.000 C 
BRANCH   6   7
ATOM      7  C   UNL     1       7.318  44.528  10.701  1.00  0.00     0.006 C 
BRANCH   7   8
ATOM      8  C   UNL     1       8.347  43.582  11.336  1.00  0.00     0.053 C 
BRANCH   8   9
ATOM      9  C   UNL     1       7.764  42.229  11.606  1.00  0.00     0.041 C 
ATOM     10  O   UNL     1       7.894  41.696  12.739  1.00  0.00    -0.550 OA
ATOM     11  O   UNL     1       7.104  41.542  10.595  1.00  0.00    -0.550 OA
ENDBRANCH   8   9
ENDBRANCH   7   8
ENDBRANCH   6   7
ENDBRANCH   5   6
ENDBRANCH   4   5
ENDBRANCH   3   4
ENDBRANCH   2   3
ENDBRANCH   1   2
BRANCH   1  12
ATOM     12  C   UNL     1       1.496  43.902  12.753  1.00  0.00     0.000 C 
BRANCH  12  13
ATOM     13  C   UNL     1       0.268  44.780  13.014  1.00  0.00    -0.000 C 
BRANCH  13  14
ATOM     14  C   UNL     1      -0.056  44.845  14.513  1.00  0.00    -0.000 C 
BRANCH  14  15
ATOM     15  C   UNL     1      -1.543  45.124  14.796  1.00  0.00    -0.000 C 
BRANCH  15  16
ATOM     16  C   UNL     1      -2.504  43.972  14.449  1.00  0.00    -0.000 C 
BRANCH  16  17
ATOM     17  C   UNL     1      -2.150  42.659  15.169  1.00  0.00    -0.000 C 
BRANCH  17  18
ATOM     18  C   UNL     1      -2.805  41.432  14.513  1.00  0.00    -0.000 C 
BRANCH  18  19
ATOM     19  C   UNL     1      -4.340  41.497  14.537  1.00  0.00    -0.003 C 
ATOM     20  C   UNL     1      -4.939  40.149  14.931  1.00  0.00     0.004 C 
ENDBRANCH  18  19
ENDBRANCH  17  18
ENDBRANCH  16  17
ENDBRANCH  15  16
ENDBRANCH  14  15
ENDBRANCH  13  14
ENDBRANCH  12  13
ENDBRANCH   1  12
TORSDOF 16
ENDMDL
