MODEL 1
REMARK VINA RESULT:    -6.336      0.000      0.000
REMARK INTER + INTRA:          -6.336
REMARK INTER:                  -6.336
REMARK INTRA:                   0.000
REMARK UNBOUND:                 0.000
REMARK SMILES C=C1CCC[C@@]2(C)CC(=O)C(=C(C)C)C[C@@H]12
REMARK SMILES IDX 13 1 12 2 11 3 15 4 16 5 2 6 1 7 3 8 4 9 5 10 6 11 8 12 9 13
REMARK SMILES IDX 10 14 7 15 14 16
REMARK H PARENT
REMARK Flexibility Score: inf
ROOT
ATOM      1  C   UNL     1     137.948 181.274 188.442  1.00  0.00     0.039 C 
ATOM      2  C   UNL     1     136.737 182.128 188.697  1.00  0.00    -0.070 C 
ATOM      3  C   UNL     1     136.778 183.185 189.528  1.00  0.00    -0.006 C 
ATOM      4  C   UNL     1     138.036 183.526 190.315  1.00  0.00     0.047 C 
ATOM      5  C   UNL     1     137.834 184.627 191.392  1.00  0.00     0.025 C 
ATOM      6  C   UNL     1     137.894 186.040 190.807  1.00  0.00    -0.073 C 
ATOM      7  C   UNL     1     139.094 186.473 190.372  1.00  0.00     0.008 C 
ATOM      8  C   UNL     1     136.884 187.050 191.270  1.00  0.00     0.031 C 
ATOM      9  C   UNL     1     136.688 186.954 192.810  1.00  0.00     0.005 C 
ATOM     10  C   UNL     1     136.406 185.487 193.289  1.00  0.00     0.008 C 
ATOM     11  C   UNL     1     136.460 184.392 192.170  1.00  0.00    -0.018 C 
ATOM     12  C   UNL     1     135.207 184.352 191.193  1.00  0.00     0.088 C 
ATOM     13  C   UNL     1     135.628 184.057 189.775  1.00  0.00     0.159 C 
ATOM     14  O   UNL     1     135.124 184.705 188.813  1.00  0.00    -0.295 OA
ATOM     15  C   UNL     1     136.523 183.006 192.895  1.00  0.00     0.012 C 
ATOM     16  C   UNL     1     135.471 181.653 187.992  1.00  0.00     0.039 C 
ENDROOT
TORSDOF 0
ENDMDL
MODEL 2
REMARK VINA RESULT:    -5.769      2.399      5.188
REMARK INTER + INTRA:          -5.769
REMARK INTER:                  -5.769
REMARK INTRA:                   0.000
REMARK UNBOUND:                 0.000
REMARK SMILES C=C1CCC[C@@]2(C)CC(=O)C(=C(C)C)C[C@@H]12
REMARK SMILES IDX 13 1 12 2 11 3 15 4 16 5 2 6 1 7 3 8 4 9 5 10 6 11 8 12 9 13
REMARK SMILES IDX 10 14 7 15 14 16
REMARK H PARENT
REMARK Flexibility Score: inf
ROOT
ATOM      1  C   UNL     1     134.239 186.255 192.129  1.00  0.00     0.039 C 
ATOM      2  C   UNL     1     133.784 184.839 191.913  1.00  0.00    -0.070 C 
ATOM      3  C   UNL     1     134.322 184.060 190.956  1.00  0.00    -0.006 C 
ATOM      4  C   UNL     1     135.367 184.600 189.990  1.00  0.00     0.047 C 
ATOM      5  C   UNL     1     135.702 183.641 188.815  1.00  0.00     0.025 C 
ATOM      6  C   UNL     1     136.713 182.561 189.207  1.00  0.00    -0.073 C 
ATOM      7  C   UNL     1     137.979 182.961 189.439  1.00  0.00     0.008 C 
ATOM      8  C   UNL     1     136.473 181.153 188.742  1.00  0.00     0.031 C 
ATOM      9  C   UNL     1     136.001 181.144 187.261  1.00  0.00     0.005 C 
ATOM     10  C   UNL     1     134.804 182.125 187.006  1.00  0.00     0.008 C 
ATOM     11  C   UNL     1     134.365 182.985 188.239  1.00  0.00    -0.018 C 
ATOM     12  C   UNL     1     133.539 182.209 189.355  1.00  0.00     0.088 C 
ATOM     13  C   UNL     1     133.925 182.667 190.739  1.00  0.00     0.159 C 
ATOM     14  O   UNL     1     134.097 181.823 191.665  1.00  0.00    -0.295 OA
ATOM     15  C   UNL     1     133.441 184.124 187.692  1.00  0.00     0.012 C 
ATOM     16  C   UNL     1     132.636 184.401 192.816  1.00  0.00     0.039 C 
ENDROOT
TORSDOF 0
ENDMDL
MODEL 3
REMARK VINA RESULT:    -5.681      1.700      2.877
REMARK INTER + INTRA:          -5.681
REMARK INTER:                  -5.681
REMARK INTRA:                   0.000
REMARK UNBOUND:                 0.000
REMARK SMILES C=C1CCC[C@@]2(C)CC(=O)C(=C(C)C)C[C@@H]12
REMARK SMILES IDX 13 1 12 2 11 3 15 4 16 5 2 6 1 7 3 8 4 9 5 10 6 11 8 12 9 13
REMARK SMILES IDX 10 14 7 15 14 16
REMARK H PARENT
REMARK Flexibility Score: inf
ROOT
ATOM      1  C   UNL     1     135.260 182.933 187.987  1.00  0.00     0.039 C 
ATOM      2  C   UNL     1     135.821 182.534 189.323  1.00  0.00    -0.070 C 
ATOM      3  C   UNL     1     135.984 183.426 190.318  1.00  0.00    -0.006 C 
ATOM      4  C   UNL     1     135.682 184.904 190.114  1.00  0.00     0.047 C 
ATOM      5  C   UNL     1     136.146 185.815 191.284  1.00  0.00     0.025 C 
ATOM      6  C   UNL     1     135.150 185.836 192.445  1.00  0.00    -0.073 C 
ATOM      7  C   UNL     1     133.971 186.455 192.231  1.00  0.00     0.008 C 
ATOM      8  C   UNL     1     135.682 185.758 193.847  1.00  0.00     0.031 C 
ATOM      9  C   UNL     1     136.934 186.667 194.003  1.00  0.00     0.005 C 
ATOM     10  C   UNL     1     138.006 186.410 192.886  1.00  0.00     0.008 C 
ATOM     11  C   UNL     1     137.595 185.373 191.786  1.00  0.00    -0.018 C 
ATOM     12  C   UNL     1     137.644 183.847 192.234  1.00  0.00     0.088 C 
ATOM     13  C   UNL     1     136.498 183.067 191.641  1.00  0.00     0.159 C 
ATOM     14  O   UNL     1     135.855 182.241 192.351  1.00  0.00    -0.295 OA
ATOM     15  C   UNL     1     138.610 185.538 190.606  1.00  0.00     0.012 C 
ATOM     16  C   UNL     1     136.239 181.071 189.420  1.00  0.00     0.039 C 
ENDROOT
TORSDOF 0
ENDMDL
MODEL 4
REMARK VINA RESULT:    -5.427      2.505      5.278
REMARK INTER + INTRA:          -5.427
REMARK INTER:                  -5.427
REMARK INTRA:                   0.000
REMARK UNBOUND:                 0.000
REMARK SMILES C=C1CCC[C@@]2(C)CC(=O)C(=C(C)C)C[C@@H]12
REMARK SMILES IDX 13 1 12 2 11 3 15 4 16 5 2 6 1 7 3 8 4 9 5 10 6 11 8 12 9 13
REMARK SMILES IDX 10 14 7 15 14 16
REMARK H PARENT
REMARK Flexibility Score: inf
ROOT
ATOM      1  C   UNL     1     138.322 187.569 196.290  1.00  0.00     0.039 C 
ATOM      2  C   UNL     1     138.047 186.150 195.877  1.00  0.00    -0.070 C 
ATOM      3  C   UNL     1     137.711 185.833 194.613  1.00  0.00    -0.006 C 
ATOM      4  C   UNL     1     137.516 186.907 193.552  1.00  0.00     0.047 C 
ATOM      5  C   UNL     1     136.907 186.383 192.222  1.00  0.00     0.025 C 
ATOM      6  C   UNL     1     137.956 185.754 191.302  1.00  0.00    -0.073 C 
ATOM      7  C   UNL     1     138.855 186.585 190.739  1.00  0.00     0.008 C 
ATOM      8  C   UNL     1     137.614 184.473 190.598  1.00  0.00     0.031 C 
ATOM      9  C   UNL     1     136.162 184.529 190.044  1.00  0.00     0.005 C 
ATOM     10  C   UNL     1     135.121 184.970 191.130  1.00  0.00     0.008 C 
ATOM     11  C   UNL     1     135.725 185.353 192.524  1.00  0.00    -0.018 C 
ATOM     12  C   UNL     1     136.199 184.130 193.423  1.00  0.00     0.088 C 
ATOM     13  C   UNL     1     137.468 184.459 194.169  1.00  0.00     0.159 C 
ATOM     14  O   UNL     1     138.403 183.610 194.241  1.00  0.00    -0.295 OA
ATOM     15  C   UNL     1     134.599 186.098 193.317  1.00  0.00     0.012 C 
ATOM     16  C   UNL     1     138.118 185.138 197.015  1.00  0.00     0.039 C 
ENDROOT
TORSDOF 0
ENDMDL
MODEL 5
REMARK VINA RESULT:    -5.249      1.879      4.857
REMARK INTER + INTRA:          -5.249
REMARK INTER:                  -5.249
REMARK INTRA:                   0.000
REMARK UNBOUND:                 0.000
REMARK SMILES C=C1CCC[C@@]2(C)CC(=O)C(=C(C)C)C[C@@H]12
REMARK SMILES IDX 13 1 12 2 11 3 15 4 16 5 2 6 1 7 3 8 4 9 5 10 6 11 8 12 9 13
REMARK SMILES IDX 10 14 7 15 14 16
REMARK H PARENT
REMARK Flexibility Score: inf
ROOT
ATOM      1  C   UNL     1     137.941 183.792 194.572  1.00  0.00     0.039 C 
ATOM      2  C   UNL     1     137.375 184.805 193.618  1.00  0.00    -0.070 C 
ATOM      3  C   UNL     1     136.573 184.448 192.598  1.00  0.00    -0.006 C 
ATOM      4  C   UNL     1     136.259 182.986 192.311  1.00  0.00     0.047 C 
ATOM      5  C   UNL     1     135.515 182.746 190.969  1.00  0.00     0.025 C 
ATOM      6  C   UNL     1     134.007 182.982 191.082  1.00  0.00    -0.073 C 
ATOM      7  C   UNL     1     133.300 182.093 191.807  1.00  0.00     0.008 C 
ATOM      8  C   UNL     1     133.315 183.731 189.979  1.00  0.00     0.031 C 
ATOM      9  C   UNL     1     133.832 183.254 188.593  1.00  0.00     0.005 C 
ATOM     10  C   UNL     1     135.398 183.262 188.499  1.00  0.00     0.008 C 
ATOM     11  C   UNL     1     136.148 183.654 189.818  1.00  0.00    -0.018 C 
ATOM     12  C   UNL     1     136.125 185.201 190.183  1.00  0.00     0.088 C 
ATOM     13  C   UNL     1     135.979 185.411 191.669  1.00  0.00     0.159 C 
ATOM     14  O   UNL     1     135.190 186.295 192.113  1.00  0.00    -0.295 OA
ATOM     15  C   UNL     1     137.647 183.249 189.624  1.00  0.00     0.012 C 
ATOM     16  C   UNL     1     137.840 186.236 193.869  1.00  0.00     0.039 C 
ENDROOT
TORSDOF 0
ENDMDL
MODEL 6
REMARK VINA RESULT:    -5.231      1.829      3.156
REMARK INTER + INTRA:          -5.231
REMARK INTER:                  -5.231
REMARK INTRA:                   0.000
REMARK UNBOUND:                 0.000
REMARK SMILES C=C1CCC[C@@]2(C)CC(=O)C(=C(C)C)C[C@@H]12
REMARK SMILES IDX 13 1 12 2 11 3 15 4 16 5 2 6 1 7 3 8 4 9 5 10 6 11 8 12 9 13
REMARK SMILES IDX 10 14 7 15 14 16
REMARK H PARENT
REMARK Flexibility Score: inf
ROOT
ATOM      1  C   UNL     1     133.377 182.343 189.816  1.00  0.00     0.039 C 
ATOM      2  C   UNL     1     134.624 183.151 189.592  1.00  0.00    -0.070 C 
ATOM      3  C   UNL     1     135.330 183.662 190.617  1.00  0.00    -0.006 C 
ATOM      4  C   UNL     1     134.859 183.513 192.057  1.00  0.00     0.047 C 
ATOM      5  C   UNL     1     135.666 184.357 193.082  1.00  0.00     0.025 C 
ATOM      6  C   UNL     1     136.970 183.678 193.506  1.00  0.00    -0.073 C 
ATOM      7  C   UNL     1     136.867 182.573 194.270  1.00  0.00     0.008 C 
ATOM      8  C   UNL     1     138.212 184.516 193.609  1.00  0.00     0.031 C 
ATOM      9  C   UNL     1     137.893 185.876 194.293  1.00  0.00     0.005 C 
ATOM     10  C   UNL     1     136.670 186.607 193.638  1.00  0.00     0.008 C 
ATOM     11  C   UNL     1     135.947 185.814 192.495  1.00  0.00    -0.018 C 
ATOM     12  C   UNL     1     136.714 185.772 191.103  1.00  0.00     0.088 C 
ATOM     13  C   UNL     1     136.567 184.426 190.438  1.00  0.00     0.159 C 
ATOM     14  O   UNL     1     137.564 183.871 189.894  1.00  0.00    -0.295 OA
ATOM     15  C   UNL     1     134.578 186.529 192.243  1.00  0.00     0.012 C 
ATOM     16  C   UNL     1     134.967 183.388 188.125  1.00  0.00     0.039 C 
ENDROOT
TORSDOF 0
ENDMDL
MODEL 7
REMARK VINA RESULT:    -5.229      2.357      4.313
REMARK INTER + INTRA:          -5.229
REMARK INTER:                  -5.229
REMARK INTRA:                   0.000
REMARK UNBOUND:                 0.000
REMARK SMILES C=C1CCC[C@@]2(C)CC(=O)C(=C(C)C)C[C@@H]12
REMARK SMILES IDX 13 1 12 2 11 3 15 4 16 5 2 6 1 7 3 8 4 9 5 10 6 11 8 12 9 13
REMARK SMILES IDX 10 14 7 15 14 16
REMARK H PARENT
REMARK Flexibility Score: inf
ROOT
ATOM      1  C   UNL     1     137.841 183.632 189.865  1.00  0.00     0.039 C 
ATOM      2  C   UNL     1     138.057 184.750 190.846  1.00  0.00    -0.070 C 
ATOM      3  C   UNL     1     137.386 184.809 192.011  1.00  0.00    -0.006 C 
ATOM      4  C   UNL     1     136.313 183.787 192.361  1.00  0.00     0.047 C 
ATOM      5  C   UNL     1     135.486 184.141 193.627  1.00  0.00     0.025 C 
ATOM      6  C   UNL     1     136.196 183.746 194.924  1.00  0.00    -0.073 C 
ATOM      7  C   UNL     1     136.311 182.428 195.183  1.00  0.00     0.008 C 
ATOM      8  C   UNL     1     136.175 184.711 196.074  1.00  0.00     0.031 C 
ATOM      9  C   UNL     1     134.761 185.337 196.232  1.00  0.00     0.005 C 
ATOM     10  C   UNL     1     134.209 185.921 194.885  1.00  0.00     0.008 C 
ATOM     11  C   UNL     1     135.121 185.695 193.631  1.00  0.00    -0.018 C 
ATOM     12  C   UNL     1     136.409 186.623 193.547  1.00  0.00     0.088 C 
ATOM     13  C   UNL     1     137.595 185.865 193.004  1.00  0.00     0.159 C 
ATOM     14  O   UNL     1     138.734 185.998 193.537  1.00  0.00    -0.295 OA
ATOM     15  C   UNL     1     134.245 186.010 192.371  1.00  0.00     0.012 C 
ATOM     16  C   UNL     1     139.037 185.819 190.377  1.00  0.00     0.039 C 
ENDROOT
TORSDOF 0
ENDMDL
MODEL 8
REMARK VINA RESULT:    -5.184      1.708      2.730
REMARK INTER + INTRA:          -5.184
REMARK INTER:                  -5.184
REMARK INTRA:                   0.000
REMARK UNBOUND:                 0.000
REMARK SMILES C=C1CCC[C@@]2(C)CC(=O)C(=C(C)C)C[C@@H]12
REMARK SMILES IDX 13 1 12 2 11 3 15 4 16 5 2 6 1 7 3 8 4 9 5 10 6 11 8 12 9 13
REMARK SMILES IDX 10 14 7 15 14 16
REMARK H PARENT
REMARK Flexibility Score: inf
ROOT
ATOM      1  C   UNL     1     135.367 180.745 190.280  1.00  0.00     0.039 C 
ATOM      2  C   UNL     1     136.123 181.997 189.935  1.00  0.00    -0.070 C 
ATOM      3  C   UNL     1     136.415 182.927 190.863  1.00  0.00    -0.006 C 
ATOM      4  C   UNL     1     135.925 182.794 192.299  1.00  0.00     0.047 C 
ATOM      5  C   UNL     1     136.153 184.061 193.168  1.00  0.00     0.025 C 
ATOM      6  C   UNL     1     137.575 184.143 193.728  1.00  0.00    -0.073 C 
ATOM      7  C   UNL     1     137.913 183.247 194.676  1.00  0.00     0.008 C 
ATOM      8  C   UNL     1     138.280 185.468 193.700  1.00  0.00     0.031 C 
ATOM      9  C   UNL     1     137.310 186.608 194.124  1.00  0.00     0.005 C 
ATOM     10  C   UNL     1     135.959 186.574 193.328  1.00  0.00     0.008 C 
ATOM     11  C   UNL     1     135.794 185.374 192.335  1.00  0.00    -0.018 C 
ATOM     12  C   UNL     1     136.627 185.485 190.985  1.00  0.00     0.088 C 
ATOM     13  C   UNL     1     137.176 184.143 190.570  1.00  0.00     0.159 C 
ATOM     14  O   UNL     1     138.365 184.043 190.150  1.00  0.00    -0.295 OA
ATOM     15  C   UNL     1     134.281 185.320 191.937  1.00  0.00     0.012 C 
ATOM     16  C   UNL     1     136.462 182.142 188.455  1.00  0.00     0.039 C 
ENDROOT
TORSDOF 0
ENDMDL
MODEL 9
REMARK VINA RESULT:    -5.030      2.428      5.163
REMARK INTER + INTRA:          -5.030
REMARK INTER:                  -5.030
REMARK INTRA:                   0.000
REMARK UNBOUND:                 0.000
REMARK SMILES C=C1CCC[C@@]2(C)CC(=O)C(=C(C)C)C[C@@H]12
REMARK SMILES IDX 13 1 12 2 11 3 15 4 16 5 2 6 1 7 3 8 4 9 5 10 6 11 8 12 9 13
REMARK SMILES IDX 10 14 7 15 14 16
REMARK H PARENT
REMARK Flexibility Score: inf
ROOT
ATOM      1  C   UNL     1     134.298 186.340 196.114  1.00  0.00     0.039 C 
ATOM      2  C   UNL     1     134.812 185.059 195.520  1.00  0.00    -0.070 C 
ATOM      3  C   UNL     1     135.033 184.929 194.199  1.00  0.00    -0.006 C 
ATOM      4  C   UNL     1     134.699 186.051 193.226  1.00  0.00     0.047 C 
ATOM      5  C   UNL     1     134.799 185.646 191.729  1.00  0.00     0.025 C 
ATOM      6  C   UNL     1     136.233 185.699 191.199  1.00  0.00    -0.073 C 
ATOM      7  C   UNL     1     136.791 186.918 191.063  1.00  0.00     0.008 C 
ATOM      8  C   UNL     1     136.714 184.580 190.322  1.00  0.00     0.031 C 
ATOM      9  C   UNL     1     135.617 184.190 189.291  1.00  0.00     0.005 C 
ATOM     10  C   UNL     1     134.224 183.934 189.963  1.00  0.00     0.008 C 
ATOM     11  C   UNL     1     134.164 184.198 191.507  1.00  0.00    -0.018 C 
ATOM     12  C   UNL     1     134.847 183.088 192.417  1.00  0.00     0.088 C 
ATOM     13  C   UNL     1     135.563 183.708 193.591  1.00  0.00     0.159 C 
ATOM     14  O   UNL     1     136.711 183.297 193.926  1.00  0.00    -0.295 OA
ATOM     15  C   UNL     1     132.649 184.246 191.900  1.00  0.00     0.012 C 
ATOM     16  C   UNL     1     134.992 183.926 196.525  1.00  0.00     0.039 C 
ENDROOT
TORSDOF 0
ENDMDL
