MODEL 1
REMARK VINA RESULT:    -4.856      0.000      0.000
REMARK INTER + INTRA:          -5.424
REMARK INTER:                  -5.424
REMARK INTRA:                   0.000
REMARK UNBOUND:                 0.000
REMARK SMILES Oc1cc(O)c2c(c1)CCc1cc(O)c(O)cc1-2
REMARK SMILES IDX 10 1 9 2 7 3 6 4 18 5 17 6 15 7 13 8 12 9 11 10 4 11 3 12
REMARK SMILES IDX 2 13 8 14 14 15 5 17 1 19 16 21
REMARK H PARENT 14 16 5 18 1 20 16 22
REMARK Flexibility Score: inf
ROOT
ATOM      1  C   UNL     1     160.866 159.488 164.534  1.00  0.00     0.041 C 
ATOM      2  C   UNL     1     159.768 158.427 164.403  1.00  0.00     0.041 C 
ATOM      3  C   UNL     1     159.793 157.489 165.584  1.00  0.00    -0.032 A 
ATOM      4  C   UNL     1     161.028 157.125 166.175  1.00  0.00     0.027 A 
ATOM      5  C   UNL     1     162.285 157.672 165.571  1.00  0.00    -0.007 A 
ATOM      6  C   UNL     1     163.528 157.021 165.687  1.00  0.00     0.059 A 
ATOM      7  C   UNL     1     164.685 157.562 165.115  1.00  0.00     0.158 A 
ATOM      8  C   UNL     1     164.606 158.772 164.390  1.00  0.00     0.157 A 
ATOM      9  C   UNL     1     163.365 159.388 164.218  1.00  0.00     0.054 A 
ATOM     10  C   UNL     1     162.203 158.832 164.771  1.00  0.00    -0.036 A 
ATOM     11  C   UNL     1     161.012 156.325 167.344  1.00  0.00     0.127 A 
ATOM     12  C   UNL     1     159.801 155.804 167.820  1.00  0.00     0.093 A 
ATOM     13  C   UNL     1     158.595 156.107 167.180  1.00  0.00     0.119 A 
ATOM     14  C   UNL     1     158.593 156.952 166.071  1.00  0.00     0.050 A 
ENDROOT
BRANCH   8  15
ATOM     15  O   UNL     1     165.725 159.386 163.823  1.00  0.00    -0.504 OA
ATOM     16  H   UNL     1     166.563 159.619 164.337  1.00  0.00     0.293 HD
ENDBRANCH   8  15
BRANCH  11  17
ATOM     17  O   UNL     1     162.181 156.077 168.062  1.00  0.00    -0.507 OA
ATOM     18  H   UNL     1     162.501 155.136 168.255  1.00  0.00     0.293 HD
ENDBRANCH  11  17
BRANCH  13  19
ATOM     19  O   UNL     1     157.391 155.583 167.647  1.00  0.00    -0.508 OA
ATOM     20  H   UNL     1     157.181 154.595 167.575  1.00  0.00     0.293 HD
ENDBRANCH  13  19
BRANCH   7  21
ATOM     21  O   UNL     1     165.883 156.860 165.279  1.00  0.00    -0.504 OA
ATOM     22  H   UNL     1     165.978 155.866 165.137  1.00  0.00     0.293 HD
ENDBRANCH   7  21
TORSDOF 4
ENDMDL
MODEL 2
REMARK VINA RESULT:    -4.826      5.994      9.977
REMARK INTER + INTRA:          -5.390
REMARK INTER:                  -5.390
REMARK INTRA:                   0.000
REMARK UNBOUND:                 0.000
REMARK SMILES Oc1cc(O)c2c(c1)CCc1cc(O)c(O)cc1-2
REMARK SMILES IDX 10 1 9 2 7 3 6 4 18 5 17 6 15 7 13 8 12 9 11 10 4 11 3 12
REMARK SMILES IDX 2 13 8 14 14 15 5 17 1 19 16 21
REMARK H PARENT 14 16 5 18 1 20 16 22
REMARK Flexibility Score: inf
ROOT
ATOM      1  C   UNL     1     154.349 155.696 164.505  1.00  0.00     0.041 C 
ATOM      2  C   UNL     1     155.440 156.768 164.407  1.00  0.00     0.041 C 
ATOM      3  C   UNL     1     155.364 157.712 165.581  1.00  0.00    -0.032 A 
ATOM      4  C   UNL     1     154.105 158.066 166.125  1.00  0.00     0.027 A 
ATOM      5  C   UNL     1     152.875 157.502 165.480  1.00  0.00    -0.007 A 
ATOM      6  C   UNL     1     151.623 158.141 165.548  1.00  0.00     0.059 A 
ATOM      7  C   UNL     1     150.492 157.585 164.938  1.00  0.00     0.158 A 
ATOM      8  C   UNL     1     150.609 156.371 164.224  1.00  0.00     0.157 A 
ATOM      9  C   UNL     1     151.862 155.767 164.100  1.00  0.00     0.054 A 
ATOM     10  C   UNL     1     152.998 156.338 164.690  1.00  0.00    -0.036 A 
ATOM     11  C   UNL     1     154.071 158.873 167.289  1.00  0.00     0.127 A 
ATOM     12  C   UNL     1     155.259 159.409 167.804  1.00  0.00     0.093 A 
ATOM     13  C   UNL     1     156.490 159.116 167.209  1.00  0.00     0.119 A 
ATOM     14  C   UNL     1     156.540 158.264 166.106  1.00  0.00     0.050 A 
ENDROOT
BRANCH   8  15
ATOM     15  O   UNL     1     149.518 155.742 163.622  1.00  0.00    -0.504 OA
ATOM     16  H   UNL     1     148.718 155.390 164.129  1.00  0.00     0.293 HD
ENDBRANCH   8  15
BRANCH  11  17
ATOM     17  O   UNL     1     152.875 159.112 167.964  1.00  0.00    -0.507 OA
ATOM     18  H   UNL     1     152.096 158.466 167.917  1.00  0.00     0.293 HD
ENDBRANCH  11  17
BRANCH  13  19
ATOM     19  O   UNL     1     157.671 159.654 167.715  1.00  0.00    -0.508 OA
ATOM     20  H   UNL     1     158.527 159.655 167.174  1.00  0.00     0.293 HD
ENDBRANCH  13  19
BRANCH   7  21
ATOM     21  O   UNL     1     149.283 158.275 165.056  1.00  0.00    -0.504 OA
ATOM     22  H   UNL     1     149.198 159.203 165.443  1.00  0.00     0.293 HD
ENDBRANCH   7  21
TORSDOF 4
ENDMDL
MODEL 3
REMARK VINA RESULT:    -4.595      5.708      7.209
REMARK INTER + INTRA:          -5.133
REMARK INTER:                  -5.133
REMARK INTRA:                   0.000
REMARK UNBOUND:                 0.000
REMARK SMILES Oc1cc(O)c2c(c1)CCc1cc(O)c(O)cc1-2
REMARK SMILES IDX 10 1 9 2 7 3 6 4 18 5 17 6 15 7 13 8 12 9 11 10 4 11 3 12
REMARK SMILES IDX 2 13 8 14 14 15 5 17 1 19 16 21
REMARK H PARENT 14 16 5 18 1 20 16 22
REMARK Flexibility Score: inf
ROOT
ATOM      1  C   UNL     1     155.791 161.278 163.994  1.00  0.00     0.041 C 
ATOM      2  C   UNL     1     156.888 160.221 163.821  1.00  0.00     0.041 C 
ATOM      3  C   UNL     1     157.680 160.066 165.096  1.00  0.00    -0.032 A 
ATOM      4  C   UNL     1     157.941 161.195 165.910  1.00  0.00     0.027 A 
ATOM      5  C   UNL     1     157.436 162.528 165.448  1.00  0.00    -0.007 A 
ATOM      6  C   UNL     1     158.038 163.741 165.833  1.00  0.00     0.059 A 
ATOM      7  C   UNL     1     157.539 164.971 165.387  1.00  0.00     0.158 A 
ATOM      8  C   UNL     1     156.424 164.999 164.519  1.00  0.00     0.157 A 
ATOM      9  C   UNL     1     155.863 163.795 164.084  1.00  0.00     0.054 A 
ATOM     10  C   UNL     1     156.380 162.565 164.512  1.00  0.00    -0.036 A 
ATOM     11  C   UNL     1     158.599 161.001 167.150  1.00  0.00     0.127 A 
ATOM     12  C   UNL     1     159.092 159.733 167.490  1.00  0.00     0.093 A 
ATOM     13  C   UNL     1     158.896 158.641 166.639  1.00  0.00     0.119 A 
ATOM     14  C   UNL     1     158.187 158.807 165.450  1.00  0.00     0.050 A 
ENDROOT
BRANCH   8  15
ATOM     15  O   UNL     1     155.852 166.188 164.064  1.00  0.00    -0.504 OA
ATOM     16  H   UNL     1     155.334 166.827 164.651  1.00  0.00     0.293 HD
ENDBRANCH   8  15
BRANCH  11  17
ATOM     17  O   UNL     1     158.731 162.044 168.065  1.00  0.00    -0.507 OA
ATOM     18  H   UNL     1     158.516 161.923 169.048  1.00  0.00     0.293 HD
ENDBRANCH  11  17
BRANCH  13  19
ATOM     19  O   UNL     1     159.392 157.383 166.972  1.00  0.00    -0.508 OA
ATOM     20  H   UNL     1     159.540 156.669 166.268  1.00  0.00     0.293 HD
ENDBRANCH  13  19
BRANCH   7  21
ATOM     21  O   UNL     1     158.186 166.132 165.818  1.00  0.00    -0.504 OA
ATOM     22  H   UNL     1     158.628 166.229 166.719  1.00  0.00     0.293 HD
ENDBRANCH   7  21
TORSDOF 4
ENDMDL
MODEL 4
REMARK VINA RESULT:    -4.575      5.735      7.235
REMARK INTER + INTRA:          -5.110
REMARK INTER:                  -5.110
REMARK INTRA:                   0.000
REMARK UNBOUND:                 0.000
REMARK SMILES Oc1cc(O)c2c(c1)CCc1cc(O)c(O)cc1-2
REMARK SMILES IDX 10 1 9 2 7 3 6 4 18 5 17 6 15 7 13 8 12 9 11 10 4 11 3 12
REMARK SMILES IDX 2 13 8 14 14 15 5 17 1 19 16 21
REMARK H PARENT 14 16 5 18 1 20 16 22
REMARK Flexibility Score: inf
ROOT
ATOM      1  C   UNL     1     159.490 153.842 164.148  1.00  0.00     0.041 C 
ATOM      2  C   UNL     1     158.424 154.921 163.923  1.00  0.00     0.041 C 
ATOM      3  C   UNL     1     157.557 155.073 165.148  1.00  0.00    -0.032 A 
ATOM      4  C   UNL     1     157.226 153.938 165.928  1.00  0.00     0.027 A 
ATOM      5  C   UNL     1     157.736 152.602 165.479  1.00  0.00    -0.007 A 
ATOM      6  C   UNL     1     157.091 151.395 165.808  1.00  0.00     0.059 A 
ATOM      7  C   UNL     1     157.596 150.163 165.376  1.00  0.00     0.158 A 
ATOM      8  C   UNL     1     158.762 150.127 164.579  1.00  0.00     0.157 A 
ATOM      9  C   UNL     1     159.369 151.325 164.197  1.00  0.00     0.054 A 
ATOM     10  C   UNL     1     158.848 152.559 164.609  1.00  0.00    -0.036 A 
ATOM     11  C   UNL     1     156.497 154.127 167.128  1.00  0.00     0.127 A 
ATOM     12  C   UNL     1     156.006 155.399 167.455  1.00  0.00     0.093 A 
ATOM     13  C   UNL     1     156.272 156.499 166.634  1.00  0.00     0.119 A 
ATOM     14  C   UNL     1     157.051 156.335 165.489  1.00  0.00     0.050 A 
ENDROOT
BRANCH   8  15
ATOM     15  O   UNL     1     159.340 148.933 164.143  1.00  0.00    -0.504 OA
ATOM     16  H   UNL     1     159.948 148.860 163.339  1.00  0.00     0.293 HD
ENDBRANCH   8  15
BRANCH  11  17
ATOM     17  O   UNL     1     156.290 153.074 168.018  1.00  0.00    -0.507 OA
ATOM     18  H   UNL     1     155.363 152.717 168.217  1.00  0.00     0.293 HD
ENDBRANCH  11  17
BRANCH  13  19
ATOM     19  O   UNL     1     155.779 157.761 166.955  1.00  0.00    -0.508 OA
ATOM     20  H   UNL     1     155.747 158.507 166.269  1.00  0.00     0.293 HD
ENDBRANCH  13  19
BRANCH   7  21
ATOM     21  O   UNL     1     156.903 149.008 165.749  1.00  0.00    -0.504 OA
ATOM     22  H   UNL     1     157.297 148.080 165.720  1.00  0.00     0.293 HD
ENDBRANCH   7  21
TORSDOF 4
ENDMDL
MODEL 5
REMARK VINA RESULT:    -4.518      6.437      7.561
REMARK INTER + INTRA:          -5.046
REMARK INTER:                  -5.046
REMARK INTRA:                   0.000
REMARK UNBOUND:                 0.000
REMARK SMILES Oc1cc(O)c2c(c1)CCc1cc(O)c(O)cc1-2
REMARK SMILES IDX 10 1 9 2 7 3 6 4 18 5 17 6 15 7 13 8 12 9 11 10 4 11 3 12
REMARK SMILES IDX 2 13 8 14 14 15 5 17 1 19 16 21
REMARK H PARENT 14 16 5 18 1 20 16 22
REMARK Flexibility Score: inf
ROOT
ATOM      1  C   UNL     1     156.284 155.033 163.443  1.00  0.00     0.041 C 
ATOM      2  C   UNL     1     157.470 154.288 162.821  1.00  0.00     0.041 C 
ATOM      3  C   UNL     1     157.595 152.904 163.410  1.00  0.00    -0.032 A 
ATOM      4  C   UNL     1     157.290 152.685 164.776  1.00  0.00     0.027 A 
ATOM      5  C   UNL     1     156.878 153.865 165.603  1.00  0.00    -0.007 A 
ATOM      6  C   UNL     1     157.058 153.912 166.998  1.00  0.00     0.059 A 
ATOM      7  C   UNL     1     156.658 155.028 167.743  1.00  0.00     0.158 A 
ATOM      8  C   UNL     1     156.080 156.137 167.085  1.00  0.00     0.157 A 
ATOM      9  C   UNL     1     155.957 156.120 165.693  1.00  0.00     0.054 A 
ATOM     10  C   UNL     1     156.382 155.013 164.947  1.00  0.00    -0.036 A 
ATOM     11  C   UNL     1     157.318 151.359 165.274  1.00  0.00     0.127 A 
ATOM     12  C   UNL     1     157.767 150.313 164.455  1.00  0.00     0.093 A 
ATOM     13  C   UNL     1     158.141 150.556 163.130  1.00  0.00     0.119 A 
ATOM     14  C   UNL     1     158.048 151.846 162.610  1.00  0.00     0.050 A 
ENDROOT
BRANCH   8  15
ATOM     15  O   UNL     1     155.626 157.266 167.767  1.00  0.00    -0.504 OA
ATOM     16  H   UNL     1     155.757 157.420 168.757  1.00  0.00     0.293 HD
ENDBRANCH   8  15
BRANCH  11  17
ATOM     17  O   UNL     1     156.865 151.063 166.559  1.00  0.00    -0.507 OA
ATOM     18  H   UNL     1     155.956 150.648 166.723  1.00  0.00     0.293 HD
ENDBRANCH  11  17
BRANCH  13  19
ATOM     19  O   UNL     1     158.594 149.519 162.318  1.00  0.00    -0.508 OA
ATOM     20  H   UNL     1     158.795 148.601 162.695  1.00  0.00     0.293 HD
ENDBRANCH  13  19
BRANCH   7  21
ATOM     21  O   UNL     1     156.864 154.998 169.125  1.00  0.00    -0.504 OA
ATOM     22  H   UNL     1     156.343 154.412 169.760  1.00  0.00     0.293 HD
ENDBRANCH   7  21
TORSDOF 4
ENDMDL
MODEL 6
REMARK VINA RESULT:    -4.514      4.402      6.471
REMARK INTER + INTRA:          -5.042
REMARK INTER:                  -5.042
REMARK INTRA:                   0.000
REMARK UNBOUND:                 0.000
REMARK SMILES Oc1cc(O)c2c(c1)CCc1cc(O)c(O)cc1-2
REMARK SMILES IDX 10 1 9 2 7 3 6 4 18 5 17 6 15 7 13 8 12 9 11 10 4 11 3 12
REMARK SMILES IDX 2 13 8 14 14 15 5 17 1 19 16 21
REMARK H PARENT 14 16 5 18 1 20 16 22
REMARK Flexibility Score: inf
ROOT
ATOM      1  C   UNL     1     159.630 155.748 167.505  1.00  0.00     0.041 C 
ATOM      2  C   UNL     1     160.252 157.118 167.215  1.00  0.00     0.041 C 
ATOM      3  C   UNL     1     159.182 158.176 167.112  1.00  0.00    -0.032 A 
ATOM      4  C   UNL     1     157.926 157.861 166.537  1.00  0.00     0.027 A 
ATOM      5  C   UNL     1     157.719 156.471 166.018  1.00  0.00    -0.007 A 
ATOM      6  C   UNL     1     156.795 156.172 164.999  1.00  0.00     0.059 A 
ATOM      7  C   UNL     1     156.622 154.861 164.538  1.00  0.00     0.158 A 
ATOM      8  C   UNL     1     157.401 153.819 165.089  1.00  0.00     0.157 A 
ATOM      9  C   UNL     1     158.364 154.121 166.055  1.00  0.00     0.054 A 
ATOM     10  C   UNL     1     158.553 155.437 166.497  1.00  0.00    -0.036 A 
ATOM     11  C   UNL     1     156.908 158.846 166.548  1.00  0.00     0.127 A 
ATOM     12  C   UNL     1     157.192 160.142 167.001  1.00  0.00     0.093 A 
ATOM     13  C   UNL     1     158.461 160.462 167.492  1.00  0.00     0.119 A 
ATOM     14  C   UNL     1     159.448 159.480 167.554  1.00  0.00     0.050 A 
ENDROOT
BRANCH   8  15
ATOM     15  O   UNL     1     157.257 152.486 164.704  1.00  0.00    -0.504 OA
ATOM     16  H   UNL     1     156.367 152.038 164.535  1.00  0.00     0.293 HD
ENDBRANCH   8  15
BRANCH  11  17
ATOM     17  O   UNL     1     155.607 158.540 166.152  1.00  0.00    -0.507 OA
ATOM     18  H   UNL     1     154.799 158.879 166.661  1.00  0.00     0.293 HD
ENDBRANCH  11  17
BRANCH  13  19
ATOM     19  O   UNL     1     158.747 161.751 167.936  1.00  0.00    -0.508 OA
ATOM     20  H   UNL     1     158.124 162.527 167.745  1.00  0.00     0.293 HD
ENDBRANCH  13  19
BRANCH   7  21
ATOM     21  O   UNL     1     155.681 154.644 163.529  1.00  0.00    -0.504 OA
ATOM     22  H   UNL     1     155.894 154.214 162.642  1.00  0.00     0.293 HD
ENDBRANCH   7  21
TORSDOF 4
ENDMDL
MODEL 7
REMARK VINA RESULT:    -4.492      4.377      5.853
REMARK INTER + INTRA:          -5.017
REMARK INTER:                  -5.017
REMARK INTRA:                   0.000
REMARK UNBOUND:                 0.000
REMARK SMILES Oc1cc(O)c2c(c1)CCc1cc(O)c(O)cc1-2
REMARK SMILES IDX 10 1 9 2 7 3 6 4 18 5 17 6 15 7 13 8 12 9 11 10 4 11 3 12
REMARK SMILES IDX 2 13 8 14 14 15 5 17 1 19 16 21
REMARK H PARENT 14 16 5 18 1 20 16 22
REMARK Flexibility Score: inf
ROOT
ATOM      1  C   UNL     1     160.337 156.825 167.005  1.00  0.00     0.041 C 
ATOM      2  C   UNL     1     159.851 155.390 167.236  1.00  0.00     0.041 C 
ATOM      3  C   UNL     1     158.760 155.035 166.256  1.00  0.00    -0.032 A 
ATOM      4  C   UNL     1     157.823 156.018 165.853  1.00  0.00     0.027 A 
ATOM      5  C   UNL     1     157.937 157.387 166.451  1.00  0.00    -0.007 A 
ATOM      6  C   UNL     1     156.837 158.258 166.566  1.00  0.00     0.059 A 
ATOM      7  C   UNL     1     156.979 159.534 167.126  1.00  0.00     0.158 A 
ATOM      8  C   UNL     1     158.241 159.951 167.602  1.00  0.00     0.157 A 
ATOM      9  C   UNL     1     159.321 159.066 167.548  1.00  0.00     0.054 A 
ATOM     10  C   UNL     1     159.172 157.781 167.011  1.00  0.00    -0.036 A 
ATOM     11  C   UNL     1     156.873 155.682 164.856  1.00  0.00     0.127 A 
ATOM     12  C   UNL     1     156.791 154.365 164.383  1.00  0.00     0.093 A 
ATOM     13  C   UNL     1     157.672 153.384 164.849  1.00  0.00     0.119 A 
ATOM     14  C   UNL     1     158.656 153.722 165.776  1.00  0.00     0.050 A 
ENDROOT
BRANCH   8  15
ATOM     15  O   UNL     1     158.463 161.220 168.139  1.00  0.00    -0.504 OA
ATOM     16  H   UNL     1     158.014 161.567 168.975  1.00  0.00     0.293 HD
ENDBRANCH   8  15
BRANCH  11  17
ATOM     17  O   UNL     1     156.040 156.652 164.301  1.00  0.00    -0.507 OA
ATOM     18  H   UNL     1     156.175 157.640 164.480  1.00  0.00     0.293 HD
ENDBRANCH  11  17
BRANCH  13  19
ATOM     19  O   UNL     1     157.586 152.074 164.385  1.00  0.00    -0.508 OA
ATOM     20  H   UNL     1     157.345 151.867 163.423  1.00  0.00     0.293 HD
ENDBRANCH  13  19
BRANCH   7  21
ATOM     21  O   UNL     1     155.842 160.343 167.199  1.00  0.00    -0.504 OA
ATOM     22  H   UNL     1     155.789 161.195 167.737  1.00  0.00     0.293 HD
ENDBRANCH   7  21
TORSDOF 4
ENDMDL
MODEL 8
REMARK VINA RESULT:    -4.423      3.535      7.152
REMARK INTER + INTRA:          -4.940
REMARK INTER:                  -4.940
REMARK INTRA:                   0.000
REMARK UNBOUND:                 0.000
REMARK SMILES Oc1cc(O)c2c(c1)CCc1cc(O)c(O)cc1-2
REMARK SMILES IDX 10 1 9 2 7 3 6 4 18 5 17 6 15 7 13 8 12 9 11 10 4 11 3 12
REMARK SMILES IDX 2 13 8 14 14 15 5 17 1 19 16 21
REMARK H PARENT 14 16 5 18 1 20 16 22
REMARK Flexibility Score: inf
ROOT
ATOM      1  C   UNL     1     155.795 154.999 166.968  1.00  0.00     0.041 C 
ATOM      2  C   UNL     1     157.223 154.504 166.717  1.00  0.00     0.041 C 
ATOM      3  C   UNL     1     158.212 155.633 166.873  1.00  0.00    -0.032 A 
ATOM      4  C   UNL     1     157.862 156.943 166.464  1.00  0.00     0.027 A 
ATOM      5  C   UNL     1     156.509 157.152 165.854  1.00  0.00    -0.007 A 
ATOM      6  C   UNL     1     156.236 158.205 164.960  1.00  0.00     0.059 A 
ATOM      7  C   UNL     1     154.959 158.375 164.411  1.00  0.00     0.158 A 
ATOM      8  C   UNL     1     153.930 157.466 164.741  1.00  0.00     0.157 A 
ATOM      9  C   UNL     1     154.213 156.383 165.577  1.00  0.00     0.054 A 
ATOM     10  C   UNL     1     155.498 156.200 166.106  1.00  0.00    -0.036 A 
ATOM     11  C   UNL     1     158.772 157.999 166.717  1.00  0.00     0.127 A 
ATOM     12  C   UNL     1     160.042 157.719 167.241  1.00  0.00     0.093 A 
ATOM     13  C   UNL     1     160.405 156.409 167.567  1.00  0.00     0.119 A 
ATOM     14  C   UNL     1     159.489 155.372 167.389  1.00  0.00     0.050 A 
ENDROOT
BRANCH   8  15
ATOM     15  O   UNL     1     152.626 157.595 164.259  1.00  0.00    -0.504 OA
ATOM     16  H   UNL     1     151.894 158.102 164.737  1.00  0.00     0.293 HD
ENDBRANCH   8  15
BRANCH  11  17
ATOM     17  O   UNL     1     158.413 159.327 166.492  1.00  0.00    -0.507 OA
ATOM     18  H   UNL     1     157.858 159.852 167.158  1.00  0.00     0.293 HD
ENDBRANCH  11  17
BRANCH  13  19
ATOM     19  O   UNL     1     161.669 156.128 168.080  1.00  0.00    -0.508 OA
ATOM     20  H   UNL     1     161.792 155.511 168.875  1.00  0.00     0.293 HD
ENDBRANCH  13  19
BRANCH   7  21
ATOM     21  O   UNL     1     154.764 159.448 163.537  1.00  0.00    -0.504 OA
ATOM     22  H   UNL     1     154.375 159.357 162.611  1.00  0.00     0.293 HD
ENDBRANCH   7  21
TORSDOF 4
ENDMDL
MODEL 9
REMARK VINA RESULT:    -4.417      1.347      5.499
REMARK INTER + INTRA:          -4.934
REMARK INTER:                  -4.934
REMARK INTRA:                   0.000
REMARK UNBOUND:                 0.000
REMARK SMILES Oc1cc(O)c2c(c1)CCc1cc(O)c(O)cc1-2
REMARK SMILES IDX 10 1 9 2 7 3 6 4 18 5 17 6 15 7 13 8 12 9 11 10 4 11 3 12
REMARK SMILES IDX 2 13 8 14 14 15 5 17 1 19 16 21
REMARK H PARENT 14 16 5 18 1 20 16 22
REMARK Flexibility Score: inf
ROOT
ATOM      1  C   UNL     1     160.457 157.284 163.352  1.00  0.00     0.041 C 
ATOM      2  C   UNL     1     161.489 158.367 163.019  1.00  0.00     0.041 C 
ATOM      3  C   UNL     1     162.792 158.094 163.729  1.00  0.00    -0.032 A 
ATOM      4  C   UNL     1     162.786 157.533 165.030  1.00  0.00     0.027 A 
ATOM      5  C   UNL     1     161.460 157.256 165.671  1.00  0.00    -0.007 A 
ATOM      6  C   UNL     1     161.287 157.214 167.067  1.00  0.00     0.059 A 
ATOM      7  C   UNL     1     160.035 156.948 167.634  1.00  0.00     0.158 A 
ATOM      8  C   UNL     1     158.918 156.736 166.795  1.00  0.00     0.157 A 
ATOM      9  C   UNL     1     159.072 156.839 165.410  1.00  0.00     0.054 A 
ATOM     10  C   UNL     1     160.321 157.131 164.845  1.00  0.00    -0.036 A 
ATOM     11  C   UNL     1     164.024 157.194 165.630  1.00  0.00     0.127 A 
ATOM     12  C   UNL     1     165.226 157.534 164.993  1.00  0.00     0.093 A 
ATOM     13  C   UNL     1     165.218 158.161 163.743  1.00  0.00     0.119 A 
ATOM     14  C   UNL     1     164.004 158.433 163.113  1.00  0.00     0.050 A 
ENDROOT
BRANCH   8  15
ATOM     15  O   UNL     1     157.649 156.431 167.290  1.00  0.00    -0.504 OA
ATOM     16  H   UNL     1     157.204 155.530 167.189  1.00  0.00     0.293 HD
ENDBRANCH   8  15
BRANCH  11  17
ATOM     17  O   UNL     1     164.073 156.487 166.830  1.00  0.00    -0.507 OA
ATOM     18  H   UNL     1     164.951 156.208 167.251  1.00  0.00     0.293 HD
ENDBRANCH  11  17
BRANCH  13  19
ATOM     19  O   UNL     1     166.411 158.506 163.113  1.00  0.00    -0.508 OA
ATOM     20  H   UNL     1     167.281 158.577 163.629  1.00  0.00     0.293 HD
ENDBRANCH  13  19
BRANCH   7  21
ATOM     21  O   UNL     1     159.944 156.917 169.029  1.00  0.00    -0.504 OA
ATOM     22  H   UNL     1     159.428 157.590 169.576  1.00  0.00     0.293 HD
ENDBRANCH   7  21
TORSDOF 4
ENDMDL
