MODEL 1
REMARK VINA RESULT:    -3.851      0.000      0.000
REMARK INTER + INTRA:          -7.942
REMARK INTER:                  -7.003
REMARK INTRA:                  -0.939
REMARK UNBOUND:                -0.939
REMARK SMILES CCCCCC=CCC=CCCCCCCCC(=O)[O-]
REMARK SMILES IDX 11 1 12 2 13 3 14 4 15 5 16 6 17 7 18 8 19 9 20 10 10 11
REMARK SMILES IDX 9 12 8 13 7 14 6 15 5 16 4 17 3 18 2 19 1 20
REMARK H PARENT
REMARK Flexibility Score: inf
ROOT
ATOM      1  C   UNL     1       3.609  48.506 280.446  1.00  0.00     0.027 C 
ENDROOT
BRANCH   1   2
ATOM      2  C   UNL     1       4.162  49.757 281.140  1.00  0.00     0.004 C 
BRANCH   2   3
ATOM      3  C   UNL     1       4.644  50.788 280.108  1.00  0.00     0.000 C 
BRANCH   3   4
ATOM      4  C   UNL     1       4.808  52.195 280.704  1.00  0.00     0.000 C 
BRANCH   4   5
ATOM      5  C   UNL     1       3.505  52.839 281.216  1.00  0.00     0.000 C 
BRANCH   5   6
ATOM      6  C   UNL     1       3.437  54.365 280.998  1.00  0.00     0.006 C 
BRANCH   6   7
ATOM      7  C   UNL     1       4.720  54.924 280.368  1.00  0.00     0.053 C 
BRANCH   7   8
ATOM      8  C   UNL     1       4.405  55.672 279.112  1.00  0.00     0.041 C 
ATOM      9  O   UNL     1       3.247  56.125 278.918  1.00  0.00    -0.550 OA
ATOM     10  O   UNL     1       5.376  55.824 278.131  1.00  0.00    -0.550 OA
ENDBRANCH   7   8
ENDBRANCH   6   7
ENDBRANCH   5   6
ENDBRANCH   4   5
ENDBRANCH   3   4
ENDBRANCH   2   3
ENDBRANCH   1   2
BRANCH   1  11
ATOM     11  C   UNL     1       3.936  47.264 281.228  1.00  0.00    -0.031 C 
ATOM     12  C   UNL     1       2.981  46.405 281.616  1.00  0.00    -0.027 C 
BRANCH  12  13
ATOM     13  C   UNL     1       3.309  45.160 282.388  1.00  0.00     0.054 C 
BRANCH  13  14
ATOM     14  C   UNL     1       3.088  45.378 283.858  1.00  0.00    -0.027 C 
ATOM     15  C   UNL     1       4.032  45.930 284.636  1.00  0.00    -0.031 C 
BRANCH  15  16
ATOM     16  C   UNL     1       3.825  46.117 286.116  1.00  0.00     0.027 C 
BRANCH  16  17
ATOM     17  C   UNL     1       3.254  47.500 286.458  1.00  0.00     0.004 C 
BRANCH  17  18
ATOM     18  C   UNL     1       3.953  48.624 285.674  1.00  0.00     0.000 C 
BRANCH  18  19
ATOM     19  C   UNL     1       3.926  49.967 286.420  1.00  0.00    -0.003 C 
ATOM     20  C   UNL     1       5.309  50.399 286.911  1.00  0.00     0.004 C 
ENDBRANCH  18  19
ENDBRANCH  17  18
ENDBRANCH  16  17
ENDBRANCH  15  16
ENDBRANCH  13  14
ENDBRANCH  12  13
ENDBRANCH   1  11
TORSDOF 14
ENDMDL
MODEL 2
REMARK VINA RESULT:    -3.832      3.100      7.641
REMARK INTER + INTRA:          -7.907
REMARK INTER:                  -6.677
REMARK INTRA:                  -1.230
REMARK UNBOUND:                -0.939
REMARK SMILES CCCCCC=CCC=CCCCCCCCC(=O)[O-]
REMARK SMILES IDX 11 1 12 2 13 3 14 4 15 5 16 6 17 7 18 8 19 9 20 10 10 11
REMARK SMILES IDX 9 12 8 13 7 14 6 15 5 16 4 17 3 18 2 19 1 20
REMARK H PARENT
REMARK Flexibility Score: inf
ROOT
ATOM      1  C   UNL     1       3.867  47.001 281.708  1.00  0.00     0.027 C 
ENDROOT
BRANCH   1   2
ATOM      2  C   UNL     1       2.875  45.863 281.979  1.00  0.00     0.004 C 
BRANCH   2   3
ATOM      3  C   UNL     1       3.079  45.282 283.386  1.00  0.00     0.000 C 
BRANCH   3   4
ATOM      4  C   UNL     1       4.216  45.973 284.157  1.00  0.00     0.000 C 
BRANCH   4   5
ATOM      5  C   UNL     1       4.022  46.034 285.684  1.00  0.00     0.000 C 
BRANCH   5   6
ATOM      6  C   UNL     1       3.375  47.345 286.178  1.00  0.00     0.006 C 
BRANCH   6   7
ATOM      7  C   UNL     1       3.568  48.501 285.187  1.00  0.00     0.053 C 
BRANCH   7   8
ATOM      8  C   UNL     1       4.070  49.720 285.895  1.00  0.00     0.041 C 
ATOM      9  O   UNL     1       5.081  49.647 286.642  1.00  0.00    -0.550 OA
ATOM     10  O   UNL     1       3.392  50.925 285.771  1.00  0.00    -0.550 OA
ENDBRANCH   7   8
ENDBRANCH   6   7
ENDBRANCH   5   6
ENDBRANCH   4   5
ENDBRANCH   3   4
ENDBRANCH   2   3
ENDBRANCH   1   2
BRANCH   1  11
ATOM     11  C   UNL     1       3.366  47.907 280.618  1.00  0.00    -0.031 C 
ATOM     12  C   UNL     1       4.184  48.755 279.977  1.00  0.00    -0.027 C 
BRANCH  12  13
ATOM     13  C   UNL     1       3.686  49.652 278.880  1.00  0.00     0.054 C 
BRANCH  13  14
ATOM     14  C   UNL     1       4.022  51.086 279.179  1.00  0.00    -0.027 C 
ATOM     15  C   UNL     1       4.677  51.436 280.296  1.00  0.00    -0.031 C 
BRANCH  15  16
ATOM     16  C   UNL     1       4.983  52.877 280.613  1.00  0.00     0.027 C 
BRANCH  16  17
ATOM     17  C   UNL     1       3.867  53.826 280.156  1.00  0.00     0.004 C 
BRANCH  17  18
ATOM     18  C   UNL     1       4.200  55.298 280.456  1.00  0.00     0.000 C 
BRANCH  18  19
ATOM     19  C   UNL     1       5.223  55.883 279.471  1.00  0.00    -0.003 C 
ATOM     20  C   UNL     1       4.793  55.730 278.011  1.00  0.00     0.004 C 
ENDBRANCH  18  19
ENDBRANCH  17  18
ENDBRANCH  16  17
ENDBRANCH  15  16
ENDBRANCH  13  14
ENDBRANCH  12  13
ENDBRANCH   1  11
TORSDOF 14
ENDMDL
MODEL 3
REMARK VINA RESULT:    -3.616      1.531      2.962
REMARK INTER + INTRA:          -7.515
REMARK INTER:                  -6.158
REMARK INTRA:                  -1.357
REMARK UNBOUND:                -0.939
REMARK SMILES CCCCCC=CCC=CCCCCCCCC(=O)[O-]
REMARK SMILES IDX 11 1 12 2 13 3 14 4 15 5 16 6 17 7 18 8 19 9 20 10 10 11
REMARK SMILES IDX 9 12 8 13 7 14 6 15 5 16 4 17 3 18 2 19 1 20
REMARK H PARENT
REMARK Flexibility Score: inf
ROOT
ATOM      1  C   UNL     1       4.320  45.901 281.861  1.00  0.00     0.027 C 
ENDROOT
BRANCH   1   2
ATOM      2  C   UNL     1       3.225  46.758 281.214  1.00  0.00     0.004 C 
BRANCH   2   3
ATOM      3  C   UNL     1       3.625  48.241 281.202  1.00  0.00     0.000 C 
BRANCH   3   4
ATOM      4  C   UNL     1       3.446  48.917 282.572  1.00  0.00     0.000 C 
BRANCH   4   5
ATOM      5  C   UNL     1       3.603  50.449 282.564  1.00  0.00     0.000 C 
BRANCH   5   6
ATOM      6  C   UNL     1       3.242  51.105 281.215  1.00  0.00     0.006 C 
BRANCH   6   7
ATOM      7  C   UNL     1       3.163  52.635 281.310  1.00  0.00     0.053 C 
BRANCH   7   8
ATOM      8  C   UNL     1       4.413  53.259 280.776  1.00  0.00     0.041 C 
ATOM      9  O   UNL     1       5.512  52.650 280.862  1.00  0.00    -0.550 OA
ATOM     10  O   UNL     1       4.375  54.534 280.228  1.00  0.00    -0.550 OA
ENDBRANCH   7   8
ENDBRANCH   6   7
ENDBRANCH   5   6
ENDBRANCH   4   5
ENDBRANCH   3   4
ENDBRANCH   2   3
ENDBRANCH   1   2
BRANCH   1  11
ATOM     11  C   UNL     1       3.833  45.277 283.139  1.00  0.00    -0.031 C 
ATOM     12  C   UNL     1       3.723  45.987 284.272  1.00  0.00    -0.027 C 
BRANCH  12  13
ATOM     13  C   UNL     1       3.226  45.365 285.546  1.00  0.00     0.054 C 
BRANCH  13  14
ATOM     14  C   UNL     1       2.932  46.425 286.570  1.00  0.00    -0.027 C 
ATOM     15  C   UNL     1       3.140  47.726 286.314  1.00  0.00    -0.031 C 
BRANCH  15  16
ATOM     16  C   UNL     1       2.879  48.785 287.352  1.00  0.00     0.027 C 
BRANCH  16  17
ATOM     17  C   UNL     1       3.363  50.173 286.907  1.00  0.00     0.004 C 
BRANCH  17  18
ATOM     18  C   UNL     1       4.670  50.098 286.098  1.00  0.00     0.000 C 
BRANCH  18  19
ATOM     19  C   UNL     1       5.909  50.407 286.951  1.00  0.00    -0.003 C 
ATOM     20  C   UNL     1       6.224  51.902 287.018  1.00  0.00     0.004 C 
ENDBRANCH  18  19
ENDBRANCH  17  18
ENDBRANCH  16  17
ENDBRANCH  15  16
ENDBRANCH  13  14
ENDBRANCH  12  13
ENDBRANCH   1  11
TORSDOF 14
ENDMDL
MODEL 4
REMARK VINA RESULT:    -3.505      3.460      8.421
REMARK INTER + INTRA:          -7.312
REMARK INTER:                  -5.786
REMARK INTRA:                  -1.526
REMARK UNBOUND:                -0.939
REMARK SMILES CCCCCC=CCC=CCCCCCCCC(=O)[O-]
REMARK SMILES IDX 11 1 12 2 13 3 14 4 15 5 16 6 17 7 18 8 19 9 20 10 10 11
REMARK SMILES IDX 9 12 8 13 7 14 6 15 5 16 4 17 3 18 2 19 1 20
REMARK H PARENT
REMARK Flexibility Score: inf
ROOT
ATOM      1  C   UNL     1       4.409  50.192 278.647  1.00  0.00     0.027 C 
ENDROOT
BRANCH   1   2
ATOM      2  C   UNL     1       4.333  48.839 279.365  1.00  0.00     0.004 C 
BRANCH   2   3
ATOM      3  C   UNL     1       2.944  48.626 279.987  1.00  0.00     0.000 C 
BRANCH   3   4
ATOM      4  C   UNL     1       2.928  47.504 281.038  1.00  0.00     0.000 C 
BRANCH   4   5
ATOM      5  C   UNL     1       3.714  47.811 282.327  1.00  0.00     0.000 C 
BRANCH   5   6
ATOM      6  C   UNL     1       3.131  48.981 283.148  1.00  0.00     0.006 C 
BRANCH   6   7
ATOM      7  C   UNL     1       4.216  49.769 283.894  1.00  0.00     0.053 C 
BRANCH   7   8
ATOM      8  C   UNL     1       3.984  49.711 285.371  1.00  0.00     0.041 C 
ATOM      9  O   UNL     1       4.187  48.641 286.002  1.00  0.00    -0.550 OA
ATOM     10  O   UNL     1       3.495  50.824 286.042  1.00  0.00    -0.550 OA
ENDBRANCH   7   8
ENDBRANCH   6   7
ENDBRANCH   5   6
ENDBRANCH   4   5
ENDBRANCH   3   4
ENDBRANCH   2   3
ENDBRANCH   1   2
BRANCH   1  11
ATOM     11  C   UNL     1       3.742  51.271 279.456  1.00  0.00    -0.031 C 
ATOM     12  C   UNL     1       4.337  51.815 280.528  1.00  0.00    -0.027 C 
BRANCH  12  13
ATOM     13  C   UNL     1       3.676  52.899 281.329  1.00  0.00     0.054 C 
BRANCH  13  14
ATOM     14  C   UNL     1       3.718  54.205 280.586  1.00  0.00    -0.027 C 
ATOM     15  C   UNL     1       4.876  54.738 280.168  1.00  0.00    -0.031 C 
BRANCH  15  16
ATOM     16  C   UNL     1       4.922  56.063 279.454  1.00  0.00     0.027 C 
BRANCH  16  17
ATOM     17  C   UNL     1       3.947  56.125 278.270  1.00  0.00     0.004 C 
BRANCH  17  18
ATOM     18  C   UNL     1       4.452  55.317 277.062  1.00  0.00     0.000 C 
BRANCH  18  19
ATOM     19  C   UNL     1       5.925  55.604 276.734  1.00  0.00    -0.003 C 
ATOM     20  C   UNL     1       6.163  55.842 275.242  1.00  0.00     0.004 C 
ENDBRANCH  18  19
ENDBRANCH  17  18
ENDBRANCH  16  17
ENDBRANCH  15  16
ENDBRANCH  13  14
ENDBRANCH  12  13
ENDBRANCH   1  11
TORSDOF 14
ENDMDL
MODEL 5
REMARK VINA RESULT:    -3.499      1.083      2.260
REMARK INTER + INTRA:          -7.301
REMARK INTER:                  -6.044
REMARK INTRA:                  -1.257
REMARK UNBOUND:                -0.939
REMARK SMILES CCCCCC=CCC=CCCCCCCCC(=O)[O-]
REMARK SMILES IDX 11 1 12 2 13 3 14 4 15 5 16 6 17 7 18 8 19 9 20 10 10 11
REMARK SMILES IDX 9 12 8 13 7 14 6 15 5 16 4 17 3 18 2 19 1 20
REMARK H PARENT
REMARK Flexibility Score: inf
ROOT
ATOM      1  C   UNL     1       4.726  50.968 281.050  1.00  0.00     0.027 C 
ENDROOT
BRANCH   1   2
ATOM      2  C   UNL     1       4.314  52.267 280.346  1.00  0.00     0.004 C 
BRANCH   2   3
ATOM      3  C   UNL     1       2.949  52.755 280.854  1.00  0.00     0.000 C 
BRANCH   3   4
ATOM      4  C   UNL     1       2.876  54.286 280.987  1.00  0.00     0.000 C 
BRANCH   4   5
ATOM      5  C   UNL     1       4.222  55.016 280.818  1.00  0.00     0.000 C 
BRANCH   5   6
ATOM      6  C   UNL     1       4.210  56.094 279.713  1.00  0.00     0.006 C 
BRANCH   6   7
ATOM      7  C   UNL     1       5.423  55.987 278.779  1.00  0.00     0.053 C 
BRANCH   7   8
ATOM      8  C   UNL     1       4.998  55.533 277.418  1.00  0.00     0.041 C 
ATOM      9  O   UNL     1       3.785  55.297 277.180  1.00  0.00    -0.550 OA
ATOM     10  O   UNL     1       5.949  55.322 276.428  1.00  0.00    -0.550 OA
ENDBRANCH   7   8
ENDBRANCH   6   7
ENDBRANCH   5   6
ENDBRANCH   4   5
ENDBRANCH   3   4
ENDBRANCH   2   3
ENDBRANCH   1   2
BRANCH   1  11
ATOM     11  C   UNL     1       3.699  49.890 280.838  1.00  0.00    -0.031 C 
ATOM     12  C   UNL     1       3.995  48.593 281.010  1.00  0.00    -0.027 C 
BRANCH  12  13
ATOM     13  C   UNL     1       2.967  47.517 280.809  1.00  0.00     0.054 C 
BRANCH  13  14
ATOM     14  C   UNL     1       3.107  46.451 281.858  1.00  0.00    -0.027 C 
ATOM     15  C   UNL     1       3.570  46.730 283.087  1.00  0.00    -0.031 C 
BRANCH  15  16
ATOM     16  C   UNL     1       3.744  45.656 284.128  1.00  0.00     0.027 C 
BRANCH  16  17
ATOM     17  C   UNL     1       4.106  46.229 285.505  1.00  0.00     0.004 C 
BRANCH  17  18
ATOM     18  C   UNL     1       3.222  47.429 285.884  1.00  0.00     0.000 C 
BRANCH  18  19
ATOM     19  C   UNL     1       4.043  48.687 286.206  1.00  0.00    -0.003 C 
ATOM     20  C   UNL     1       3.988  49.731 285.090  1.00  0.00     0.004 C 
ENDBRANCH  18  19
ENDBRANCH  17  18
ENDBRANCH  16  17
ENDBRANCH  15  16
ENDBRANCH  13  14
ENDBRANCH  12  13
ENDBRANCH   1  11
TORSDOF 14
ENDMDL
MODEL 6
REMARK VINA RESULT:    -3.476      1.557      2.945
REMARK INTER + INTRA:          -7.260
REMARK INTER:                  -6.307
REMARK INTRA:                  -0.953
REMARK UNBOUND:                -0.939
REMARK SMILES CCCCCC=CCC=CCCCCCCCC(=O)[O-]
REMARK SMILES IDX 11 1 12 2 13 3 14 4 15 5 16 6 17 7 18 8 19 9 20 10 10 11
REMARK SMILES IDX 9 12 8 13 7 14 6 15 5 16 4 17 3 18 2 19 1 20
REMARK H PARENT
REMARK Flexibility Score: inf
ROOT
ATOM      1  C   UNL     1       4.767  51.921 280.521  1.00  0.00     0.027 C 
ENDROOT
BRANCH   1   2
ATOM      2  C   UNL     1       3.553  52.496 281.262  1.00  0.00     0.004 C 
BRANCH   2   3
ATOM      3  C   UNL     1       3.460  54.016 281.063  1.00  0.00     0.000 C 
BRANCH   3   4
ATOM      4  C   UNL     1       4.406  54.532 279.965  1.00  0.00     0.000 C 
BRANCH   4   5
ATOM      5  C   UNL     1       3.730  54.824 278.612  1.00  0.00     0.000 C 
BRANCH   5   6
ATOM      6  C   UNL     1       4.266  56.088 277.908  1.00  0.00     0.006 C 
BRANCH   6   7
ATOM      7  C   UNL     1       4.481  55.873 276.403  1.00  0.00     0.053 C 
BRANCH   7   8
ATOM      8  C   UNL     1       5.933  55.674 276.104  1.00  0.00     0.041 C 
ATOM      9  O   UNL     1       6.788  55.771 277.023  1.00  0.00    -0.550 OA
ATOM     10  O   UNL     1       6.347  55.431 274.801  1.00  0.00    -0.550 OA
ENDBRANCH   7   8
ENDBRANCH   6   7
ENDBRANCH   5   6
ENDBRANCH   4   5
ENDBRANCH   3   4
ENDBRANCH   2   3
ENDBRANCH   1   2
BRANCH   1  11
ATOM     11  C   UNL     1       4.602  50.446 280.277  1.00  0.00    -0.031 C 
ATOM     12  C   UNL     1       3.937  49.661 281.137  1.00  0.00    -0.027 C 
BRANCH  12  13
ATOM     13  C   UNL     1       3.763  48.190 280.888  1.00  0.00     0.054 C 
BRANCH  13  14
ATOM     14  C   UNL     1       3.295  47.496 282.136  1.00  0.00    -0.027 C 
ATOM     15  C   UNL     1       3.796  47.805 283.342  1.00  0.00    -0.031 C 
BRANCH  15  16
ATOM     16  C   UNL     1       3.352  47.085 284.588  1.00  0.00     0.027 C 
BRANCH  16  17
ATOM     17  C   UNL     1       3.793  47.807 285.869  1.00  0.00     0.004 C 
BRANCH  17  18
ATOM     18  C   UNL     1       4.142  49.283 285.611  1.00  0.00     0.000 C 
BRANCH  18  19
ATOM     19  C   UNL     1       4.439  50.054 286.906  1.00  0.00    -0.003 C 
ATOM     20  C   UNL     1       5.841  50.665 286.923  1.00  0.00     0.004 C 
ENDBRANCH  18  19
ENDBRANCH  17  18
ENDBRANCH  16  17
ENDBRANCH  15  16
ENDBRANCH  13  14
ENDBRANCH  12  13
ENDBRANCH   1  11
TORSDOF 14
ENDMDL
MODEL 7
REMARK VINA RESULT:    -3.386      3.333      8.523
REMARK INTER + INTRA:          -7.095
REMARK INTER:                  -6.334
REMARK INTRA:                  -0.761
REMARK UNBOUND:                -0.939
REMARK SMILES CCCCCC=CCC=CCCCCCCCC(=O)[O-]
REMARK SMILES IDX 11 1 12 2 13 3 14 4 15 5 16 6 17 7 18 8 19 9 20 10 10 11
REMARK SMILES IDX 9 12 8 13 7 14 6 15 5 16 4 17 3 18 2 19 1 20
REMARK H PARENT
REMARK Flexibility Score: inf
ROOT
ATOM      1  C   UNL     1       3.930  47.810 280.900  1.00  0.00     0.027 C 
ENDROOT
BRANCH   1   2
ATOM      2  C   UNL     1       3.149  46.751 281.688  1.00  0.00     0.004 C 
BRANCH   2   3
ATOM      3  C   UNL     1       4.090  45.933 282.586  1.00  0.00     0.000 C 
BRANCH   3   4
ATOM      4  C   UNL     1       3.417  45.475 283.891  1.00  0.00     0.000 C 
BRANCH   4   5
ATOM      5  C   UNL     1       3.888  46.214 285.158  1.00  0.00     0.000 C 
BRANCH   5   6
ATOM      6  C   UNL     1       3.715  47.746 285.085  1.00  0.00     0.006 C 
BRANCH   6   7
ATOM      7  C   UNL     1       3.769  48.407 286.469  1.00  0.00     0.053 C 
BRANCH   7   8
ATOM      8  C   UNL     1       4.330  49.790 286.368  1.00  0.00     0.041 C 
ATOM      9  O   UNL     1       3.630  50.725 285.900  1.00  0.00    -0.550 OA
ATOM     10  O   UNL     1       5.645  50.036 286.743  1.00  0.00    -0.550 OA
ENDBRANCH   7   8
ENDBRANCH   6   7
ENDBRANCH   5   6
ENDBRANCH   4   5
ENDBRANCH   3   4
ENDBRANCH   2   3
ENDBRANCH   1   2
BRANCH   1  11
ATOM     11  C   UNL     1       3.562  49.198 281.348  1.00  0.00    -0.031 C 
ATOM     12  C   UNL     1       4.298  50.265 281.007  1.00  0.00    -0.027 C 
BRANCH  12  13
ATOM     13  C   UNL     1       3.925  51.652 281.445  1.00  0.00     0.054 C 
BRANCH  13  14
ATOM     14  C   UNL     1       4.468  52.673 280.486  1.00  0.00    -0.027 C 
ATOM     15  C   UNL     1       4.192  53.980 280.620  1.00  0.00    -0.031 C 
BRANCH  15  16
ATOM     16  C   UNL     1       4.708  55.000 279.639  1.00  0.00     0.027 C 
BRANCH  16  17
ATOM     17  C   UNL     1       4.001  54.913 278.279  1.00  0.00     0.004 C 
BRANCH  17  18
ATOM     18  C   UNL     1       4.531  55.960 277.284  1.00  0.00     0.000 C 
BRANCH  18  19
ATOM     19  C   UNL     1       5.847  55.528 276.620  1.00  0.00    -0.003 C 
ATOM     20  C   UNL     1       5.925  55.928 275.145  1.00  0.00     0.004 C 
ENDBRANCH  18  19
ENDBRANCH  17  18
ENDBRANCH  16  17
ENDBRANCH  15  16
ENDBRANCH  13  14
ENDBRANCH  12  13
ENDBRANCH   1  11
TORSDOF 14
ENDMDL
MODEL 8
REMARK VINA RESULT:    -3.304      4.225      9.407
REMARK INTER + INTRA:          -6.947
REMARK INTER:                  -6.077
REMARK INTRA:                  -0.870
REMARK UNBOUND:                -0.939
REMARK SMILES CCCCCC=CCC=CCCCCCCCC(=O)[O-]
REMARK SMILES IDX 11 1 12 2 13 3 14 4 15 5 16 6 17 7 18 8 19 9 20 10 10 11
REMARK SMILES IDX 9 12 8 13 7 14 6 15 5 16 4 17 3 18 2 19 1 20
REMARK H PARENT
REMARK Flexibility Score: inf
ROOT
ATOM      1  C   UNL     1       4.333  50.301 281.533  1.00  0.00     0.027 C 
ENDROOT
BRANCH   1   2
ATOM      2  C   UNL     1       4.231  50.009 280.031  1.00  0.00     0.004 C 
BRANCH   2   3
ATOM      3  C   UNL     1       3.975  48.515 279.781  1.00  0.00     0.000 C 
BRANCH   3   4
ATOM      4  C   UNL     1       2.996  47.900 280.794  1.00  0.00     0.000 C 
BRANCH   4   5
ATOM      5  C   UNL     1       3.603  46.819 281.709  1.00  0.00     0.000 C 
BRANCH   5   6
ATOM      6  C   UNL     1       3.167  46.936 283.185  1.00  0.00     0.006 C 
BRANCH   6   7
ATOM      7  C   UNL     1       3.770  45.830 284.062  1.00  0.00     0.053 C 
BRANCH   7   8
ATOM      8  C   UNL     1       3.816  46.263 285.493  1.00  0.00     0.041 C 
ATOM      9  O   UNL     1       4.031  47.469 285.784  1.00  0.00    -0.550 OA
ATOM     10  O   UNL     1       3.672  45.325 286.508  1.00  0.00    -0.550 OA
ENDBRANCH   7   8
ENDBRANCH   6   7
ENDBRANCH   5   6
ENDBRANCH   4   5
ENDBRANCH   3   4
ENDBRANCH   2   3
ENDBRANCH   1   2
BRANCH   1  11
ATOM     11  C   UNL     1       3.547  51.530 281.899  1.00  0.00    -0.031 C 
ATOM     12  C   UNL     1       3.668  52.673 281.208  1.00  0.00    -0.027 C 
BRANCH  12  13
ATOM     13  C   UNL     1       2.875  53.898 281.566  1.00  0.00     0.054 C 
BRANCH  13  14
ATOM     14  C   UNL     1       3.324  55.075 280.747  1.00  0.00    -0.027 C 
ATOM     15  C   UNL     1       3.615  54.953 279.443  1.00  0.00    -0.031 C 
BRANCH  15  16
ATOM     16  C   UNL     1       4.099  56.125 278.630  1.00  0.00     0.027 C 
BRANCH  16  17
ATOM     17  C   UNL     1       5.269  55.755 277.708  1.00  0.00     0.004 C 
BRANCH  17  18
ATOM     18  C   UNL     1       4.818  55.562 276.249  1.00  0.00     0.000 C 
BRANCH  18  19
ATOM     19  C   UNL     1       5.960  55.783 275.246  1.00  0.00    -0.003 C 
ATOM     20  C   UNL     1       7.342  55.584 275.869  1.00  0.00     0.004 C 
ENDBRANCH  18  19
ENDBRANCH  17  18
ENDBRANCH  16  17
ENDBRANCH  15  16
ENDBRANCH  13  14
ENDBRANCH  12  13
ENDBRANCH   1  11
TORSDOF 14
ENDMDL
MODEL 9
REMARK VINA RESULT:    -3.251      1.384      3.435
REMARK INTER + INTRA:          -6.850
REMARK INTER:                  -5.581
REMARK INTRA:                  -1.269
REMARK UNBOUND:                -0.939
REMARK SMILES CCCCCC=CCC=CCCCCCCCC(=O)[O-]
REMARK SMILES IDX 11 1 12 2 13 3 14 4 15 5 16 6 17 7 18 8 19 9 20 10 10 11
REMARK SMILES IDX 9 12 8 13 7 14 6 15 5 16 4 17 3 18 2 19 1 20
REMARK H PARENT
REMARK Flexibility Score: inf
ROOT
ATOM      1  C   UNL     1       4.421  50.225 282.314  1.00  0.00     0.027 C 
ENDROOT
BRANCH   1   2
ATOM      2  C   UNL     1       3.105  50.788 281.764  1.00  0.00     0.004 C 
BRANCH   2   3
ATOM      3  C   UNL     1       3.201  52.309 281.565  1.00  0.00     0.000 C 
BRANCH   3   4
ATOM      4  C   UNL     1       4.082  52.698 280.366  1.00  0.00     0.000 C 
BRANCH   4   5
ATOM      5  C   UNL     1       4.833  54.035 280.520  1.00  0.00     0.000 C 
BRANCH   5   6
ATOM      6  C   UNL     1       4.214  55.193 279.710  1.00  0.00     0.006 C 
BRANCH   6   7
ATOM      7  C   UNL     1       3.376  54.696 278.525  1.00  0.00     0.053 C 
BRANCH   7   8
ATOM      8  C   UNL     1       4.024  55.073 277.230  1.00  0.00     0.041 C 
ATOM      9  O   UNL     1       5.218  55.470 277.212  1.00  0.00    -0.550 OA
ATOM     10  O   UNL     1       3.293  55.034 276.050  1.00  0.00    -0.550 OA
ENDBRANCH   7   8
ENDBRANCH   6   7
ENDBRANCH   5   6
ENDBRANCH   4   5
ENDBRANCH   3   4
ENDBRANCH   2   3
ENDBRANCH   1   2
BRANCH   1  11
ATOM     11  C   UNL     1       4.287  49.857 283.765  1.00  0.00    -0.031 C 
ATOM     12  C   UNL     1       3.168  50.117 284.456  1.00  0.00    -0.027 C 
BRANCH  12  13
ATOM     13  C   UNL     1       3.030  49.740 285.903  1.00  0.00     0.054 C 
BRANCH  13  14
ATOM     14  C   UNL     1       2.890  48.251 286.050  1.00  0.00    -0.027 C 
ATOM     15  C   UNL     1       3.963  47.448 286.111  1.00  0.00    -0.031 C 
BRANCH  15  16
ATOM     16  C   UNL     1       3.823  45.952 286.222  1.00  0.00     0.027 C 
BRANCH  16  17
ATOM     17  C   UNL     1       3.508  45.292 284.872  1.00  0.00     0.004 C 
BRANCH  17  18
ATOM     18  C   UNL     1       4.223  45.992 283.704  1.00  0.00     0.000 C 
BRANCH  18  19
ATOM     19  C   UNL     1       3.614  45.634 282.340  1.00  0.00    -0.003 C 
ATOM     20  C   UNL     1       3.595  46.817 281.372  1.00  0.00     0.004 C 
ENDBRANCH  18  19
ENDBRANCH  17  18
ENDBRANCH  16  17
ENDBRANCH  15  16
ENDBRANCH  13  14
ENDBRANCH  12  13
ENDBRANCH   1  11
TORSDOF 14
ENDMDL
