MODEL 1
REMARK VINA RESULT:    -4.807      0.000      0.000
REMARK INTER + INTRA:         -14.210
REMARK INTER:                 -12.675
REMARK INTRA:                  -1.535
REMARK UNBOUND:                -1.535
REMARK SMILES CCCCCCCCCCCCCCCCCCCCCCCCCCCCCC(=O)[O-]
REMARK SMILES IDX 16 1 17 2 18 3 19 4 20 5 21 6 22 7 23 8 24 9 25 10 26 11
REMARK SMILES IDX 27 12 28 13 29 14 30 15 31 16 32 17 15 18 14 19 13 20 12 21
REMARK SMILES IDX 11 22 10 23 9 24 8 25 7 26 6 27 5 28 4 29 3 30 2 31 1 32
REMARK H PARENT
REMARK Flexibility Score: inf
ROOT
ATOM      1  C   UNL     1       1.971   1.260  17.326  1.00  0.00     0.000 C 
ENDROOT
BRANCH   1   2
ATOM      2  C   UNL     1       1.975   0.813  18.800  1.00  0.00     0.000 C 
BRANCH   2   3
ATOM      3  C   UNL     1       0.933  -0.287  19.084  1.00  0.00     0.000 C 
BRANCH   3   4
ATOM      4  C   UNL     1       1.562  -1.578  19.637  1.00  0.00     0.000 C 
BRANCH   4   5
ATOM      5  C   UNL     1       2.871  -1.311  20.411  1.00  0.00     0.000 C 
BRANCH   5   6
ATOM      6  C   UNL     1       3.605  -2.611  20.780  1.00  0.00     0.000 C 
BRANCH   6   7
ATOM      7  C   UNL     1       4.337  -2.481  22.128  1.00  0.00     0.000 C 
BRANCH   7   8
ATOM      8  C   UNL     1       5.833  -2.172  21.970  1.00  0.00     0.000 C 
BRANCH   8   9
ATOM      9  C   UNL     1       6.410  -2.702  20.650  1.00  0.00     0.000 C 
BRANCH   9  10
ATOM     10  C   UNL     1       6.666  -4.214  20.730  1.00  0.00     0.000 C 
BRANCH  10  11
ATOM     11  C   UNL     1       8.128  -4.576  20.417  1.00  0.00     0.000 C 
BRANCH  11  12
ATOM     12  C   UNL     1       8.658  -5.701  21.323  1.00  0.00     0.000 C 
BRANCH  12  13
ATOM     13  C   UNL     1       7.533  -6.491  22.010  1.00  0.00     0.006 C 
BRANCH  13  14
ATOM     14  C   UNL     1       7.325  -7.884  21.399  1.00  0.00     0.053 C 
BRANCH  14  15
ATOM     15  C   UNL     1       6.910  -8.868  22.449  1.00  0.00     0.041 C 
ATOM     16  O   UNL     1       6.264  -9.903  22.133  1.00  0.00    -0.550 OA
ATOM     17  O   UNL     1       7.242  -8.643  23.781  1.00  0.00    -0.550 OA
ENDBRANCH  14  15
ENDBRANCH  13  14
ENDBRANCH  12  13
ENDBRANCH  11  12
ENDBRANCH  10  11
ENDBRANCH   9  10
ENDBRANCH   8   9
ENDBRANCH   7   8
ENDBRANCH   6   7
ENDBRANCH   5   6
ENDBRANCH   4   5
ENDBRANCH   3   4
ENDBRANCH   2   3
ENDBRANCH   1   2
BRANCH   1  18
ATOM     18  C   UNL     1       0.890   2.312  17.033  1.00  0.00     0.000 C 
BRANCH  18  19
ATOM     19  C   UNL     1       0.905   3.474  18.035  1.00  0.00     0.000 C 
BRANCH  19  20
ATOM     20  C   UNL     1       1.396   4.765  17.365  1.00  0.00     0.000 C 
BRANCH  20  21
ATOM     21  C   UNL     1       1.911   5.804  18.378  1.00  0.00     0.000 C 
BRANCH  21  22
ATOM     22  C   UNL     1       0.918   6.936  18.706  1.00  0.00     0.000 C 
BRANCH  22  23
ATOM     23  C   UNL     1       1.062   8.206  17.842  1.00  0.00     0.000 C 
BRANCH  23  24
ATOM     24  C   UNL     1       1.106   7.956  16.322  1.00  0.00    -0.000 C 
BRANCH  24  25
ATOM     25  C   UNL     1       2.422   8.367  15.636  1.00  0.00    -0.000 C 
BRANCH  25  26
ATOM     26  C   UNL     1       2.875   7.398  14.524  1.00  0.00    -0.000 C 
BRANCH  26  27
ATOM     27  C   UNL     1       3.483   6.102  15.086  1.00  0.00    -0.000 C 
BRANCH  27  28
ATOM     28  C   UNL     1       4.417   5.405  14.085  1.00  0.00    -0.000 C 
BRANCH  28  29
ATOM     29  C   UNL     1       5.716   6.189  13.839  1.00  0.00    -0.000 C 
BRANCH  29  30
ATOM     30  C   UNL     1       6.784   5.290  13.196  1.00  0.00    -0.000 C 
BRANCH  30  31
ATOM     31  C   UNL     1       7.284   5.836  11.850  1.00  0.00    -0.003 C 
ATOM     32  C   UNL     1       8.239   4.877  11.140  1.00  0.00     0.004 C 
ENDBRANCH  30  31
ENDBRANCH  29  30
ENDBRANCH  28  29
ENDBRANCH  27  28
ENDBRANCH  26  27
ENDBRANCH  25  26
ENDBRANCH  24  25
ENDBRANCH  23  24
ENDBRANCH  22  23
ENDBRANCH  21  22
ENDBRANCH  20  21
ENDBRANCH  19  20
ENDBRANCH  18  19
ENDBRANCH   1  18
TORSDOF 28
ENDMDL
MODEL 2
REMARK VINA RESULT:    -4.166      4.835     12.349
REMARK INTER + INTRA:         -12.520
REMARK INTER:                 -10.624
REMARK INTRA:                  -1.895
REMARK UNBOUND:                -1.535
REMARK SMILES CCCCCCCCCCCCCCCCCCCCCCCCCCCCCC(=O)[O-]
REMARK SMILES IDX 16 1 17 2 18 3 19 4 20 5 21 6 22 7 23 8 24 9 25 10 26 11
REMARK SMILES IDX 27 12 28 13 29 14 30 15 31 16 32 17 15 18 14 19 13 20 12 21
REMARK SMILES IDX 11 22 10 23 9 24 8 25 7 26 6 27 5 28 4 29 3 30 2 31 1 32
REMARK H PARENT
REMARK Flexibility Score: inf
ROOT
ATOM      1  C   UNL     1       1.390   4.201  17.183  1.00  0.00     0.000 C 
ENDROOT
BRANCH   1   2
ATOM      2  C   UNL     1       1.971   5.328  18.057  1.00  0.00     0.000 C 
BRANCH   2   3
ATOM      3  C   UNL     1       0.875   6.161  18.750  1.00  0.00     0.000 C 
BRANCH   3   4
ATOM      4  C   UNL     1       0.957   7.659  18.409  1.00  0.00     0.000 C 
BRANCH   4   5
ATOM      5  C   UNL     1       0.967   7.917  16.886  1.00  0.00     0.000 C 
BRANCH   5   6
ATOM      6  C   UNL     1       2.287   8.546  16.411  1.00  0.00     0.000 C 
BRANCH   6   7
ATOM      7  C   UNL     1       2.350   8.631  14.875  1.00  0.00     0.000 C 
BRANCH   7   8
ATOM      8  C   UNL     1       2.848   7.332  14.223  1.00  0.00     0.000 C 
BRANCH   8   9
ATOM      9  C   UNL     1       3.784   6.532  15.140  1.00  0.00     0.000 C 
BRANCH   9  10
ATOM     10  C   UNL     1       4.483   5.405  14.364  1.00  0.00     0.000 C 
BRANCH  10  11
ATOM     11  C   UNL     1       5.465   5.945  13.310  1.00  0.00     0.000 C 
BRANCH  11  12
ATOM     12  C   UNL     1       6.917   5.523  13.597  1.00  0.00     0.000 C 
BRANCH  12  13
ATOM     13  C   UNL     1       7.483   4.575  12.529  1.00  0.00     0.006 C 
BRANCH  13  14
ATOM     14  C   UNL     1       8.241   5.316  11.418  1.00  0.00     0.053 C 
BRANCH  14  15
ATOM     15  C   UNL     1       8.230   4.522  10.147  1.00  0.00     0.041 C 
ATOM     16  O   UNL     1       7.169   3.968   9.752  1.00  0.00    -0.550 OA
ATOM     17  O   UNL     1       9.394   4.397   9.396  1.00  0.00    -0.550 OA
ENDBRANCH  14  15
ENDBRANCH  13  14
ENDBRANCH  12  13
ENDBRANCH  11  12
ENDBRANCH  10  11
ENDBRANCH   9  10
ENDBRANCH   8   9
ENDBRANCH   7   8
ENDBRANCH   6   7
ENDBRANCH   5   6
ENDBRANCH   4   5
ENDBRANCH   3   4
ENDBRANCH   2   3
ENDBRANCH   1   2
BRANCH   1  18
ATOM     18  C   UNL     1       1.251   2.875  17.948  1.00  0.00     0.000 C 
BRANCH  18  19
ATOM     19  C   UNL     1       0.986   1.680  17.023  1.00  0.00     0.000 C 
BRANCH  19  20
ATOM     20  C   UNL     1       1.546   0.387  17.630  1.00  0.00     0.000 C 
BRANCH  20  21
ATOM     21  C   UNL     1       1.392   0.331  19.161  1.00  0.00     0.000 C 
BRANCH  21  22
ATOM     22  C   UNL     1       2.333  -0.662  19.871  1.00  0.00     0.000 C 
BRANCH  22  23
ATOM     23  C   UNL     1       3.750  -0.769  19.269  1.00  0.00     0.000 C 
BRANCH  23  24
ATOM     24  C   UNL     1       4.706  -1.711  20.025  1.00  0.00    -0.000 C 
BRANCH  24  25
ATOM     25  C   UNL     1       4.359  -3.208  19.918  1.00  0.00    -0.000 C 
BRANCH  25  26
ATOM     26  C   UNL     1       5.021  -4.081  21.005  1.00  0.00    -0.000 C 
BRANCH  26  27
ATOM     27  C   UNL     1       6.365  -3.506  21.482  1.00  0.00    -0.000 C 
BRANCH  27  28
ATOM     28  C   UNL     1       7.568  -4.308  20.962  1.00  0.00    -0.000 C 
BRANCH  28  29
ATOM     29  C   UNL     1       7.204  -5.756  20.596  1.00  0.00    -0.000 C 
BRANCH  29  30
ATOM     30  C   UNL     1       7.815  -6.745  21.600  1.00  0.00    -0.000 C 
BRANCH  30  31
ATOM     31  C   UNL     1       7.291  -8.177  21.413  1.00  0.00    -0.003 C 
ATOM     32  C   UNL     1       6.636  -8.738  22.675  1.00  0.00     0.004 C 
ENDBRANCH  30  31
ENDBRANCH  29  30
ENDBRANCH  28  29
ENDBRANCH  27  28
ENDBRANCH  26  27
ENDBRANCH  25  26
ENDBRANCH  24  25
ENDBRANCH  23  24
ENDBRANCH  22  23
ENDBRANCH  21  22
ENDBRANCH  20  21
ENDBRANCH  19  20
ENDBRANCH  18  19
ENDBRANCH   1  18
TORSDOF 28
ENDMDL
MODEL 3
REMARK VINA RESULT:    -3.461      1.019      2.407
REMARK INTER + INTRA:         -10.662
REMARK INTER:                  -9.571
REMARK INTRA:                  -1.091
REMARK UNBOUND:                -1.535
REMARK SMILES CCCCCCCCCCCCCCCCCCCCCCCCCCCCCC(=O)[O-]
REMARK SMILES IDX 16 1 17 2 18 3 19 4 20 5 21 6 22 7 23 8 24 9 25 10 26 11
REMARK SMILES IDX 27 12 28 13 29 14 30 15 31 16 32 17 15 18 14 19 13 20 12 21
REMARK SMILES IDX 11 22 10 23 9 24 8 25 7 26 6 27 5 28 4 29 3 30 2 31 1 32
REMARK H PARENT
REMARK Flexibility Score: inf
ROOT
ATOM      1  C   UNL     1       1.751   4.139  17.530  1.00  0.00     0.000 C 
ENDROOT
BRANCH   1   2
ATOM      2  C   UNL     1       0.956   2.821  17.495  1.00  0.00     0.000 C 
BRANCH   2   3
ATOM      3  C   UNL     1       1.572   1.738  18.403  1.00  0.00     0.000 C 
BRANCH   3   4
ATOM      4  C   UNL     1       2.216   0.588  17.610  1.00  0.00     0.000 C 
BRANCH   4   5
ATOM      5  C   UNL     1       2.958  -0.414  18.521  1.00  0.00     0.000 C 
BRANCH   5   6
ATOM      6  C   UNL     1       2.000  -1.164  19.462  1.00  0.00     0.000 C 
BRANCH   6   7
ATOM      7  C   UNL     1       2.739  -2.246  20.272  1.00  0.00     0.000 C 
BRANCH   7   8
ATOM      8  C   UNL     1       4.266  -2.153  20.141  1.00  0.00     0.000 C 
BRANCH   8   9
ATOM      9  C   UNL     1       4.938  -1.637  21.421  1.00  0.00     0.000 C 
BRANCH   9  10
ATOM     10  C   UNL     1       5.499  -2.799  22.255  1.00  0.00     0.000 C 
BRANCH  10  11
ATOM     11  C   UNL     1       5.991  -3.963  21.376  1.00  0.00     0.000 C 
BRANCH  11  12
ATOM     12  C   UNL     1       7.501  -4.212  21.530  1.00  0.00     0.000 C 
BRANCH  12  13
ATOM     13  C   UNL     1       7.917  -5.629  21.105  1.00  0.00     0.006 C 
BRANCH  13  14
ATOM     14  C   UNL     1       6.749  -6.626  21.138  1.00  0.00     0.053 C 
BRANCH  14  15
ATOM     15  C   UNL     1       7.170  -7.915  21.775  1.00  0.00     0.041 C 
ATOM     16  O   UNL     1       7.234  -8.972  21.092  1.00  0.00    -0.550 OA
ATOM     17  O   UNL     1       7.495  -7.948  23.127  1.00  0.00    -0.550 OA
ENDBRANCH  14  15
ENDBRANCH  13  14
ENDBRANCH  12  13
ENDBRANCH  11  12
ENDBRANCH  10  11
ENDBRANCH   9  10
ENDBRANCH   8   9
ENDBRANCH   7   8
ENDBRANCH   6   7
ENDBRANCH   5   6
ENDBRANCH   4   5
ENDBRANCH   3   4
ENDBRANCH   2   3
ENDBRANCH   1   2
BRANCH   1  18
ATOM     18  C   UNL     1       0.935   5.304  18.111  1.00  0.00     0.000 C 
BRANCH  18  19
ATOM     19  C   UNL     1       0.876   6.515  17.171  1.00  0.00     0.000 C 
BRANCH  19  20
ATOM     20  C   UNL     1       0.925   7.826  17.968  1.00  0.00     0.000 C 
BRANCH  20  21
ATOM     21  C   UNL     1       0.876   9.074  17.067  1.00  0.00     0.000 C 
BRANCH  21  22
ATOM     22  C   UNL     1       2.224   9.467  16.430  1.00  0.00     0.000 C 
BRANCH  22  23
ATOM     23  C   UNL     1       2.404   9.042  14.958  1.00  0.00     0.000 C 
BRANCH  23  24
ATOM     24  C   UNL     1       2.520   7.523  14.731  1.00  0.00    -0.000 C 
BRANCH  24  25
ATOM     25  C   UNL     1       3.534   6.808  15.643  1.00  0.00    -0.000 C 
BRANCH  25  26
ATOM     26  C   UNL     1       4.199   5.577  14.991  1.00  0.00    -0.000 C 
BRANCH  26  27
ATOM     27  C   UNL     1       4.776   5.888  13.600  1.00  0.00    -0.000 C 
BRANCH  27  28
ATOM     28  C   UNL     1       6.312   5.892  13.585  1.00  0.00    -0.000 C 
BRANCH  28  29
ATOM     29  C   UNL     1       6.899   4.932  12.539  1.00  0.00    -0.000 C 
BRANCH  29  30
ATOM     30  C   UNL     1       7.872   5.669  11.605  1.00  0.00    -0.000 C 
BRANCH  30  31
ATOM     31  C   UNL     1       8.736   4.707  10.774  1.00  0.00    -0.003 C 
ATOM     32  C   UNL     1       7.940   3.983   9.689  1.00  0.00     0.004 C 
ENDBRANCH  30  31
ENDBRANCH  29  30
ENDBRANCH  28  29
ENDBRANCH  27  28
ENDBRANCH  26  27
ENDBRANCH  25  26
ENDBRANCH  24  25
ENDBRANCH  23  24
ENDBRANCH  22  23
ENDBRANCH  21  22
ENDBRANCH  20  21
ENDBRANCH  19  20
ENDBRANCH  18  19
ENDBRANCH   1  18
TORSDOF 28
ENDMDL
MODEL 4
REMARK VINA RESULT:    -3.421      4.894     12.185
REMARK INTER + INTRA:         -10.554
REMARK INTER:                  -9.222
REMARK INTRA:                  -1.332
REMARK UNBOUND:                -1.535
REMARK SMILES CCCCCCCCCCCCCCCCCCCCCCCCCCCCCC(=O)[O-]
REMARK SMILES IDX 16 1 17 2 18 3 19 4 20 5 21 6 22 7 23 8 24 9 25 10 26 11
REMARK SMILES IDX 27 12 28 13 29 14 30 15 31 16 32 17 15 18 14 19 13 20 12 21
REMARK SMILES IDX 11 22 10 23 9 24 8 25 7 26 6 27 5 28 4 29 3 30 2 31 1 32
REMARK H PARENT
REMARK Flexibility Score: inf
ROOT
ATOM      1  C   UNL     1       0.883   4.850  17.495  1.00  0.00     0.000 C 
ENDROOT
BRANCH   1   2
ATOM      2  C   UNL     1       1.695   6.126  17.791  1.00  0.00     0.000 C 
BRANCH   2   3
ATOM      3  C   UNL     1       1.035   7.391  17.209  1.00  0.00     0.000 C 
BRANCH   3   4
ATOM      4  C   UNL     1       1.718   7.883  15.921  1.00  0.00     0.000 C 
BRANCH   4   5
ATOM      5  C   UNL     1       2.385   6.734  15.133  1.00  0.00     0.000 C 
BRANCH   5   6
ATOM      6  C   UNL     1       3.837   7.060  14.746  1.00  0.00     0.000 C 
BRANCH   6   7
ATOM      7  C   UNL     1       4.645   5.780  14.460  1.00  0.00     0.000 C 
BRANCH   7   8
ATOM      8  C   UNL     1       5.779   6.002  13.448  1.00  0.00     0.000 C 
BRANCH   8   9
ATOM      9  C   UNL     1       6.836   4.890  13.492  1.00  0.00     0.000 C 
BRANCH   9  10
ATOM     10  C   UNL     1       7.965   5.164  12.486  1.00  0.00     0.000 C 
BRANCH  10  11
ATOM     11  C   UNL     1       7.429   5.464  11.075  1.00  0.00     0.000 C 
BRANCH  11  12
ATOM     12  C   UNL     1       8.014   4.514  10.015  1.00  0.00     0.000 C 
BRANCH  12  13
ATOM     13  C   UNL     1       9.435   4.042  10.360  1.00  0.00     0.006 C 
BRANCH  13  14
ATOM     14  C   UNL     1      10.372   4.041   9.144  1.00  0.00     0.053 C 
BRANCH  14  15
ATOM     15  C   UNL     1      11.662   3.353   9.468  1.00  0.00     0.041 C 
ATOM     16  O   UNL     1      12.680   4.024   9.789  1.00  0.00    -0.550 OA
ATOM     17  O   UNL     1      11.740   1.965   9.421  1.00  0.00    -0.550 OA
ENDBRANCH  14  15
ENDBRANCH  13  14
ENDBRANCH  12  13
ENDBRANCH  11  12
ENDBRANCH  10  11
ENDBRANCH   9  10
ENDBRANCH   8   9
ENDBRANCH   7   8
ENDBRANCH   6   7
ENDBRANCH   5   6
ENDBRANCH   4   5
ENDBRANCH   3   4
ENDBRANCH   2   3
ENDBRANCH   1   2
BRANCH   1  18
ATOM     18  C   UNL     1       1.699   3.568  17.721  1.00  0.00     0.000 C 
BRANCH  18  19
ATOM     19  C   UNL     1       0.877   2.293  17.492  1.00  0.00     0.000 C 
BRANCH  19  20
ATOM     20  C   UNL     1       1.797   1.080  17.292  1.00  0.00     0.000 C 
BRANCH  20  21
ATOM     21  C   UNL     1       1.332  -0.157  18.081  1.00  0.00     0.000 C 
BRANCH  21  22
ATOM     22  C   UNL     1       1.933  -0.287  19.495  1.00  0.00     0.000 C 
BRANCH  22  23
ATOM     23  C   UNL     1       2.422  -1.701  19.873  1.00  0.00     0.000 C 
BRANCH  23  24
ATOM     24  C   UNL     1       3.158  -1.793  21.223  1.00  0.00    -0.000 C 
BRANCH  24  25
ATOM     25  C   UNL     1       4.159  -2.958  21.337  1.00  0.00    -0.000 C 
BRANCH  25  26
ATOM     26  C   UNL     1       5.211  -2.771  22.451  1.00  0.00    -0.000 C 
BRANCH  26  27
ATOM     27  C   UNL     1       6.651  -2.819  21.912  1.00  0.00    -0.000 C 
BRANCH  27  28
ATOM     28  C   UNL     1       6.710  -3.154  20.414  1.00  0.00    -0.000 C 
BRANCH  28  29
ATOM     29  C   UNL     1       7.843  -4.134  20.069  1.00  0.00    -0.000 C 
BRANCH  29  30
ATOM     30  C   UNL     1       7.986  -5.210  21.157  1.00  0.00    -0.000 C 
BRANCH  30  31
ATOM     31  C   UNL     1       6.828  -6.219  21.146  1.00  0.00    -0.003 C 
ATOM     32  C   UNL     1       7.289  -7.652  21.415  1.00  0.00     0.004 C 
ENDBRANCH  30  31
ENDBRANCH  29  30
ENDBRANCH  28  29
ENDBRANCH  27  28
ENDBRANCH  26  27
ENDBRANCH  25  26
ENDBRANCH  24  25
ENDBRANCH  23  24
ENDBRANCH  22  23
ENDBRANCH  21  22
ENDBRANCH  20  21
ENDBRANCH  19  20
ENDBRANCH  18  19
ENDBRANCH   1  18
TORSDOF 28
ENDMDL
MODEL 5
REMARK VINA RESULT:    -2.737      5.696     11.174
REMARK INTER + INTRA:          -8.751
REMARK INTER:                  -6.612
REMARK INTRA:                  -2.139
REMARK UNBOUND:                -1.535
REMARK SMILES CCCCCCCCCCCCCCCCCCCCCCCCCCCCCC(=O)[O-]
REMARK SMILES IDX 16 1 17 2 18 3 19 4 20 5 21 6 22 7 23 8 24 9 25 10 26 11
REMARK SMILES IDX 27 12 28 13 29 14 30 15 31 16 32 17 15 18 14 19 13 20 12 21
REMARK SMILES IDX 11 22 10 23 9 24 8 25 7 26 6 27 5 28 4 29 3 30 2 31 1 32
REMARK H PARENT
REMARK Flexibility Score: inf
ROOT
ATOM      1  C   UNL     1       1.088  -0.815  18.846  1.00  0.00     0.000 C 
ENDROOT
BRANCH   1   2
ATOM      2  C   UNL     1       1.728   0.206  17.886  1.00  0.00     0.000 C 
BRANCH   2   3
ATOM      3  C   UNL     1       2.880   0.991  18.544  1.00  0.00     0.000 C 
BRANCH   3   4
ATOM      4  C   UNL     1       4.259   0.625  17.969  1.00  0.00     0.000 C 
BRANCH   4   5
ATOM      5  C   UNL     1       5.154  -0.097  19.000  1.00  0.00     0.000 C 
BRANCH   5   6
ATOM      6  C   UNL     1       5.793   0.879  20.002  1.00  0.00     0.000 C 
BRANCH   6   7
ATOM      7  C   UNL     1       7.322   0.707  20.060  1.00  0.00     0.000 C 
BRANCH   7   8
ATOM      8  C   UNL     1       8.039   1.315  18.845  1.00  0.00     0.000 C 
BRANCH   8   9
ATOM      9  C   UNL     1       9.444   1.830  19.186  1.00  0.00     0.000 C 
BRANCH   9  10
ATOM     10  C   UNL     1      10.146   2.381  17.935  1.00  0.00     0.000 C 
BRANCH  10  11
ATOM     11  C   UNL     1      10.979   1.307  17.214  1.00  0.00     0.000 C 
BRANCH  11  12
ATOM     12  C   UNL     1      12.361   1.832  16.786  1.00  0.00     0.000 C 
BRANCH  12  13
ATOM     13  C   UNL     1      13.473   0.785  16.956  1.00  0.00     0.006 C 
BRANCH  13  14
ATOM     14  C   UNL     1      14.879   1.403  16.940  1.00  0.00     0.053 C 
BRANCH  14  15
ATOM     15  C   UNL     1      15.907   0.395  17.353  1.00  0.00     0.041 C 
ATOM     16  O   UNL     1      16.277  -0.503  16.549  1.00  0.00    -0.550 OA
ATOM     17  O   UNL     1      16.460   0.449  18.627  1.00  0.00    -0.550 OA
ENDBRANCH  14  15
ENDBRANCH  13  14
ENDBRANCH  12  13
ENDBRANCH  11  12
ENDBRANCH  10  11
ENDBRANCH   9  10
ENDBRANCH   8   9
ENDBRANCH   7   8
ENDBRANCH   6   7
ENDBRANCH   5   6
ENDBRANCH   4   5
ENDBRANCH   3   4
ENDBRANCH   2   3
ENDBRANCH   1   2
BRANCH   1  18
ATOM     18  C   UNL     1       1.712  -0.774  20.250  1.00  0.00     0.000 C 
BRANCH  18  19
ATOM     19  C   UNL     1       2.842  -1.797  20.428  1.00  0.00     0.000 C 
BRANCH  19  20
ATOM     20  C   UNL     1       3.247  -1.909  21.904  1.00  0.00     0.000 C 
BRANCH  20  21
ATOM     21  C   UNL     1       4.390  -2.914  22.134  1.00  0.00     0.000 C 
BRANCH  21  22
ATOM     22  C   UNL     1       5.776  -2.278  22.359  1.00  0.00     0.000 C 
BRANCH  22  23
ATOM     23  C   UNL     1       6.875  -2.732  21.376  1.00  0.00     0.000 C 
BRANCH  23  24
ATOM     24  C   UNL     1       6.385  -3.021  19.944  1.00  0.00    -0.000 C 
BRANCH  24  25
ATOM     25  C   UNL     1       6.433  -4.504  19.531  1.00  0.00    -0.000 C 
BRANCH  25  26
ATOM     26  C   UNL     1       6.487  -5.483  20.723  1.00  0.00    -0.000 C 
BRANCH  26  27
ATOM     27  C   UNL     1       7.925  -5.752  21.197  1.00  0.00    -0.000 C 
BRANCH  27  28
ATOM     28  C   UNL     1       8.076  -7.121  21.878  1.00  0.00    -0.000 C 
BRANCH  28  29
ATOM     29  C   UNL     1       7.475  -8.267  21.049  1.00  0.00    -0.000 C 
BRANCH  29  30
ATOM     30  C   UNL     1       7.148  -9.474  21.942  1.00  0.00    -0.000 C 
BRANCH  30  31
ATOM     31  C   UNL     1       6.691  -9.062  23.350  1.00  0.00    -0.003 C 
ATOM     32  C   UNL     1       5.253  -8.544  23.377  1.00  0.00     0.004 C 
ENDBRANCH  30  31
ENDBRANCH  29  30
ENDBRANCH  28  29
ENDBRANCH  27  28
ENDBRANCH  26  27
ENDBRANCH  25  26
ENDBRANCH  24  25
ENDBRANCH  23  24
ENDBRANCH  22  23
ENDBRANCH  21  22
ENDBRANCH  20  21
ENDBRANCH  19  20
ENDBRANCH  18  19
ENDBRANCH   1  18
TORSDOF 28
ENDMDL
MODEL 6
REMARK VINA RESULT:    -2.690      6.887     10.775
REMARK INTER + INTRA:          -8.627
REMARK INTER:                  -6.624
REMARK INTRA:                  -2.003
REMARK UNBOUND:                -1.535
REMARK SMILES CCCCCCCCCCCCCCCCCCCCCCCCCCCCCC(=O)[O-]
REMARK SMILES IDX 16 1 17 2 18 3 19 4 20 5 21 6 22 7 23 8 24 9 25 10 26 11
REMARK SMILES IDX 27 12 28 13 29 14 30 15 31 16 32 17 15 18 14 19 13 20 12 21
REMARK SMILES IDX 11 22 10 23 9 24 8 25 7 26 6 27 5 28 4 29 3 30 2 31 1 32
REMARK H PARENT
REMARK Flexibility Score: inf
ROOT
ATOM      1  C   UNL     1       6.879  -2.688  20.737  1.00  0.00     0.000 C 
ENDROOT
BRANCH   1   2
ATOM      2  C   UNL     1       6.185  -4.049  20.539  1.00  0.00     0.000 C 
BRANCH   2   3
ATOM      3  C   UNL     1       5.457  -4.147  19.184  1.00  0.00     0.000 C 
BRANCH   3   4
ATOM      4  C   UNL     1       4.469  -2.990  18.952  1.00  0.00     0.000 C 
BRANCH   4   5
ATOM      5  C   UNL     1       3.246  -3.063  19.892  1.00  0.00     0.000 C 
BRANCH   5   6
ATOM      6  C   UNL     1       2.684  -1.670  20.225  1.00  0.00     0.000 C 
BRANCH   6   7
ATOM      7  C   UNL     1       2.431  -0.845  18.949  1.00  0.00     0.000 C 
BRANCH   7   8
ATOM      8  C   UNL     1       1.075  -0.124  18.962  1.00  0.00     0.000 C 
BRANCH   8   9
ATOM      9  C   UNL     1       0.909   0.842  17.781  1.00  0.00     0.000 C 
BRANCH   9  10
ATOM     10  C   UNL     1       1.399   2.250  18.150  1.00  0.00     0.000 C 
BRANCH  10  11
ATOM     11  C   UNL     1       0.876   3.323  17.178  1.00  0.00     0.000 C 
BRANCH  11  12
ATOM     12  C   UNL     1       0.995   4.743  17.759  1.00  0.00     0.000 C 
BRANCH  12  13
ATOM     13  C   UNL     1       2.161   5.539  17.153  1.00  0.00     0.006 C 
BRANCH  13  14
ATOM     14  C   UNL     1       1.913   7.054  17.158  1.00  0.00     0.053 C 
BRANCH  14  15
ATOM     15  C   UNL     1       2.302   7.659  15.844  1.00  0.00     0.041 C 
ATOM     16  O   UNL     1       2.713   6.929  14.903  1.00  0.00    -0.550 OA
ATOM     17  O   UNL     1       2.206   9.034  15.657  1.00  0.00    -0.550 OA
ENDBRANCH  14  15
ENDBRANCH  13  14
ENDBRANCH  12  13
ENDBRANCH  11  12
ENDBRANCH  10  11
ENDBRANCH   9  10
ENDBRANCH   8   9
ENDBRANCH   7   8
ENDBRANCH   6   7
ENDBRANCH   5   6
ENDBRANCH   4   5
ENDBRANCH   3   4
ENDBRANCH   2   3
ENDBRANCH   1   2
BRANCH   1  18
ATOM     18  C   UNL     1       6.145  -1.794  21.749  1.00  0.00     0.000 C 
BRANCH  18  19
ATOM     19  C   UNL     1       6.155  -0.313  21.349  1.00  0.00     0.000 C 
BRANCH  19  20
ATOM     20  C   UNL     1       5.954  -0.155  19.836  1.00  0.00     0.000 C 
BRANCH  20  21
ATOM     21  C   UNL     1       7.007   0.762  19.187  1.00  0.00     0.000 C 
BRANCH  21  22
ATOM     22  C   UNL     1       8.106   1.265  20.144  1.00  0.00     0.000 C 
BRANCH  22  23
ATOM     23  C   UNL     1       9.504   1.426  19.512  1.00  0.00     0.000 C 
BRANCH  23  24
ATOM     24  C   UNL     1       9.800   2.824  18.939  1.00  0.00    -0.000 C 
BRANCH  24  25
ATOM     25  C   UNL     1      10.269   2.837  17.472  1.00  0.00    -0.000 C 
BRANCH  25  26
ATOM     26  C   UNL     1      11.012   1.553  17.043  1.00  0.00    -0.000 C 
BRANCH  26  27
ATOM     27  C   UNL     1      12.440   1.839  16.550  1.00  0.00    -0.000 C 
BRANCH  27  28
ATOM     28  C   UNL     1      13.435   0.739  16.950  1.00  0.00    -0.000 C 
BRANCH  28  29
ATOM     29  C   UNL     1      14.899   1.192  16.838  1.00  0.00    -0.000 C 
BRANCH  29  30
ATOM     30  C   UNL     1      15.854   0.072  17.281  1.00  0.00    -0.000 C 
BRANCH  30  31
ATOM     31  C   UNL     1      17.000   0.587  18.164  1.00  0.00    -0.003 C 
ATOM     32  C   UNL     1      18.379   0.216  17.620  1.00  0.00     0.004 C 
ENDBRANCH  30  31
ENDBRANCH  29  30
ENDBRANCH  28  29
ENDBRANCH  27  28
ENDBRANCH  26  27
ENDBRANCH  25  26
ENDBRANCH  24  25
ENDBRANCH  23  24
ENDBRANCH  22  23
ENDBRANCH  21  22
ENDBRANCH  20  21
ENDBRANCH  19  20
ENDBRANCH  18  19
ENDBRANCH   1  18
TORSDOF 28
ENDMDL
MODEL 7
REMARK VINA RESULT:    -2.341     15.598     19.677
REMARK INTER + INTRA:          -7.707
REMARK INTER:                  -6.371
REMARK INTRA:                  -1.336
REMARK UNBOUND:                -1.535
REMARK SMILES CCCCCCCCCCCCCCCCCCCCCCCCCCCCCC(=O)[O-]
REMARK SMILES IDX 16 1 17 2 18 3 19 4 20 5 21 6 22 7 23 8 24 9 25 10 26 11
REMARK SMILES IDX 27 12 28 13 29 14 30 15 31 16 32 17 15 18 14 19 13 20 12 21
REMARK SMILES IDX 11 22 10 23 9 24 8 25 7 26 6 27 5 28 4 29 3 30 2 31 1 32
REMARK H PARENT
REMARK Flexibility Score: inf
ROOT
ATOM      1  C   UNL     1      12.667  -6.634   5.102  1.00  0.00     0.000 C 
ENDROOT
BRANCH   1   2
ATOM      2  C   UNL     1      12.401  -7.050   6.562  1.00  0.00     0.000 C 
BRANCH   2   3
ATOM      3  C   UNL     1      11.395  -8.213   6.668  1.00  0.00     0.000 C 
BRANCH   3   4
ATOM      4  C   UNL     1      10.273  -8.130   5.619  1.00  0.00     0.000 C 
BRANCH   4   5
ATOM      5  C   UNL     1       9.911  -6.673   5.256  1.00  0.00     0.000 C 
BRANCH   5   6
ATOM      6  C   UNL     1       8.543  -6.569   4.562  1.00  0.00     0.000 C 
BRANCH   6   7
ATOM      7  C   UNL     1       7.425  -7.182   5.425  1.00  0.00     0.000 C 
BRANCH   7   8
ATOM      8  C   UNL     1       6.736  -8.378   4.752  1.00  0.00     0.000 C 
BRANCH   8   9
ATOM      9  C   UNL     1       5.948  -9.242   5.745  1.00  0.00     0.000 C 
BRANCH   9  10
ATOM     10  C   UNL     1       4.704  -9.850   5.079  1.00  0.00     0.000 C 
BRANCH  10  11
ATOM     11  C   UNL     1       3.403  -9.442   5.792  1.00  0.00     0.000 C 
BRANCH  11  12
ATOM     12  C   UNL     1       2.266  -9.137   4.801  1.00  0.00     0.000 C 
BRANCH  12  13
ATOM     13  C   UNL     1       1.878  -7.651   4.779  1.00  0.00     0.006 C 
BRANCH  13  14
ATOM     14  C   UNL     1       3.097  -6.718   4.755  1.00  0.00     0.053 C 
BRANCH  14  15
ATOM     15  C   UNL     1       2.868  -5.522   5.628  1.00  0.00     0.041 C 
ATOM     16  O   UNL     1       3.505  -5.389   6.707  1.00  0.00    -0.550 OA
ATOM     17  O   UNL     1       1.950  -4.549   5.246  1.00  0.00    -0.550 OA
ENDBRANCH  14  15
ENDBRANCH  13  14
ENDBRANCH  12  13
ENDBRANCH  11  12
ENDBRANCH  10  11
ENDBRANCH   9  10
ENDBRANCH   8   9
ENDBRANCH   7   8
ENDBRANCH   6   7
ENDBRANCH   5   6
ENDBRANCH   4   5
ENDBRANCH   3   4
ENDBRANCH   2   3
ENDBRANCH   1   2
BRANCH   1  18
ATOM     18  C   UNL     1      14.092  -6.979   4.642  1.00  0.00     0.000 C 
BRANCH  18  19
ATOM     19  C   UNL     1      14.173  -8.334   3.926  1.00  0.00     0.000 C 
BRANCH  19  20
ATOM     20  C   UNL     1      13.943  -9.487   4.913  1.00  0.00     0.000 C 
BRANCH  20  21
ATOM     21  C   UNL     1      15.256 -10.077   5.458  1.00  0.00     0.000 C 
BRANCH  21  22
ATOM     22  C   UNL     1      15.985  -9.192   6.490  1.00  0.00     0.000 C 
BRANCH  22  23
ATOM     23  C   UNL     1      17.475  -8.927   6.192  1.00  0.00     0.000 C 
BRANCH  23  24
ATOM     24  C   UNL     1      17.870  -9.040   4.707  1.00  0.00    -0.000 C 
BRANCH  24  25
ATOM     25  C   UNL     1      17.735  -7.734   3.900  1.00  0.00    -0.000 C 
BRANCH  25  26
ATOM     26  C   UNL     1      18.862  -6.715   4.171  1.00  0.00    -0.000 C 
BRANCH  26  27
ATOM     27  C   UNL     1      18.430  -5.269   3.875  1.00  0.00    -0.000 C 
BRANCH  27  28
ATOM     28  C   UNL     1      17.894  -4.546   5.120  1.00  0.00    -0.000 C 
BRANCH  28  29
ATOM     29  C   UNL     1      17.040  -5.458   6.016  1.00  0.00    -0.000 C 
BRANCH  29  30
ATOM     30  C   UNL     1      17.447  -5.314   7.490  1.00  0.00    -0.000 C 
BRANCH  30  31
ATOM     31  C   UNL     1      16.468  -6.014   8.445  1.00  0.00    -0.003 C 
ATOM     32  C   UNL     1      15.167  -6.430   7.759  1.00  0.00     0.004 C 
ENDBRANCH  30  31
ENDBRANCH  29  30
ENDBRANCH  28  29
ENDBRANCH  27  28
ENDBRANCH  26  27
ENDBRANCH  25  26
ENDBRANCH  24  25
ENDBRANCH  23  24
ENDBRANCH  22  23
ENDBRANCH  21  22
ENDBRANCH  20  21
ENDBRANCH  19  20
ENDBRANCH  18  19
ENDBRANCH   1  18
TORSDOF 28
ENDMDL
MODEL 8
REMARK VINA RESULT:    -2.304      3.520      7.033
REMARK INTER + INTRA:          -7.611
REMARK INTER:                  -7.313
REMARK INTRA:                  -0.297
REMARK UNBOUND:                -1.535
REMARK SMILES CCCCCCCCCCCCCCCCCCCCCCCCCCCCCC(=O)[O-]
REMARK SMILES IDX 16 1 17 2 18 3 19 4 20 5 21 6 22 7 23 8 24 9 25 10 26 11
REMARK SMILES IDX 27 12 28 13 29 14 30 15 31 16 32 17 15 18 14 19 13 20 12 21
REMARK SMILES IDX 11 22 10 23 9 24 8 25 7 26 6 27 5 28 4 29 3 30 2 31 1 32
REMARK H PARENT
REMARK Flexibility Score: inf
ROOT
ATOM      1  C   UNL     1       6.940  -4.323  18.723  1.00  0.00     0.000 C 
ENDROOT
BRANCH   1   2
ATOM      2  C   UNL     1       8.000  -4.029  19.802  1.00  0.00     0.000 C 
BRANCH   2   3
ATOM      3  C   UNL     1       7.719  -4.775  21.122  1.00  0.00     0.000 C 
BRANCH   3   4
ATOM      4  C   UNL     1       8.835  -5.765  21.498  1.00  0.00     0.000 C 
BRANCH   4   5
ATOM      5  C   UNL     1       8.292  -7.023  22.210  1.00  0.00     0.000 C 
BRANCH   5   6
ATOM      6  C   UNL     1       7.283  -7.793  21.343  1.00  0.00     0.000 C 
BRANCH   6   7
ATOM      7  C   UNL     1       6.098  -8.310  22.180  1.00  0.00     0.000 C 
BRANCH   7   8
ATOM      8  C   UNL     1       5.096  -7.205  22.545  1.00  0.00     0.000 C 
BRANCH   8   9
ATOM      9  C   UNL     1       5.210  -5.978  21.630  1.00  0.00     0.000 C 
BRANCH   9  10
ATOM     10  C   UNL     1       4.558  -4.747  22.277  1.00  0.00     0.000 C 
BRANCH  10  11
ATOM     11  C   UNL     1       5.519  -3.547  22.345  1.00  0.00     0.000 C 
BRANCH  11  12
ATOM     12  C   UNL     1       4.778  -2.201  22.257  1.00  0.00     0.000 C 
BRANCH  12  13
ATOM     13  C   UNL     1       5.711  -1.030  21.912  1.00  0.00     0.006 C 
BRANCH  13  14
ATOM     14  C   UNL     1       6.204  -1.071  20.458  1.00  0.00     0.053 C 
BRANCH  14  15
ATOM     15  C   UNL     1       6.223   0.304  19.865  1.00  0.00     0.041 C 
ATOM     16  O   UNL     1       7.265   1.010  19.926  1.00  0.00    -0.550 OA
ATOM     17  O   UNL     1       5.087   0.807  19.240  1.00  0.00    -0.550 OA
ENDBRANCH  14  15
ENDBRANCH  13  14
ENDBRANCH  12  13
ENDBRANCH  11  12
ENDBRANCH  10  11
ENDBRANCH   9  10
ENDBRANCH   8   9
ENDBRANCH   7   8
ENDBRANCH   6   7
ENDBRANCH   5   6
ENDBRANCH   4   5
ENDBRANCH   3   4
ENDBRANCH   2   3
ENDBRANCH   1   2
BRANCH   1  18
ATOM     18  C   UNL     1       5.506  -4.233  19.267  1.00  0.00     0.000 C 
BRANCH  18  19
ATOM     19  C   UNL     1       4.623  -3.275  18.457  1.00  0.00     0.000 C 
BRANCH  19  20
ATOM     20  C   UNL     1       3.482  -2.722  19.323  1.00  0.00     0.000 C 
BRANCH  20  21
ATOM     21  C   UNL     1       2.782  -1.509  18.684  1.00  0.00     0.000 C 
BRANCH  21  22
ATOM     22  C   UNL     1       1.996  -0.621  19.669  1.00  0.00     0.000 C 
BRANCH  22  23
ATOM     23  C   UNL     1       1.130   0.477  19.016  1.00  0.00     0.000 C 
BRANCH  23  24
ATOM     24  C   UNL     1       1.841   1.301  17.926  1.00  0.00    -0.000 C 
BRANCH  24  25
ATOM     25  C   UNL     1       0.974   2.394  17.273  1.00  0.00    -0.000 C 
BRANCH  25  26
ATOM     26  C   UNL     1       1.060   3.763  17.980  1.00  0.00    -0.000 C 
BRANCH  26  27
ATOM     27  C   UNL     1       1.058   4.938  16.987  1.00  0.00    -0.000 C 
BRANCH  27  28
ATOM     28  C   UNL     1       2.175   5.953  17.270  1.00  0.00    -0.000 C 
BRANCH  28  29
ATOM     29  C   UNL     1       2.971   6.328  16.009  1.00  0.00    -0.000 C 
BRANCH  29  30
ATOM     30  C   UNL     1       2.085   7.086  15.008  1.00  0.00    -0.000 C 
BRANCH  30  31
ATOM     31  C   UNL     1       2.406   8.587  14.953  1.00  0.00    -0.003 C 
ATOM     32  C   UNL     1       1.825   9.361  16.137  1.00  0.00     0.004 C 
ENDBRANCH  30  31
ENDBRANCH  29  30
ENDBRANCH  28  29
ENDBRANCH  27  28
ENDBRANCH  26  27
ENDBRANCH  25  26
ENDBRANCH  24  25
ENDBRANCH  23  24
ENDBRANCH  22  23
ENDBRANCH  21  22
ENDBRANCH  20  21
ENDBRANCH  19  20
ENDBRANCH  18  19
ENDBRANCH   1  18
TORSDOF 28
ENDMDL
