MODEL 1
REMARK VINA RESULT:    -4.046      0.000      0.000
REMARK INTER + INTRA:          -4.534
REMARK INTER:                  -4.519
REMARK INTRA:                  -0.015
REMARK UNBOUND:                -0.015
REMARK SMILES CCCC(=O)[O-]
REMARK SMILES IDX 3 1 4 2 5 3 6 4 2 5 1 6
REMARK H PARENT
REMARK Flexibility Score: inf
ROOT
ATOM      1  C   UNL     1      94.301 123.361 123.820  1.00  0.00     0.052 C 
ENDROOT
BRANCH   1   2
ATOM      2  C   UNL     1      95.775 123.582 123.972  1.00  0.00     0.041 C 
ATOM      3  O   UNL     1      96.256 124.741 123.867  1.00  0.00    -0.550 OA
ATOM      4  O   UNL     1      96.622 122.504 124.194  1.00  0.00    -0.550 OA
ENDBRANCH   1   2
BRANCH   1   5
ATOM      5  C   UNL     1      93.994 122.020 123.143  1.00  0.00     0.003 C 
ATOM      6  C   UNL     1      93.196 122.189 121.850  1.00  0.00     0.004 C 
ENDBRANCH   1   5
TORSDOF 2
ENDMDL
MODEL 2
REMARK VINA RESULT:    -3.862      5.392      6.559
REMARK INTER + INTRA:          -4.328
REMARK INTER:                  -4.290
REMARK INTRA:                  -0.038
REMARK UNBOUND:                -0.015
REMARK SMILES CCCC(=O)[O-]
REMARK SMILES IDX 3 1 4 2 5 3 6 4 2 5 1 6
REMARK H PARENT
REMARK Flexibility Score: inf
ROOT
ATOM      1  C   UNL     1      99.545 119.950 126.237  1.00  0.00     0.052 C 
ENDROOT
BRANCH   1   2
ATOM      2  C   UNL     1      99.029 121.342 126.033  1.00  0.00     0.041 C 
ATOM      3  O   UNL     1      97.997 121.539 125.340  1.00  0.00    -0.550 OA
ATOM      4  O   UNL     1      99.708 122.424 126.578  1.00  0.00    -0.550 OA
ENDBRANCH   1   2
BRANCH   1   5
ATOM      5  C   UNL     1     100.999 119.948 126.724  1.00  0.00     0.003 C 
ATOM      6  C   UNL     1     102.000 119.926 125.568  1.00  0.00     0.004 C 
ENDBRANCH   1   5
TORSDOF 2
ENDMDL
MODEL 3
REMARK VINA RESULT:    -3.859     14.050     14.923
REMARK INTER + INTRA:          -4.325
REMARK INTER:                  -4.313
REMARK INTRA:                  -0.012
REMARK UNBOUND:                -0.015
REMARK SMILES CCCC(=O)[O-]
REMARK SMILES IDX 3 1 4 2 5 3 6 4 2 5 1 6
REMARK H PARENT
REMARK Flexibility Score: inf
ROOT
ATOM      1  C   UNL     1      96.911 136.835 119.174  1.00  0.00     0.052 C 
ENDROOT
BRANCH   1   2
ATOM      2  C   UNL     1      97.514 136.419 120.481  1.00  0.00     0.041 C 
ATOM      3  O   UNL     1      97.292 135.270 120.944  1.00  0.00    -0.550 OA
ATOM      4  O   UNL     1      98.291 137.314 121.206  1.00  0.00    -0.550 OA
ENDBRANCH   1   2
BRANCH   1   5
ATOM      5  C   UNL     1      96.508 138.315 119.178  1.00  0.00     0.003 C 
ATOM      6  C   UNL     1      96.481 138.915 117.772  1.00  0.00     0.004 C 
ENDBRANCH   1   5
TORSDOF 2
ENDMDL
MODEL 4
REMARK VINA RESULT:    -3.794      2.105      3.384
REMARK INTER + INTRA:          -4.252
REMARK INTER:                  -4.216
REMARK INTRA:                  -0.036
REMARK UNBOUND:                -0.015
REMARK SMILES CCCC(=O)[O-]
REMARK SMILES IDX 3 1 4 2 5 3 6 4 2 5 1 6
REMARK H PARENT
REMARK Flexibility Score: inf
ROOT
ATOM      1  C   UNL     1      95.649 122.959 123.340  1.00  0.00     0.052 C 
ENDROOT
BRANCH   1   2
ATOM      2  C   UNL     1      94.236 122.500 123.531  1.00  0.00     0.041 C 
ATOM      3  O   UNL     1      93.635 122.732 124.612  1.00  0.00    -0.550 OA
ATOM      4  O   UNL     1      93.594 121.784 122.528  1.00  0.00    -0.550 OA
ENDBRANCH   1   2
BRANCH   1   5
ATOM      5  C   UNL     1      95.905 124.310 124.019  1.00  0.00     0.003 C 
ATOM      6  C   UNL     1      97.040 124.244 125.040  1.00  0.00     0.004 C 
ENDBRANCH   1   5
TORSDOF 2
ENDMDL
MODEL 5
REMARK VINA RESULT:    -3.369      1.741      2.207
REMARK INTER + INTRA:          -3.777
REMARK INTER:                  -3.769
REMARK INTRA:                  -0.008
REMARK UNBOUND:                -0.015
REMARK SMILES CCCC(=O)[O-]
REMARK SMILES IDX 3 1 4 2 5 3 6 4 2 5 1 6
REMARK H PARENT
REMARK Flexibility Score: inf
ROOT
ATOM      1  C   UNL     1      93.197 122.942 122.682  1.00  0.00     0.052 C 
ENDROOT
BRANCH   1   2
ATOM      2  C   UNL     1      94.002 122.709 123.924  1.00  0.00     0.041 C 
ATOM      3  O   UNL     1      95.248 122.543 123.849  1.00  0.00    -0.550 OA
ATOM      4  O   UNL     1      93.373 122.639 125.160  1.00  0.00    -0.550 OA
ENDBRANCH   1   2
BRANCH   1   5
ATOM      5  C   UNL     1      93.502 121.897 121.601  1.00  0.00     0.003 C 
ATOM      6  C   UNL     1      92.860 122.244 120.258  1.00  0.00     0.004 C 
ENDBRANCH   1   5
TORSDOF 2
ENDMDL
MODEL 6
REMARK VINA RESULT:    -3.147      9.744     10.189
REMARK INTER + INTRA:          -3.530
REMARK INTER:                  -3.496
REMARK INTRA:                  -0.034
REMARK UNBOUND:                -0.015
REMARK SMILES CCCC(=O)[O-]
REMARK SMILES IDX 3 1 4 2 5 3 6 4 2 5 1 6
REMARK H PARENT
REMARK Flexibility Score: inf
ROOT
ATOM      1  C   UNL     1      87.771 122.342 131.566  1.00  0.00     0.052 C 
ENDROOT
BRANCH   1   2
ATOM      2  C   UNL     1      88.851 121.573 130.868  1.00  0.00     0.041 C 
ATOM      3  O   UNL     1      88.684 121.180 129.684  1.00  0.00    -0.550 OA
ATOM      4  O   UNL     1      90.027 121.261 131.537  1.00  0.00    -0.550 OA
ENDBRANCH   1   2
BRANCH   1   5
ATOM      5  C   UNL     1      87.890 123.850 131.312  1.00  0.00     0.003 C 
ATOM      6  C   UNL     1      87.095 124.299 130.086  1.00  0.00     0.004 C 
ENDBRANCH   1   5
TORSDOF 2
ENDMDL
MODEL 7
REMARK VINA RESULT:    -2.961     14.295     15.264
REMARK INTER + INTRA:          -3.322
REMARK INTER:                  -3.294
REMARK INTRA:                  -0.027
REMARK UNBOUND:                -0.015
REMARK SMILES CCCC(=O)[O-]
REMARK SMILES IDX 3 1 4 2 5 3 6 4 2 5 1 6
REMARK H PARENT
REMARK Flexibility Score: inf
ROOT
ATOM      1  C   UNL     1      96.888 136.949 119.272  1.00  0.00     0.052 C 
ENDROOT
BRANCH   1   2
ATOM      2  C   UNL     1      96.587 138.414 119.364  1.00  0.00     0.041 C 
ATOM      3  O   UNL     1      96.971 139.078 120.362  1.00  0.00    -0.550 OA
ATOM      4  O   UNL     1      95.851 139.038 118.364  1.00  0.00    -0.550 OA
ENDBRANCH   1   2
BRANCH   1   5
ATOM      5  C   UNL     1      97.777 136.477 120.429  1.00  0.00     0.003 C 
ATOM      6  C   UNL     1      97.210 135.247 121.136  1.00  0.00     0.004 C 
ENDBRANCH   1   5
TORSDOF 2
ENDMDL
MODEL 8
REMARK VINA RESULT:    -2.890     10.485     10.844
REMARK INTER + INTRA:          -3.243
REMARK INTER:                  -3.172
REMARK INTRA:                  -0.071
REMARK UNBOUND:                -0.015
REMARK SMILES CCCC(=O)[O-]
REMARK SMILES IDX 3 1 4 2 5 3 6 4 2 5 1 6
REMARK H PARENT
REMARK Flexibility Score: inf
ROOT
ATOM      1  C   UNL     1      87.140 120.913 130.792  1.00  0.00     0.052 C 
ENDROOT
BRANCH   1   2
ATOM      2  C   UNL     1      88.446 121.602 130.540  1.00  0.00     0.041 C 
ATOM      3  O   UNL     1      88.548 122.447 129.612  1.00  0.00    -0.550 OA
ATOM      4  O   UNL     1      89.560 121.285 131.306  1.00  0.00    -0.550 OA
ENDBRANCH   1   2
BRANCH   1   5
ATOM      5  C   UNL     1      86.675 121.088 132.242  1.00  0.00     0.003 C 
ATOM      6  C   UNL     1      86.365 122.545 132.584  1.00  0.00     0.004 C 
ENDBRANCH   1   5
TORSDOF 2
ENDMDL
MODEL 9
REMARK VINA RESULT:    -2.854     10.528     10.882
REMARK INTER + INTRA:          -3.202
REMARK INTER:                  -3.187
REMARK INTRA:                  -0.015
REMARK UNBOUND:                -0.015
REMARK SMILES CCCC(=O)[O-]
REMARK SMILES IDX 3 1 4 2 5 3 6 4 2 5 1 6
REMARK H PARENT
REMARK Flexibility Score: inf
ROOT
ATOM      1  C   UNL     1      84.127 124.085 125.780  1.00  0.00     0.052 C 
ENDROOT
BRANCH   1   2
ATOM      2  C   UNL     1      84.878 124.252 127.066  1.00  0.00     0.041 C 
ATOM      3  O   UNL     1      85.121 123.253 127.792  1.00  0.00    -0.550 OA
ATOM      4  O   UNL     1      85.278 125.516 127.480  1.00  0.00    -0.550 OA
ENDBRANCH   1   2
BRANCH   1   5
ATOM      5  C   UNL     1      84.762 123.012 124.886  1.00  0.00     0.003 C 
ATOM      6  C   UNL     1      83.728 122.283 124.027  1.00  0.00     0.004 C 
ENDBRANCH   1   5
TORSDOF 2
ENDMDL
