MODEL 1
REMARK VINA RESULT:    -4.755      0.000      0.000
REMARK INTER + INTRA:          -5.300
REMARK INTER:                  -5.172
REMARK INTRA:                  -0.128
REMARK UNBOUND:                -0.128
REMARK SMILES Cc1ccc(C(C)C)cc1O
REMARK SMILES IDX 1 1 2 2 10 3 9 4 5 5 4 6 3 7 11 8 6 10 7 11 8 12
REMARK H PARENT 11 9
REMARK Flexibility Score: inf
ROOT
ATOM      1  C   UNL     1      -4.735   1.763  25.112  1.00  0.00     0.048 C 
ATOM      2  C   UNL     1      -3.702   1.429  26.150  1.00  0.00    -0.009 A 
ATOM      3  C   UNL     1      -2.810   0.361  25.945  1.00  0.00     0.118 A 
ATOM      4  C   UNL     1      -1.849   0.055  26.918  1.00  0.00     0.050 A 
ATOM      5  C   UNL     1      -1.765   0.805  28.106  1.00  0.00    -0.042 A 
ATOM      6  C   UNL     1      -2.661   1.868  28.302  1.00  0.00     0.004 A 
ATOM      7  C   UNL     1      -3.620   2.177  27.335  1.00  0.00     0.007 A 
ENDROOT
BRANCH   3   8
ATOM      8  O   UNL     1      -2.882  -0.390  24.772  1.00  0.00    -0.508 OA
ATOM      9  H   UNL     1      -3.769  -0.597  24.327  1.00  0.00     0.293 HD
ENDBRANCH   3   8
BRANCH   5  10
ATOM     10  C   UNL     1      -0.729   0.480  29.166  1.00  0.00     0.013 C 
ATOM     11  C   UNL     1       0.102   1.717  29.525  1.00  0.00     0.012 C 
ATOM     12  C   UNL     1      -1.384  -0.126  30.413  1.00  0.00     0.012 C 
ENDBRANCH   5  10
TORSDOF 2
ENDMDL
MODEL 2
REMARK VINA RESULT:    -4.686      2.852      3.931
REMARK INTER + INTRA:          -5.225
REMARK INTER:                  -5.098
REMARK INTRA:                  -0.127
REMARK UNBOUND:                -0.128
REMARK SMILES Cc1ccc(C(C)C)cc1O
REMARK SMILES IDX 1 1 2 2 10 3 9 4 5 5 4 6 3 7 11 8 6 10 7 11 8 12
REMARK H PARENT 11 9
REMARK Flexibility Score: inf
ROOT
ATOM      1  C   UNL     1      -1.000  -0.212  26.696  1.00  0.00     0.048 C 
ATOM      2  C   UNL     1      -1.835  -0.080  27.938  1.00  0.00    -0.009 A 
ATOM      3  C   UNL     1      -1.260   0.388  29.132  1.00  0.00     0.118 A 
ATOM      4  C   UNL     1      -2.045   0.509  30.287  1.00  0.00     0.050 A 
ATOM      5  C   UNL     1      -3.410   0.164  30.268  1.00  0.00    -0.042 A 
ATOM      6  C   UNL     1      -3.974  -0.305  29.070  1.00  0.00     0.004 A 
ATOM      7  C   UNL     1      -3.195  -0.425  27.917  1.00  0.00     0.007 A 
ENDROOT
BRANCH   3   8
ATOM      8  O   UNL     1       0.091   0.735  29.166  1.00  0.00    -0.508 OA
ATOM      9  H   UNL     1       0.391   1.687  29.342  1.00  0.00     0.293 HD
ENDBRANCH   3   8
BRANCH   5  10
ATOM     10  C   UNL     1      -4.267   0.290  31.513  1.00  0.00     0.013 C 
ATOM     11  C   UNL     1      -4.932   1.668  31.590  1.00  0.00     0.012 C 
ATOM     12  C   UNL     1      -5.311  -0.832  31.581  1.00  0.00     0.012 C 
ENDBRANCH   5  10
TORSDOF 2
ENDMDL
MODEL 3
REMARK VINA RESULT:    -4.669     14.802     16.417
REMARK INTER + INTRA:          -5.207
REMARK INTER:                  -5.092
REMARK INTRA:                  -0.115
REMARK UNBOUND:                -0.128
REMARK SMILES Cc1ccc(C(C)C)cc1O
REMARK SMILES IDX 1 1 2 2 10 3 9 4 5 5 4 6 3 7 11 8 6 10 7 11 8 12
REMARK H PARENT 11 9
REMARK Flexibility Score: inf
ROOT
ATOM      1  C   UNL     1      -9.126  12.310  19.350  1.00  0.00     0.048 C 
ATOM      2  C   UNL     1     -10.180  11.436  18.732  1.00  0.00    -0.009 A 
ATOM      3  C   UNL     1     -10.102  10.037  18.853  1.00  0.00     0.118 A 
ATOM      4  C   UNL     1     -11.089   9.228  18.274  1.00  0.00     0.050 A 
ATOM      5  C   UNL     1     -12.164   9.800  17.567  1.00  0.00    -0.042 A 
ATOM      6  C   UNL     1     -12.232  11.198  17.451  1.00  0.00     0.004 A 
ATOM      7  C   UNL     1     -11.251  12.007  18.028  1.00  0.00     0.007 A 
ENDROOT
BRANCH   3   8
ATOM      8  O   UNL     1      -9.043   9.456  19.551  1.00  0.00    -0.508 OA
ATOM      9  H   UNL     1      -8.212   9.122  19.075  1.00  0.00     0.293 HD
ENDBRANCH   3   8
BRANCH   5  10
ATOM     10  C   UNL     1     -13.237   8.932  16.937  1.00  0.00     0.013 C 
ATOM     11  C   UNL     1     -12.882   7.445  17.046  1.00  0.00     0.012 C 
ATOM     12  C   UNL     1     -14.612   9.218  17.552  1.00  0.00     0.012 C 
ENDBRANCH   5  10
TORSDOF 2
ENDMDL
MODEL 4
REMARK VINA RESULT:    -4.558      2.889      4.392
REMARK INTER + INTRA:          -5.085
REMARK INTER:                  -4.957
REMARK INTRA:                  -0.128
REMARK UNBOUND:                -0.128
REMARK SMILES Cc1ccc(C(C)C)cc1O
REMARK SMILES IDX 1 1 2 2 10 3 9 4 5 5 4 6 3 7 11 8 6 10 7 11 8 12
REMARK H PARENT 11 9
REMARK Flexibility Score: inf
ROOT
ATOM      1  C   UNL     1      -4.385   1.520  32.165  1.00  0.00     0.048 C 
ATOM      2  C   UNL     1      -3.946   1.026  30.817  1.00  0.00    -0.009 A 
ATOM      3  C   UNL     1      -3.942  -0.351  30.533  1.00  0.00     0.118 A 
ATOM      4  C   UNL     1      -3.531  -0.806  29.273  1.00  0.00     0.050 A 
ATOM      5  C   UNL     1      -3.117   0.103  28.281  1.00  0.00    -0.042 A 
ATOM      6  C   UNL     1      -3.123   1.477  28.575  1.00  0.00     0.004 A 
ATOM      7  C   UNL     1      -3.533   1.933  29.830  1.00  0.00     0.007 A 
ENDROOT
BRANCH   3   8
ATOM      8  O   UNL     1      -4.351  -1.264  31.506  1.00  0.00    -0.508 OA
ATOM      9  H   UNL     1      -3.741  -2.008  31.826  1.00  0.00     0.293 HD
ENDBRANCH   3   8
BRANCH   5  10
ATOM     10  C   UNL     1      -2.669  -0.379  26.915  1.00  0.00     0.013 C 
ATOM     11  C   UNL     1      -3.399   0.372  25.796  1.00  0.00     0.012 C 
ATOM     12  C   UNL     1      -1.148  -0.260  26.757  1.00  0.00     0.012 C 
ENDBRANCH   5  10
TORSDOF 2
ENDMDL
MODEL 5
REMARK VINA RESULT:    -4.557      3.014      4.304
REMARK INTER + INTRA:          -5.085
REMARK INTER:                  -4.957
REMARK INTRA:                  -0.128
REMARK UNBOUND:                -0.128
REMARK SMILES Cc1ccc(C(C)C)cc1O
REMARK SMILES IDX 1 1 2 2 10 3 9 4 5 5 4 6 3 7 11 8 6 10 7 11 8 12
REMARK H PARENT 11 9
REMARK Flexibility Score: inf
ROOT
ATOM      1  C   UNL     1      -5.617   0.942  32.402  1.00  0.00     0.048 C 
ATOM      2  C   UNL     1      -4.385   0.768  31.561  1.00  0.00    -0.009 A 
ATOM      3  C   UNL     1      -4.301  -0.286  30.635  1.00  0.00     0.118 A 
ATOM      4  C   UNL     1      -3.148  -0.442  29.853  1.00  0.00     0.050 A 
ATOM      5  C   UNL     1      -2.065   0.447  29.985  1.00  0.00    -0.042 A 
ATOM      6  C   UNL     1      -2.158   1.496  30.914  1.00  0.00     0.004 A 
ATOM      7  C   UNL     1      -3.305   1.656  31.694  1.00  0.00     0.007 A 
ENDROOT
BRANCH   3   8
ATOM      8  O   UNL     1      -5.367  -1.175  30.494  1.00  0.00    -0.508 OA
ATOM      9  H   UNL     1      -5.639  -1.538  29.587  1.00  0.00     0.293 HD
ENDBRANCH   3   8
BRANCH   5  10
ATOM     10  C   UNL     1      -0.813   0.286  29.145  1.00  0.00     0.013 C 
ATOM     11  C   UNL     1      -1.161   0.059  27.669  1.00  0.00     0.012 C 
ATOM     12  C   UNL     1       0.125   1.488  29.312  1.00  0.00     0.012 C 
ENDBRANCH   5  10
TORSDOF 2
ENDMDL
MODEL 6
REMARK VINA RESULT:    -4.434      3.148      4.534
REMARK INTER + INTRA:          -4.951
REMARK INTER:                  -4.823
REMARK INTRA:                  -0.127
REMARK UNBOUND:                -0.128
REMARK SMILES Cc1ccc(C(C)C)cc1O
REMARK SMILES IDX 1 1 2 2 10 3 9 4 5 5 4 6 3 7 11 8 6 10 7 11 8 12
REMARK H PARENT 11 9
REMARK Flexibility Score: inf
ROOT
ATOM      1  C   UNL     1      -5.129  -0.009  31.978  1.00  0.00     0.048 C 
ATOM      2  C   UNL     1      -4.180   0.164  30.828  1.00  0.00    -0.009 A 
ATOM      3  C   UNL     1      -3.202   1.174  30.860  1.00  0.00     0.118 A 
ATOM      4  C   UNL     1      -2.319   1.330  29.783  1.00  0.00     0.050 A 
ATOM      5  C   UNL     1      -2.400   0.485  28.660  1.00  0.00    -0.042 A 
ATOM      6  C   UNL     1      -3.382  -0.519  28.636  1.00  0.00     0.004 A 
ATOM      7  C   UNL     1      -4.262  -0.678  29.708  1.00  0.00     0.007 A 
ENDROOT
BRANCH   3   8
ATOM      8  O   UNL     1      -3.109   2.018  31.967  1.00  0.00    -0.508 OA
ATOM      9  H   UNL     1      -3.172   3.026  31.874  1.00  0.00     0.293 HD
ENDBRANCH   3   8
BRANCH   5  10
ATOM     10  C   UNL     1      -1.451   0.647  27.488  1.00  0.00     0.013 C 
ATOM     11  C   UNL     1      -1.437  -0.609  26.609  1.00  0.00     0.012 C 
ATOM     12  C   UNL     1      -1.796   1.893  26.664  1.00  0.00     0.012 C 
ENDBRANCH   5  10
TORSDOF 2
ENDMDL
MODEL 7
REMARK VINA RESULT:    -4.380     12.185     13.240
REMARK INTER + INTRA:          -4.892
REMARK INTER:                  -4.765
REMARK INTRA:                  -0.128
REMARK UNBOUND:                -0.128
REMARK SMILES Cc1ccc(C(C)C)cc1O
REMARK SMILES IDX 1 1 2 2 10 3 9 4 5 5 4 6 3 7 11 8 6 10 7 11 8 12
REMARK H PARENT 11 9
REMARK Flexibility Score: inf
ROOT
ATOM      1  C   UNL     1     -15.545   5.930  31.837  1.00  0.00     0.048 C 
ATOM      2  C   UNL     1     -14.853   4.629  32.127  1.00  0.00    -0.009 A 
ATOM      3  C   UNL     1     -14.777   4.144  33.445  1.00  0.00     0.118 A 
ATOM      4  C   UNL     1     -14.130   2.929  33.708  1.00  0.00     0.050 A 
ATOM      5  C   UNL     1     -13.548   2.184  32.665  1.00  0.00    -0.042 A 
ATOM      6  C   UNL     1     -13.628   2.678  31.352  1.00  0.00     0.004 A 
ATOM      7  C   UNL     1     -14.273   3.887  31.086  1.00  0.00     0.007 A 
ENDROOT
BRANCH   3   8
ATOM      8  O   UNL     1     -15.349   4.872  34.488  1.00  0.00    -0.508 OA
ATOM      9  H   UNL     1     -14.921   5.720  34.842  1.00  0.00     0.293 HD
ENDBRANCH   3   8
BRANCH   5  10
ATOM     10  C   UNL     1     -12.844   0.869  32.940  1.00  0.00     0.013 C 
ATOM     11  C   UNL     1     -13.413  -0.257  32.069  1.00  0.00     0.012 C 
ATOM     12  C   UNL     1     -11.328   1.003  32.748  1.00  0.00     0.012 C 
ENDBRANCH   5  10
TORSDOF 2
ENDMDL
MODEL 8
REMARK VINA RESULT:    -4.316     14.607     16.288
REMARK INTER + INTRA:          -4.823
REMARK INTER:                  -4.695
REMARK INTRA:                  -0.128
REMARK UNBOUND:                -0.128
REMARK SMILES Cc1ccc(C(C)C)cc1O
REMARK SMILES IDX 1 1 2 2 10 3 9 4 5 5 4 6 3 7 11 8 6 10 7 11 8 12
REMARK H PARENT 11 9
REMARK Flexibility Score: inf
ROOT
ATOM      1  C   UNL     1     -14.379   6.218  32.835  1.00  0.00     0.048 C 
ATOM      2  C   UNL     1     -14.695   7.546  32.209  1.00  0.00    -0.009 A 
ATOM      3  C   UNL     1     -16.004   8.057  32.254  1.00  0.00     0.118 A 
ATOM      4  C   UNL     1     -16.292   9.297  31.667  1.00  0.00     0.050 A 
ATOM      5  C   UNL     1     -15.282  10.041  31.027  1.00  0.00    -0.042 A 
ATOM      6  C   UNL     1     -13.979   9.520  30.987  1.00  0.00     0.004 A 
ATOM      7  C   UNL     1     -13.688   8.286  31.571  1.00  0.00     0.007 A 
ENDROOT
BRANCH   3   8
ATOM      8  O   UNL     1     -17.014   7.331  32.885  1.00  0.00    -0.508 OA
ATOM      9  H   UNL     1     -16.898   6.962  33.821  1.00  0.00     0.293 HD
ENDBRANCH   3   8
BRANCH   5  10
ATOM     10  C   UNL     1     -15.584  11.383  30.388  1.00  0.00     0.013 C 
ATOM     11  C   UNL     1     -14.687  12.485  30.963  1.00  0.00     0.012 C 
ATOM     12  C   UNL     1     -15.459  11.310  28.861  1.00  0.00     0.012 C 
ENDBRANCH   5  10
TORSDOF 2
ENDMDL
