MODEL 1
REMARK VINA RESULT:    -5.150      0.000      0.000
REMARK INTER + INTRA:         -11.673
REMARK INTER:                  -9.667
REMARK INTRA:                  -2.006
REMARK UNBOUND:                -2.006
REMARK SMILES O=C([O-])CCCCCCCCCCCCCCC(=O)[O-]
REMARK SMILES IDX 10 1 9 2 8 3 7 4 6 5 5 6 4 7 2 8 1 9 3 10 11 11 12 12 13 13
REMARK SMILES IDX 14 14 15 15 16 16 17 17 18 18 19 19 20 20
REMARK H PARENT
REMARK Flexibility Score: inf
ROOT
ATOM      1  C   UNL     1     -23.987  54.923  -0.272  1.00  0.00     0.000 C 
ENDROOT
BRANCH   1   2
ATOM      2  C   UNL     1     -22.776  54.006  -0.024  1.00  0.00     0.000 C 
BRANCH   2   3
ATOM      3  C   UNL     1     -21.918  53.793  -1.283  1.00  0.00     0.000 C 
BRANCH   3   4
ATOM      4  C   UNL     1     -20.794  52.760  -1.054  1.00  0.00     0.000 C 
BRANCH   4   5
ATOM      5  C   UNL     1     -19.485  53.102  -1.788  1.00  0.00     0.000 C 
BRANCH   5   6
ATOM      6  C   UNL     1     -19.684  54.121  -2.922  1.00  0.00     0.006 C 
BRANCH   6   7
ATOM      7  C   UNL     1     -18.386  54.859  -3.272  1.00  0.00     0.053 C 
BRANCH   7   8
ATOM      8  C   UNL     1     -18.622  56.317  -3.516  1.00  0.00     0.041 C 
ATOM      9  O   UNL     1     -17.651  57.111  -3.615  1.00  0.00    -0.550 OA
ATOM     10  O   UNL     1     -19.921  56.806  -3.601  1.00  0.00    -0.550 OA
ENDBRANCH   7   8
ENDBRANCH   6   7
ENDBRANCH   5   6
ENDBRANCH   4   5
ENDBRANCH   3   4
ENDBRANCH   2   3
ENDBRANCH   1   2
BRANCH   1  11
ATOM     11  C   UNL     1     -23.888  56.313   0.382  1.00  0.00     0.000 C 
BRANCH  11  12
ATOM     12  C   UNL     1     -22.859  56.361   1.526  1.00  0.00     0.000 C 
BRANCH  12  13
ATOM     13  C   UNL     1     -22.229  57.753   1.692  1.00  0.00     0.000 C 
BRANCH  13  14
ATOM     14  C   UNL     1     -20.706  57.738   1.489  1.00  0.00     0.000 C 
BRANCH  14  15
ATOM     15  C   UNL     1     -20.291  56.612   0.535  1.00  0.00     0.000 C 
BRANCH  15  16
ATOM     16  C   UNL     1     -18.803  56.708   0.184  1.00  0.00     0.006 C 
BRANCH  16  17
ATOM     17  C   UNL     1     -18.073  55.403   0.518  1.00  0.00     0.053 C 
BRANCH  17  18
ATOM     18  C   UNL     1     -16.656  55.457   0.043  1.00  0.00     0.041 C 
ATOM     19  O   UNL     1     -16.129  54.447  -0.494  1.00  0.00    -0.550 OA
ATOM     20  O   UNL     1     -15.901  56.606   0.236  1.00  0.00    -0.550 OA
ENDBRANCH  17  18
ENDBRANCH  16  17
ENDBRANCH  15  16
ENDBRANCH  14  15
ENDBRANCH  13  14
ENDBRANCH  12  13
ENDBRANCH  11  12
ENDBRANCH   1  11
TORSDOF 15
ENDMDL
MODEL 2
REMARK VINA RESULT:    -5.104      2.271      4.824
REMARK INTER + INTRA:         -11.587
REMARK INTER:                  -9.822
REMARK INTRA:                  -1.765
REMARK UNBOUND:                -2.006
REMARK SMILES O=C([O-])CCCCCCCCCCCCCCC(=O)[O-]
REMARK SMILES IDX 10 1 9 2 8 3 7 4 6 5 5 6 4 7 2 8 1 9 3 10 11 11 12 12 13 13
REMARK SMILES IDX 14 14 15 15 16 16 17 17 18 18 19 19 20 20
REMARK H PARENT
REMARK Flexibility Score: inf
ROOT
ATOM      1  C   UNL     1     -21.724  55.311  -3.066  1.00  0.00     0.000 C 
ENDROOT
BRANCH   1   2
ATOM      2  C   UNL     1     -21.036  54.198  -2.255  1.00  0.00     0.000 C 
BRANCH   2   3
ATOM      3  C   UNL     1     -21.936  53.618  -1.150  1.00  0.00     0.000 C 
BRANCH   3   4
ATOM      4  C   UNL     1     -22.189  54.632  -0.014  1.00  0.00     0.000 C 
BRANCH   4   5
ATOM      5  C   UNL     1     -23.376  54.256   0.892  1.00  0.00     0.000 C 
BRANCH   5   6
ATOM      6  C   UNL     1     -24.659  55.030   0.547  1.00  0.00     0.006 C 
BRANCH   6   7
ATOM      7  C   UNL     1     -24.375  56.264  -0.318  1.00  0.00     0.053 C 
BRANCH   7   8
ATOM      8  C   UNL     1     -25.053  56.177  -1.651  1.00  0.00     0.041 C 
ATOM      9  O   UNL     1     -25.548  57.205  -2.181  1.00  0.00    -0.550 OA
ATOM     10  O   UNL     1     -25.165  54.950  -2.294  1.00  0.00    -0.550 OA
ENDBRANCH   7   8
ENDBRANCH   6   7
ENDBRANCH   5   6
ENDBRANCH   4   5
ENDBRANCH   3   4
ENDBRANCH   2   3
ENDBRANCH   1   2
BRANCH   1  11
ATOM     11  C   UNL     1     -20.836  56.531  -3.371  1.00  0.00     0.000 C 
BRANCH  11  12
ATOM     12  C   UNL     1     -19.442  56.429  -2.724  1.00  0.00     0.000 C 
BRANCH  12  13
ATOM     13  C   UNL     1     -18.307  56.475  -3.760  1.00  0.00     0.000 C 
BRANCH  13  14
ATOM     14  C   UNL     1     -17.051  55.725  -3.291  1.00  0.00     0.000 C 
BRANCH  14  15
ATOM     15  C   UNL     1     -17.424  54.538  -2.394  1.00  0.00     0.000 C 
BRANCH  15  16
ATOM     16  C   UNL     1     -16.652  54.585  -1.071  1.00  0.00     0.006 C 
BRANCH  16  17
ATOM     17  C   UNL     1     -17.533  55.120   0.062  1.00  0.00     0.053 C 
BRANCH  17  18
ATOM     18  C   UNL     1     -17.201  56.548   0.356  1.00  0.00     0.041 C 
ATOM     19  O   UNL     1     -18.120  57.378   0.586  1.00  0.00    -0.550 OA
ATOM     20  O   UNL     1     -15.880  56.975   0.326  1.00  0.00    -0.550 OA
ENDBRANCH  17  18
ENDBRANCH  16  17
ENDBRANCH  15  16
ENDBRANCH  14  15
ENDBRANCH  13  14
ENDBRANCH  12  13
ENDBRANCH  11  12
ENDBRANCH   1  11
TORSDOF 15
ENDMDL
MODEL 3
REMARK VINA RESULT:    -5.062      2.682      5.450
REMARK INTER + INTRA:         -11.508
REMARK INTER:                  -9.335
REMARK INTRA:                  -2.173
REMARK UNBOUND:                -2.006
REMARK SMILES O=C([O-])CCCCCCCCCCCCCCC(=O)[O-]
REMARK SMILES IDX 10 1 9 2 8 3 7 4 6 5 5 6 4 7 2 8 1 9 3 10 11 11 12 12 13 13
REMARK SMILES IDX 14 14 15 15 16 16 17 17 18 18 19 19 20 20
REMARK H PARENT
REMARK Flexibility Score: inf
ROOT
ATOM      1  C   UNL     1     -17.003  55.711  -2.923  1.00  0.00     0.000 C 
ENDROOT
BRANCH   1   2
ATOM      2  C   UNL     1     -16.856  54.372  -2.180  1.00  0.00     0.000 C 
BRANCH   2   3
ATOM      3  C   UNL     1     -18.068  54.043  -1.291  1.00  0.00     0.000 C 
BRANCH   3   4
ATOM      4  C   UNL     1     -17.927  54.632   0.128  1.00  0.00     0.000 C 
BRANCH   4   5
ATOM      5  C   UNL     1     -18.790  55.884   0.364  1.00  0.00     0.000 C 
BRANCH   5   6
ATOM      6  C   UNL     1     -17.969  57.184   0.370  1.00  0.00     0.006 C 
BRANCH   6   7
ATOM      7  C   UNL     1     -16.470  56.920   0.566  1.00  0.00     0.053 C 
BRANCH   7   8
ATOM      8  C   UNL     1     -15.660  58.170   0.408  1.00  0.00     0.041 C 
ATOM      9  O   UNL     1     -15.502  58.951   1.382  1.00  0.00    -0.550 OA
ATOM     10  O   UNL     1     -15.105  58.488  -0.825  1.00  0.00    -0.550 OA
ENDBRANCH   7   8
ENDBRANCH   6   7
ENDBRANCH   5   6
ENDBRANCH   4   5
ENDBRANCH   3   4
ENDBRANCH   2   3
ENDBRANCH   1   2
BRANCH   1  11
ATOM     11  C   UNL     1     -18.197  55.784  -3.891  1.00  0.00     0.000 C 
BRANCH  11  12
ATOM     12  C   UNL     1     -19.164  56.935  -3.558  1.00  0.00     0.000 C 
BRANCH  12  13
ATOM     13  C   UNL     1     -20.638  56.506  -3.633  1.00  0.00     0.000 C 
BRANCH  13  14
ATOM     14  C   UNL     1     -21.168  55.980  -2.290  1.00  0.00     0.000 C 
BRANCH  14  15
ATOM     15  C   UNL     1     -22.667  55.668  -2.375  1.00  0.00     0.000 C 
BRANCH  15  16
ATOM     16  C   UNL     1     -23.010  54.396  -1.593  1.00  0.00     0.006 C 
BRANCH  16  17
ATOM     17  C   UNL     1     -21.772  53.513  -1.408  1.00  0.00     0.053 C 
BRANCH  17  18
ATOM     18  C   UNL     1     -21.666  53.047   0.009  1.00  0.00     0.041 C 
ATOM     19  O   UNL     1     -20.676  52.362   0.379  1.00  0.00    -0.550 OA
ATOM     20  O   UNL     1     -22.685  53.326   0.911  1.00  0.00    -0.550 OA
ENDBRANCH  17  18
ENDBRANCH  16  17
ENDBRANCH  15  16
ENDBRANCH  14  15
ENDBRANCH  13  14
ENDBRANCH  12  13
ENDBRANCH  11  12
ENDBRANCH   1  11
TORSDOF 15
ENDMDL
MODEL 4
REMARK VINA RESULT:    -4.992      2.698      5.180
REMARK INTER + INTRA:         -11.376
REMARK INTER:                  -9.613
REMARK INTRA:                  -1.763
REMARK UNBOUND:                -2.006
REMARK SMILES O=C([O-])CCCCCCCCCCCCCCC(=O)[O-]
REMARK SMILES IDX 10 1 9 2 8 3 7 4 6 5 5 6 4 7 2 8 1 9 3 10 11 11 12 12 13 13
REMARK SMILES IDX 14 14 15 15 16 16 17 17 18 18 19 19 20 20
REMARK H PARENT
REMARK Flexibility Score: inf
ROOT
ATOM      1  C   UNL     1     -17.761  56.256  -3.119  1.00  0.00     0.000 C 
ENDROOT
BRANCH   1   2
ATOM      2  C   UNL     1     -19.258  56.515  -3.366  1.00  0.00     0.000 C 
BRANCH   2   3
ATOM      3  C   UNL     1     -20.145  55.317  -2.983  1.00  0.00     0.000 C 
BRANCH   3   4
ATOM      4  C   UNL     1     -21.073  55.637  -1.791  1.00  0.00     0.000 C 
BRANCH   4   5
ATOM      5  C   UNL     1     -22.111  54.538  -1.507  1.00  0.00     0.000 C 
BRANCH   5   6
ATOM      6  C   UNL     1     -22.143  54.112  -0.030  1.00  0.00     0.006 C 
BRANCH   6   7
ATOM      7  C   UNL     1     -23.497  54.406   0.628  1.00  0.00     0.053 C 
BRANCH   7   8
ATOM      8  C   UNL     1     -23.652  55.859   0.956  1.00  0.00     0.041 C 
ATOM      9  O   UNL     1     -22.969  56.380   1.875  1.00  0.00    -0.550 OA
ATOM     10  O   UNL     1     -24.578  56.632   0.265  1.00  0.00    -0.550 OA
ENDBRANCH   7   8
ENDBRANCH   6   7
ENDBRANCH   5   6
ENDBRANCH   4   5
ENDBRANCH   3   4
ENDBRANCH   2   3
ENDBRANCH   1   2
BRANCH   1  11
ATOM     11  C   UNL     1     -17.393  54.781  -2.878  1.00  0.00     0.000 C 
BRANCH  11  12
ATOM     12  C   UNL     1     -16.717  54.551  -1.514  1.00  0.00     0.000 C 
BRANCH  12  13
ATOM     13  C   UNL     1     -17.712  54.106  -0.430  1.00  0.00     0.000 C 
BRANCH  13  14
ATOM     14  C   UNL     1     -17.698  55.029   0.798  1.00  0.00     0.000 C 
BRANCH  14  15
ATOM     15  C   UNL     1     -18.017  56.475   0.401  1.00  0.00     0.000 C 
BRANCH  15  16
ATOM     16  C   UNL     1     -17.137  57.464   1.172  1.00  0.00     0.006 C 
BRANCH  16  17
ATOM     17  C   UNL     1     -15.696  57.439   0.654  1.00  0.00     0.053 C 
BRANCH  17  18
ATOM     18  C   UNL     1     -15.061  58.784   0.802  1.00  0.00     0.041 C 
ATOM     19  O   UNL     1     -15.670  59.819   0.421  1.00  0.00    -0.550 OA
ATOM     20  O   UNL     1     -13.775  58.894   1.316  1.00  0.00    -0.550 OA
ENDBRANCH  17  18
ENDBRANCH  16  17
ENDBRANCH  15  16
ENDBRANCH  14  15
ENDBRANCH  13  14
ENDBRANCH  12  13
ENDBRANCH  11  12
ENDBRANCH   1  11
TORSDOF 15
ENDMDL
MODEL 5
REMARK VINA RESULT:    -4.949      2.894      5.738
REMARK INTER + INTRA:         -11.295
REMARK INTER:                  -9.279
REMARK INTRA:                  -2.016
REMARK UNBOUND:                -2.006
REMARK SMILES O=C([O-])CCCCCCCCCCCCCCC(=O)[O-]
REMARK SMILES IDX 10 1 9 2 8 3 7 4 6 5 5 6 4 7 2 8 1 9 3 10 11 11 12 12 13 13
REMARK SMILES IDX 14 14 15 15 16 16 17 17 18 18 19 19 20 20
REMARK H PARENT
REMARK Flexibility Score: inf
ROOT
ATOM      1  C   UNL     1     -17.271  55.483  -2.795  1.00  0.00     0.000 C 
ENDROOT
BRANCH   1   2
ATOM      2  C   UNL     1     -17.260  56.570  -1.706  1.00  0.00     0.000 C 
BRANCH   2   3
ATOM      3  C   UNL     1     -16.604  56.099  -0.396  1.00  0.00     0.000 C 
BRANCH   3   4
ATOM      4  C   UNL     1     -17.608  55.380   0.532  1.00  0.00     0.000 C 
BRANCH   4   5
ATOM      5  C   UNL     1     -19.075  55.757   0.261  1.00  0.00     0.000 C 
BRANCH   5   6
ATOM      6  C   UNL     1     -19.923  54.562  -0.202  1.00  0.00     0.006 C 
BRANCH   6   7
ATOM      7  C   UNL     1     -19.143  53.242  -0.145  1.00  0.00     0.053 C 
BRANCH   7   8
ATOM      8  C   UNL     1     -19.758  52.193  -1.019  1.00  0.00     0.041 C 
ATOM      9  O   UNL     1     -19.714  50.981  -0.685  1.00  0.00    -0.550 OA
ATOM     10  O   UNL     1     -20.353  52.553  -2.222  1.00  0.00    -0.550 OA
ENDBRANCH   7   8
ENDBRANCH   6   7
ENDBRANCH   5   6
ENDBRANCH   4   5
ENDBRANCH   3   4
ENDBRANCH   2   3
ENDBRANCH   1   2
BRANCH   1  11
ATOM     11  C   UNL     1     -18.602  55.345  -3.555  1.00  0.00     0.000 C 
BRANCH  11  12
ATOM     12  C   UNL     1     -19.377  56.671  -3.645  1.00  0.00     0.000 C 
BRANCH  12  13
ATOM     13  C   UNL     1     -20.739  56.607  -2.936  1.00  0.00     0.000 C 
BRANCH  13  14
ATOM     14  C   UNL     1     -21.570  55.387  -3.365  1.00  0.00     0.000 C 
BRANCH  14  15
ATOM     15  C   UNL     1     -22.982  55.449  -2.771  1.00  0.00     0.000 C 
BRANCH  15  16
ATOM     16  C   UNL     1     -23.123  54.489  -1.585  1.00  0.00     0.006 C 
BRANCH  16  17
ATOM     17  C   UNL     1     -23.986  55.104  -0.478  1.00  0.00     0.053 C 
BRANCH  17  18
ATOM     18  C   UNL     1     -23.414  54.793   0.868  1.00  0.00     0.041 C 
ATOM     19  O   UNL     1     -23.073  55.726   1.642  1.00  0.00    -0.550 OA
ATOM     20  O   UNL     1     -23.211  53.473   1.249  1.00  0.00    -0.550 OA
ENDBRANCH  17  18
ENDBRANCH  16  17
ENDBRANCH  15  16
ENDBRANCH  14  15
ENDBRANCH  13  14
ENDBRANCH  12  13
ENDBRANCH  11  12
ENDBRANCH   1  11
TORSDOF 15
ENDMDL
MODEL 6
REMARK VINA RESULT:    -4.908      2.537      4.954
REMARK INTER + INTRA:         -11.219
REMARK INTER:                  -9.025
REMARK INTRA:                  -2.193
REMARK UNBOUND:                -2.006
REMARK SMILES O=C([O-])CCCCCCCCCCCCCCC(=O)[O-]
REMARK SMILES IDX 10 1 9 2 8 3 7 4 6 5 5 6 4 7 2 8 1 9 3 10 11 11 12 12 13 13
REMARK SMILES IDX 14 14 15 15 16 16 17 17 18 18 19 19 20 20
REMARK H PARENT
REMARK Flexibility Score: inf
ROOT
ATOM      1  C   UNL     1     -19.524  56.241  -2.741  1.00  0.00     0.000 C 
ENDROOT
BRANCH   1   2
ATOM      2  C   UNL     1     -20.920  56.618  -3.270  1.00  0.00     0.000 C 
BRANCH   2   3
ATOM      3  C   UNL     1     -21.869  55.411  -3.370  1.00  0.00     0.000 C 
BRANCH   3   4
ATOM      4  C   UNL     1     -22.987  55.460  -2.308  1.00  0.00     0.000 C 
BRANCH   4   5
ATOM      5  C   UNL     1     -22.981  54.253  -1.352  1.00  0.00     0.000 C 
BRANCH   5   6
ATOM      6  C   UNL     1     -22.416  54.594   0.037  1.00  0.00     0.006 C 
BRANCH   6   7
ATOM      7  C   UNL     1     -22.356  56.107   0.281  1.00  0.00     0.053 C 
BRANCH   7   8
ATOM      8  C   UNL     1     -23.479  56.574   1.155  1.00  0.00     0.041 C 
ATOM      9  O   UNL     1     -24.672  56.454   0.775  1.00  0.00    -0.550 OA
ATOM     10  O   UNL     1     -23.204  57.173   2.379  1.00  0.00    -0.550 OA
ENDBRANCH   7   8
ENDBRANCH   6   7
ENDBRANCH   5   6
ENDBRANCH   4   5
ENDBRANCH   3   4
ENDBRANCH   2   3
ENDBRANCH   1   2
BRANCH   1  11
ATOM     11  C   UNL     1     -18.712  55.316  -3.665  1.00  0.00     0.000 C 
BRANCH  11  12
ATOM     12  C   UNL     1     -18.253  54.026  -2.962  1.00  0.00     0.000 C 
BRANCH  12  13
ATOM     13  C   UNL     1     -19.431  53.172  -2.467  1.00  0.00     0.000 C 
BRANCH  13  14
ATOM     14  C   UNL     1     -19.434  52.998  -0.941  1.00  0.00     0.000 C 
BRANCH  14  15
ATOM     15  C   UNL     1     -18.161  53.587  -0.320  1.00  0.00     0.000 C 
BRANCH  15  16
ATOM     16  C   UNL     1     -18.465  54.893   0.423  1.00  0.00     0.006 C 
BRANCH  16  17
ATOM     17  C   UNL     1     -17.172  55.618   0.812  1.00  0.00     0.053 C 
BRANCH  17  18
ATOM     18  C   UNL     1     -17.082  56.939   0.116  1.00  0.00     0.041 C 
ATOM     19  O   UNL     1     -16.654  57.005  -1.066  1.00  0.00    -0.550 OA
ATOM     20  O   UNL     1     -17.425  58.104   0.789  1.00  0.00    -0.550 OA
ENDBRANCH  17  18
ENDBRANCH  16  17
ENDBRANCH  15  16
ENDBRANCH  14  15
ENDBRANCH  13  14
ENDBRANCH  12  13
ENDBRANCH  11  12
ENDBRANCH   1  11
TORSDOF 15
ENDMDL
MODEL 7
REMARK VINA RESULT:    -4.904      1.769      4.321
REMARK INTER + INTRA:         -11.211
REMARK INTER:                  -9.067
REMARK INTRA:                  -2.144
REMARK UNBOUND:                -2.006
REMARK SMILES O=C([O-])CCCCCCCCCCCCCCC(=O)[O-]
REMARK SMILES IDX 10 1 9 2 8 3 7 4 6 5 5 6 4 7 2 8 1 9 3 10 11 11 12 12 13 13
REMARK SMILES IDX 14 14 15 15 16 16 17 17 18 18 19 19 20 20
REMARK H PARENT
REMARK Flexibility Score: inf
ROOT
ATOM      1  C   UNL     1     -22.732  54.605  -0.300  1.00  0.00     0.000 C 
ENDROOT
BRANCH   1   2
ATOM      2  C   UNL     1     -23.735  54.924   0.823  1.00  0.00     0.000 C 
BRANCH   2   3
ATOM      3  C   UNL     1     -23.850  56.431   1.113  1.00  0.00     0.000 C 
BRANCH   3   4
ATOM      4  C   UNL     1     -22.611  56.977   1.856  1.00  0.00     0.000 C 
BRANCH   4   5
ATOM      5  C   UNL     1     -21.621  57.716   0.939  1.00  0.00     0.000 C 
BRANCH   5   6
ATOM      6  C   UNL     1     -20.160  57.574   1.399  1.00  0.00     0.006 C 
BRANCH   6   7
ATOM      7  C   UNL     1     -19.367  56.605   0.513  1.00  0.00     0.053 C 
BRANCH   7   8
ATOM      8  C   UNL     1     -17.892  56.851   0.601  1.00  0.00     0.041 C 
ATOM      9  O   UNL     1     -17.080  55.900   0.461  1.00  0.00    -0.550 OA
ATOM     10  O   UNL     1     -17.416  58.128   0.871  1.00  0.00    -0.550 OA
ENDBRANCH   7   8
ENDBRANCH   6   7
ENDBRANCH   5   6
ENDBRANCH   4   5
ENDBRANCH   3   4
ENDBRANCH   2   3
ENDBRANCH   1   2
BRANCH   1  11
ATOM     11  C   UNL     1     -23.364  54.387  -1.687  1.00  0.00     0.000 C 
BRANCH  11  12
ATOM     12  C   UNL     1     -22.730  55.272  -2.776  1.00  0.00     0.000 C 
BRANCH  12  13
ATOM     13  C   UNL     1     -21.506  56.049  -2.265  1.00  0.00     0.000 C 
BRANCH  13  14
ATOM     14  C   UNL     1     -20.652  56.619  -3.408  1.00  0.00     0.000 C 
BRANCH  14  15
ATOM     15  C   UNL     1     -19.167  56.302  -3.192  1.00  0.00     0.000 C 
BRANCH  15  16
ATOM     16  C   UNL     1     -18.878  54.818  -3.443  1.00  0.00     0.006 C 
BRANCH  16  17
ATOM     17  C   UNL     1     -18.202  54.176  -2.227  1.00  0.00     0.053 C 
BRANCH  17  18
ATOM     18  C   UNL     1     -19.170  53.310  -1.486  1.00  0.00     0.041 C 
ATOM     19  O   UNL     1     -19.031  53.119  -0.249  1.00  0.00    -0.550 OA
ATOM     20  O   UNL     1     -20.196  52.671  -2.169  1.00  0.00    -0.550 OA
ENDBRANCH  17  18
ENDBRANCH  16  17
ENDBRANCH  15  16
ENDBRANCH  14  15
ENDBRANCH  13  14
ENDBRANCH  12  13
ENDBRANCH  11  12
ENDBRANCH   1  11
TORSDOF 15
ENDMDL
MODEL 8
REMARK VINA RESULT:    -4.896      2.158      4.449
REMARK INTER + INTRA:         -11.195
REMARK INTER:                  -9.213
REMARK INTRA:                  -1.982
REMARK UNBOUND:                -2.006
REMARK SMILES O=C([O-])CCCCCCCCCCCCCCC(=O)[O-]
REMARK SMILES IDX 10 1 9 2 8 3 7 4 6 5 5 6 4 7 2 8 1 9 3 10 11 11 12 12 13 13
REMARK SMILES IDX 14 14 15 15 16 16 17 17 18 18 19 19 20 20
REMARK H PARENT
REMARK Flexibility Score: inf
ROOT
ATOM      1  C   UNL     1     -21.669  56.356  -3.082  1.00  0.00     0.000 C 
ENDROOT
BRANCH   1   2
ATOM      2  C   UNL     1     -22.674  57.212  -2.290  1.00  0.00     0.000 C 
BRANCH   2   3
ATOM      3  C   UNL     1     -23.852  56.393  -1.735  1.00  0.00     0.000 C 
BRANCH   3   4
ATOM      4  C   UNL     1     -23.727  56.149  -0.216  1.00  0.00     0.000 C 
BRANCH   4   5
ATOM      5  C   UNL     1     -23.505  54.672   0.154  1.00  0.00     0.000 C 
BRANCH   5   6
ATOM      6  C   UNL     1     -22.045  54.224  -0.026  1.00  0.00     0.006 C 
BRANCH   6   7
ATOM      7  C   UNL     1     -21.879  53.252  -1.201  1.00  0.00     0.053 C 
BRANCH   7   8
ATOM      8  C   UNL     1     -20.464  52.780  -1.337  1.00  0.00     0.041 C 
ATOM      9  O   UNL     1     -19.930  52.691  -2.473  1.00  0.00    -0.550 OA
ATOM     10  O   UNL     1     -19.744  52.408  -0.208  1.00  0.00    -0.550 OA
ENDBRANCH   7   8
ENDBRANCH   6   7
ENDBRANCH   5   6
ENDBRANCH   4   5
ENDBRANCH   3   4
ENDBRANCH   2   3
ENDBRANCH   1   2
BRANCH   1  11
ATOM     11  C   UNL     1     -20.228  56.386  -2.541  1.00  0.00     0.000 C 
BRANCH  11  12
ATOM     12  C   UNL     1     -19.191  55.925  -3.580  1.00  0.00     0.000 C 
BRANCH  12  13
ATOM     13  C   UNL     1     -17.901  56.759  -3.535  1.00  0.00     0.000 C 
BRANCH  13  14
ATOM     14  C   UNL     1     -16.670  55.921  -3.154  1.00  0.00     0.000 C 
BRANCH  14  15
ATOM     15  C   UNL     1     -17.085  54.647  -2.408  1.00  0.00     0.000 C 
BRANCH  15  16
ATOM     16  C   UNL     1     -16.641  54.699  -0.942  1.00  0.00     0.006 C 
BRANCH  16  17
ATOM     17  C   UNL     1     -17.733  55.308  -0.057  1.00  0.00     0.053 C 
BRANCH  17  18
ATOM     18  C   UNL     1     -17.326  56.664   0.422  1.00  0.00     0.041 C 
ATOM     19  O   UNL     1     -18.201  57.525   0.708  1.00  0.00    -0.550 OA
ATOM     20  O   UNL     1     -15.981  56.998   0.504  1.00  0.00    -0.550 OA
ENDBRANCH  17  18
ENDBRANCH  16  17
ENDBRANCH  15  16
ENDBRANCH  14  15
ENDBRANCH  13  14
ENDBRANCH  12  13
ENDBRANCH  11  12
ENDBRANCH   1  11
TORSDOF 15
ENDMDL
MODEL 9
REMARK VINA RESULT:    -4.861      2.594      5.272
REMARK INTER + INTRA:         -11.130
REMARK INTER:                  -9.106
REMARK INTRA:                  -2.024
REMARK UNBOUND:                -2.006
REMARK SMILES O=C([O-])CCCCCCCCCCCCCCC(=O)[O-]
REMARK SMILES IDX 10 1 9 2 8 3 7 4 6 5 5 6 4 7 2 8 1 9 3 10 11 11 12 12 13 13
REMARK SMILES IDX 14 14 15 15 16 16 17 17 18 18 19 19 20 20
REMARK H PARENT
REMARK Flexibility Score: inf
ROOT
ATOM      1  C   UNL     1     -19.358  56.274  -2.900  1.00  0.00     0.000 C 
ENDROOT
BRANCH   1   2
ATOM      2  C   UNL     1     -18.544  55.184  -3.621  1.00  0.00     0.000 C 
BRANCH   2   3
ATOM      3  C   UNL     1     -18.217  53.984  -2.715  1.00  0.00     0.000 C 
BRANCH   3   4
ATOM      4  C   UNL     1     -19.452  53.493  -1.930  1.00  0.00     0.000 C 
BRANCH   4   5
ATOM      5  C   UNL     1     -19.229  53.430  -0.409  1.00  0.00     0.000 C 
BRANCH   5   6
ATOM      6  C   UNL     1     -18.100  54.359   0.068  1.00  0.00     0.006 C 
BRANCH   6   7
ATOM      7  C   UNL     1     -18.623  55.743   0.474  1.00  0.00     0.053 C 
BRANCH   7   8
ATOM      8  C   UNL     1     -17.584  56.806   0.289  1.00  0.00     0.041 C 
ATOM      9  O   UNL     1     -17.564  57.813   1.043  1.00  0.00    -0.550 OA
ATOM     10  O   UNL     1     -16.655  56.698  -0.739  1.00  0.00    -0.550 OA
ENDBRANCH   7   8
ENDBRANCH   6   7
ENDBRANCH   5   6
ENDBRANCH   4   5
ENDBRANCH   3   4
ENDBRANCH   2   3
ENDBRANCH   1   2
BRANCH   1  11
ATOM     11  C   UNL     1     -20.687  56.644  -3.583  1.00  0.00     0.000 C 
BRANCH  11  12
ATOM     12  C   UNL     1     -21.898  56.509  -2.643  1.00  0.00     0.000 C 
BRANCH  12  13
ATOM     13  C   UNL     1     -22.649  55.182  -2.834  1.00  0.00     0.000 C 
BRANCH  13  14
ATOM     14  C   UNL     1     -23.528  54.823  -1.627  1.00  0.00     0.000 C 
BRANCH  14  15
ATOM     15  C   UNL     1     -22.674  54.603  -0.372  1.00  0.00     0.000 C 
BRANCH  15  16
ATOM     16  C   UNL     1     -23.448  54.985   0.894  1.00  0.00     0.006 C 
BRANCH  16  17
ATOM     17  C   UNL     1     -22.970  56.333   1.446  1.00  0.00     0.053 C 
BRANCH  17  18
ATOM     18  C   UNL     1     -24.059  57.353   1.351  1.00  0.00     0.041 C 
ATOM     19  O   UNL     1     -24.047  58.365   2.102  1.00  0.00    -0.550 OA
ATOM     20  O   UNL     1     -25.115  57.165   0.469  1.00  0.00    -0.550 OA
ENDBRANCH  17  18
ENDBRANCH  16  17
ENDBRANCH  15  16
ENDBRANCH  14  15
ENDBRANCH  13  14
ENDBRANCH  12  13
ENDBRANCH  11  12
ENDBRANCH   1  11
TORSDOF 15
ENDMDL
