MODEL 1
REMARK VINA RESULT:    -3.992      0.000      0.000
REMARK INTER + INTRA:          -8.333
REMARK INTER:                  -6.092
REMARK INTRA:                  -2.241
REMARK UNBOUND:                -2.241
REMARK SMILES OC[C@@H]1O[C@](CO)(O[C@H]2O[C@@H](CO)[C@@H](O)[C@@H](O)[C@@H]2O)[C@@H](O)[C@@H]1O
REMARK SMILES IDX 8 1 9 2 11 3 14 4 10 5 16 6 18 7 12 8 13 9 15 11 17 13 19 15
REMARK SMILES IDX 5 17 20 18 4 19 22 20 3 21 6 22 7 23 21 25 23 27 2 29 1 30
REMARK H PARENT 13 10 15 12 17 14 19 16 7 24 21 26 23 28 1 31
REMARK Flexibility Score: inf
ROOT
ATOM      1  O   UNL     1       6.933   7.256  42.093  1.00  0.00    -0.313 OA
ENDROOT
BRANCH   1   2
ATOM      2  C   UNL     1       7.637   6.062  41.764  1.00  0.00     0.285 C 
ATOM      3  C   UNL     1       6.974   5.996  39.462  1.00  0.00     0.178 C 
ATOM      4  C   UNL     1       8.394   6.379  38.977  1.00  0.00     0.177 C 
ATOM      5  O   UNL     1       6.964   5.351  40.733  1.00  0.00    -0.341 OA
ATOM      6  C   UNL     1       9.196   7.130  40.050  1.00  0.00     0.179 C 
ATOM      7  C   UNL     1       9.101   6.395  41.399  1.00  0.00     0.202 C 
BRANCH   3   8
ATOM      8  C   UNL     1       5.928   7.129  39.360  1.00  0.00     0.191 C 
BRANCH   8   9
ATOM      9  O   UNL     1       4.718   6.733  39.947  1.00  0.00    -0.394 OA
ATOM     10  H   UNL     1       4.818   5.776  40.190  1.00  0.00     0.210 HD
ENDBRANCH   8   9
ENDBRANCH   3   8
BRANCH   4  11
ATOM     11  O   UNL     1       8.320   7.137  37.796  1.00  0.00    -0.387 OA
ATOM     12  H   UNL     1       8.226   8.088  38.069  1.00  0.00     0.211 HD
ENDBRANCH   4  11
BRANCH   6  13
ATOM     13  O   UNL     1       8.723   8.447  40.174  1.00  0.00    -0.387 OA
ATOM     14  H   UNL     1       7.795   8.389  40.519  1.00  0.00     0.211 HD
ENDBRANCH   6  13
BRANCH   7  15
ATOM     15  O   UNL     1       9.905   5.239  41.397  1.00  0.00    -0.385 OA
ATOM     16  H   UNL     1       9.344   4.470  41.119  1.00  0.00     0.211 HD
ENDBRANCH   7  15
ENDBRANCH   1   2
BRANCH   1  17
ATOM     17  C   UNL     1       6.175   7.204  43.301  1.00  0.00     0.224 C 
ATOM     18  C   UNL     1       6.464   5.914  44.106  1.00  0.00     0.208 C 
ATOM     19  O   UNL     1       4.814   7.143  42.918  1.00  0.00    -0.337 OA
ATOM     20  C   UNL     1       5.124   5.567  44.710  1.00  0.00     0.180 C 
ATOM     21  C   UNL     1       4.138   6.188  43.714  1.00  0.00     0.179 C 
BRANCH  17  22
ATOM     22  C   UNL     1       6.339   8.510  44.123  1.00  0.00     0.225 C 
BRANCH  22  23
ATOM     23  O   UNL     1       7.699   8.829  44.237  1.00  0.00    -0.391 OA
ATOM     24  H   UNL     1       8.148   8.413  43.456  1.00  0.00     0.210 HD
ENDBRANCH  22  23
ENDBRANCH  17  22
BRANCH  18  25
ATOM     25  O   UNL     1       7.482   6.039  45.073  1.00  0.00    -0.385 OA
ATOM     26  H   UNL     1       8.337   5.716  44.686  1.00  0.00     0.211 HD
ENDBRANCH  18  25
BRANCH  20  27
ATOM     27  O   UNL     1       4.964   4.180  44.853  1.00  0.00    -0.387 OA
ATOM     28  H   UNL     1       5.866   3.779  44.743  1.00  0.00     0.211 HD
ENDBRANCH  20  27
BRANCH  21  29
ATOM     29  C   UNL     1       3.427   5.181  42.794  1.00  0.00     0.191 C 
BRANCH  29  30
ATOM     30  O   UNL     1       4.330   4.598  41.892  1.00  0.00    -0.394 OA
ATOM     31  H   UNL     1       4.368   5.187  41.094  1.00  0.00     0.210 HD
ENDBRANCH  29  30
ENDBRANCH  21  29
ENDBRANCH   1  17
TORSDOF 13
ENDMDL
MODEL 2
REMARK VINA RESULT:    -3.920      8.068      9.226
REMARK INTER + INTRA:          -8.224
REMARK INTER:                  -5.998
REMARK INTRA:                  -2.225
REMARK UNBOUND:                -2.241
REMARK SMILES OC[C@@H]1O[C@](CO)(O[C@H]2O[C@@H](CO)[C@@H](O)[C@@H](O)[C@@H]2O)[C@@H](O)[C@@H]1O
REMARK SMILES IDX 8 1 9 2 11 3 14 4 10 5 16 6 18 7 12 8 13 9 15 11 17 13 19 15
REMARK SMILES IDX 5 17 20 18 4 19 22 20 3 21 6 22 7 23 21 25 23 27 2 29 1 30
REMARK H PARENT 13 10 15 12 17 14 19 16 7 24 21 26 23 28 1 31
REMARK Flexibility Score: inf
ROOT
ATOM      1  O   UNL     1       6.361  -1.914  40.473  1.00  0.00    -0.313 OA
ENDROOT
BRANCH   1   2
ATOM      2  C   UNL     1       6.482  -2.747  39.325  1.00  0.00     0.285 C 
ATOM      3  C   UNL     1       5.396  -1.250  37.802  1.00  0.00     0.178 C 
ATOM      4  C   UNL     1       6.727  -0.913  37.085  1.00  0.00     0.177 C 
ATOM      5  O   UNL     1       5.398  -2.529  38.430  1.00  0.00    -0.341 OA
ATOM      6  C   UNL     1       7.951  -1.151  37.983  1.00  0.00     0.179 C 
ATOM      7  C   UNL     1       7.858  -2.531  38.656  1.00  0.00     0.202 C 
BRANCH   3   8
ATOM      8  C   UNL     1       4.856  -0.133  38.724  1.00  0.00     0.191 C 
BRANCH   8   9
ATOM      9  O   UNL     1       3.693  -0.558  39.379  1.00  0.00    -0.394 OA
ATOM     10  H   UNL     1       2.940  -0.044  38.988  1.00  0.00     0.210 HD
ENDBRANCH   8   9
ENDBRANCH   3   8
BRANCH   4  11
ATOM     11  O   UNL     1       6.710   0.413  36.617  1.00  0.00    -0.387 OA
ATOM     12  H   UNL     1       7.502   0.521  36.029  1.00  0.00     0.211 HD
ENDBRANCH   4  11
BRANCH   6  13
ATOM     13  O   UNL     1       8.045  -0.137  38.952  1.00  0.00    -0.387 OA
ATOM     14  H   UNL     1       8.146  -0.586  39.830  1.00  0.00     0.211 HD
ENDBRANCH   6  13
BRANCH   7  15
ATOM     15  O   UNL     1       8.149  -3.557  37.737  1.00  0.00    -0.385 OA
ATOM     16  H   UNL     1       7.730  -4.396  38.062  1.00  0.00     0.211 HD
ENDBRANCH   7  15
ENDBRANCH   1   2
BRANCH   1  17
ATOM     17  C   UNL     1       5.774  -2.532  41.617  1.00  0.00     0.224 C 
ATOM     18  C   UNL     1       5.745  -4.074  41.486  1.00  0.00     0.208 C 
ATOM     19  O   UNL     1       4.424  -2.107  41.655  1.00  0.00    -0.337 OA
ATOM     20  C   UNL     1       4.445  -4.461  42.150  1.00  0.00     0.180 C 
ATOM     21  C   UNL     1       3.587  -3.205  41.962  1.00  0.00     0.179 C 
BRANCH  17  22
ATOM     22  C   UNL     1       6.429  -2.024  42.929  1.00  0.00     0.225 C 
BRANCH  22  23
ATOM     23  O   UNL     1       7.822  -2.136  42.836  1.00  0.00    -0.391 OA
ATOM     24  H   UNL     1       8.113  -1.449  42.183  1.00  0.00     0.210 HD
ENDBRANCH  22  23
ENDBRANCH  17  22
BRANCH  18  25
ATOM     25  O   UNL     1       6.859  -4.733  42.042  1.00  0.00    -0.385 OA
ATOM     26  H   UNL     1       7.627  -4.653  41.419  1.00  0.00     0.211 HD
ENDBRANCH  18  25
BRANCH  20  27
ATOM     27  O   UNL     1       3.884  -5.606  41.563  1.00  0.00    -0.387 OA
ATOM     28  H   UNL     1       3.196  -5.286  40.923  1.00  0.00     0.211 HD
ENDBRANCH  20  27
BRANCH  21  29
ATOM     29  C   UNL     1       2.496  -3.322  40.884  1.00  0.00     0.191 C 
BRANCH  29  30
ATOM     30  O   UNL     1       3.062  -3.466  39.608  1.00  0.00    -0.394 OA
ATOM     31  H   UNL     1       2.730  -4.324  39.237  1.00  0.00     0.210 HD
ENDBRANCH  29  30
ENDBRANCH  21  29
ENDBRANCH   1  17
TORSDOF 13
ENDMDL
MODEL 3
REMARK VINA RESULT:    -3.890      7.647      9.705
REMARK INTER + INTRA:          -8.179
REMARK INTER:                  -6.004
REMARK INTRA:                  -2.174
REMARK UNBOUND:                -2.241
REMARK SMILES OC[C@@H]1O[C@](CO)(O[C@H]2O[C@@H](CO)[C@@H](O)[C@@H](O)[C@@H]2O)[C@@H](O)[C@@H]1O
REMARK SMILES IDX 8 1 9 2 11 3 14 4 10 5 16 6 18 7 12 8 13 9 15 11 17 13 19 15
REMARK SMILES IDX 5 17 20 18 4 19 22 20 3 21 6 22 7 23 21 25 23 27 2 29 1 30
REMARK H PARENT 13 10 15 12 17 14 19 16 7 24 21 26 23 28 1 31
REMARK Flexibility Score: inf
ROOT
ATOM      1  O   UNL     1       3.588  -2.269  41.359  1.00  0.00    -0.313 OA
ENDROOT
BRANCH   1   2
ATOM      2  C   UNL     1       3.729  -0.855  41.260  1.00  0.00     0.285 C 
ATOM      3  C   UNL     1       2.887  -0.664  39.025  1.00  0.00     0.178 C 
ATOM      4  C   UNL     1       1.573  -0.002  39.510  1.00  0.00     0.177 C 
ATOM      5  O   UNL     1       3.982  -0.468  39.916  1.00  0.00    -0.341 OA
ATOM      6  C   UNL     1       1.245  -0.352  40.970  1.00  0.00     0.179 C 
ATOM      7  C   UNL     1       2.487  -0.156  41.857  1.00  0.00     0.202 C 
BRANCH   3   8
ATOM      8  C   UNL     1       2.741  -2.134  38.572  1.00  0.00     0.191 C 
BRANCH   8   9
ATOM      9  O   UNL     1       4.001  -2.732  38.437  1.00  0.00    -0.394 OA
ATOM     10  H   UNL     1       4.663  -1.994  38.382  1.00  0.00     0.210 HD
ENDBRANCH   8   9
ENDBRANCH   3   8
BRANCH   4  11
ATOM     11  O   UNL     1       0.506  -0.355  38.667  1.00  0.00    -0.387 OA
ATOM     12  H   UNL     1       0.202   0.478  38.219  1.00  0.00     0.211 HD
ENDBRANCH   4  11
BRANCH   6  13
ATOM     13  O   UNL     1       0.783  -1.677  41.057  1.00  0.00    -0.387 OA
ATOM     14  H   UNL     1       1.255  -2.193  40.354  1.00  0.00     0.211 HD
ENDBRANCH   6  13
BRANCH   7  15
ATOM     15  O   UNL     1       2.728   1.212  42.086  1.00  0.00    -0.385 OA
ATOM     16  H   UNL     1       2.859   1.657  41.208  1.00  0.00     0.211 HD
ENDBRANCH   7  15
ENDBRANCH   1   2
BRANCH   1  17
ATOM     17  C   UNL     1       4.700  -2.956  41.929  1.00  0.00     0.224 C 
ATOM     18  C   UNL     1       5.470  -2.067  42.935  1.00  0.00     0.208 C 
ATOM     19  O   UNL     1       5.594  -3.226  40.865  1.00  0.00    -0.337 OA
ATOM     20  C   UNL     1       6.911  -2.468  42.730  1.00  0.00     0.180 C 
ATOM     21  C   UNL     1       6.920  -2.952  41.276  1.00  0.00     0.179 C 
BRANCH  17  22
ATOM     22  C   UNL     1       4.276  -4.334  42.502  1.00  0.00     0.225 C 
BRANCH  22  23
ATOM     23  O   UNL     1       3.123  -4.186  43.285  1.00  0.00    -0.391 OA
ATOM     24  H   UNL     1       2.381  -4.590  42.765  1.00  0.00     0.210 HD
ENDBRANCH  22  23
ENDBRANCH  17  22
BRANCH  18  25
ATOM     25  O   UNL     1       5.053  -2.197  44.275  1.00  0.00    -0.385 OA
ATOM     26  H   UNL     1       4.062  -2.245  44.302  1.00  0.00     0.211 HD
ENDBRANCH  18  25
BRANCH  20  27
ATOM     27  O   UNL     1       7.786  -1.394  42.959  1.00  0.00    -0.387 OA
ATOM     28  H   UNL     1       7.350  -0.589  42.575  1.00  0.00     0.211 HD
ENDBRANCH  20  27
BRANCH  21  29
ATOM     29  C   UNL     1       7.566  -1.980  40.274  1.00  0.00     0.191 C 
BRANCH  29  30
ATOM     30  O   UNL     1       6.645  -1.582  39.293  1.00  0.00    -0.394 OA
ATOM     31  H   UNL     1       6.937  -1.988  38.436  1.00  0.00     0.210 HD
ENDBRANCH  29  30
ENDBRANCH  21  29
ENDBRANCH   1  17
TORSDOF 13
ENDMDL
MODEL 4
REMARK VINA RESULT:    -3.888      8.590      9.759
REMARK INTER + INTRA:          -8.175
REMARK INTER:                  -6.509
REMARK INTRA:                  -1.665
REMARK UNBOUND:                -2.241
REMARK SMILES OC[C@@H]1O[C@](CO)(O[C@H]2O[C@@H](CO)[C@@H](O)[C@@H](O)[C@@H]2O)[C@@H](O)[C@@H]1O
REMARK SMILES IDX 8 1 9 2 11 3 14 4 10 5 16 6 18 7 12 8 13 9 15 11 17 13 19 15
REMARK SMILES IDX 5 17 20 18 4 19 22 20 3 21 6 22 7 23 21 25 23 27 2 29 1 30
REMARK H PARENT 13 10 15 12 17 14 19 16 7 24 21 26 23 28 1 31
REMARK Flexibility Score: inf
ROOT
ATOM      1  O   UNL     1       6.124  -2.109  39.631  1.00  0.00    -0.313 OA
ENDROOT
BRANCH   1   2
ATOM      2  C   UNL     1       6.537  -2.648  38.379  1.00  0.00     0.285 C 
ATOM      3  C   UNL     1       6.669  -0.552  37.225  1.00  0.00     0.178 C 
ATOM      4  C   UNL     1       8.217  -0.595  37.194  1.00  0.00     0.177 C 
ATOM      5  O   UNL     1       6.068  -1.841  37.306  1.00  0.00    -0.341 OA
ATOM      6  C   UNL     1       8.801  -1.473  38.311  1.00  0.00     0.179 C 
ATOM      7  C   UNL     1       8.072  -2.827  38.362  1.00  0.00     0.202 C 
BRANCH   3   8
ATOM      8  C   UNL     1       6.070   0.451  38.237  1.00  0.00     0.191 C 
BRANCH   8   9
ATOM      9  O   UNL     1       4.708   0.190  38.436  1.00  0.00    -0.394 OA
ATOM     10  H   UNL     1       4.458   0.615  39.297  1.00  0.00     0.210 HD
ENDBRANCH   8   9
ENDBRANCH   3   8
BRANCH   4  11
ATOM     11  O   UNL     1       8.745   0.706  37.262  1.00  0.00    -0.387 OA
ATOM     12  H   UNL     1       9.530   0.667  37.870  1.00  0.00     0.211 HD
ENDBRANCH   4  11
BRANCH   6  13
ATOM     13  O   UNL     1       8.697  -0.813  39.548  1.00  0.00    -0.387 OA
ATOM     14  H   UNL     1       9.127  -1.398  40.224  1.00  0.00     0.211 HD
ENDBRANCH   6  13
BRANCH   7  15
ATOM     15  O   UNL     1       8.479  -3.655  37.298  1.00  0.00    -0.385 OA
ATOM     16  H   UNL     1       8.559  -4.583  37.638  1.00  0.00     0.211 HD
ENDBRANCH   7  15
ENDBRANCH   1   2
BRANCH   1  17
ATOM     17  C   UNL     1       5.494  -3.034  40.516  1.00  0.00     0.224 C 
ATOM     18  C   UNL     1       6.386  -3.359  41.738  1.00  0.00     0.208 C 
ATOM     19  O   UNL     1       5.345  -4.243  39.794  1.00  0.00    -0.337 OA
ATOM     20  C   UNL     1       6.104  -4.818  42.004  1.00  0.00     0.180 C 
ATOM     21  C   UNL     1       5.695  -5.336  40.620  1.00  0.00     0.179 C 
BRANCH  17  22
ATOM     22  C   UNL     1       4.060  -2.569  40.887  1.00  0.00     0.225 C 
BRANCH  22  23
ATOM     23  O   UNL     1       4.042  -1.177  41.047  1.00  0.00    -0.391 OA
ATOM     24  H   UNL     1       3.702  -1.007  41.963  1.00  0.00     0.210 HD
ENDBRANCH  22  23
ENDBRANCH  17  22
BRANCH  18  25
ATOM     25  O   UNL     1       6.158  -2.545  42.866  1.00  0.00    -0.385 OA
ATOM     26  H   UNL     1       6.982  -2.030  43.066  1.00  0.00     0.211 HD
ENDBRANCH  18  25
BRANCH  20  27
ATOM     27  O   UNL     1       7.227  -5.476  42.529  1.00  0.00    -0.387 OA
ATOM     28  H   UNL     1       7.151  -5.417  43.517  1.00  0.00     0.211 HD
ENDBRANCH  20  27
BRANCH  21  29
ATOM     29  C   UNL     1       6.761  -6.184  39.905  1.00  0.00     0.191 C 
BRANCH  29  30
ATOM     30  O   UNL     1       6.860  -7.460  40.480  1.00  0.00    -0.394 OA
ATOM     31  H   UNL     1       7.677  -7.884  40.111  1.00  0.00     0.210 HD
ENDBRANCH  29  30
ENDBRANCH  21  29
ENDBRANCH   1  17
TORSDOF 13
ENDMDL
MODEL 5
REMARK VINA RESULT:    -3.798      7.861      9.486
REMARK INTER + INTRA:          -8.038
REMARK INTER:                  -6.487
REMARK INTRA:                  -1.550
REMARK UNBOUND:                -2.241
REMARK SMILES OC[C@@H]1O[C@](CO)(O[C@H]2O[C@@H](CO)[C@@H](O)[C@@H](O)[C@@H]2O)[C@@H](O)[C@@H]1O
REMARK SMILES IDX 8 1 9 2 11 3 14 4 10 5 16 6 18 7 12 8 13 9 15 11 17 13 19 15
REMARK SMILES IDX 5 17 20 18 4 19 22 20 3 21 6 22 7 23 21 25 23 27 2 29 1 30
REMARK H PARENT 13 10 15 12 17 14 19 16 7 24 21 26 23 28 1 31
REMARK Flexibility Score: inf
ROOT
ATOM      1  O   UNL     1       6.024  -2.356  38.772  1.00  0.00    -0.313 OA
ENDROOT
BRANCH   1   2
ATOM      2  C   UNL     1       6.487  -1.013  38.867  1.00  0.00     0.285 C 
ATOM      3  C   UNL     1       8.505  -1.344  37.619  1.00  0.00     0.178 C 
ATOM      4  C   UNL     1       7.961  -0.547  36.407  1.00  0.00     0.177 C 
ATOM      5  O   UNL     1       7.908  -0.970  38.858  1.00  0.00    -0.341 OA
ATOM      6  C   UNL     1       6.426  -0.525  36.364  1.00  0.00     0.179 C 
ATOM      7  C   UNL     1       5.859  -0.156  37.746  1.00  0.00     0.202 C 
BRANCH   3   8
ATOM      8  C   UNL     1       8.553  -2.876  37.418  1.00  0.00     0.191 C 
BRANCH   8   9
ATOM      9  O   UNL     1       9.629  -3.228  36.593  1.00  0.00    -0.394 OA
ATOM     10  H   UNL     1       9.434  -2.858  35.693  1.00  0.00     0.210 HD
ENDBRANCH   8   9
ENDBRANCH   3   8
BRANCH   4  11
ATOM     11  O   UNL     1       8.481  -1.064  35.208  1.00  0.00    -0.387 OA
ATOM     12  H   UNL     1       8.057  -1.952  35.069  1.00  0.00     0.211 HD
ENDBRANCH   4  11
BRANCH   6  13
ATOM     13  O   UNL     1       5.935  -1.775  35.950  1.00  0.00    -0.387 OA
ATOM     14  H   UNL     1       6.697  -2.263  35.543  1.00  0.00     0.211 HD
ENDBRANCH   6  13
BRANCH   7  15
ATOM     15  O   UNL     1       6.018   1.220  38.001  1.00  0.00    -0.385 OA
ATOM     16  H   UNL     1       6.819   1.341  38.573  1.00  0.00     0.211 HD
ENDBRANCH   7  15
ENDBRANCH   1   2
BRANCH   1  17
ATOM     17  C   UNL     1       5.455  -2.892  39.965  1.00  0.00     0.224 C 
ATOM     18  C   UNL     1       4.692  -1.814  40.773  1.00  0.00     0.208 C 
ATOM     19  O   UNL     1       6.539  -3.309  40.775  1.00  0.00    -0.337 OA
ATOM     20  C   UNL     1       4.962  -2.191  42.209  1.00  0.00     0.180 C 
ATOM     21  C   UNL     1       6.308  -2.919  42.116  1.00  0.00     0.179 C 
BRANCH  17  22
ATOM     22  C   UNL     1       4.619  -4.165  39.666  1.00  0.00     0.225 C 
BRANCH  22  23
ATOM     23  O   UNL     1       3.573  -3.849  38.788  1.00  0.00    -0.391 OA
ATOM     24  H   UNL     1       3.923  -4.004  37.873  1.00  0.00     0.210 HD
ENDBRANCH  22  23
ENDBRANCH  17  22
BRANCH  18  25
ATOM     25  O   UNL     1       3.315  -1.726  40.482  1.00  0.00    -0.385 OA
ATOM     26  H   UNL     1       3.201  -1.405  39.550  1.00  0.00     0.211 HD
ENDBRANCH  18  25
BRANCH  20  27
ATOM     27  O   UNL     1       5.003  -1.061  43.042  1.00  0.00    -0.387 OA
ATOM     28  H   UNL     1       5.553  -1.311  43.830  1.00  0.00     0.211 HD
ENDBRANCH  20  27
BRANCH  21  29
ATOM     29  C   UNL     1       7.517  -2.112  42.618  1.00  0.00     0.191 C 
BRANCH  29  30
ATOM     30  O   UNL     1       8.352  -1.739  41.554  1.00  0.00    -0.394 OA
ATOM     31  H   UNL     1       7.772  -1.353  40.849  1.00  0.00     0.210 HD
ENDBRANCH  29  30
ENDBRANCH  21  29
ENDBRANCH   1  17
TORSDOF 13
ENDMDL
MODEL 6
REMARK VINA RESULT:    -3.786      7.649      9.785
REMARK INTER + INTRA:          -8.019
REMARK INTER:                  -5.971
REMARK INTRA:                  -2.048
REMARK UNBOUND:                -2.241
REMARK SMILES OC[C@@H]1O[C@](CO)(O[C@H]2O[C@@H](CO)[C@@H](O)[C@@H](O)[C@@H]2O)[C@@H](O)[C@@H]1O
REMARK SMILES IDX 8 1 9 2 11 3 14 4 10 5 16 6 18 7 12 8 13 9 15 11 17 13 19 15
REMARK SMILES IDX 5 17 20 18 4 19 22 20 3 21 6 22 7 23 21 25 23 27 2 29 1 30
REMARK H PARENT 13 10 15 12 17 14 19 16 7 24 21 26 23 28 1 31
REMARK Flexibility Score: inf
ROOT
ATOM      1  O   UNL     1       4.564  -1.524  40.377  1.00  0.00    -0.313 OA
ENDROOT
BRANCH   1   2
ATOM      2  C   UNL     1       4.099  -1.926  41.661  1.00  0.00     0.285 C 
ATOM      3  C   UNL     1       4.354  -4.282  41.303  1.00  0.00     0.178 C 
ATOM      4  C   UNL     1       5.566  -4.361  42.265  1.00  0.00     0.177 C 
ATOM      5  O   UNL     1       3.472  -3.201  41.591  1.00  0.00    -0.341 OA
ATOM      6  C   UNL     1       6.282  -3.010  42.414  1.00  0.00     0.179 C 
ATOM      7  C   UNL     1       5.260  -1.891  42.679  1.00  0.00     0.202 C 
BRANCH   3   8
ATOM      8  C   UNL     1       4.711  -4.378  39.803  1.00  0.00     0.191 C 
BRANCH   8   9
ATOM      9  O   UNL     1       3.581  -4.124  39.014  1.00  0.00    -0.394 OA
ATOM     10  H   UNL     1       3.201  -3.262  39.327  1.00  0.00     0.210 HD
ENDBRANCH   8   9
ENDBRANCH   3   8
BRANCH   4  11
ATOM     11  O   UNL     1       6.467  -5.351  41.837  1.00  0.00    -0.387 OA
ATOM     12  H   UNL     1       6.386  -6.109  42.475  1.00  0.00     0.211 HD
ENDBRANCH   4  11
BRANCH   6  13
ATOM     13  O   UNL     1       7.030  -2.728  41.258  1.00  0.00    -0.387 OA
ATOM     14  H   UNL     1       7.790  -3.364  41.244  1.00  0.00     0.211 HD
ENDBRANCH   6  13
BRANCH   7  15
ATOM     15  O   UNL     1       4.784  -1.951  44.003  1.00  0.00    -0.385 OA
ATOM     16  H   UNL     1       3.846  -1.630  44.013  1.00  0.00     0.211 HD
ENDBRANCH   7  15
ENDBRANCH   1   2
BRANCH   1  17
ATOM     17  C   UNL     1       3.738  -0.579  39.697  1.00  0.00     0.224 C 
ATOM     18  C   UNL     1       2.704   0.070  40.649  1.00  0.00     0.208 C 
ATOM     19  O   UNL     1       2.997  -1.311  38.738  1.00  0.00    -0.337 OA
ATOM     20  C   UNL     1       1.482   0.242  39.779  1.00  0.00     0.180 C 
ATOM     21  C   UNL     1       1.652  -0.873  38.741  1.00  0.00     0.179 C 
BRANCH  17  22
ATOM     22  C   UNL     1       4.592   0.443  38.901  1.00  0.00     0.225 C 
BRANCH  22  23
ATOM     23  O   UNL     1       5.341  -0.226  37.924  1.00  0.00    -0.391 OA
ATOM     24  H   UNL     1       6.286   0.035  38.072  1.00  0.00     0.210 HD
ENDBRANCH  22  23
ENDBRANCH  17  22
BRANCH  18  25
ATOM     25  O   UNL     1       3.127   1.278  41.240  1.00  0.00    -0.385 OA
ATOM     26  H   UNL     1       2.593   1.441  42.060  1.00  0.00     0.211 HD
ENDBRANCH  18  25
BRANCH  20  27
ATOM     27  O   UNL     1       0.297   0.128  40.523  1.00  0.00    -0.387 OA
ATOM     28  H   UNL     1      -0.447   0.103  39.866  1.00  0.00     0.211 HD
ENDBRANCH  20  27
BRANCH  21  29
ATOM     29  C   UNL     1       0.729  -2.088  38.940  1.00  0.00     0.191 C 
BRANCH  29  30
ATOM     30  O   UNL     1       1.110  -2.831  40.067  1.00  0.00    -0.394 OA
ATOM     31  H   UNL     1       1.317  -2.183  40.788  1.00  0.00     0.210 HD
ENDBRANCH  29  30
ENDBRANCH  21  29
ENDBRANCH   1  17
TORSDOF 13
ENDMDL
MODEL 7
REMARK VINA RESULT:    -3.738      7.594      9.807
REMARK INTER + INTRA:          -7.946
REMARK INTER:                  -5.714
REMARK INTRA:                  -2.232
REMARK UNBOUND:                -2.241
REMARK SMILES OC[C@@H]1O[C@](CO)(O[C@H]2O[C@@H](CO)[C@@H](O)[C@@H](O)[C@@H]2O)[C@@H](O)[C@@H]1O
REMARK SMILES IDX 8 1 9 2 11 3 14 4 10 5 16 6 18 7 12 8 13 9 15 11 17 13 19 15
REMARK SMILES IDX 5 17 20 18 4 19 22 20 3 21 6 22 7 23 21 25 23 27 2 29 1 30
REMARK H PARENT 13 10 15 12 17 14 19 16 7 24 21 26 23 28 1 31
REMARK Flexibility Score: inf
ROOT
ATOM      1  O   UNL     1       3.982  -2.412  40.212  1.00  0.00    -0.313 OA
ENDROOT
BRANCH   1   2
ATOM      2  C   UNL     1       5.264  -1.947  40.620  1.00  0.00     0.285 C 
ATOM      3  C   UNL     1       5.496  -3.430  42.488  1.00  0.00     0.178 C 
ATOM      4  C   UNL     1       6.578  -4.271  41.767  1.00  0.00     0.177 C 
ATOM      5  O   UNL     1       5.423  -2.083  42.026  1.00  0.00    -0.341 OA
ATOM      6  C   UNL     1       6.488  -4.153  40.238  1.00  0.00     0.179 C 
ATOM      7  C   UNL     1       6.369  -2.676  39.823  1.00  0.00     0.202 C 
BRANCH   3   8
ATOM      8  C   UNL     1       4.108  -4.104  42.583  1.00  0.00     0.191 C 
BRANCH   8   9
ATOM      9  O   UNL     1       3.146  -3.183  43.019  1.00  0.00    -0.394 OA
ATOM     10  H   UNL     1       2.837  -3.494  43.910  1.00  0.00     0.210 HD
ENDBRANCH   8   9
ENDBRANCH   3   8
BRANCH   4  11
ATOM     11  O   UNL     1       6.497  -5.617  42.163  1.00  0.00    -0.387 OA
ATOM     12  H   UNL     1       5.567  -5.916  41.980  1.00  0.00     0.211 HD
ENDBRANCH   4  11
BRANCH   6  13
ATOM     13  O   UNL     1       5.388  -4.887  39.760  1.00  0.00    -0.387 OA
ATOM     14  H   UNL     1       5.259  -5.649  40.381  1.00  0.00     0.211 HD
ENDBRANCH   6  13
BRANCH   7  15
ATOM     15  O   UNL     1       7.609  -2.020  39.947  1.00  0.00    -0.385 OA
ATOM     16  H   UNL     1       7.610  -1.237  39.337  1.00  0.00     0.211 HD
ENDBRANCH   7  15
ENDBRANCH   1   2
BRANCH   1  17
ATOM     17  C   UNL     1       3.028  -1.393  39.918  1.00  0.00     0.224 C 
ATOM     18  C   UNL     1       3.693   0.000  39.801  1.00  0.00     0.208 C 
ATOM     19  O   UNL     1       2.153  -1.328  41.029  1.00  0.00    -0.337 OA
ATOM     20  C   UNL     1       2.662   0.934  40.388  1.00  0.00     0.180 C 
ATOM     21  C   UNL     1       1.901   0.024  41.358  1.00  0.00     0.179 C 
BRANCH  17  22
ATOM     22  C   UNL     1       2.152  -1.778  38.695  1.00  0.00     0.225 C 
BRANCH  22  23
ATOM     23  O   UNL     1       2.914  -2.522  37.784  1.00  0.00    -0.391 OA
ATOM     24  H   UNL     1       3.592  -3.008  38.322  1.00  0.00     0.210 HD
ENDBRANCH  22  23
ENDBRANCH  17  22
BRANCH  18  25
ATOM     25  O   UNL     1       4.074   0.362  38.493  1.00  0.00    -0.385 OA
ATOM     26  H   UNL     1       3.434  -0.035  37.848  1.00  0.00     0.211 HD
ENDBRANCH  18  25
BRANCH  20  27
ATOM     27  O   UNL     1       3.262   2.036  41.019  1.00  0.00    -0.387 OA
ATOM     28  H   UNL     1       4.220   2.021  40.761  1.00  0.00     0.211 HD
ENDBRANCH  20  27
BRANCH  21  29
ATOM     29  C   UNL     1       2.227   0.247  42.845  1.00  0.00     0.191 C 
BRANCH  29  30
ATOM     30  O   UNL     1       3.524  -0.192  43.149  1.00  0.00    -0.394 OA
ATOM     31  H   UNL     1       4.034  -0.208  42.298  1.00  0.00     0.210 HD
ENDBRANCH  29  30
ENDBRANCH  21  29
ENDBRANCH   1  17
TORSDOF 13
ENDMDL
MODEL 8
REMARK VINA RESULT:    -3.672      8.187     10.210
REMARK INTER + INTRA:          -7.846
REMARK INTER:                  -5.586
REMARK INTRA:                  -2.259
REMARK UNBOUND:                -2.241
REMARK SMILES OC[C@@H]1O[C@](CO)(O[C@H]2O[C@@H](CO)[C@@H](O)[C@@H](O)[C@@H]2O)[C@@H](O)[C@@H]1O
REMARK SMILES IDX 8 1 9 2 11 3 14 4 10 5 16 6 18 7 12 8 13 9 15 11 17 13 19 15
REMARK SMILES IDX 5 17 20 18 4 19 22 20 3 21 6 22 7 23 21 25 23 27 2 29 1 30
REMARK H PARENT 13 10 15 12 17 14 19 16 7 24 21 26 23 28 1 31
REMARK Flexibility Score: inf
ROOT
ATOM      1  O   UNL     1       3.606  -1.990  41.283  1.00  0.00    -0.313 OA
ENDROOT
BRANCH   1   2
ATOM      2  C   UNL     1       3.925  -1.711  39.924  1.00  0.00     0.285 C 
ATOM      3  C   UNL     1       1.737  -2.149  39.049  1.00  0.00     0.178 C 
ATOM      4  C   UNL     1       1.475  -0.647  38.779  1.00  0.00     0.177 C 
ATOM      5  O   UNL     1       3.120  -2.492  39.049  1.00  0.00    -0.341 OA
ATOM      6  C   UNL     1       2.332   0.265  39.671  1.00  0.00     0.179 C 
ATOM      7  C   UNL     1       3.800  -0.196  39.652  1.00  0.00     0.202 C 
BRANCH   3   8
ATOM      8  C   UNL     1       0.978  -2.731  40.262  1.00  0.00     0.191 C 
BRANCH   8   9
ATOM      9  O   UNL     1       1.393  -4.045  40.515  1.00  0.00    -0.394 OA
ATOM     10  H   UNL     1       0.590  -4.621  40.428  1.00  0.00     0.210 HD
ENDBRANCH   8   9
ENDBRANCH   3   8
BRANCH   4  11
ATOM     11  O   UNL     1       0.111  -0.351  38.938  1.00  0.00    -0.387 OA
ATOM     12  H   UNL     1      -0.300  -1.125  39.406  1.00  0.00     0.211 HD
ENDBRANCH   4  11
BRANCH   6  13
ATOM     13  O   UNL     1       1.834   0.262  40.985  1.00  0.00    -0.387 OA
ATOM     14  H   UNL     1       2.339  -0.430  41.484  1.00  0.00     0.211 HD
ENDBRANCH   6  13
BRANCH   7  15
ATOM     15  O   UNL     1       4.420   0.162  38.439  1.00  0.00    -0.385 OA
ATOM     16  H   UNL     1       3.862  -0.175  37.692  1.00  0.00     0.211 HD
ENDBRANCH   7  15
ENDBRANCH   1   2
BRANCH   1  17
ATOM     17  C   UNL     1       4.500  -2.881  41.949  1.00  0.00     0.224 C 
ATOM     18  C   UNL     1       5.800  -3.102  41.139  1.00  0.00     0.208 C 
ATOM     19  O   UNL     1       3.846  -4.135  42.011  1.00  0.00    -0.337 OA
ATOM     20  C   UNL     1       6.136  -4.551  41.399  1.00  0.00     0.180 C 
ATOM     21  C   UNL     1       4.762  -5.165  41.691  1.00  0.00     0.179 C 
BRANCH  17  22
ATOM     22  C   UNL     1       4.739  -2.441  43.419  1.00  0.00     0.225 C 
BRANCH  22  23
ATOM     23  O   UNL     1       4.993  -1.064  43.464  1.00  0.00    -0.391 OA
ATOM     24  H   UNL     1       5.687  -0.887  42.778  1.00  0.00     0.210 HD
ENDBRANCH  22  23
ENDBRANCH  17  22
BRANCH  18  25
ATOM     25  O   UNL     1       6.856  -2.230  41.472  1.00  0.00    -0.385 OA
ATOM     26  H   UNL     1       6.545  -1.293  41.373  1.00  0.00     0.211 HD
ENDBRANCH  18  25
BRANCH  20  27
ATOM     27  O   UNL     1       6.780  -5.138  40.298  1.00  0.00    -0.387 OA
ATOM     28  H   UNL     1       6.485  -6.085  40.271  1.00  0.00     0.211 HD
ENDBRANCH  20  27
BRANCH  21  29
ATOM     29  C   UNL     1       4.179  -6.018  40.552  1.00  0.00     0.191 C 
BRANCH  29  30
ATOM     30  O   UNL     1       3.885  -5.229  39.430  1.00  0.00    -0.394 OA
ATOM     31  H   UNL     1       3.454  -5.820  38.760  1.00  0.00     0.210 HD
ENDBRANCH  29  30
ENDBRANCH  21  29
ENDBRANCH   1  17
TORSDOF 13
ENDMDL
MODEL 9
REMARK VINA RESULT:    -3.672      7.667     10.048
REMARK INTER + INTRA:          -7.846
REMARK INTER:                  -5.638
REMARK INTRA:                  -2.208
REMARK UNBOUND:                -2.241
REMARK SMILES OC[C@@H]1O[C@](CO)(O[C@H]2O[C@@H](CO)[C@@H](O)[C@@H](O)[C@@H]2O)[C@@H](O)[C@@H]1O
REMARK SMILES IDX 8 1 9 2 11 3 14 4 10 5 16 6 18 7 12 8 13 9 15 11 17 13 19 15
REMARK SMILES IDX 5 17 20 18 4 19 22 20 3 21 6 22 7 23 21 25 23 27 2 29 1 30
REMARK H PARENT 13 10 15 12 17 14 19 16 7 24 21 26 23 28 1 31
REMARK Flexibility Score: inf
ROOT
ATOM      1  O   UNL     1       3.891  -2.474  40.836  1.00  0.00    -0.313 OA
ENDROOT
BRANCH   1   2
ATOM      2  C   UNL     1       4.115  -1.261  41.547  1.00  0.00     0.285 C 
ATOM      3  C   UNL     1       2.118  -0.158  40.816  1.00  0.00     0.178 C 
ATOM      4  C   UNL     1       1.464  -0.278  42.215  1.00  0.00     0.177 C 
ATOM      5  O   UNL     1       3.542  -0.160  40.854  1.00  0.00    -0.341 OA
ATOM      6  C   UNL     1       2.053  -1.434  43.038  1.00  0.00     0.179 C 
ATOM      7  C   UNL     1       3.590  -1.392  42.994  1.00  0.00     0.202 C 
BRANCH   3   8
ATOM      8  C   UNL     1       1.548  -1.122  39.751  1.00  0.00     0.191 C 
BRANCH   8   9
ATOM      9  O   UNL     1       2.327  -1.081  38.587  1.00  0.00    -0.394 OA
ATOM     10  H   UNL     1       2.751  -1.974  38.495  1.00  0.00     0.210 HD
ENDBRANCH   8   9
ENDBRANCH   3   8
BRANCH   4  11
ATOM     11  O   UNL     1       0.071  -0.418  42.095  1.00  0.00    -0.387 OA
ATOM     12  H   UNL     1      -0.091  -1.180  41.478  1.00  0.00     0.211 HD
ENDBRANCH   4  11
BRANCH   6  13
ATOM     13  O   UNL     1       1.581  -2.665  42.550  1.00  0.00    -0.387 OA
ATOM     14  H   UNL     1       2.350  -3.116  42.114  1.00  0.00     0.211 HD
ENDBRANCH   6  13
BRANCH   7  15
ATOM     15  O   UNL     1       4.086  -0.360  43.815  1.00  0.00    -0.385 OA
ATOM     16  H   UNL     1       4.539  -0.774  44.595  1.00  0.00     0.211 HD
ENDBRANCH   7  15
ENDBRANCH   1   2
BRANCH   1  17
ATOM     17  C   UNL     1       5.016  -2.979  40.119  1.00  0.00     0.224 C 
ATOM     18  C   UNL     1       6.352  -2.500  40.735  1.00  0.00     0.208 C 
ATOM     19  O   UNL     1       4.949  -2.419  38.820  1.00  0.00    -0.337 OA
ATOM     20  C   UNL     1       7.244  -2.297  39.534  1.00  0.00     0.180 C 
ATOM     21  C   UNL     1       6.236  -1.992  38.419  1.00  0.00     0.179 C 
BRANCH  17  22
ATOM     22  C   UNL     1       4.922  -4.517  39.935  1.00  0.00     0.225 C 
BRANCH  22  23
ATOM     23  O   UNL     1       4.636  -5.123  41.166  1.00  0.00    -0.391 OA
ATOM     24  H   UNL     1       4.575  -6.097  40.988  1.00  0.00     0.210 HD
ENDBRANCH  22  23
ENDBRANCH  17  22
BRANCH  18  25
ATOM     25  O   UNL     1       6.910  -3.379  41.686  1.00  0.00    -0.385 OA
ATOM     26  H   UNL     1       6.653  -3.077  42.595  1.00  0.00     0.211 HD
ENDBRANCH  18  25
BRANCH  20  27
ATOM     27  O   UNL     1       8.166  -1.259  39.742  1.00  0.00    -0.387 OA
ATOM     28  H   UNL     1       8.446  -0.946  38.843  1.00  0.00     0.211 HD
ENDBRANCH  20  27
BRANCH  21  29
ATOM     29  C   UNL     1       6.166  -0.515  37.995  1.00  0.00     0.191 C 
BRANCH  29  30
ATOM     30  O   UNL     1       4.894   0.021  38.245  1.00  0.00    -0.394 OA
ATOM     31  H   UNL     1       4.263  -0.420  37.620  1.00  0.00     0.210 HD
ENDBRANCH  29  30
ENDBRANCH  21  29
ENDBRANCH   1  17
TORSDOF 13
ENDMDL
