MODEL 1
REMARK VINA RESULT:    -4.009      0.000      0.000
REMARK INTER + INTRA:          -4.833
REMARK INTER:                  -4.712
REMARK INTRA:                  -0.121
REMARK UNBOUND:                -0.121
REMARK SMILES O=C([O-])CCC(=O)[O-]
REMARK SMILES IDX 4 1 2 2 1 3 3 4 5 5 6 6 7 7 8 8
REMARK H PARENT
REMARK Flexibility Score: inf
ROOT
ATOM      1  C   UNL     1      23.928 -19.506 -25.864  1.00  0.00     0.059 C 
ENDROOT
BRANCH   1   2
ATOM      2  C   UNL     1      25.392 -19.501 -26.179  1.00  0.00     0.042 C 
ATOM      3  O   UNL     1      26.031 -20.584 -26.241  1.00  0.00    -0.550 OA
ATOM      4  O   UNL     1      26.041 -18.302 -26.446  1.00  0.00    -0.550 OA
ENDBRANCH   1   2
BRANCH   1   5
ATOM      5  C   UNL     1      23.097 -20.020 -27.044  1.00  0.00     0.059 C 
BRANCH   5   6
ATOM      6  C   UNL     1      22.487 -21.357 -26.751  1.00  0.00     0.042 C 
ATOM      7  O   UNL     1      23.020 -22.125 -25.907  1.00  0.00    -0.550 OA
ATOM      8  O   UNL     1      21.308 -21.738 -27.378  1.00  0.00    -0.550 OA
ENDBRANCH   5   6
ENDBRANCH   1   5
TORSDOF 3
ENDMDL
MODEL 2
REMARK VINA RESULT:    -3.261      8.477      9.045
REMARK INTER + INTRA:          -3.954
REMARK INTER:                  -3.927
REMARK INTRA:                  -0.027
REMARK UNBOUND:                -0.121
REMARK SMILES O=C([O-])CCC(=O)[O-]
REMARK SMILES IDX 4 1 2 2 1 3 3 4 5 5 6 6 7 7 8 8
REMARK H PARENT
REMARK Flexibility Score: inf
ROOT
ATOM      1  C   UNL     1      26.517 -19.851 -35.245  1.00  0.00     0.059 C 
ENDROOT
BRANCH   1   2
ATOM      2  C   UNL     1      27.666 -20.748 -34.899  1.00  0.00     0.042 C 
ATOM      3  O   UNL     1      28.850 -20.349 -35.051  1.00  0.00    -0.550 OA
ATOM      4  O   UNL     1      27.427 -22.010 -34.369  1.00  0.00    -0.550 OA
ENDBRANCH   1   2
BRANCH   1   5
ATOM      5  C   UNL     1      25.961 -19.140 -34.007  1.00  0.00     0.059 C 
BRANCH   5   6
ATOM      6  C   UNL     1      25.072 -17.994 -34.380  1.00  0.00     0.042 C 
ATOM      7  O   UNL     1      25.564 -16.855 -34.599  1.00  0.00    -0.550 OA
ATOM      8  O   UNL     1      23.705 -18.192 -34.527  1.00  0.00    -0.550 OA
ENDBRANCH   5   6
ENDBRANCH   1   5
TORSDOF 3
ENDMDL
MODEL 3
REMARK VINA RESULT:    -3.245      1.672      3.537
REMARK INTER + INTRA:          -3.935
REMARK INTER:                  -3.898
REMARK INTRA:                  -0.037
REMARK UNBOUND:                -0.121
REMARK SMILES O=C([O-])CCC(=O)[O-]
REMARK SMILES IDX 4 1 2 2 1 3 3 4 5 5 6 6 7 7 8 8
REMARK H PARENT
REMARK Flexibility Score: inf
ROOT
ATOM      1  C   UNL     1      22.899 -19.965 -26.848  1.00  0.00     0.059 C 
ENDROOT
BRANCH   1   2
ATOM      2  C   UNL     1      22.461 -21.349 -27.217  1.00  0.00     0.042 C 
ATOM      3  O   UNL     1      21.362 -21.799 -26.798  1.00  0.00    -0.550 OA
ATOM      4  O   UNL     1      23.247 -22.125 -28.059  1.00  0.00    -0.550 OA
ENDBRANCH   1   2
BRANCH   1   5
ATOM      5  C   UNL     1      24.373 -19.930 -26.430  1.00  0.00     0.059 C 
BRANCH   5   6
ATOM      6  C   UNL     1      24.667 -20.933 -25.356  1.00  0.00     0.042 C 
ATOM      7  O   UNL     1      23.985 -20.945 -24.297  1.00  0.00    -0.550 OA
ATOM      8  O   UNL     1      25.664 -21.882 -25.543  1.00  0.00    -0.550 OA
ENDBRANCH   5   6
ENDBRANCH   1   5
TORSDOF 3
ENDMDL
MODEL 4
REMARK VINA RESULT:    -3.233      8.497      9.187
REMARK INTER + INTRA:          -3.921
REMARK INTER:                  -3.895
REMARK INTRA:                  -0.026
REMARK UNBOUND:                -0.121
REMARK SMILES O=C([O-])CCC(=O)[O-]
REMARK SMILES IDX 4 1 2 2 1 3 3 4 5 5 6 6 7 7 8 8
REMARK H PARENT
REMARK Flexibility Score: inf
ROOT
ATOM      1  C   UNL     1      25.895 -19.093 -34.051  1.00  0.00     0.059 C 
ENDROOT
BRANCH   1   2
ATOM      2  C   UNL     1      25.008 -17.944 -34.423  1.00  0.00     0.042 C 
ATOM      3  O   UNL     1      25.503 -16.808 -34.646  1.00  0.00    -0.550 OA
ATOM      4  O   UNL     1      23.640 -18.139 -34.564  1.00  0.00    -0.550 OA
ENDBRANCH   1   2
BRANCH   1   5
ATOM      5  C   UNL     1      26.452 -19.801 -35.291  1.00  0.00     0.059 C 
BRANCH   5   6
ATOM      6  C   UNL     1      27.548 -20.759 -34.934  1.00  0.00     0.042 C 
ATOM      7  O   UNL     1      28.754 -20.419 -35.064  1.00  0.00    -0.550 OA
ATOM      8  O   UNL     1      27.238 -22.011 -34.419  1.00  0.00    -0.550 OA
ENDBRANCH   5   6
ENDBRANCH   1   5
TORSDOF 3
ENDMDL
MODEL 5
REMARK VINA RESULT:    -3.158     14.288     15.253
REMARK INTER + INTRA:          -3.833
REMARK INTER:                  -3.770
REMARK INTRA:                  -0.063
REMARK UNBOUND:                -0.121
REMARK SMILES O=C([O-])CCC(=O)[O-]
REMARK SMILES IDX 4 1 2 2 1 3 3 4 5 5 6 6 7 7 8 8
REMARK H PARENT
REMARK Flexibility Score: inf
ROOT
ATOM      1  C   UNL     1      15.326  -9.805 -28.724  1.00  0.00     0.059 C 
ENDROOT
BRANCH   1   2
ATOM      2  C   UNL     1      14.404 -10.088 -27.578  1.00  0.00     0.042 C 
ATOM      3  O   UNL     1      13.216  -9.670 -27.602  1.00  0.00    -0.550 OA
ATOM      4  O   UNL     1      14.844 -10.849 -26.503  1.00  0.00    -0.550 OA
ENDBRANCH   1   2
BRANCH   1   5
ATOM      5  C   UNL     1      14.614  -9.043 -29.847  1.00  0.00     0.059 C 
BRANCH   5   6
ATOM      6  C   UNL     1      15.264  -7.720 -30.116  1.00  0.00     0.042 C 
ATOM      7  O   UNL     1      14.558  -6.690 -30.285  1.00  0.00    -0.550 OA
ATOM      8  O   UNL     1      16.649  -7.615 -30.137  1.00  0.00    -0.550 OA
ENDBRANCH   5   6
ENDBRANCH   1   5
TORSDOF 3
ENDMDL
MODEL 6
REMARK VINA RESULT:    -3.152     14.300     15.016
REMARK INTER + INTRA:          -3.825
REMARK INTER:                  -3.763
REMARK INTRA:                  -0.062
REMARK UNBOUND:                -0.121
REMARK SMILES O=C([O-])CCC(=O)[O-]
REMARK SMILES IDX 4 1 2 2 1 3 3 4 5 5 6 6 7 7 8 8
REMARK H PARENT
REMARK Flexibility Score: inf
ROOT
ATOM      1  C   UNL     1      14.612  -9.011 -29.844  1.00  0.00     0.059 C 
ENDROOT
BRANCH   1   2
ATOM      2  C   UNL     1      15.275  -7.693 -30.100  1.00  0.00     0.042 C 
ATOM      3  O   UNL     1      14.584  -6.643 -30.185  1.00  0.00    -0.550 OA
ATOM      4  O   UNL     1      16.658  -7.617 -30.202  1.00  0.00    -0.550 OA
ENDBRANCH   1   2
BRANCH   1   5
ATOM      5  C   UNL     1      15.320  -9.793 -28.732  1.00  0.00     0.059 C 
BRANCH   5   6
ATOM      6  C   UNL     1      14.397 -10.083 -27.587  1.00  0.00     0.042 C 
ATOM      7  O   UNL     1      13.203  -9.685 -27.619  1.00  0.00    -0.550 OA
ATOM      8  O   UNL     1      14.844 -10.830 -26.504  1.00  0.00    -0.550 OA
ENDBRANCH   5   6
ENDBRANCH   1   5
TORSDOF 3
ENDMDL
MODEL 7
REMARK VINA RESULT:    -3.096     14.303     15.241
REMARK INTER + INTRA:          -3.760
REMARK INTER:                  -3.705
REMARK INTRA:                  -0.054
REMARK UNBOUND:                -0.121
REMARK SMILES O=C([O-])CCC(=O)[O-]
REMARK SMILES IDX 4 1 2 2 1 3 3 4 5 5 6 6 7 7 8 8
REMARK H PARENT
REMARK Flexibility Score: inf
ROOT
ATOM      1  C   UNL     1      15.332  -9.767 -28.735  1.00  0.00     0.059 C 
ENDROOT
BRANCH   1   2
ATOM      2  C   UNL     1      14.462 -10.093 -27.560  1.00  0.00     0.042 C 
ATOM      3  O   UNL     1      14.925 -10.756 -26.594  1.00  0.00    -0.550 OA
ATOM      4  O   UNL     1      13.154  -9.629 -27.513  1.00  0.00    -0.550 OA
ENDBRANCH   1   2
BRANCH   1   5
ATOM      5  C   UNL     1      14.562  -8.994 -29.811  1.00  0.00     0.059 C 
BRANCH   5   6
ATOM      6  C   UNL     1      15.270  -7.731 -30.198  1.00  0.00     0.042 C 
ATOM      7  O   UNL     1      14.610  -6.716 -30.545  1.00  0.00    -0.550 OA
ATOM      8  O   UNL     1      16.655  -7.662 -30.135  1.00  0.00    -0.550 OA
ENDBRANCH   5   6
ENDBRANCH   1   5
TORSDOF 3
ENDMDL
MODEL 8
REMARK VINA RESULT:    -2.945     14.882     15.645
REMARK INTER + INTRA:          -3.583
REMARK INTER:                  -3.471
REMARK INTRA:                  -0.112
REMARK UNBOUND:                -0.121
REMARK SMILES O=C([O-])CCC(=O)[O-]
REMARK SMILES IDX 4 1 2 2 1 3 3 4 5 5 6 6 7 7 8 8
REMARK H PARENT
REMARK Flexibility Score: inf
ROOT
ATOM      1  C   UNL     1      13.787  -8.710 -29.949  1.00  0.00     0.059 C 
ENDROOT
BRANCH   1   2
ATOM      2  C   UNL     1      13.743  -7.247 -29.631  1.00  0.00     0.042 C 
ATOM      3  O   UNL     1      13.007  -6.822 -28.703  1.00  0.00    -0.550 OA
ATOM      4  O   UNL     1      14.548  -6.359 -30.333  1.00  0.00    -0.550 OA
ENDBRANCH   1   2
BRANCH   1   5
ATOM      5  C   UNL     1      15.017  -9.386 -29.334  1.00  0.00     0.059 C 
BRANCH   5   6
ATOM      6  C   UNL     1      14.701 -10.011 -28.010  1.00  0.00     0.042 C 
ATOM      7  O   UNL     1      13.508 -10.077 -27.610  1.00  0.00    -0.550 OA
ATOM      8  O   UNL     1      15.717 -10.557 -27.237  1.00  0.00    -0.550 OA
ENDBRANCH   5   6
ENDBRANCH   1   5
TORSDOF 3
ENDMDL
