MODEL 1
REMARK VINA RESULT:    -3.993      0.000      0.000
REMARK INTER + INTRA:          -5.510
REMARK INTER:                  -5.160
REMARK INTRA:                  -0.350
REMARK UNBOUND:                -0.350
REMARK SMILES CCO[C@@H]1O[C@H](CO)[C@H](O)[C@H](O)[C@@H]1O
REMARK SMILES IDX 4 1 13 2 11 3 9 4 6 5 5 6 3 7 2 8 1 9 14 10 12 12 7 14 8 15
REMARK SMILES IDX 10 17
REMARK H PARENT 14 11 12 13 8 16 10 18
REMARK Flexibility Score: inf
ROOT
ATOM      1  C   UNL     1       6.561  -5.202  -1.775  1.00  0.00     0.281 C 
ATOM      2  C   UNL     1       6.667  -3.824  -1.092  1.00  0.00     0.202 C 
ATOM      3  C   UNL     1       8.123  -3.347  -1.034  1.00  0.00     0.179 C 
ATOM      4  C   UNL     1       8.735  -3.414  -2.438  1.00  0.00     0.177 C 
ATOM      5  C   UNL     1       8.494  -4.789  -3.125  1.00  0.00     0.178 C 
ATOM      6  O   UNL     1       7.131  -5.199  -3.080  1.00  0.00    -0.341 OA
ENDROOT
BRANCH   1   7
ATOM      7  O   UNL     1       7.134  -6.206  -0.956  1.00  0.00    -0.350 OA
BRANCH   7   8
ATOM      8  C   UNL     1       6.629  -7.477  -1.310  1.00  0.00     0.160 C 
ATOM      9  C   UNL     1       7.625  -8.544  -0.884  1.00  0.00     0.035 C 
ENDBRANCH   7   8
ENDBRANCH   1   7
BRANCH   2  10
ATOM     10  O   UNL     1       6.130  -3.875   0.204  1.00  0.00    -0.385 OA
ATOM     11  H   UNL     1       6.534  -4.663   0.654  1.00  0.00     0.211 HD
ENDBRANCH   2  10
BRANCH   3  12
ATOM     12  O   UNL     1       8.875  -4.120  -0.132  1.00  0.00    -0.387 OA
ATOM     13  H   UNL     1       8.398  -4.984  -0.022  1.00  0.00     0.211 HD
ENDBRANCH   3  12
BRANCH   5  14
ATOM     14  C   UNL     1       9.457  -5.921  -2.692  1.00  0.00     0.191 C 
BRANCH  14  15
ATOM     15  O   UNL     1      10.766  -5.660  -3.125  1.00  0.00    -0.394 OA
ATOM     16  H   UNL     1      11.278  -5.365  -2.328  1.00  0.00     0.210 HD
ENDBRANCH  14  15
ENDBRANCH   5  14
BRANCH   4  17
ATOM     17  O   UNL     1      10.103  -3.105  -2.374  1.00  0.00    -0.387 OA
ATOM     18  H   UNL     1      10.590  -3.875  -2.770  1.00  0.00     0.211 HD
ENDBRANCH   4  17
TORSDOF 7
ENDMDL
MODEL 2
REMARK VINA RESULT:    -3.676      1.410      3.221
REMARK INTER + INTRA:          -5.101
REMARK INTER:                  -4.772
REMARK INTRA:                  -0.329
REMARK UNBOUND:                -0.350
REMARK SMILES CCO[C@@H]1O[C@H](CO)[C@H](O)[C@H](O)[C@@H]1O
REMARK SMILES IDX 4 1 13 2 11 3 9 4 6 5 5 6 3 7 2 8 1 9 14 10 12 12 7 14 8 15
REMARK SMILES IDX 10 17
REMARK H PARENT 14 11 12 13 8 16 10 18
REMARK Flexibility Score: inf
ROOT
ATOM      1  C   UNL     1       6.905  -3.743  -2.354  1.00  0.00     0.281 C 
ATOM      2  C   UNL     1       8.373  -3.277  -2.412  1.00  0.00     0.202 C 
ATOM      3  C   UNL     1       9.325  -4.392  -1.963  1.00  0.00     0.179 C 
ATOM      4  C   UNL     1       9.026  -5.667  -2.760  1.00  0.00     0.177 C 
ATOM      5  C   UNL     1       7.511  -6.022  -2.764  1.00  0.00     0.178 C 
ATOM      6  O   UNL     1       6.684  -4.920  -3.125  1.00  0.00    -0.341 OA
ENDROOT
BRANCH   1   7
ATOM      7  O   UNL     1       6.492  -3.913  -1.009  1.00  0.00    -0.350 OA
BRANCH   7   8
ATOM      8  C   UNL     1       5.331  -3.151  -0.750  1.00  0.00     0.160 C 
ATOM      9  C   UNL     1       4.998  -2.319  -1.978  1.00  0.00     0.035 C 
ENDBRANCH   7   8
ENDBRANCH   1   7
BRANCH   2  10
ATOM     10  O   UNL     1       8.560  -2.138  -1.612  1.00  0.00    -0.385 OA
ATOM     11  H   UNL     1       9.504  -1.854  -1.731  1.00  0.00     0.211 HD
ENDBRANCH   2  10
BRANCH   3  12
ATOM     12  O   UNL     1       9.205  -4.635  -0.584  1.00  0.00    -0.387 OA
ATOM     13  H   UNL     1       8.270  -4.414  -0.329  1.00  0.00     0.211 HD
ENDBRANCH   3  12
BRANCH   5  14
ATOM     14  C   UNL     1       6.998  -6.742  -1.493  1.00  0.00     0.191 C 
BRANCH  14  15
ATOM     15  O   UNL     1       7.585  -8.010  -1.364  1.00  0.00    -0.394 OA
ATOM     16  H   UNL     1       8.546  -7.906  -1.588  1.00  0.00     0.210 HD
ENDBRANCH  14  15
ENDBRANCH   5  14
BRANCH   4  17
ATOM     17  O   UNL     1       9.801  -6.728  -2.265  1.00  0.00    -0.387 OA
ATOM     18  H   UNL     1       9.253  -7.551  -2.359  1.00  0.00     0.211 HD
ENDBRANCH   4  17
TORSDOF 7
ENDMDL
MODEL 3
REMARK VINA RESULT:    -3.534      1.494      2.123
REMARK INTER + INTRA:          -4.917
REMARK INTER:                  -4.514
REMARK INTRA:                  -0.403
REMARK UNBOUND:                -0.350
REMARK SMILES CCO[C@@H]1O[C@H](CO)[C@H](O)[C@H](O)[C@@H]1O
REMARK SMILES IDX 4 1 13 2 11 3 9 4 6 5 5 6 3 7 2 8 1 9 14 10 12 12 7 14 8 15
REMARK SMILES IDX 10 17
REMARK H PARENT 14 11 12 13 8 16 10 18
REMARK Flexibility Score: inf
ROOT
ATOM      1  C   UNL     1       7.899  -7.059  -2.707  1.00  0.00     0.281 C 
ATOM      2  C   UNL     1       7.156  -5.774  -3.125  1.00  0.00     0.202 C 
ATOM      3  C   UNL     1       7.828  -4.530  -2.531  1.00  0.00     0.179 C 
ATOM      4  C   UNL     1       9.321  -4.546  -2.875  1.00  0.00     0.177 C 
ATOM      5  C   UNL     1       9.992  -5.909  -2.541  1.00  0.00     0.178 C 
ATOM      6  O   UNL     1       9.276  -7.023  -3.067  1.00  0.00    -0.341 OA
ENDROOT
BRANCH   1   7
ATOM      7  O   UNL     1       7.726  -7.303  -1.322  1.00  0.00    -0.350 OA
BRANCH   7   8
ATOM      8  C   UNL     1       7.567  -8.686  -1.082  1.00  0.00     0.160 C 
ATOM      9  C   UNL     1       6.198  -8.931  -0.468  1.00  0.00     0.035 C 
ENDBRANCH   7   8
ENDBRANCH   1   7
BRANCH   2  10
ATOM     10  O   UNL     1       5.812  -5.829  -2.721  1.00  0.00    -0.385 OA
ATOM     11  H   UNL     1       5.316  -5.173  -3.278  1.00  0.00     0.211 HD
ENDBRANCH   2  10
BRANCH   3  12
ATOM     12  O   UNL     1       7.645  -4.471  -1.139  1.00  0.00    -0.387 OA
ATOM     13  H   UNL     1       8.245  -3.757  -0.797  1.00  0.00     0.211 HD
ENDBRANCH   3  12
BRANCH   5  14
ATOM     14  C   UNL     1      10.371  -6.112  -1.054  1.00  0.00     0.191 C 
BRANCH  14  15
ATOM     15  O   UNL     1      11.704  -5.740  -0.821  1.00  0.00    -0.394 OA
ATOM     16  H   UNL     1      11.864  -4.906  -1.336  1.00  0.00     0.210 HD
ENDBRANCH  14  15
ENDBRANCH   5  14
BRANCH   4  17
ATOM     17  O   UNL     1       9.969  -3.482  -2.227  1.00  0.00    -0.387 OA
ATOM     18  H   UNL     1       9.553  -2.645  -2.564  1.00  0.00     0.211 HD
ENDBRANCH   4  17
TORSDOF 7
ENDMDL
MODEL 4
REMARK VINA RESULT:    -3.098      1.647      3.040
REMARK INTER + INTRA:          -4.354
REMARK INTER:                  -3.926
REMARK INTRA:                  -0.428
REMARK UNBOUND:                -0.350
REMARK SMILES CCO[C@@H]1O[C@H](CO)[C@H](O)[C@H](O)[C@@H]1O
REMARK SMILES IDX 4 1 13 2 11 3 9 4 6 5 5 6 3 7 2 8 1 9 14 10 12 12 7 14 8 15
REMARK SMILES IDX 10 17
REMARK H PARENT 14 11 12 13 8 16 10 18
REMARK Flexibility Score: inf
ROOT
ATOM      1  C   UNL     1       7.491  -5.963  -1.484  1.00  0.00     0.281 C 
ATOM      2  C   UNL     1       8.972  -5.614  -1.236  1.00  0.00     0.202 C 
ATOM      3  C   UNL     1       9.294  -4.196  -1.721  1.00  0.00     0.179 C 
ATOM      4  C   UNL     1       8.293  -3.210  -1.108  1.00  0.00     0.177 C 
ATOM      5  C   UNL     1       6.819  -3.674  -1.286  1.00  0.00     0.178 C 
ATOM      6  O   UNL     1       6.609  -5.023  -0.878  1.00  0.00    -0.341 OA
ENDROOT
BRANCH   1   7
ATOM      7  O   UNL     1       7.239  -6.098  -2.872  1.00  0.00    -0.350 OA
BRANCH   7   8
ATOM      8  C   UNL     1       6.119  -6.930  -3.091  1.00  0.00     0.160 C 
ATOM      9  C   UNL     1       6.348  -8.265  -2.400  1.00  0.00     0.035 C 
ENDBRANCH   7   8
ENDBRANCH   1   7
BRANCH   2  10
ATOM     10  O   UNL     1       9.810  -6.540  -1.878  1.00  0.00    -0.385 OA
ATOM     11  H   UNL     1      10.726  -6.396  -1.522  1.00  0.00     0.211 HD
ENDBRANCH   2  10
BRANCH   3  12
ATOM     12  O   UNL     1       9.262  -4.120  -3.124  1.00  0.00    -0.387 OA
ATOM     13  H   UNL     1       9.297  -3.157  -3.365  1.00  0.00     0.211 HD
ENDBRANCH   3  12
BRANCH   5  14
ATOM     14  C   UNL     1       6.197  -3.384  -2.674  1.00  0.00     0.191 C 
BRANCH  14  15
ATOM     15  O   UNL     1       6.109  -2.002  -2.904  1.00  0.00    -0.394 OA
ATOM     16  H   UNL     1       6.763  -1.567  -2.298  1.00  0.00     0.210 HD
ENDBRANCH  14  15
ENDBRANCH   5  14
BRANCH   4  17
ATOM     17  O   UNL     1       8.497  -1.930  -1.648  1.00  0.00    -0.387 OA
ATOM     18  H   UNL     1       8.180  -1.279  -0.968  1.00  0.00     0.211 HD
ENDBRANCH   4  17
TORSDOF 7
ENDMDL
MODEL 5
REMARK VINA RESULT:    -2.998      1.870      3.252
REMARK INTER + INTRA:          -4.224
REMARK INTER:                  -3.745
REMARK INTRA:                  -0.479
REMARK UNBOUND:                -0.350
REMARK SMILES CCO[C@@H]1O[C@H](CO)[C@H](O)[C@H](O)[C@@H]1O
REMARK SMILES IDX 4 1 13 2 11 3 9 4 6 5 5 6 3 7 2 8 1 9 14 10 12 12 7 14 8 15
REMARK SMILES IDX 10 17
REMARK H PARENT 14 11 12 13 8 16 10 18
REMARK Flexibility Score: inf
ROOT
ATOM      1  C   UNL     1       6.992  -4.670  -0.840  1.00  0.00     0.281 C 
ATOM      2  C   UNL     1       8.259  -3.795  -0.760  1.00  0.00     0.202 C 
ATOM      3  C   UNL     1       8.255  -2.717  -1.851  1.00  0.00     0.179 C 
ATOM      4  C   UNL     1       6.935  -1.939  -1.790  1.00  0.00     0.177 C 
ATOM      5  C   UNL     1       5.695  -2.878  -1.753  1.00  0.00     0.178 C 
ATOM      6  O   UNL     1       5.800  -3.896  -0.762  1.00  0.00    -0.341 OA
ENDROOT
BRANCH   1   7
ATOM      7  O   UNL     1       7.019  -5.476  -2.005  1.00  0.00    -0.350 OA
BRANCH   7   8
ATOM      8  C   UNL     1       6.669  -6.808  -1.691  1.00  0.00     0.160 C 
ATOM      9  C   UNL     1       6.232  -7.521  -2.961  1.00  0.00     0.035 C 
ENDBRANCH   7   8
ENDBRANCH   1   7
BRANCH   2  10
ATOM     10  O   UNL     1       9.412  -4.588  -0.878  1.00  0.00    -0.385 OA
ATOM     11  H   UNL     1       9.113  -5.494  -1.153  1.00  0.00     0.211 HD
ENDBRANCH   2  10
BRANCH   3  12
ATOM     12  O   UNL     1       8.434  -3.283  -3.125  1.00  0.00    -0.387 OA
ATOM     13  H   UNL     1       8.371  -2.542  -3.784  1.00  0.00     0.211 HD
ENDBRANCH   3  12
BRANCH   5  14
ATOM     14  C   UNL     1       5.254  -3.445  -3.125  1.00  0.00     0.191 C 
BRANCH  14  15
ATOM     15  O   UNL     1       4.245  -4.407  -2.968  1.00  0.00    -0.394 OA
ATOM     16  H   UNL     1       4.673  -5.294  -3.086  1.00  0.00     0.210 HD
ENDBRANCH  14  15
ENDBRANCH   5  14
BRANCH   4  17
ATOM     17  O   UNL     1       6.866  -1.039  -2.865  1.00  0.00    -0.387 OA
ATOM     18  H   UNL     1       6.034  -0.510  -2.742  1.00  0.00     0.211 HD
ENDBRANCH   4  17
TORSDOF 7
ENDMDL
MODEL 6
REMARK VINA RESULT:    -2.943      1.859      3.989
REMARK INTER + INTRA:          -4.153
REMARK INTER:                  -4.295
REMARK INTRA:                   0.142
REMARK UNBOUND:                -0.350
REMARK SMILES CCO[C@@H]1O[C@H](CO)[C@H](O)[C@H](O)[C@@H]1O
REMARK SMILES IDX 4 1 13 2 11 3 9 4 6 5 5 6 3 7 2 8 1 9 14 10 12 12 7 14 8 15
REMARK SMILES IDX 10 17
REMARK H PARENT 14 11 12 13 8 16 10 18
REMARK Flexibility Score: inf
ROOT
ATOM      1  C   UNL     1       8.256  -4.983  -2.595  1.00  0.00     0.281 C 
ATOM      2  C   UNL     1       8.280  -5.169  -1.065  1.00  0.00     0.202 C 
ATOM      3  C   UNL     1       7.543  -4.026  -0.358  1.00  0.00     0.179 C 
ATOM      4  C   UNL     1       6.142  -3.874  -0.962  1.00  0.00     0.177 C 
ATOM      5  C   UNL     1       6.171  -3.810  -2.516  1.00  0.00     0.178 C 
ATOM      6  O   UNL     1       6.930  -4.865  -3.100  1.00  0.00    -0.341 OA
ENDROOT
BRANCH   1   7
ATOM      7  O   UNL     1       9.060  -3.879  -2.973  1.00  0.00    -0.350 OA
BRANCH   7   8
ATOM      8  C   UNL     1      10.418  -4.263  -3.049  1.00  0.00     0.160 C 
ATOM      9  C   UNL     1      11.284  -3.015  -3.125  1.00  0.00     0.035 C 
ENDBRANCH   7   8
ENDBRANCH   1   7
BRANCH   2  10
ATOM     10  O   UNL     1       9.603  -5.245  -0.600  1.00  0.00    -0.385 OA
ATOM     11  H   UNL     1      10.120  -5.749  -1.281  1.00  0.00     0.211 HD
ENDBRANCH   2  10
BRANCH   3  12
ATOM     12  O   UNL     1       8.257  -2.820  -0.464  1.00  0.00    -0.387 OA
ATOM     13  H   UNL     1       7.651  -2.095  -0.158  1.00  0.00     0.211 HD
ENDBRANCH   3  12
BRANCH   5  14
ATOM     14  C   UNL     1       6.536  -2.430  -3.114  1.00  0.00     0.191 C 
BRANCH  14  15
ATOM     15  O   UNL     1       5.529  -1.488  -2.854  1.00  0.00    -0.394 OA
ATOM     16  H   UNL     1       5.203  -1.664  -1.933  1.00  0.00     0.210 HD
ENDBRANCH  14  15
ENDBRANCH   5  14
BRANCH   4  17
ATOM     17  O   UNL     1       5.509  -2.748  -0.413  1.00  0.00    -0.387 OA
ATOM     18  H   UNL     1       6.219  -2.197   0.010  1.00  0.00     0.211 HD
ENDBRANCH   4  17
TORSDOF 7
ENDMDL
MODEL 7
REMARK VINA RESULT:    -2.889      1.772      3.723
REMARK INTER + INTRA:          -4.083
REMARK INTER:                  -3.820
REMARK INTRA:                  -0.263
REMARK UNBOUND:                -0.350
REMARK SMILES CCO[C@@H]1O[C@H](CO)[C@H](O)[C@H](O)[C@@H]1O
REMARK SMILES IDX 4 1 13 2 11 3 9 4 6 5 5 6 3 7 2 8 1 9 14 10 12 12 7 14 8 15
REMARK SMILES IDX 10 17
REMARK H PARENT 14 11 12 13 8 16 10 18
REMARK Flexibility Score: inf
ROOT
ATOM      1  C   UNL     1       9.319  -5.504  -2.148  1.00  0.00     0.281 C 
ATOM      2  C   UNL     1       8.399  -6.333  -3.066  1.00  0.00     0.202 C 
ATOM      3  C   UNL     1       6.922  -6.047  -2.771  1.00  0.00     0.179 C 
ATOM      4  C   UNL     1       6.678  -4.535  -2.817  1.00  0.00     0.177 C 
ATOM      5  C   UNL     1       7.710  -3.741  -1.966  1.00  0.00     0.178 C 
ATOM      6  O   UNL     1       9.058  -4.107  -2.246  1.00  0.00    -0.341 OA
ENDROOT
BRANCH   1   7
ATOM      7  O   UNL     1       9.227  -5.961  -0.810  1.00  0.00    -0.350 OA
BRANCH   7   8
ATOM      8  C   UNL     1      10.376  -6.705  -0.464  1.00  0.00     0.160 C 
ATOM      9  C   UNL     1      11.585  -5.783  -0.462  1.00  0.00     0.035 C 
ENDBRANCH   7   8
ENDBRANCH   1   7
BRANCH   2  10
ATOM     10  O   UNL     1       8.660  -7.704  -2.915  1.00  0.00    -0.385 OA
ATOM     11  H   UNL     1       8.265  -7.979  -2.046  1.00  0.00     0.211 HD
ENDBRANCH   2  10
BRANCH   3  12
ATOM     12  O   UNL     1       6.545  -6.568  -1.520  1.00  0.00    -0.387 OA
ATOM     13  H   UNL     1       6.634  -5.831  -0.860  1.00  0.00     0.211 HD
ENDBRANCH   3  12
BRANCH   5  14
ATOM     14  C   UNL     1       7.422  -3.702  -0.445  1.00  0.00     0.191 C 
BRANCH  14  15
ATOM     15  O   UNL     1       8.580  -3.373   0.276  1.00  0.00    -0.394 OA
ATOM     16  H   UNL     1       8.683  -4.061   0.983  1.00  0.00     0.210 HD
ENDBRANCH  14  15
ENDBRANCH   5  14
BRANCH   4  17
ATOM     17  O   UNL     1       5.361  -4.255  -2.420  1.00  0.00    -0.387 OA
ATOM     18  H   UNL     1       5.271  -3.265  -2.402  1.00  0.00     0.211 HD
ENDBRANCH   4  17
TORSDOF 7
ENDMDL
MODEL 8
REMARK VINA RESULT:    -2.636      1.657      3.740
REMARK INTER + INTRA:          -3.757
REMARK INTER:                  -3.423
REMARK INTRA:                  -0.334
REMARK UNBOUND:                -0.350
REMARK SMILES CCO[C@@H]1O[C@H](CO)[C@H](O)[C@H](O)[C@@H]1O
REMARK SMILES IDX 4 1 13 2 11 3 9 4 6 5 5 6 3 7 2 8 1 9 14 10 12 12 7 14 8 15
REMARK SMILES IDX 10 17
REMARK H PARENT 14 11 12 13 8 16 10 18
REMARK Flexibility Score: inf
ROOT
ATOM      1  C   UNL     1       7.616  -3.252  -1.150  1.00  0.00     0.281 C 
ATOM      2  C   UNL     1       6.411  -4.198  -0.976  1.00  0.00     0.202 C 
ATOM      3  C   UNL     1       6.630  -5.514  -1.733  1.00  0.00     0.179 C 
ATOM      4  C   UNL     1       7.980  -6.116  -1.327  1.00  0.00     0.177 C 
ATOM      5  C   UNL     1       9.139  -5.081  -1.409  1.00  0.00     0.178 C 
ATOM      6  O   UNL     1       8.838  -3.858  -0.742  1.00  0.00    -0.341 OA
ENDROOT
BRANCH   1   7
ATOM      7  O   UNL     1       7.686  -2.779  -2.484  1.00  0.00    -0.350 OA
BRANCH   7   8
ATOM      8  C   UNL     1       7.715  -1.367  -2.504  1.00  0.00     0.160 C 
ATOM      9  C   UNL     1       6.318  -0.845  -2.803  1.00  0.00     0.035 C 
ENDBRANCH   7   8
ENDBRANCH   1   7
BRANCH   2  10
ATOM     10  O   UNL     1       5.232  -3.581  -1.423  1.00  0.00    -0.385 OA
ATOM     11  H   UNL     1       4.514  -3.835  -0.785  1.00  0.00     0.211 HD
ENDBRANCH   2  10
BRANCH   3  12
ATOM     12  O   UNL     1       6.579  -5.314  -3.123  1.00  0.00    -0.387 OA
ATOM     13  H   UNL     1       7.182  -4.552  -3.330  1.00  0.00     0.211 HD
ENDBRANCH   3  12
BRANCH   5  14
ATOM     14  C   UNL     1       9.714  -4.844  -2.826  1.00  0.00     0.191 C 
BRANCH  14  15
ATOM     15  O   UNL     1      10.735  -5.763  -3.113  1.00  0.00    -0.394 OA
ATOM     16  H   UNL     1      10.292  -6.614  -3.368  1.00  0.00     0.210 HD
ENDBRANCH  14  15
ENDBRANCH   5  14
BRANCH   4  17
ATOM     17  O   UNL     1       8.248  -7.250  -2.109  1.00  0.00    -0.387 OA
ATOM     18  H   UNL     1       8.681  -7.915  -1.511  1.00  0.00     0.211 HD
ENDBRANCH   4  17
TORSDOF 7
ENDMDL
