MODEL 1
REMARK VINA RESULT:    -3.725      0.000      0.000
REMARK INTER + INTRA:          -4.051
REMARK INTER:                  -4.051
REMARK INTRA:                   0.000
REMARK UNBOUND:                 0.000
REMARK SMILES [NH3+]CC(=O)[O-]
REMARK SMILES IDX 2 1 1 2 3 6 4 7 5 8
REMARK H PARENT 1 3 1 4 1 5
REMARK Flexibility Score: inf
ROOT
ATOM      1  C   UNL     1      20.587  13.836 -20.294  1.00  0.00     0.312 C 
ENDROOT
BRANCH   1   2
ATOM      2  N   UNL     1      21.044  13.565 -21.655  1.00  0.00    -0.353 N 
ATOM      3  H   UNL     1      20.863  12.566 -21.904  1.00  0.00     0.344 HD
ATOM      4  H   UNL     1      20.550  14.194 -22.330  1.00  0.00     0.344 HD
ATOM      5  H   UNL     1      22.073  13.748 -21.714  1.00  0.00     0.344 HD
ENDBRANCH   1   2
BRANCH   1   6
ATOM      6  C   UNL     1      21.168  12.844 -19.335  1.00  0.00     0.096 C 
ATOM      7  O   UNL     1      22.099  12.079 -19.701  1.00  0.00    -0.544 OA
ATOM      8  O   UNL     1      20.718  12.800 -18.021  1.00  0.00    -0.544 OA
ENDBRANCH   1   6
TORSDOF 2
ENDMDL
MODEL 2
REMARK VINA RESULT:    -3.706      2.564      2.675
REMARK INTER + INTRA:          -4.031
REMARK INTER:                  -4.031
REMARK INTRA:                   0.000
REMARK UNBOUND:                 0.000
REMARK SMILES [NH3+]CC(=O)[O-]
REMARK SMILES IDX 2 1 1 2 3 6 4 7 5 8
REMARK H PARENT 1 3 1 4 1 5
REMARK Flexibility Score: inf
ROOT
ATOM      1  C   UNL     1      20.403  12.782 -18.150  1.00  0.00     0.312 C 
ENDROOT
BRANCH   1   2
ATOM      2  N   UNL     1      20.809  13.020 -16.767  1.00  0.00    -0.353 N 
ATOM      3  H   UNL     1      21.801  13.351 -16.735  1.00  0.00     0.344 HD
ATOM      4  H   UNL     1      20.183  13.735 -16.328  1.00  0.00     0.344 HD
ATOM      5  H   UNL     1      20.732  12.126 -16.229  1.00  0.00     0.344 HD
ENDBRANCH   1   2
BRANCH   1   6
ATOM      6  C   UNL     1      21.555  12.991 -19.083  1.00  0.00     0.096 C 
ATOM      7  O   UNL     1      22.010  12.028 -19.754  1.00  0.00    -0.544 OA
ATOM      8  O   UNL     1      22.093  14.261 -19.250  1.00  0.00    -0.544 OA
ENDBRANCH   1   6
TORSDOF 2
ENDMDL
MODEL 3
REMARK VINA RESULT:    -3.439      2.153      2.324
REMARK INTER + INTRA:          -3.740
REMARK INTER:                  -3.740
REMARK INTRA:                   0.000
REMARK UNBOUND:                 0.000
REMARK SMILES [NH3+]CC(=O)[O-]
REMARK SMILES IDX 2 1 1 2 3 6 4 7 5 8
REMARK H PARENT 1 3 1 4 1 5
REMARK Flexibility Score: inf
ROOT
ATOM      1  C   UNL     1      21.525  12.292 -19.300  1.00  0.00     0.312 C 
ENDROOT
BRANCH   1   2
ATOM      2  N   UNL     1      22.545  11.721 -20.176  1.00  0.00    -0.353 N 
ATOM      3  H   UNL     1      22.882  12.442 -20.854  1.00  0.00     0.344 HD
ATOM      4  H   UNL     1      23.348  11.367 -19.607  1.00  0.00     0.344 HD
ATOM      5  H   UNL     1      22.130  10.922 -20.709  1.00  0.00     0.344 HD
ENDBRANCH   1   2
BRANCH   1   6
ATOM      6  C   UNL     1      21.284  13.731 -19.637  1.00  0.00     0.096 C 
ATOM      7  O   UNL     1      20.350  14.051 -20.417  1.00  0.00    -0.544 OA
ATOM      8  O   UNL     1      22.060  14.723 -19.049  1.00  0.00    -0.544 OA
ENDBRANCH   1   6
TORSDOF 2
ENDMDL
MODEL 4
REMARK VINA RESULT:    -3.427      1.914      1.914
REMARK INTER + INTRA:          -3.727
REMARK INTER:                  -3.727
REMARK INTRA:                   0.000
REMARK UNBOUND:                 0.000
REMARK SMILES [NH3+]CC(=O)[O-]
REMARK SMILES IDX 2 1 1 2 3 6 4 7 5 8
REMARK H PARENT 1 3 1 4 1 5
REMARK Flexibility Score: inf
ROOT
ATOM      1  C   UNL     1      21.565  14.423 -19.317  1.00  0.00     0.312 C 
ENDROOT
BRANCH   1   2
ATOM      2  N   UNL     1      22.318  15.125 -18.280  1.00  0.00    -0.353 N 
ATOM      3  H   UNL     1      22.823  14.438 -17.675  1.00  0.00     0.344 HD
ATOM      4  H   UNL     1      23.003  15.783 -18.719  1.00  0.00     0.344 HD
ATOM      5  H   UNL     1      21.653  15.675 -17.687  1.00  0.00     0.344 HD
ENDBRANCH   1   2
BRANCH   1   6
ATOM      6  C   UNL     1      21.402  12.977 -18.963  1.00  0.00     0.096 C 
ATOM      7  O   UNL     1      22.263  12.134 -19.330  1.00  0.00    -0.544 OA
ATOM      8  O   UNL     1      20.327  12.568 -18.185  1.00  0.00    -0.544 OA
ENDBRANCH   1   6
TORSDOF 2
ENDMDL
MODEL 5
REMARK VINA RESULT:    -3.279      2.267      2.520
REMARK INTER + INTRA:          -3.566
REMARK INTER:                  -3.566
REMARK INTRA:                   0.000
REMARK UNBOUND:                 0.000
REMARK SMILES [NH3+]CC(=O)[O-]
REMARK SMILES IDX 2 1 1 2 3 6 4 7 5 8
REMARK H PARENT 1 3 1 4 1 5
REMARK Flexibility Score: inf
ROOT
ATOM      1  C   UNL     1      22.089  13.884 -19.191  1.00  0.00     0.312 C 
ENDROOT
BRANCH   1   2
ATOM      2  N   UNL     1      22.132  15.103 -18.386  1.00  0.00    -0.353 N 
ATOM      3  H   UNL     1      21.536  15.843 -18.822  1.00  0.00     0.344 HD
ATOM      4  H   UNL     1      21.798  14.904 -17.416  1.00  0.00     0.344 HD
ATOM      5  H   UNL     1      23.119  15.448 -18.340  1.00  0.00     0.344 HD
ENDBRANCH   1   2
BRANCH   1   6
ATOM      6  C   UNL     1      20.673  13.459 -19.429  1.00  0.00     0.096 C 
ATOM      7  O   UNL     1      20.120  12.636 -18.654  1.00  0.00    -0.544 OA
ATOM      8  O   UNL     1      19.948  14.011 -20.477  1.00  0.00    -0.544 OA
ENDBRANCH   1   6
TORSDOF 2
ENDMDL
MODEL 6
REMARK VINA RESULT:    -1.548     17.393     17.609
REMARK INTER + INTRA:          -1.684
REMARK INTER:                  -1.684
REMARK INTRA:                   0.000
REMARK UNBOUND:                 0.000
REMARK SMILES [NH3+]CC(=O)[O-]
REMARK SMILES IDX 2 1 1 2 3 6 4 7 5 8
REMARK H PARENT 1 3 1 4 1 5
REMARK Flexibility Score: inf
ROOT
ATOM      1  C   UNL     1      37.569  20.002 -20.742  1.00  0.00     0.312 C 
ENDROOT
BRANCH   1   2
ATOM      2  N   UNL     1      36.665  20.747 -21.615  1.00  0.00    -0.353 N 
ATOM      3  H   UNL     1      36.752  20.405 -22.599  1.00  0.00     0.344 HD
ATOM      4  H   UNL     1      35.678  20.638 -21.286  1.00  0.00     0.344 HD
ATOM      5  H   UNL     1      36.921  21.762 -21.586  1.00  0.00     0.344 HD
ENDBRANCH   1   2
BRANCH   1   6
ATOM      6  C   UNL     1      37.179  20.174 -19.307  1.00  0.00     0.096 C 
ATOM      7  O   UNL     1      35.985  20.428 -19.001  1.00  0.00    -0.544 OA
ATOM      8  O   UNL     1      38.125  20.003 -18.303  1.00  0.00    -0.544 OA
ENDBRANCH   1   6
TORSDOF 2
ENDMDL
MODEL 7
REMARK VINA RESULT:    -1.509     16.938     17.393
REMARK INTER + INTRA:          -1.642
REMARK INTER:                  -1.642
REMARK INTRA:                   0.000
REMARK UNBOUND:                 0.000
REMARK SMILES [NH3+]CC(=O)[O-]
REMARK SMILES IDX 2 1 1 2 3 6 4 7 5 8
REMARK H PARENT 1 3 1 4 1 5
REMARK Flexibility Score: inf
ROOT
ATOM      1  C   UNL     1      38.125   8.730 -16.192  1.00  0.00     0.312 C 
ENDROOT
BRANCH   1   2
ATOM      2  N   UNL     1      37.366   8.181 -15.070  1.00  0.00    -0.353 N 
ATOM      3  H   UNL     1      37.556   7.157 -14.974  1.00  0.00     0.344 HD
ATOM      4  H   UNL     1      37.626   8.675 -14.186  1.00  0.00     0.344 HD
ATOM      5  H   UNL     1      36.344   8.320 -15.248  1.00  0.00     0.344 HD
ENDBRANCH   1   2
BRANCH   1   6
ATOM      6  C   UNL     1      37.474   8.377 -17.493  1.00  0.00     0.096 C 
ATOM      7  O   UNL     1      38.116   8.479 -18.571  1.00  0.00    -0.544 OA
ATOM      8  O   UNL     1      36.174   7.887 -17.511  1.00  0.00    -0.544 OA
ENDBRANCH   1   6
TORSDOF 2
ENDMDL
MODEL 8
REMARK VINA RESULT:    -1.174     17.123     17.407
REMARK INTER + INTRA:          -1.277
REMARK INTER:                  -1.277
REMARK INTRA:                   0.000
REMARK UNBOUND:                 0.000
REMARK SMILES [NH3+]CC(=O)[O-]
REMARK SMILES IDX 2 1 1 2 3 6 4 7 5 8
REMARK H PARENT 1 3 1 4 1 5
REMARK Flexibility Score: inf
ROOT
ATOM      1  C   UNL     1      37.523  19.983 -18.797  1.00  0.00     0.312 C 
ENDROOT
BRANCH   1   2
ATOM      2  N   UNL     1      36.691  19.255 -17.842  1.00  0.00    -0.353 N 
ATOM      3  H   UNL     1      35.827  18.902 -18.313  1.00  0.00     0.344 HD
ATOM      4  H   UNL     1      37.228  18.453 -17.438  1.00  0.00     0.344 HD
ATOM      5  H   UNL     1      36.415  19.901 -17.066  1.00  0.00     0.344 HD
ENDBRANCH   1   2
BRANCH   1   6
ATOM      6  C   UNL     1      36.751  20.289 -20.043  1.00  0.00     0.096 C 
ATOM      7  O   UNL     1      35.540  20.624 -19.972  1.00  0.00    -0.544 OA
ATOM      8  O   UNL     1      37.384  20.256 -21.280  1.00  0.00    -0.544 OA
ENDBRANCH   1   6
TORSDOF 2
ENDMDL
MODEL 9
REMARK VINA RESULT:    -1.091     18.599     18.778
REMARK INTER + INTRA:          -1.186
REMARK INTER:                  -1.186
REMARK INTRA:                   0.000
REMARK UNBOUND:                 0.000
REMARK SMILES [NH3+]CC(=O)[O-]
REMARK SMILES IDX 2 1 1 2 3 6 4 7 5 8
REMARK H PARENT 1 3 1 4 1 5
REMARK Flexibility Score: inf
ROOT
ATOM      1  C   UNL     1      36.516  16.498 -10.006  1.00  0.00     0.312 C 
ENDROOT
BRANCH   1   2
ATOM      2  N   UNL     1      35.420  15.878 -10.747  1.00  0.00    -0.353 N 
ATOM      3  H   UNL     1      34.527  16.390 -10.564  1.00  0.00     0.344 HD
ATOM      4  H   UNL     1      35.630  15.887 -11.772  1.00  0.00     0.344 HD
ATOM      5  H   UNL     1      35.313  14.886 -10.432  1.00  0.00     0.344 HD
ENDBRANCH   1   2
BRANCH   1   6
ATOM      6  C   UNL     1      37.344  17.359 -10.910  1.00  0.00     0.096 C 
ATOM      7  O   UNL     1      37.373  18.606 -10.745  1.00  0.00    -0.544 OA
ATOM      8  O   UNL     1      38.125  16.777 -11.901  1.00  0.00    -0.544 OA
ENDBRANCH   1   6
TORSDOF 2
ENDMDL
