MODEL 1
REMARK VINA RESULT:    -5.343      0.000      0.000
REMARK INTER + INTRA:          -5.754
REMARK INTER:                  -5.655
REMARK INTRA:                  -0.099
REMARK UNBOUND:                -0.099
REMARK SMILES C=C(C)[C@@H]1CC=C(C)C(=O)C1
REMARK SMILES IDX 8 1 7 2 6 3 5 4 4 5 11 6 9 7 10 8 2 9 1 10 3 11
REMARK H PARENT
REMARK Flexibility Score: inf
ROOT
ATOM      1  C   UNL     1       1.370 -25.812 -10.898  1.00  0.00     0.048 C 
ATOM      2  C   UNL     1       0.240 -24.831 -11.050  1.00  0.00    -0.012 C 
ATOM      3  C   UNL     1       0.041 -24.216 -12.228  1.00  0.00    -0.019 C 
ATOM      4  C   UNL     1      -1.085 -23.240 -12.440  1.00  0.00     0.036 C 
ATOM      5  C   UNL     1      -1.397 -22.464 -11.146  1.00  0.00     0.025 C 
ATOM      6  C   UNL     1      -1.682 -23.443  -9.992  1.00  0.00     0.089 C 
ATOM      7  C   UNL     1      -0.574 -24.451  -9.867  1.00  0.00     0.158 C 
ATOM      8  O   UNL     1      -0.365 -25.000  -8.753  1.00  0.00    -0.295 OA
ENDROOT
BRANCH   5   9
ATOM      9  C   UNL     1      -2.548 -21.488 -11.346  1.00  0.00    -0.077 C 
ATOM     10  C   UNL     1      -3.737 -21.723 -10.770  1.00  0.00     0.008 C 
ATOM     11  C   UNL     1      -2.389 -20.245 -12.186  1.00  0.00     0.039 C 
ENDBRANCH   5   9
TORSDOF 1
ENDMDL
MODEL 2
REMARK VINA RESULT:    -5.337      1.681      4.346
REMARK INTER + INTRA:          -5.747
REMARK INTER:                  -5.652
REMARK INTRA:                  -0.096
REMARK UNBOUND:                -0.099
REMARK SMILES C=C(C)[C@@H]1CC=C(C)C(=O)C1
REMARK SMILES IDX 8 1 7 2 6 3 5 4 4 5 11 6 9 7 10 8 2 9 1 10 3 11
REMARK H PARENT
REMARK Flexibility Score: inf
ROOT
ATOM      1  C   UNL     1      -4.350 -20.989 -11.641  1.00  0.00     0.048 C 
ATOM      2  C   UNL     1      -3.097 -21.799 -11.454  1.00  0.00    -0.012 C 
ATOM      3  C   UNL     1      -2.356 -22.143 -12.521  1.00  0.00    -0.019 C 
ATOM      4  C   UNL     1      -1.083 -22.936 -12.389  1.00  0.00     0.036 C 
ATOM      5  C   UNL     1      -1.164 -23.919 -11.206  1.00  0.00     0.025 C 
ATOM      6  C   UNL     1      -1.520 -23.167  -9.910  1.00  0.00     0.089 C 
ATOM      7  C   UNL     1      -2.749 -22.323 -10.109  1.00  0.00     0.158 C 
ATOM      8  O   UNL     1      -3.463 -22.033  -9.112  1.00  0.00    -0.295 OA
ENDROOT
BRANCH   5   9
ATOM      9  C   UNL     1       0.126 -24.712 -11.052  1.00  0.00    -0.077 C 
ATOM     10  C   UNL     1       0.795 -25.127 -12.140  1.00  0.00     0.008 C 
ATOM     11  C   UNL     1       0.683 -25.053  -9.692  1.00  0.00     0.039 C 
ENDBRANCH   5   9
TORSDOF 1
ENDMDL
MODEL 3
REMARK VINA RESULT:    -5.313      1.056      1.533
REMARK INTER + INTRA:          -5.722
REMARK INTER:                  -5.630
REMARK INTRA:                  -0.092
REMARK UNBOUND:                -0.099
REMARK SMILES C=C(C)[C@@H]1CC=C(C)C(=O)C1
REMARK SMILES IDX 8 1 7 2 6 3 5 4 4 5 11 6 9 7 10 8 2 9 1 10 3 11
REMARK H PARENT
REMARK Flexibility Score: inf
ROOT
ATOM      1  C   UNL     1       1.835 -26.329 -11.750  1.00  0.00     0.048 C 
ATOM      2  C   UNL     1       0.758 -25.332 -11.426  1.00  0.00    -0.012 C 
ATOM      3  C   UNL     1       0.159 -24.646 -12.415  1.00  0.00    -0.019 C 
ATOM      4  C   UNL     1      -0.937 -23.650 -12.148  1.00  0.00     0.036 C 
ATOM      5  C   UNL     1      -0.730 -22.949 -10.792  1.00  0.00     0.025 C 
ATOM      6  C   UNL     1      -0.602 -23.991  -9.666  1.00  0.00     0.089 C 
ATOM      7  C   UNL     1       0.445 -25.015 -10.009  1.00  0.00     0.158 C 
ATOM      8  O   UNL     1       1.031 -25.630  -9.078  1.00  0.00    -0.295 OA
ENDROOT
BRANCH   5   9
ATOM      9  C   UNL     1      -1.845 -21.953 -10.504  1.00  0.00    -0.077 C 
ATOM     10  C   UNL     1      -1.998 -20.871 -11.283  1.00  0.00     0.008 C 
ATOM     11  C   UNL     1      -2.795 -22.149  -9.348  1.00  0.00     0.039 C 
ENDBRANCH   5   9
TORSDOF 1
ENDMDL
MODEL 4
REMARK VINA RESULT:    -5.307      1.598      2.220
REMARK INTER + INTRA:          -5.716
REMARK INTER:                  -5.618
REMARK INTRA:                  -0.098
REMARK UNBOUND:                -0.099
REMARK SMILES C=C(C)[C@@H]1CC=C(C)C(=O)C1
REMARK SMILES IDX 8 1 7 2 6 3 5 4 4 5 11 6 9 7 10 8 2 9 1 10 3 11
REMARK H PARENT
REMARK Flexibility Score: inf
ROOT
ATOM      1  C   UNL     1       1.141 -25.807  -9.549  1.00  0.00     0.048 C 
ATOM      2  C   UNL     1       0.121 -24.836 -10.076  1.00  0.00    -0.012 C 
ATOM      3  C   UNL     1      -0.854 -24.385  -9.269  1.00  0.00    -0.019 C 
ATOM      4  C   UNL     1      -1.889 -23.398  -9.740  1.00  0.00     0.036 C 
ATOM      5  C   UNL     1      -2.209 -23.602 -11.233  1.00  0.00     0.025 C 
ATOM      6  C   UNL     1      -0.919 -23.537 -12.070  1.00  0.00     0.089 C 
ATOM      7  C   UNL     1       0.118 -24.476 -11.517  1.00  0.00     0.158 C 
ATOM      8  O   UNL     1       1.010 -24.927 -12.285  1.00  0.00    -0.295 OA
ENDROOT
BRANCH   5   9
ATOM      9  C   UNL     1      -3.242 -22.596 -11.723  1.00  0.00    -0.077 C 
ATOM     10  C   UNL     1      -3.853 -21.779 -10.850  1.00  0.00     0.008 C 
ATOM     11  C   UNL     1      -3.605 -22.490 -13.183  1.00  0.00     0.039 C 
ENDBRANCH   5   9
TORSDOF 1
ENDMDL
MODEL 5
REMARK VINA RESULT:    -5.279      2.065      4.524
REMARK INTER + INTRA:          -5.686
REMARK INTER:                  -5.590
REMARK INTRA:                  -0.096
REMARK UNBOUND:                -0.099
REMARK SMILES C=C(C)[C@@H]1CC=C(C)C(=O)C1
REMARK SMILES IDX 8 1 7 2 6 3 5 4 4 5 11 6 9 7 10 8 2 9 1 10 3 11
REMARK H PARENT
REMARK Flexibility Score: inf
ROOT
ATOM      1  C   UNL     1      -3.352 -20.294 -12.520  1.00  0.00     0.048 C 
ATOM      2  C   UNL     1      -2.567 -21.353 -11.798  1.00  0.00    -0.012 C 
ATOM      3  C   UNL     1      -1.559 -21.000 -10.981  1.00  0.00    -0.019 C 
ATOM      4  C   UNL     1      -0.753 -22.018 -10.220  1.00  0.00     0.036 C 
ATOM      5  C   UNL     1      -0.626 -23.331 -11.015  1.00  0.00     0.025 C 
ATOM      6  C   UNL     1      -2.020 -23.860 -11.399  1.00  0.00     0.089 C 
ATOM      7  C   UNL     1      -2.822 -22.788 -12.084  1.00  0.00     0.158 C 
ATOM      8  O   UNL     1      -3.742 -23.122 -12.877  1.00  0.00    -0.295 OA
ENDROOT
BRANCH   5   9
ATOM      9  C   UNL     1       0.172 -24.374 -10.245  1.00  0.00    -0.077 C 
ATOM     10  C   UNL     1      -0.339 -24.926  -9.133  1.00  0.00     0.008 C 
ATOM     11  C   UNL     1       1.543 -24.810 -10.700  1.00  0.00     0.039 C 
ENDBRANCH   5   9
TORSDOF 1
ENDMDL
MODEL 6
REMARK VINA RESULT:    -5.206      1.865      4.786
REMARK INTER + INTRA:          -5.609
REMARK INTER:                  -5.518
REMARK INTRA:                  -0.091
REMARK UNBOUND:                -0.099
REMARK SMILES C=C(C)[C@@H]1CC=C(C)C(=O)C1
REMARK SMILES IDX 8 1 7 2 6 3 5 4 4 5 11 6 9 7 10 8 2 9 1 10 3 11
REMARK H PARENT
REMARK Flexibility Score: inf
ROOT
ATOM      1  C   UNL     1      -3.486 -21.845 -10.783  1.00  0.00     0.048 C 
ATOM      2  C   UNL     1      -2.310 -22.777 -10.687  1.00  0.00    -0.012 C 
ATOM      3  C   UNL     1      -1.960 -23.293  -9.496  1.00  0.00    -0.019 C 
ATOM      4  C   UNL     1      -0.803 -24.245  -9.346  1.00  0.00     0.036 C 
ATOM      5  C   UNL     1       0.309 -23.929 -10.363  1.00  0.00     0.025 C 
ATOM      6  C   UNL     1      -0.260 -23.925 -11.794  1.00  0.00     0.089 C 
ATOM      7  C   UNL     1      -1.463 -23.026 -11.881  1.00  0.00     0.158 C 
ATOM      8  O   UNL     1      -1.768 -22.514 -12.991  1.00  0.00    -0.295 OA
ENDROOT
BRANCH   5   9
ATOM      9  C   UNL     1       1.475 -24.899 -10.232  1.00  0.00    -0.077 C 
ATOM     10  C   UNL     1       2.720 -24.500 -10.536  1.00  0.00     0.008 C 
ATOM     11  C   UNL     1       1.269 -26.319  -9.764  1.00  0.00     0.039 C 
ENDBRANCH   5   9
TORSDOF 1
ENDMDL
MODEL 7
REMARK VINA RESULT:    -4.978      2.179      5.516
REMARK INTER + INTRA:          -5.367
REMARK INTER:                  -5.278
REMARK INTRA:                  -0.089
REMARK UNBOUND:                -0.099
REMARK SMILES C=C(C)[C@@H]1CC=C(C)C(=O)C1
REMARK SMILES IDX 8 1 7 2 6 3 5 4 4 5 11 6 9 7 10 8 2 9 1 10 3 11
REMARK H PARENT
REMARK Flexibility Score: inf
ROOT
ATOM      1  C   UNL     1      -0.386 -23.250 -10.654  1.00  0.00     0.048 C 
ATOM      2  C   UNL     1       0.336 -24.490 -11.104  1.00  0.00    -0.012 C 
ATOM      3  C   UNL     1       0.440 -24.765 -12.416  1.00  0.00    -0.019 C 
ATOM      4  C   UNL     1       1.168 -25.982 -12.921  1.00  0.00     0.036 C 
ATOM      5  C   UNL     1       1.035 -27.157 -11.934  1.00  0.00     0.025 C 
ATOM      6  C   UNL     1       1.512 -26.733 -10.532  1.00  0.00     0.089 C 
ATOM      7  C   UNL     1       0.822 -25.469 -10.099  1.00  0.00     0.158 C 
ATOM      8  O   UNL     1       0.693 -25.231  -8.869  1.00  0.00    -0.295 OA
ENDROOT
BRANCH   5   9
ATOM      9  C   UNL     1       1.785 -28.387 -12.428  1.00  0.00    -0.077 C 
ATOM     10  C   UNL     1       1.224 -29.194 -13.343  1.00  0.00     0.008 C 
ATOM     11  C   UNL     1       3.159 -28.732 -11.909  1.00  0.00     0.039 C 
ENDBRANCH   5   9
TORSDOF 1
ENDMDL
MODEL 8
REMARK VINA RESULT:    -4.880      2.494      5.754
REMARK INTER + INTRA:          -5.264
REMARK INTER:                  -5.175
REMARK INTRA:                  -0.089
REMARK UNBOUND:                -0.099
REMARK SMILES C=C(C)[C@@H]1CC=C(C)C(=O)C1
REMARK SMILES IDX 8 1 7 2 6 3 5 4 4 5 11 6 9 7 10 8 2 9 1 10 3 11
REMARK H PARENT
REMARK Flexibility Score: inf
ROOT
ATOM      1  C   UNL     1      -0.363 -23.093 -10.069  1.00  0.00     0.048 C 
ATOM      2  C   UNL     1       0.187 -24.411 -10.541  1.00  0.00    -0.012 C 
ATOM      3  C   UNL     1       0.823 -25.220  -9.676  1.00  0.00    -0.019 C 
ATOM      4  C   UNL     1       1.376 -26.557 -10.092  1.00  0.00     0.036 C 
ATOM      5  C   UNL     1       1.854 -26.528 -11.556  1.00  0.00     0.025 C 
ATOM      6  C   UNL     1       0.716 -26.055 -12.480  1.00  0.00     0.089 C 
ATOM      7  C   UNL     1       0.137 -24.759 -11.984  1.00  0.00     0.158 C 
ATOM      8  O   UNL     1      -0.427 -23.985 -12.803  1.00  0.00    -0.295 OA
ENDROOT
BRANCH   5   9
ATOM      9  C   UNL     1       2.397 -27.882 -11.991  1.00  0.00    -0.077 C 
ATOM     10  C   UNL     1       3.643 -28.248 -11.651  1.00  0.00     0.008 C 
ATOM     11  C   UNL     1       1.563 -28.839 -12.807  1.00  0.00     0.039 C 
ENDBRANCH   5   9
TORSDOF 1
ENDMDL
MODEL 9
REMARK VINA RESULT:    -4.775      1.997      3.064
REMARK INTER + INTRA:          -5.153
REMARK INTER:                  -5.054
REMARK INTRA:                  -0.099
REMARK UNBOUND:                -0.099
REMARK SMILES C=C(C)[C@@H]1CC=C(C)C(=O)C1
REMARK SMILES IDX 8 1 7 2 6 3 5 4 4 5 11 6 9 7 10 8 2 9 1 10 3 11
REMARK H PARENT
REMARK Flexibility Score: inf
ROOT
ATOM      1  C   UNL     1       2.134 -27.715 -11.231  1.00  0.00     0.048 C 
ATOM      2  C   UNL     1       1.400 -26.410 -11.104  1.00  0.00    -0.012 C 
ATOM      3  C   UNL     1       1.136 -25.905  -9.886  1.00  0.00    -0.019 C 
ATOM      4  C   UNL     1       0.421 -24.593  -9.702  1.00  0.00     0.036 C 
ATOM      5  C   UNL     1      -0.601 -24.356 -10.830  1.00  0.00     0.025 C 
ATOM      6  C   UNL     1       0.087 -24.458 -12.204  1.00  0.00     0.089 C 
ATOM      7  C   UNL     1       0.857 -25.744 -12.316  1.00  0.00     0.158 C 
ATOM      8  O   UNL     1       1.072 -26.234 -13.457  1.00  0.00    -0.295 OA
ENDROOT
BRANCH   5   9
ATOM      9  C   UNL     1      -1.316 -23.023 -10.663  1.00  0.00    -0.077 C 
ATOM     10  C   UNL     1      -1.259 -22.101 -11.637  1.00  0.00     0.008 C 
ATOM     11  C   UNL     1      -2.097 -22.701  -9.413  1.00  0.00     0.039 C 
ENDBRANCH   5   9
TORSDOF 1
ENDMDL
