MODEL 1
REMARK VINA RESULT:    -4.050      0.000      0.000
REMARK INTER + INTRA:          -4.720
REMARK INTER:                  -4.642
REMARK INTRA:                  -0.079
REMARK UNBOUND:                -0.079
REMARK SMILES C=Cc1ccc(O)c(OC)c1
REMARK SMILES IDX 8 1 6 2 5 3 4 4 3 5 11 6 9 7 10 8 7 9 2 11 1 12
REMARK H PARENT 7 10
REMARK Flexibility Score: inf
ROOT
ATOM      1  C   UNL     1      27.039  39.538  18.809  1.00  0.00     0.161 A 
ATOM      2  C   UNL     1      26.283  39.043  19.879  1.00  0.00     0.157 A 
ATOM      3  C   UNL     1      25.843  39.908  20.887  1.00  0.00     0.051 A 
ATOM      4  C   UNL     1      26.148  41.270  20.831  1.00  0.00     0.012 A 
ATOM      5  C   UNL     1      26.896  41.790  19.758  1.00  0.00    -0.022 A 
ATOM      6  C   UNL     1      27.346  40.912  18.757  1.00  0.00     0.058 A 
ENDROOT
BRANCH   1   7
ATOM      7  O   UNL     1      27.468  38.637  17.820  1.00  0.00    -0.493 OA
ATOM      8  C   UNL     1      28.711  38.724  17.132  1.00  0.00     0.278 C 
ENDBRANCH   1   7
BRANCH   2   9
ATOM      9  O   UNL     1      25.976  37.685  19.937  1.00  0.00    -0.504 OA
ATOM     10  H   UNL     1      26.678  36.991  20.166  1.00  0.00     0.293 HD
ENDBRANCH   2   9
BRANCH   5  11
ATOM     11  C   UNL     1      27.255  43.226  19.655  1.00  0.00     0.000 C 
ATOM     12  C   UNL     1      26.563  44.125  18.953  1.00  0.00     0.009 C 
ENDBRANCH   5  11
TORSDOF 3
ENDMDL
MODEL 2
REMARK VINA RESULT:    -3.942      9.156     11.105
REMARK INTER + INTRA:          -4.597
REMARK INTER:                  -4.504
REMARK INTRA:                  -0.094
REMARK UNBOUND:                -0.079
REMARK SMILES C=Cc1ccc(O)c(OC)c1
REMARK SMILES IDX 8 1 6 2 5 3 4 4 3 5 11 6 9 7 10 8 7 9 2 11 1 12
REMARK H PARENT 7 10
REMARK Flexibility Score: inf
ROOT
ATOM      1  C   UNL     1      28.778  32.438  23.763  1.00  0.00     0.161 A 
ATOM      2  C   UNL     1      29.003  31.702  22.593  1.00  0.00     0.157 A 
ATOM      3  C   UNL     1      29.109  30.307  22.650  1.00  0.00     0.051 A 
ATOM      4  C   UNL     1      28.986  29.640  23.871  1.00  0.00     0.012 A 
ATOM      5  C   UNL     1      28.747  30.360  25.057  1.00  0.00    -0.022 A 
ATOM      6  C   UNL     1      28.656  31.761  24.992  1.00  0.00     0.058 A 
ENDROOT
BRANCH   1   7
ATOM      7  O   UNL     1      28.683  33.836  23.665  1.00  0.00    -0.493 OA
ATOM      8  C   UNL     1      27.462  34.566  23.696  1.00  0.00     0.278 C 
ENDBRANCH   1   7
BRANCH   2   9
ATOM      9  O   UNL     1      29.125  32.365  21.373  1.00  0.00    -0.504 OA
ATOM     10  H   UNL     1      28.618  33.221  21.181  1.00  0.00     0.293 HD
ENDBRANCH   2   9
BRANCH   5  11
ATOM     11  C   UNL     1      28.618  29.701  26.380  1.00  0.00     0.000 C 
ATOM     12  C   UNL     1      29.117  30.193  27.515  1.00  0.00     0.009 C 
ENDBRANCH   5  11
TORSDOF 3
ENDMDL
MODEL 3
REMARK VINA RESULT:    -3.913     10.332     11.988
REMARK INTER + INTRA:          -4.564
REMARK INTER:                  -4.482
REMARK INTRA:                  -0.082
REMARK UNBOUND:                -0.079
REMARK SMILES C=Cc1ccc(O)c(OC)c1
REMARK SMILES IDX 8 1 6 2 5 3 4 4 3 5 11 6 9 7 10 8 7 9 2 11 1 12
REMARK H PARENT 7 10
REMARK Flexibility Score: inf
ROOT
ATOM      1  C   UNL     1      28.627  29.715  25.449  1.00  0.00     0.161 A 
ATOM      2  C   UNL     1      28.845  28.616  24.607  1.00  0.00     0.157 A 
ATOM      3  C   UNL     1      29.025  28.810  23.233  1.00  0.00     0.051 A 
ATOM      4  C   UNL     1      28.993  30.097  22.691  1.00  0.00     0.012 A 
ATOM      5  C   UNL     1      28.787  31.215  23.522  1.00  0.00    -0.022 A 
ATOM      6  C   UNL     1      28.594  31.011  24.898  1.00  0.00     0.058 A 
ENDROOT
BRANCH   1   7
ATOM      7  O   UNL     1      28.447  29.479  26.822  1.00  0.00    -0.493 OA
ATOM      8  C   UNL     1      29.125  30.182  27.857  1.00  0.00     0.278 C 
ENDBRANCH   1   7
BRANCH   2   9
ATOM      9  O   UNL     1      28.879  27.331  25.145  1.00  0.00    -0.504 OA
ATOM     10  H   UNL     1      29.071  27.172  26.127  1.00  0.00     0.293 HD
ENDBRANCH   2   9
BRANCH   5  11
ATOM     11  C   UNL     1      28.735  32.602  22.996  1.00  0.00     0.000 C 
ATOM     12  C   UNL     1      28.263  33.646  23.679  1.00  0.00     0.009 C 
ENDBRANCH   5  11
TORSDOF 3
ENDMDL
MODEL 4
REMARK VINA RESULT:    -3.846      2.703      4.800
REMARK INTER + INTRA:          -4.487
REMARK INTER:                  -4.437
REMARK INTRA:                  -0.049
REMARK UNBOUND:                -0.079
REMARK SMILES C=Cc1ccc(O)c(OC)c1
REMARK SMILES IDX 8 1 6 2 5 3 4 4 3 5 11 6 9 7 10 8 7 9 2 11 1 12
REMARK H PARENT 7 10
REMARK Flexibility Score: inf
ROOT
ATOM      1  C   UNL     1      26.934  38.713  19.448  1.00  0.00     0.161 A 
ATOM      2  C   UNL     1      25.956  38.512  20.431  1.00  0.00     0.157 A 
ATOM      3  C   UNL     1      26.002  37.375  21.245  1.00  0.00     0.051 A 
ATOM      4  C   UNL     1      27.024  36.436  21.089  1.00  0.00     0.012 A 
ATOM      5  C   UNL     1      28.024  36.625  20.116  1.00  0.00    -0.022 A 
ATOM      6  C   UNL     1      27.963  37.762  19.293  1.00  0.00     0.058 A 
ENDROOT
BRANCH   1   7
ATOM      7  O   UNL     1      26.851  39.864  18.648  1.00  0.00    -0.493 OA
ATOM      8  C   UNL     1      27.365  41.140  19.013  1.00  0.00     0.278 C 
ENDBRANCH   1   7
BRANCH   2   9
ATOM      9  O   UNL     1      24.936  39.449  20.590  1.00  0.00    -0.504 OA
ATOM     10  H   UNL     1      24.857  40.009  21.430  1.00  0.00     0.293 HD
ENDBRANCH   2   9
BRANCH   5  11
ATOM     11  C   UNL     1      29.125  35.653  19.902  1.00  0.00     0.000 C 
ATOM     12  C   UNL     1      28.991  34.331  20.011  1.00  0.00     0.009 C 
ENDBRANCH   5  11
TORSDOF 3
ENDMDL
MODEL 5
REMARK VINA RESULT:    -3.833      1.229      2.861
REMARK INTER + INTRA:          -4.472
REMARK INTER:                  -4.382
REMARK INTRA:                  -0.090
REMARK UNBOUND:                -0.079
REMARK SMILES C=Cc1ccc(O)c(OC)c1
REMARK SMILES IDX 8 1 6 2 5 3 4 4 3 5 11 6 9 7 10 8 7 9 2 11 1 12
REMARK H PARENT 7 10
REMARK Flexibility Score: inf
ROOT
ATOM      1  C   UNL     1      26.234  39.217  19.845  1.00  0.00     0.161 A 
ATOM      2  C   UNL     1      26.912  39.666  18.705  1.00  0.00     0.157 A 
ATOM      3  C   UNL     1      27.409  40.974  18.653  1.00  0.00     0.051 A 
ATOM      4  C   UNL     1      27.237  41.838  19.737  1.00  0.00     0.012 A 
ATOM      5  C   UNL     1      26.570  41.402  20.898  1.00  0.00    -0.022 A 
ATOM      6  C   UNL     1      26.062  40.092  20.936  1.00  0.00     0.058 A 
ENDROOT
BRANCH   1   7
ATOM      7  O   UNL     1      25.746  37.900  19.858  1.00  0.00    -0.493 OA
ATOM      8  C   UNL     1      24.844  37.383  20.830  1.00  0.00     0.278 C 
ENDBRANCH   1   7
BRANCH   2   9
ATOM      9  O   UNL     1      27.086  38.806  17.623  1.00  0.00    -0.504 OA
ATOM     10  H   UNL     1      27.303  37.825  17.754  1.00  0.00     0.293 HD
ENDBRANCH   2   9
BRANCH   5  11
ATOM     11  C   UNL     1      26.352  42.282  22.073  1.00  0.00     0.000 C 
ATOM     12  C   UNL     1      27.121  43.328  22.379  1.00  0.00     0.009 C 
ENDBRANCH   5  11
TORSDOF 3
ENDMDL
MODEL 6
REMARK VINA RESULT:    -3.743      2.348      4.715
REMARK INTER + INTRA:          -4.368
REMARK INTER:                  -4.280
REMARK INTRA:                  -0.089
REMARK UNBOUND:                -0.079
REMARK SMILES C=Cc1ccc(O)c(OC)c1
REMARK SMILES IDX 8 1 6 2 5 3 4 4 3 5 11 6 9 7 10 8 7 9 2 11 1 12
REMARK H PARENT 7 10
REMARK Flexibility Score: inf
ROOT
ATOM      1  C   UNL     1      26.321  41.174  20.624  1.00  0.00     0.161 A 
ATOM      2  C   UNL     1      27.090  41.359  19.467  1.00  0.00     0.157 A 
ATOM      3  C   UNL     1      27.355  40.277  18.621  1.00  0.00     0.051 A 
ATOM      4  C   UNL     1      26.853  39.008  18.918  1.00  0.00     0.012 A 
ATOM      5  C   UNL     1      26.068  38.803  20.069  1.00  0.00    -0.022 A 
ATOM      6  C   UNL     1      25.818  39.892  20.921  1.00  0.00     0.058 A 
ENDROOT
BRANCH   1   7
ATOM      7  O   UNL     1      26.080  42.284  21.451  1.00  0.00    -0.493 OA
ATOM      8  C   UNL     1      26.833  42.600  22.616  1.00  0.00     0.278 C 
ENDBRANCH   1   7
BRANCH   2   9
ATOM      9  O   UNL     1      27.591  42.624  19.167  1.00  0.00    -0.504 OA
ATOM     10  H   UNL     1      28.283  42.762  18.440  1.00  0.00     0.293 HD
ENDBRANCH   2   9
BRANCH   5  11
ATOM     11  C   UNL     1      25.519  37.475  20.436  1.00  0.00     0.000 C 
ATOM     12  C   UNL     1      24.297  37.279  20.934  1.00  0.00     0.009 C 
ENDBRANCH   5  11
TORSDOF 3
ENDMDL
MODEL 7
REMARK VINA RESULT:    -3.697      3.065      5.665
REMARK INTER + INTRA:          -4.315
REMARK INTER:                  -4.236
REMARK INTRA:                  -0.080
REMARK UNBOUND:                -0.079
REMARK SMILES C=Cc1ccc(O)c(OC)c1
REMARK SMILES IDX 8 1 6 2 5 3 4 4 3 5 11 6 9 7 10 8 7 9 2 11 1 12
REMARK H PARENT 7 10
REMARK Flexibility Score: inf
ROOT
ATOM      1  C   UNL     1      26.665  37.834  20.010  1.00  0.00     0.161 A 
ATOM      2  C   UNL     1      27.376  38.462  18.980  1.00  0.00     0.157 A 
ATOM      3  C   UNL     1      28.603  37.939  18.555  1.00  0.00     0.051 A 
ATOM      4  C   UNL     1      29.125  36.789  19.150  1.00  0.00     0.012 A 
ATOM      5  C   UNL     1      28.420  36.136  20.179  1.00  0.00    -0.022 A 
ATOM      6  C   UNL     1      27.195  36.674  20.609  1.00  0.00     0.058 A 
ENDROOT
BRANCH   1   7
ATOM      7  O   UNL     1      25.440  38.391  20.412  1.00  0.00    -0.493 OA
ATOM      8  C   UNL     1      24.328  37.639  20.886  1.00  0.00     0.278 C 
ENDBRANCH   1   7
BRANCH   2   9
ATOM      9  O   UNL     1      26.858  39.609  18.383  1.00  0.00    -0.504 OA
ATOM     10  H   UNL     1      26.023  39.578  17.809  1.00  0.00     0.293 HD
ENDBRANCH   2   9
BRANCH   5  11
ATOM     11  C   UNL     1      28.934  34.916  20.851  1.00  0.00     0.000 C 
ATOM     12  C   UNL     1      28.785  33.679  20.376  1.00  0.00     0.009 C 
ENDBRANCH   5  11
TORSDOF 3
ENDMDL
MODEL 8
REMARK VINA RESULT:    -3.589      2.981      3.920
REMARK INTER + INTRA:          -4.192
REMARK INTER:                  -4.100
REMARK INTRA:                  -0.092
REMARK UNBOUND:                -0.079
REMARK SMILES C=Cc1ccc(O)c(OC)c1
REMARK SMILES IDX 8 1 6 2 5 3 4 4 3 5 11 6 9 7 10 8 7 9 2 11 1 12
REMARK H PARENT 7 10
REMARK Flexibility Score: inf
ROOT
ATOM      1  C   UNL     1      27.757  36.609  20.561  1.00  0.00     0.161 A 
ATOM      2  C   UNL     1      26.643  37.002  21.314  1.00  0.00     0.157 A 
ATOM      3  C   UNL     1      25.915  38.140  20.948  1.00  0.00     0.051 A 
ATOM      4  C   UNL     1      26.290  38.889  19.831  1.00  0.00     0.012 A 
ATOM      5  C   UNL     1      27.399  38.505  19.053  1.00  0.00    -0.022 A 
ATOM      6  C   UNL     1      28.133  37.369  19.435  1.00  0.00     0.058 A 
ENDROOT
BRANCH   1   7
ATOM      7  O   UNL     1      28.465  35.465  20.962  1.00  0.00    -0.493 OA
ATOM      8  C   UNL     1      28.471  34.230  20.254  1.00  0.00     0.278 C 
ENDBRANCH   1   7
BRANCH   2   9
ATOM      9  O   UNL     1      26.266  36.256  22.429  1.00  0.00    -0.504 OA
ATOM     10  H   UNL     1      26.193  35.246  22.391  1.00  0.00     0.293 HD
ENDBRANCH   2   9
BRANCH   5  11
ATOM     11  C   UNL     1      27.844  39.270  17.863  1.00  0.00     0.000 C 
ATOM     12  C   UNL     1      28.648  38.784  16.916  1.00  0.00     0.009 C 
ENDBRANCH   5  11
TORSDOF 3
ENDMDL
MODEL 9
REMARK VINA RESULT:    -3.585      2.634      4.899
REMARK INTER + INTRA:          -4.188
REMARK INTER:                  -4.101
REMARK INTRA:                  -0.087
REMARK UNBOUND:                -0.079
REMARK SMILES C=Cc1ccc(O)c(OC)c1
REMARK SMILES IDX 8 1 6 2 5 3 4 4 3 5 11 6 9 7 10 8 7 9 2 11 1 12
REMARK H PARENT 7 10
REMARK Flexibility Score: inf
ROOT
ATOM      1  C   UNL     1      25.926  37.886  20.815  1.00  0.00     0.161 A 
ATOM      2  C   UNL     1      26.095  39.274  20.718  1.00  0.00     0.157 A 
ATOM      3  C   UNL     1      27.244  39.800  20.117  1.00  0.00     0.051 A 
ATOM      4  C   UNL     1      28.227  38.949  19.607  1.00  0.00     0.012 A 
ATOM      5  C   UNL     1      28.070  37.552  19.683  1.00  0.00    -0.022 A 
ATOM      6  C   UNL     1      26.920  37.031  20.300  1.00  0.00     0.058 A 
ENDROOT
BRANCH   1   7
ATOM      7  O   UNL     1      24.761  37.396  21.430  1.00  0.00    -0.493 OA
ATOM      8  C   UNL     1      23.588  36.996  20.731  1.00  0.00     0.278 C 
ENDBRANCH   1   7
BRANCH   2   9
ATOM      9  O   UNL     1      25.115  40.125  21.226  1.00  0.00    -0.504 OA
ATOM     10  H   UNL     1      24.185  39.791  21.449  1.00  0.00     0.293 HD
ENDBRANCH   2   9
BRANCH   5  11
ATOM     11  C   UNL     1      29.087  36.604  19.164  1.00  0.00     0.000 C 
ATOM     12  C   UNL     1      29.120  35.303  19.458  1.00  0.00     0.009 C 
ENDBRANCH   5  11
TORSDOF 3
ENDMDL
