MODEL 1
REMARK VINA RESULT:    -4.498      0.000      0.000
REMARK INTER + INTRA:         -10.133
REMARK INTER:                  -8.442
REMARK INTRA:                  -1.690
REMARK UNBOUND:                -1.690
REMARK SMILES CCCCCCCCC=CCCCCCCCC(=O)[O-]
REMARK SMILES IDX 10 1 9 2 11 3 12 4 13 5 14 6 15 7 16 8 17 9 18 10 19 11
REMARK SMILES IDX 20 12 8 13 7 14 6 15 5 16 4 17 3 18 2 19 1 20
REMARK H PARENT
REMARK Flexibility Score: inf
ROOT
ATOM      1  C   UNL     1       4.851   3.679  -6.984  1.00  0.00    -0.031 C 
ATOM      2  C   UNL     1       4.965   4.296  -8.170  1.00  0.00    -0.031 C 
ENDROOT
BRANCH   1   3
ATOM      3  C   UNL     1       5.482   2.336  -6.729  1.00  0.00     0.027 C 
BRANCH   3   4
ATOM      4  C   UNL     1       6.692   2.450  -5.793  1.00  0.00     0.004 C 
BRANCH   4   5
ATOM      5  C   UNL     1       6.334   2.111  -4.335  1.00  0.00     0.000 C 
BRANCH   5   6
ATOM      6  C   UNL     1       7.572   1.693  -3.514  1.00  0.00     0.000 C 
BRANCH   6   7
ATOM      7  C   UNL     1       7.739   0.170  -3.383  1.00  0.00     0.000 C 
BRANCH   7   8
ATOM      8  C   UNL     1       8.374  -0.247  -2.046  1.00  0.00     0.006 C 
BRANCH   8   9
ATOM      9  C   UNL     1       8.650  -1.755  -1.982  1.00  0.00     0.053 C 
BRANCH   9  10
ATOM     10  C   UNL     1       8.833  -2.229  -0.572  1.00  0.00     0.041 C 
ATOM     11  O   UNL     1       9.837  -1.864   0.094  1.00  0.00    -0.550 OA
ATOM     12  O   UNL     1       7.907  -3.094  -0.005  1.00  0.00    -0.550 OA
ENDBRANCH   9  10
ENDBRANCH   8   9
ENDBRANCH   7   8
ENDBRANCH   6   7
ENDBRANCH   5   6
ENDBRANCH   4   5
ENDBRANCH   3   4
ENDBRANCH   1   3
BRANCH   2  13
ATOM     13  C   UNL     1       4.285   5.610  -8.440  1.00  0.00     0.027 C 
BRANCH  13  14
ATOM     14  C   UNL     1       3.041   5.781  -7.554  1.00  0.00     0.004 C 
BRANCH  14  15
ATOM     15  C   UNL     1       3.125   7.020  -6.651  1.00  0.00     0.000 C 
BRANCH  15  16
ATOM     16  C   UNL     1       3.654   6.692  -5.246  1.00  0.00     0.000 C 
BRANCH  16  17
ATOM     17  C   UNL     1       4.929   7.489  -4.940  1.00  0.00    -0.000 C 
BRANCH  17  18
ATOM     18  C   UNL     1       6.067   6.557  -4.499  1.00  0.00    -0.000 C 
BRANCH  18  19
ATOM     19  C   UNL     1       6.989   6.159  -5.663  1.00  0.00    -0.003 C 
ATOM     20  C   UNL     1       7.491   7.364  -6.458  1.00  0.00     0.004 C 
ENDBRANCH  18  19
ENDBRANCH  17  18
ENDBRANCH  16  17
ENDBRANCH  15  16
ENDBRANCH  14  15
ENDBRANCH  13  14
ENDBRANCH   2  13
TORSDOF 15
ENDMDL
MODEL 2
REMARK VINA RESULT:    -4.469     12.265     14.825
REMARK INTER + INTRA:         -10.078
REMARK INTER:                  -7.512
REMARK INTRA:                  -2.566
REMARK UNBOUND:                -1.690
REMARK SMILES CCCCCCCCC=CCCCCCCCC(=O)[O-]
REMARK SMILES IDX 10 1 9 2 11 3 12 4 13 5 14 6 15 7 16 8 17 9 18 10 19 11
REMARK SMILES IDX 20 12 8 13 7 14 6 15 5 16 4 17 3 18 2 19 1 20
REMARK H PARENT
REMARK Flexibility Score: inf
ROOT
ATOM      1  C   UNL     1      -7.654   4.687  -3.280  1.00  0.00    -0.031 C 
ATOM      2  C   UNL     1      -7.365   5.862  -3.861  1.00  0.00    -0.031 C 
ENDROOT
BRANCH   1   3
ATOM      3  C   UNL     1      -9.076   4.233  -3.083  1.00  0.00     0.027 C 
BRANCH   3   4
ATOM      4  C   UNL     1      -9.992   4.743  -4.202  1.00  0.00     0.004 C 
BRANCH   4   5
ATOM      5  C   UNL     1     -10.125   3.730  -5.354  1.00  0.00     0.000 C 
BRANCH   5   6
ATOM      6  C   UNL     1      -9.800   2.291  -4.902  1.00  0.00     0.000 C 
BRANCH   6   7
ATOM      7  C   UNL     1      -8.763   1.584  -5.791  1.00  0.00     0.000 C 
BRANCH   7   8
ATOM      8  C   UNL     1      -7.349   1.605  -5.189  1.00  0.00     0.006 C 
BRANCH   8   9
ATOM      9  C   UNL     1      -6.432   2.611  -5.898  1.00  0.00     0.053 C 
BRANCH   9  10
ATOM     10  C   UNL     1      -5.055   2.623  -5.307  1.00  0.00     0.041 C 
ATOM     11  O   UNL     1      -4.059   2.317  -6.014  1.00  0.00    -0.550 OA
ATOM     12  O   UNL     1      -4.877   2.945  -3.968  1.00  0.00    -0.550 OA
ENDBRANCH   9  10
ENDBRANCH   8   9
ENDBRANCH   7   8
ENDBRANCH   6   7
ENDBRANCH   5   6
ENDBRANCH   4   5
ENDBRANCH   3   4
ENDBRANCH   1   3
BRANCH   2  13
ATOM     13  C   UNL     1      -5.946   6.339  -4.004  1.00  0.00     0.027 C 
BRANCH  13  14
ATOM     14  C   UNL     1      -5.841   7.848  -3.736  1.00  0.00     0.004 C 
BRANCH  14  15
ATOM     15  C   UNL     1      -5.643   8.171  -2.247  1.00  0.00     0.000 C 
BRANCH  15  16
ATOM     16  C   UNL     1      -6.641   9.220  -1.733  1.00  0.00     0.000 C 
BRANCH  16  17
ATOM     17  C   UNL     1      -7.922   8.552  -1.218  1.00  0.00    -0.000 C 
BRANCH  17  18
ATOM     18  C   UNL     1      -7.604   7.237  -0.493  1.00  0.00    -0.000 C 
BRANCH  18  19
ATOM     19  C   UNL     1      -8.868   6.449  -0.115  1.00  0.00    -0.003 C 
ATOM     20  C   UNL     1     -10.125   6.984  -0.803  1.00  0.00     0.004 C 
ENDBRANCH  18  19
ENDBRANCH  17  18
ENDBRANCH  16  17
ENDBRANCH  15  16
ENDBRANCH  14  15
ENDBRANCH  13  14
ENDBRANCH   2  13
TORSDOF 15
ENDMDL
MODEL 3
REMARK VINA RESULT:    -4.431     11.783     13.739
REMARK INTER + INTRA:         -10.007
REMARK INTER:                  -7.730
REMARK INTRA:                  -2.277
REMARK UNBOUND:                -1.690
REMARK SMILES CCCCCCCCC=CCCCCCCCC(=O)[O-]
REMARK SMILES IDX 10 1 9 2 11 3 12 4 13 5 14 6 15 7 16 8 17 9 18 10 19 11
REMARK SMILES IDX 20 12 8 13 7 14 6 15 5 16 4 17 3 18 2 19 1 20
REMARK H PARENT
REMARK Flexibility Score: inf
ROOT
ATOM      1  C   UNL     1      -6.146   6.903  -3.722  1.00  0.00    -0.031 C 
ATOM      2  C   UNL     1      -5.177   6.894  -4.650  1.00  0.00    -0.031 C 
ENDROOT
BRANCH   1   3
ATOM      3  C   UNL     1      -7.385   6.059  -3.865  1.00  0.00     0.027 C 
BRANCH   3   4
ATOM      4  C   UNL     1      -7.570   5.120  -2.667  1.00  0.00     0.004 C 
BRANCH   4   5
ATOM      5  C   UNL     1      -8.848   4.269  -2.785  1.00  0.00     0.000 C 
BRANCH   5   6
ATOM      6  C   UNL     1      -8.905   3.488  -4.114  1.00  0.00     0.000 C 
BRANCH   6   7
ATOM      7  C   UNL     1      -8.337   2.062  -4.017  1.00  0.00     0.000 C 
BRANCH   7   8
ATOM      8  C   UNL     1      -7.471   1.682  -5.229  1.00  0.00     0.006 C 
BRANCH   8   9
ATOM      9  C   UNL     1      -6.581   2.843  -5.691  1.00  0.00     0.053 C 
BRANCH   9  10
ATOM     10  C   UNL     1      -5.223   2.790  -5.062  1.00  0.00     0.041 C 
ATOM     11  O   UNL     1      -5.066   3.139  -3.862  1.00  0.00    -0.550 OA
ATOM     12  O   UNL     1      -4.127   2.380  -5.809  1.00  0.00    -0.550 OA
ENDBRANCH   9  10
ENDBRANCH   8   9
ENDBRANCH   7   8
ENDBRANCH   6   7
ENDBRANCH   5   6
ENDBRANCH   4   5
ENDBRANCH   3   4
ENDBRANCH   1   3
BRANCH   2  13
ATOM     13  C   UNL     1      -3.968   7.781  -4.531  1.00  0.00     0.027 C 
BRANCH  13  14
ATOM     14  C   UNL     1      -4.375   9.231  -4.225  1.00  0.00     0.004 C 
BRANCH  14  15
ATOM     15  C   UNL     1      -3.582   9.832  -3.055  1.00  0.00     0.000 C 
BRANCH  15  16
ATOM     16  C   UNL     1      -3.797   9.065  -1.741  1.00  0.00     0.000 C 
BRANCH  16  17
ATOM     17  C   UNL     1      -5.246   9.196  -1.259  1.00  0.00    -0.000 C 
BRANCH  17  18
ATOM     18  C   UNL     1      -5.575   8.127  -0.207  1.00  0.00    -0.000 C 
BRANCH  18  19
ATOM     19  C   UNL     1      -7.079   7.818  -0.129  1.00  0.00    -0.003 C 
ATOM     20  C   UNL     1      -7.918   8.742  -1.012  1.00  0.00     0.004 C 
ENDBRANCH  18  19
ENDBRANCH  17  18
ENDBRANCH  16  17
ENDBRANCH  15  16
ENDBRANCH  14  15
ENDBRANCH  13  14
ENDBRANCH   2  13
TORSDOF 15
ENDMDL
MODEL 4
REMARK VINA RESULT:    -4.399      1.601      3.317
REMARK INTER + INTRA:          -9.946
REMARK INTER:                  -8.674
REMARK INTRA:                  -1.272
REMARK UNBOUND:                -1.690
REMARK SMILES CCCCCCCCC=CCCCCCCCC(=O)[O-]
REMARK SMILES IDX 10 1 9 2 11 3 12 4 13 5 14 6 15 7 16 8 17 9 18 10 19 11
REMARK SMILES IDX 20 12 8 13 7 14 6 15 5 16 4 17 3 18 2 19 1 20
REMARK H PARENT
REMARK Flexibility Score: inf
ROOT
ATOM      1  C   UNL     1       6.554   1.506  -4.536  1.00  0.00    -0.031 C 
ATOM      2  C   UNL     1       6.276   2.716  -5.046  1.00  0.00    -0.031 C 
ENDROOT
BRANCH   1   3
ATOM      3  C   UNL     1       7.630   1.315  -3.501  1.00  0.00     0.027 C 
BRANCH   3   4
ATOM      4  C   UNL     1       7.887  -0.172  -3.222  1.00  0.00     0.004 C 
BRANCH   4   5
ATOM      5  C   UNL     1       8.283  -0.430  -1.757  1.00  0.00     0.000 C 
BRANCH   5   6
ATOM      6  C   UNL     1       8.922  -1.821  -1.564  1.00  0.00     0.000 C 
BRANCH   6   7
ATOM      7  C   UNL     1       9.664  -1.979  -0.226  1.00  0.00     0.000 C 
BRANCH   7   8
ATOM      8  C   UNL     1       9.217  -3.222   0.560  1.00  0.00     0.006 C 
BRANCH   8   9
ATOM      9  C   UNL     1       9.228  -4.489  -0.305  1.00  0.00     0.053 C 
BRANCH   9  10
ATOM     10  C   UNL     1       7.905  -5.192  -0.281  1.00  0.00     0.041 C 
ATOM     11  O   UNL     1       7.114  -5.021   0.684  1.00  0.00    -0.550 OA
ATOM     12  O   UNL     1       7.559  -6.056  -1.312  1.00  0.00    -0.550 OA
ENDBRANCH   9  10
ENDBRANCH   8   9
ENDBRANCH   7   8
ENDBRANCH   6   7
ENDBRANCH   5   6
ENDBRANCH   4   5
ENDBRANCH   3   4
ENDBRANCH   1   3
BRANCH   2  13
ATOM     13  C   UNL     1       5.240   2.895  -6.122  1.00  0.00     0.027 C 
BRANCH  13  14
ATOM     14  C   UNL     1       5.419   4.241  -6.842  1.00  0.00     0.004 C 
BRANCH  14  15
ATOM     15  C   UNL     1       4.312   5.248  -6.494  1.00  0.00     0.000 C 
BRANCH  15  16
ATOM     16  C   UNL     1       4.752   6.264  -5.429  1.00  0.00     0.000 C 
BRANCH  16  17
ATOM     17  C   UNL     1       6.232   6.629  -5.597  1.00  0.00    -0.000 C 
BRANCH  17  18
ATOM     18  C   UNL     1       6.916   6.792  -4.232  1.00  0.00    -0.000 C 
BRANCH  18  19
ATOM     19  C   UNL     1       7.965   5.702  -3.962  1.00  0.00    -0.003 C 
ATOM     20  C   UNL     1       8.763   5.328  -5.212  1.00  0.00     0.004 C 
ENDBRANCH  18  19
ENDBRANCH  17  18
ENDBRANCH  16  17
ENDBRANCH  15  16
ENDBRANCH  14  15
ENDBRANCH  13  14
ENDBRANCH   2  13
TORSDOF 15
ENDMDL
MODEL 5
REMARK VINA RESULT:    -4.373      3.670      9.627
REMARK INTER + INTRA:          -9.899
REMARK INTER:                  -8.673
REMARK INTRA:                  -1.225
REMARK UNBOUND:                -1.690
REMARK SMILES CCCCCCCCC=CCCCCCCCC(=O)[O-]
REMARK SMILES IDX 10 1 9 2 11 3 12 4 13 5 14 6 15 7 16 8 17 9 18 10 19 11
REMARK SMILES IDX 20 12 8 13 7 14 6 15 5 16 4 17 3 18 2 19 1 20
REMARK H PARENT
REMARK Flexibility Score: inf
ROOT
ATOM      1  C   UNL     1       8.203   1.192  -3.506  1.00  0.00    -0.031 C 
ATOM      2  C   UNL     1       7.788   0.113  -2.824  1.00  0.00    -0.031 C 
ENDROOT
BRANCH   1   3
ATOM      3  C   UNL     1       7.228   2.185  -4.081  1.00  0.00     0.027 C 
BRANCH   3   4
ATOM      4  C   UNL     1       7.876   3.561  -4.279  1.00  0.00     0.004 C 
BRANCH   4   5
ATOM      5  C   UNL     1       8.938   3.550  -5.394  1.00  0.00     0.000 C 
BRANCH   5   6
ATOM      6  C   UNL     1       8.506   4.386  -6.617  1.00  0.00     0.000 C 
BRANCH   6   7
ATOM      7  C   UNL     1       8.192   3.540  -7.862  1.00  0.00     0.000 C 
BRANCH   7   8
ATOM      8  C   UNL     1       6.756   3.741  -8.372  1.00  0.00     0.006 C 
BRANCH   8   9
ATOM      9  C   UNL     1       5.860   4.418  -7.327  1.00  0.00     0.053 C 
BRANCH   9  10
ATOM     10  C   UNL     1       4.939   3.439  -6.664  1.00  0.00     0.041 C 
ATOM     11  O   UNL     1       4.058   3.842  -5.859  1.00  0.00    -0.550 OA
ATOM     12  O   UNL     1       5.074   2.080  -6.914  1.00  0.00    -0.550 OA
ENDBRANCH   9  10
ENDBRANCH   8   9
ENDBRANCH   7   8
ENDBRANCH   6   7
ENDBRANCH   5   6
ENDBRANCH   4   5
ENDBRANCH   3   4
ENDBRANCH   1   3
BRANCH   2  13
ATOM     13  C   UNL     1       8.761  -0.907  -2.301  1.00  0.00     0.027 C 
BRANCH  13  14
ATOM     14  C   UNL     1       8.534  -1.170  -0.804  1.00  0.00     0.004 C 
BRANCH  14  15
ATOM     15  C   UNL     1       9.739  -1.850  -0.135  1.00  0.00     0.000 C 
BRANCH  15  16
ATOM     16  C   UNL     1       9.779  -3.364  -0.390  1.00  0.00     0.000 C 
BRANCH  16  17
ATOM     17  C   UNL     1       9.717  -4.145   0.928  1.00  0.00    -0.000 C 
BRANCH  17  18
ATOM     18  C   UNL     1       8.293  -4.647   1.204  1.00  0.00    -0.000 C 
BRANCH  18  19
ATOM     19  C   UNL     1       7.543  -5.032  -0.080  1.00  0.00    -0.003 C 
ATOM     20  C   UNL     1       7.556  -6.538  -0.343  1.00  0.00     0.004 C 
ENDBRANCH  18  19
ENDBRANCH  17  18
ENDBRANCH  16  17
ENDBRANCH  15  16
ENDBRANCH  14  15
ENDBRANCH  13  14
ENDBRANCH   2  13
TORSDOF 15
ENDMDL
MODEL 6
REMARK VINA RESULT:    -4.283     11.928     14.451
REMARK INTER + INTRA:          -9.730
REMARK INTER:                  -7.447
REMARK INTRA:                  -2.283
REMARK UNBOUND:                -1.690
REMARK SMILES CCCCCCCCC=CCCCCCCCC(=O)[O-]
REMARK SMILES IDX 10 1 9 2 11 3 12 4 13 5 14 6 15 7 16 8 17 9 18 10 19 11
REMARK SMILES IDX 20 12 8 13 7 14 6 15 5 16 4 17 3 18 2 19 1 20
REMARK H PARENT
REMARK Flexibility Score: inf
ROOT
ATOM      1  C   UNL     1      -6.387   5.530  -3.614  1.00  0.00    -0.031 C 
ATOM      2  C   UNL     1      -7.714   5.669  -3.470  1.00  0.00    -0.031 C 
ENDROOT
BRANCH   1   3
ATOM      3  C   UNL     1      -5.617   6.324  -4.636  1.00  0.00     0.027 C 
BRANCH   3   4
ATOM      4  C   UNL     1      -5.470   7.792  -4.217  1.00  0.00     0.004 C 
BRANCH   4   5
ATOM      5  C   UNL     1      -4.117   8.071  -3.536  1.00  0.00     0.000 C 
BRANCH   5   6
ATOM      6  C   UNL     1      -4.289   8.707  -2.141  1.00  0.00     0.000 C 
BRANCH   6   7
ATOM      7  C   UNL     1      -5.740   8.694  -1.631  1.00  0.00     0.000 C 
BRANCH   7   8
ATOM      8  C   UNL     1      -5.964   7.682  -0.496  1.00  0.00     0.006 C 
BRANCH   8   9
ATOM      9  C   UNL     1      -6.161   8.370   0.862  1.00  0.00     0.053 C 
BRANCH   9  10
ATOM     10  C   UNL     1      -4.855   8.768   1.479  1.00  0.00     0.041 C 
ATOM     11  O   UNL     1      -3.990   7.894   1.752  1.00  0.00    -0.550 OA
ATOM     12  O   UNL     1      -4.605  10.101   1.777  1.00  0.00    -0.550 OA
ENDBRANCH   9  10
ENDBRANCH   8   9
ENDBRANCH   7   8
ENDBRANCH   6   7
ENDBRANCH   5   6
ENDBRANCH   4   5
ENDBRANCH   3   4
ENDBRANCH   1   3
BRANCH   2  13
ATOM     13  C   UNL     1      -8.488   4.833  -2.488  1.00  0.00     0.027 C 
BRANCH  13  14
ATOM     14  C   UNL     1      -9.425   3.855  -3.213  1.00  0.00     0.004 C 
BRANCH  14  15
ATOM     15  C   UNL     1      -8.715   2.557  -3.629  1.00  0.00     0.000 C 
BRANCH  15  16
ATOM     16  C   UNL     1      -8.780   2.309  -5.144  1.00  0.00     0.000 C 
BRANCH  16  17
ATOM     17  C   UNL     1      -7.381   2.373  -5.771  1.00  0.00    -0.000 C 
BRANCH  17  18
ATOM     18  C   UNL     1      -6.297   2.060  -4.730  1.00  0.00    -0.000 C 
BRANCH  18  19
ATOM     19  C   UNL     1      -4.892   2.471  -5.198  1.00  0.00    -0.003 C 
ATOM     20  C   UNL     1      -4.915   3.278  -6.496  1.00  0.00     0.004 C 
ENDBRANCH  18  19
ENDBRANCH  17  18
ENDBRANCH  16  17
ENDBRANCH  15  16
ENDBRANCH  14  15
ENDBRANCH  13  14
ENDBRANCH   2  13
TORSDOF 15
ENDMDL
MODEL 7
REMARK VINA RESULT:    -4.250      2.553      3.849
REMARK INTER + INTRA:          -9.667
REMARK INTER:                  -7.338
REMARK INTRA:                  -2.328
REMARK UNBOUND:                -1.690
REMARK SMILES CCCCCCCCC=CCCCCCCCC(=O)[O-]
REMARK SMILES IDX 10 1 9 2 11 3 12 4 13 5 14 6 15 7 16 8 17 9 18 10 19 11
REMARK SMILES IDX 20 12 8 13 7 14 6 15 5 16 4 17 3 18 2 19 1 20
REMARK H PARENT
REMARK Flexibility Score: inf
ROOT
ATOM      1  C   UNL     1       3.531   5.105  -7.591  1.00  0.00    -0.031 C 
ATOM      2  C   UNL     1       2.920   6.232  -7.195  1.00  0.00    -0.031 C 
ENDROOT
BRANCH   1   3
ATOM      3  C   UNL     1       4.222   4.195  -6.610  1.00  0.00     0.027 C 
BRANCH   3   4
ATOM      4  C   UNL     1       5.152   3.203  -7.319  1.00  0.00     0.004 C 
BRANCH   4   5
ATOM      5  C   UNL     1       6.219   3.912  -8.172  1.00  0.00     0.000 C 
BRANCH   5   6
ATOM      6  C   UNL     1       7.225   4.701  -7.308  1.00  0.00     0.000 C 
BRANCH   6   7
ATOM      7  C   UNL     1       8.092   3.810  -6.403  1.00  0.00     0.000 C 
BRANCH   7   8
ATOM      8  C   UNL     1       7.743   3.956  -4.912  1.00  0.00     0.006 C 
BRANCH   8   9
ATOM      9  C   UNL     1       8.280   2.787  -4.075  1.00  0.00     0.053 C 
BRANCH   9  10
ATOM     10  C   UNL     1       7.200   1.810  -3.724  1.00  0.00     0.041 C 
ATOM     11  O   UNL     1       7.490   0.718  -3.167  1.00  0.00    -0.550 OA
ATOM     12  O   UNL     1       5.878   2.095  -4.036  1.00  0.00    -0.550 OA
ENDBRANCH   9  10
ENDBRANCH   8   9
ENDBRANCH   7   8
ENDBRANCH   6   7
ENDBRANCH   5   6
ENDBRANCH   4   5
ENDBRANCH   3   4
ENDBRANCH   1   3
BRANCH   2  13
ATOM     13  C   UNL     1       2.281   7.167  -8.184  1.00  0.00     0.027 C 
BRANCH  13  14
ATOM     14  C   UNL     1       1.693   8.400  -7.479  1.00  0.00     0.004 C 
BRANCH  14  15
ATOM     15  C   UNL     1       1.931   8.380  -5.961  1.00  0.00     0.000 C 
BRANCH  15  16
ATOM     16  C   UNL     1       2.695   9.618  -5.467  1.00  0.00     0.000 C 
BRANCH  16  17
ATOM     17  C   UNL     1       3.999   9.807  -6.252  1.00  0.00    -0.000 C 
BRANCH  17  18
ATOM     18  C   UNL     1       5.214   9.394  -5.409  1.00  0.00    -0.000 C 
BRANCH  18  19
ATOM     19  C   UNL     1       5.733   7.992  -5.767  1.00  0.00    -0.003 C 
ATOM     20  C   UNL     1       5.459   6.963  -4.669  1.00  0.00     0.004 C 
ENDBRANCH  18  19
ENDBRANCH  17  18
ENDBRANCH  16  17
ENDBRANCH  15  16
ENDBRANCH  14  15
ENDBRANCH  13  14
ENDBRANCH   2  13
TORSDOF 15
ENDMDL
MODEL 8
REMARK VINA RESULT:    -4.193     12.108     14.233
REMARK INTER + INTRA:          -9.561
REMARK INTER:                  -7.066
REMARK INTRA:                  -2.495
REMARK UNBOUND:                -1.690
REMARK SMILES CCCCCCCCC=CCCCCCCCC(=O)[O-]
REMARK SMILES IDX 10 1 9 2 11 3 12 4 13 5 14 6 15 7 16 8 17 9 18 10 19 11
REMARK SMILES IDX 20 12 8 13 7 14 6 15 5 16 4 17 3 18 2 19 1 20
REMARK H PARENT
REMARK Flexibility Score: inf
ROOT
ATOM      1  C   UNL     1      -6.570   7.166  -1.569  1.00  0.00    -0.031 C 
ATOM      2  C   UNL     1      -6.521   7.940  -2.663  1.00  0.00    -0.031 C 
ENDROOT
BRANCH   1   3
ATOM      3  C   UNL     1      -7.880   6.712  -0.980  1.00  0.00     0.027 C 
BRANCH   3   4
ATOM      4  C   UNL     1      -9.017   6.788  -2.007  1.00  0.00     0.004 C 
BRANCH   4   5
ATOM      5  C   UNL     1      -9.414   5.399  -2.540  1.00  0.00     0.000 C 
BRANCH   5   6
ATOM      6  C   UNL     1      -8.706   5.061  -3.868  1.00  0.00     0.000 C 
BRANCH   6   7
ATOM      7  C   UNL     1      -7.862   3.777  -3.808  1.00  0.00     0.000 C 
BRANCH   7   8
ATOM      8  C   UNL     1      -6.383   4.050  -3.488  1.00  0.00     0.006 C 
BRANCH   8   9
ATOM      9  C   UNL     1      -5.625   4.617  -4.696  1.00  0.00     0.053 C 
BRANCH   9  10
ATOM     10  C   UNL     1      -5.097   3.531  -5.582  1.00  0.00     0.041 C 
ATOM     11  O   UNL     1      -4.993   3.720  -6.823  1.00  0.00    -0.550 OA
ATOM     12  O   UNL     1      -4.746   2.301  -5.041  1.00  0.00    -0.550 OA
ENDBRANCH   9  10
ENDBRANCH   8   9
ENDBRANCH   7   8
ENDBRANCH   6   7
ENDBRANCH   5   6
ENDBRANCH   4   5
ENDBRANCH   3   4
ENDBRANCH   1   3
BRANCH   2  13
ATOM     13  C   UNL     1      -5.214   8.438  -3.215  1.00  0.00     0.027 C 
BRANCH  13  14
ATOM     14  C   UNL     1      -4.121   8.434  -2.134  1.00  0.00     0.004 C 
BRANCH  14  15
ATOM     15  C   UNL     1      -3.753   9.849  -1.662  1.00  0.00     0.000 C 
BRANCH  15  16
ATOM     16  C   UNL     1      -3.953  10.037  -0.150  1.00  0.00     0.000 C 
BRANCH  16  17
ATOM     17  C   UNL     1      -5.435  10.242   0.187  1.00  0.00    -0.000 C 
BRANCH  17  18
ATOM     18  C   UNL     1      -5.864   9.339   1.352  1.00  0.00    -0.000 C 
BRANCH  18  19
ATOM     19  C   UNL     1      -4.857   8.212   1.628  1.00  0.00    -0.003 C 
ATOM     20  C   UNL     1      -4.322   8.235   3.061  1.00  0.00     0.004 C 
ENDBRANCH  18  19
ENDBRANCH  17  18
ENDBRANCH  16  17
ENDBRANCH  15  16
ENDBRANCH  14  15
ENDBRANCH  13  14
ENDBRANCH   2  13
TORSDOF 15
ENDMDL
MODEL 9
REMARK VINA RESULT:    -4.119      2.784      4.522
REMARK INTER + INTRA:          -9.422
REMARK INTER:                  -6.735
REMARK INTRA:                  -2.688
REMARK UNBOUND:                -1.690
REMARK SMILES CCCCCCCCC=CCCCCCCCC(=O)[O-]
REMARK SMILES IDX 10 1 9 2 11 3 12 4 13 5 14 6 15 7 16 8 17 9 18 10 19 11
REMARK SMILES IDX 20 12 8 13 7 14 6 15 5 16 4 17 3 18 2 19 1 20
REMARK H PARENT
REMARK Flexibility Score: inf
ROOT
ATOM      1  C   UNL     1       3.155   6.879  -6.989  1.00  0.00    -0.031 C 
ATOM      2  C   UNL     1       2.767   7.333  -5.788  1.00  0.00    -0.031 C 
ENDROOT
BRANCH   1   3
ATOM      3  C   UNL     1       3.438   5.419  -7.227  1.00  0.00     0.027 C 
BRANCH   3   4
ATOM      4  C   UNL     1       4.434   5.218  -8.376  1.00  0.00     0.004 C 
BRANCH   4   5
ATOM      5  C   UNL     1       5.867   5.619  -7.983  1.00  0.00     0.000 C 
BRANCH   5   6
ATOM      6  C   UNL     1       6.583   4.509  -7.185  1.00  0.00     0.000 C 
BRANCH   6   7
ATOM      7  C   UNL     1       6.187   3.086  -7.616  1.00  0.00     0.000 C 
BRANCH   7   8
ATOM      8  C   UNL     1       6.034   2.125  -6.426  1.00  0.00     0.006 C 
BRANCH   8   9
ATOM      9  C   UNL     1       6.130   2.852  -5.078  1.00  0.00     0.053 C 
BRANCH   9  10
ATOM     10  C   UNL     1       7.166   2.237  -4.187  1.00  0.00     0.041 C 
ATOM     11  O   UNL     1       6.851   1.311  -3.395  1.00  0.00    -0.550 OA
ATOM     12  O   UNL     1       8.472   2.708  -4.213  1.00  0.00    -0.550 OA
ENDBRANCH   9  10
ENDBRANCH   8   9
ENDBRANCH   7   8
ENDBRANCH   6   7
ENDBRANCH   5   6
ENDBRANCH   4   5
ENDBRANCH   3   4
ENDBRANCH   1   3
BRANCH   2  13
ATOM     13  C   UNL     1       2.540   8.799  -5.539  1.00  0.00     0.027 C 
BRANCH  13  14
ATOM     14  C   UNL     1       3.637   9.648  -6.200  1.00  0.00     0.004 C 
BRANCH  14  15
ATOM     15  C   UNL     1       4.962   9.610  -5.423  1.00  0.00     0.000 C 
BRANCH  15  16
ATOM     16  C   UNL     1       6.143   9.155  -6.293  1.00  0.00     0.000 C 
BRANCH  16  17
ATOM     17  C   UNL     1       7.033   8.163  -5.534  1.00  0.00    -0.000 C 
BRANCH  17  18
ATOM     18  C   UNL     1       6.189   7.222  -4.662  1.00  0.00    -0.000 C 
BRANCH  18  19
ATOM     19  C   UNL     1       7.047   6.228  -3.863  1.00  0.00    -0.003 C 
ATOM     20  C   UNL     1       8.494   6.169  -4.354  1.00  0.00     0.004 C 
ENDBRANCH  18  19
ENDBRANCH  17  18
ENDBRANCH  16  17
ENDBRANCH  15  16
ENDBRANCH  14  15
ENDBRANCH  13  14
ENDBRANCH   2  13
TORSDOF 15
ENDMDL
