MODEL 1
REMARK VINA RESULT:    -2.875      0.000      0.000
REMARK INTER + INTRA:          -4.732
REMARK INTER:                  -4.388
REMARK INTRA:                  -0.344
REMARK UNBOUND:                -0.344
REMARK SMILES CC1=CCC[C@H](C)C(=O)C[C@H](C(C)C)C(=O)C1
REMARK SMILES IDX 8 1 9 2 6 3 7 4 5 5 4 6 3 7 2 8 1 9 10 11 11 12 15 13 16 14
REMARK SMILES IDX 17 15 12 17 13 18 14 19
REMARK H PARENT
REMARK Flexibility Score: 70.00
ROOT
ATOM      1  C   UNL     1      83.247  -6.234  27.140  1.00  0.00     0.136 C 
ATOM      2  O   UNL     1      82.904  -6.511  26.000  1.00  0.00    -0.299 OA
ENDROOT
BRANCH   1   3
ATOM      3  C   UNL     1      82.769  -4.924  27.738  1.00  0.00     0.053 C 
ATOM      4  C   UNL     1      83.360  -3.747  26.948  1.00  0.00     0.016 C 
BRANCH   3   5
ATOM      5  C   UNL     1      81.208  -4.867  27.754  1.00  0.00     0.015 C 
BRANCH   5   6
ATOM      6  C   UNL     1      80.579  -5.658  28.923  1.00  0.00     0.028 C 
BRANCH   6   7
ATOM      7  C   UNL     1      80.156  -7.067  28.568  1.00  0.00    -0.028 C 
ATOM      8  C   UNL     1      80.522  -8.210  29.204  1.00  0.00    -0.070 CG0
ATOM      9  C   UNL     1      79.869  -9.494  28.754  1.00  0.00     0.039 C 
ATOM     10  G   UNL     1      81.609  -8.287  30.268  1.00  0.00     0.000 G0
ENDBRANCH   6   7
ENDBRANCH   5   6
ENDBRANCH   3   5
ENDBRANCH   1   3
BRANCH   1  11
ATOM     11  C   UNL     1      84.149  -7.221  27.858  1.00  0.00     0.087 C 
BRANCH  11  12
ATOM     12  C   UNL     1      83.952  -7.422  29.391  1.00  0.00     0.066 C 
BRANCH  12  13
ATOM     13  C   UNL     1      82.999  -8.562  29.739  1.00  0.00     0.140 C 
ATOM     14  O   UNL     1      83.331  -9.704  29.453  1.00  0.00    -0.299 OA
BRANCH  13  15
ATOM     15  C   UNL     1      81.608  -8.317  30.280  1.00  0.00     0.106 CG0
ATOM     16  G   UNL     1      80.530  -8.206  29.209  1.00  0.00     0.000 G0
ENDBRANCH  13  15
ENDBRANCH  12  13
BRANCH  12  17
ATOM     17  C   UNL     1      85.329  -7.633  30.112  1.00  0.00    -0.006 C 
ATOM     18  C   UNL     1      86.260  -6.416  29.958  1.00  0.00     0.008 C 
ATOM     19  C   UNL     1      85.158  -7.936  31.613  1.00  0.00     0.008 C 
ENDBRANCH  12  17
ENDBRANCH  11  12
ENDBRANCH   1  11
TORSDOF 1
ENDMDL
MODEL 2
REMARK VINA RESULT:    -2.781      2.206      4.087
REMARK INTER + INTRA:          -4.587
REMARK INTER:                  -4.068
REMARK INTRA:                  -0.519
REMARK UNBOUND:                -0.344
REMARK SMILES CC1=CCC[C@H](C)C(=O)C[C@H](C(C)C)C(=O)C1
REMARK SMILES IDX 8 1 9 2 6 3 7 4 5 5 4 6 3 7 2 8 1 9 10 11 11 12 15 13 16 14
REMARK SMILES IDX 17 15 12 17 13 18 14 19
REMARK H PARENT
REMARK Flexibility Score: 70.00
ROOT
ATOM      1  C   UNL     1      82.193  -6.010  28.903  1.00  0.00     0.136 C 
ATOM      2  O   UNL     1      81.086  -5.498  28.814  1.00  0.00    -0.299 OA
ENDROOT
BRANCH   1   3
ATOM      3  C   UNL     1      83.411  -5.110  28.821  1.00  0.00     0.053 C 
ATOM      4  C   UNL     1      83.280  -4.168  27.616  1.00  0.00     0.016 C 
BRANCH   3   5
ATOM      5  C   UNL     1      83.589  -4.308  30.149  1.00  0.00     0.015 C 
BRANCH   5   6
ATOM      6  C   UNL     1      83.889  -5.205  31.371  1.00  0.00     0.028 C 
BRANCH   6   7
ATOM      7  C   UNL     1      85.256  -5.852  31.350  1.00  0.00    -0.028 C 
ATOM      8  C   UNL     1      85.533  -7.161  31.116  1.00  0.00    -0.070 CG0
ATOM      9  C   UNL     1      86.986  -7.556  31.014  1.00  0.00     0.039 C 
ATOM     10  G   UNL     1      84.479  -8.259  31.046  1.00  0.00     0.000 G0
ENDBRANCH   6   7
ENDBRANCH   5   6
ENDBRANCH   3   5
ENDBRANCH   1   3
BRANCH   1  11
ATOM     11  C   UNL     1      82.254  -7.518  29.066  1.00  0.00     0.087 C 
BRANCH  11  12
ATOM     12  C   UNL     1      83.519  -8.265  28.545  1.00  0.00     0.066 C 
BRANCH  12  13
ATOM     13  C   UNL     1      84.351  -8.901  29.656  1.00  0.00     0.140 C 
ATOM     14  O   UNL     1      84.825 -10.011  29.463  1.00  0.00    -0.299 OA
BRANCH  13  15
ATOM     15  C   UNL     1      84.482  -8.276  31.027  1.00  0.00     0.106 CG0
ATOM     16  G   UNL     1      85.539  -7.183  31.119  1.00  0.00     0.000 G0
ENDBRANCH  13  15
ENDBRANCH  12  13
BRANCH  12  17
ATOM     17  C   UNL     1      83.133  -9.346  27.477  1.00  0.00    -0.006 C 
ATOM     18  C   UNL     1      81.609  -9.532  27.360  1.00  0.00     0.008 C 
ATOM     19  C   UNL     1      83.697  -9.012  26.082  1.00  0.00     0.008 C 
ENDBRANCH  12  17
ENDBRANCH  11  12
ENDBRANCH   1  11
TORSDOF 1
ENDMDL
MODEL 3
REMARK VINA RESULT:    -2.728      1.919      2.295
REMARK INTER + INTRA:          -4.507
REMARK INTER:                  -4.241
REMARK INTRA:                  -0.266
REMARK UNBOUND:                -0.344
REMARK SMILES CC1=CCC[C@H](C)C(=O)C[C@H](C(C)C)C(=O)C1
REMARK SMILES IDX 8 1 9 2 6 3 7 4 5 5 4 6 3 7 2 8 1 9 10 11 11 12 15 13 16 14
REMARK SMILES IDX 17 15 12 17 13 18 14 19
REMARK H PARENT
REMARK Flexibility Score: 70.00
ROOT
ATOM      1  C   UNL     1      83.669  -5.135  28.801  1.00  0.00     0.136 C 
ATOM      2  O   UNL     1      83.950  -4.191  29.526  1.00  0.00    -0.299 OA
ENDROOT
BRANCH   1   3
ATOM      3  C   UNL     1      82.726  -4.894  27.638  1.00  0.00     0.053 C 
ATOM      4  C   UNL     1      83.153  -3.630  26.877  1.00  0.00     0.016 C 
BRANCH   3   5
ATOM      5  C   UNL     1      82.692  -6.137  26.693  1.00  0.00     0.015 C 
BRANCH   5   6
ATOM      6  C   UNL     1      81.522  -7.101  26.991  1.00  0.00     0.028 C 
BRANCH   6   7
ATOM      7  C   UNL     1      80.427  -6.507  27.851  1.00  0.00    -0.028 C 
ATOM      8  C   UNL     1      80.295  -6.626  29.197  1.00  0.00    -0.070 CG0
ATOM      9  C   UNL     1      79.193  -5.835  29.858  1.00  0.00     0.039 C 
ATOM     10  G   UNL     1      81.123  -7.571  30.058  1.00  0.00     0.000 G0
ENDBRANCH   6   7
ENDBRANCH   5   6
ENDBRANCH   3   5
ENDBRANCH   1   3
BRANCH   1  11
ATOM     11  C   UNL     1      84.273  -6.484  29.145  1.00  0.00     0.087 C 
BRANCH  11  12
ATOM     12  C   UNL     1      83.754  -7.223  30.416  1.00  0.00     0.066 C 
BRANCH  12  13
ATOM     13  C   UNL     1      82.304  -6.896  30.761  1.00  0.00     0.140 C 
ATOM     14  O   UNL     1      82.086  -6.160  31.713  1.00  0.00    -0.299 OA
BRANCH  13  15
ATOM     15  C   UNL     1      81.137  -7.564  30.069  1.00  0.00     0.106 CG0
ATOM     16  G   UNL     1      80.314  -6.632  29.189  1.00  0.00     0.000 G0
ENDBRANCH  13  15
ENDBRANCH  12  13
BRANCH  12  17
ATOM     17  C   UNL     1      83.938  -8.774  30.278  1.00  0.00    -0.006 C 
ATOM     18  C   UNL     1      85.214  -9.143  29.499  1.00  0.00     0.008 C 
ATOM     19  C   UNL     1      83.977  -9.478  31.648  1.00  0.00     0.008 C 
ENDBRANCH  12  17
ENDBRANCH  11  12
ENDBRANCH   1  11
TORSDOF 1
ENDMDL
MODEL 4
REMARK VINA RESULT:    -2.693      2.506      4.678
REMARK INTER + INTRA:          -4.454
REMARK INTER:                  -4.080
REMARK INTRA:                  -0.374
REMARK UNBOUND:                -0.344
REMARK SMILES CC1=CCC[C@H](C)C(=O)C[C@H](C(C)C)C(=O)C1
REMARK SMILES IDX 8 1 9 2 6 3 7 4 5 5 4 6 3 7 2 8 1 9 10 11 11 12 15 13 16 14
REMARK SMILES IDX 17 15 12 17 13 18 14 19
REMARK H PARENT
REMARK Flexibility Score: 70.00
ROOT
ATOM      1  C   UNL     1      81.585  -4.683  27.593  1.00  0.00     0.136 C 
ATOM      2  O   UNL     1      81.863  -3.692  26.934  1.00  0.00    -0.299 OA
ENDROOT
BRANCH   1   3
ATOM      3  C   UNL     1      82.611  -5.796  27.688  1.00  0.00     0.053 C 
ATOM      4  C   UNL     1      82.847  -6.405  26.298  1.00  0.00     0.016 C 
BRANCH   3   5
ATOM      5  C   UNL     1      83.944  -5.260  28.303  1.00  0.00     0.015 C 
BRANCH   5   6
ATOM      6  C   UNL     1      83.799  -4.803  29.772  1.00  0.00     0.028 C 
BRANCH   6   7
ATOM      7  C   UNL     1      83.534  -5.925  30.752  1.00  0.00    -0.028 C 
ATOM      8  C   UNL     1      82.325  -6.321  31.226  1.00  0.00    -0.070 CG0
ATOM      9  C   UNL     1      82.291  -7.554  32.097  1.00  0.00     0.039 C 
ATOM     10  G   UNL     1      81.027  -5.552  31.013  1.00  0.00     0.000 G0
ENDBRANCH   6   7
ENDBRANCH   5   6
ENDBRANCH   3   5
ENDBRANCH   1   3
BRANCH   1  11
ATOM     11  C   UNL     1      80.215  -4.727  28.246  1.00  0.00     0.087 C 
BRANCH  11  12
ATOM     12  C   UNL     1      79.692  -6.098  28.772  1.00  0.00     0.066 C 
BRANCH  12  13
ATOM     13  C   UNL     1      79.941  -6.314  30.263  1.00  0.00     0.140 C 
ATOM     14  O   UNL     1      79.172  -7.036  30.881  1.00  0.00    -0.299 OA
BRANCH  13  15
ATOM     15  C   UNL     1      81.005  -5.554  31.023  1.00  0.00     0.106 CG0
ATOM     16  G   UNL     1      82.309  -6.319  31.208  1.00  0.00     0.000 G0
ENDBRANCH  13  15
ENDBRANCH  12  13
BRANCH  12  17
ATOM     17  C   UNL     1      78.168  -6.279  28.450  1.00  0.00    -0.006 C 
ATOM     18  C   UNL     1      77.409  -4.939  28.449  1.00  0.00     0.008 C 
ATOM     19  C   UNL     1      77.940  -6.975  27.094  1.00  0.00     0.008 C 
ENDBRANCH  12  17
ENDBRANCH  11  12
ENDBRANCH   1  11
TORSDOF 1
ENDMDL
MODEL 5
REMARK VINA RESULT:    -2.636      2.455      3.340
REMARK INTER + INTRA:          -4.367
REMARK INTER:                  -4.171
REMARK INTRA:                  -0.196
REMARK UNBOUND:                -0.344
REMARK SMILES CC1=CCC[C@H](C)C(=O)C[C@H](C(C)C)C(=O)C1
REMARK SMILES IDX 8 1 9 2 6 3 7 4 5 5 4 6 3 7 2 8 1 9 10 11 11 12 15 13 16 14
REMARK SMILES IDX 17 15 12 17 13 18 14 19
REMARK H PARENT
REMARK Flexibility Score: 70.00
ROOT
ATOM      1  C   UNL     1      83.224  -5.311  28.145  1.00  0.00     0.136 C 
ATOM      2  O   UNL     1      83.123  -4.122  27.882  1.00  0.00    -0.299 OA
ENDROOT
BRANCH   1   3
ATOM      3  C   UNL     1      83.681  -5.704  29.537  1.00  0.00     0.053 C 
ATOM      4  C   UNL     1      84.330  -4.498  30.230  1.00  0.00     0.016 C 
BRANCH   3   5
ATOM      5  C   UNL     1      82.482  -6.257  30.371  1.00  0.00     0.015 C 
BRANCH   5   6
ATOM      6  C   UNL     1      81.227  -5.358  30.308  1.00  0.00     0.028 C 
BRANCH   6   7
ATOM      7  C   UNL     1      79.917  -6.115  30.274  1.00  0.00    -0.028 C 
ATOM      8  C   UNL     1      79.288  -6.603  29.174  1.00  0.00    -0.070 CG0
ATOM      9  C   UNL     1      78.054  -7.444  29.395  1.00  0.00     0.039 C 
ATOM     10  G   UNL     1      79.694  -6.279  27.742  1.00  0.00     0.000 G0
ENDBRANCH   6   7
ENDBRANCH   5   6
ENDBRANCH   3   5
ENDBRANCH   1   3
BRANCH   1  11
ATOM     11  C   UNL     1      82.905  -6.301  27.040  1.00  0.00     0.087 C 
BRANCH  11  12
ATOM     12  C   UNL     1      82.023  -7.538  27.388  1.00  0.00     0.066 C 
BRANCH  12  13
ATOM     13  C   UNL     1      80.545  -7.343  27.058  1.00  0.00     0.140 C 
ATOM     14  O   UNL     1      80.067  -7.986  26.134  1.00  0.00    -0.299 OA
BRANCH  13  15
ATOM     15  C   UNL     1      79.698  -6.285  27.730  1.00  0.00     0.106 CG0
ATOM     16  G   UNL     1      79.311  -6.612  29.166  1.00  0.00     0.000 G0
ENDBRANCH  13  15
ENDBRANCH  12  13
BRANCH  12  17
ATOM     17  C   UNL     1      82.565  -8.831  26.687  1.00  0.00    -0.006 C 
ATOM     18  C   UNL     1      83.995  -8.645  26.146  1.00  0.00     0.008 C 
ATOM     19  C   UNL     1      82.549 -10.052  27.627  1.00  0.00     0.008 C 
ENDBRANCH  12  17
ENDBRANCH  11  12
ENDBRANCH   1  11
TORSDOF 1
ENDMDL
MODEL 6
REMARK VINA RESULT:    -2.589      1.872      3.514
REMARK INTER + INTRA:          -4.295
REMARK INTER:                  -4.043
REMARK INTRA:                  -0.253
REMARK UNBOUND:                -0.344
REMARK SMILES CC1=CCC[C@H](C)C(=O)C[C@H](C(C)C)C(=O)C1
REMARK SMILES IDX 8 1 9 2 6 3 7 4 5 5 4 6 3 7 2 8 1 9 10 11 11 12 15 13 16 14
REMARK SMILES IDX 17 15 12 17 13 18 14 19
REMARK H PARENT
REMARK Flexibility Score: 70.00
ROOT
ATOM      1  C   UNL     1      81.463  -4.860  28.142  1.00  0.00     0.136 C 
ATOM      2  O   UNL     1      80.690  -4.539  27.251  1.00  0.00    -0.299 OA
ENDROOT
BRANCH   1   3
ATOM      3  C   UNL     1      82.946  -4.901  27.828  1.00  0.00     0.053 C 
ATOM      4  C   UNL     1      83.302  -3.772  26.851  1.00  0.00     0.016 C 
BRANCH   3   5
ATOM      5  C   UNL     1      83.787  -4.797  29.141  1.00  0.00     0.015 C 
BRANCH   5   6
ATOM      6  C   UNL     1      84.602  -6.073  29.448  1.00  0.00     0.028 C 
BRANCH   6   7
ATOM      7  C   UNL     1      84.571  -7.114  28.350  1.00  0.00    -0.028 C 
ATOM      8  C   UNL     1      83.601  -8.040  28.135  1.00  0.00    -0.070 CG0
ATOM      9  C   UNL     1      83.719  -8.892  26.895  1.00  0.00     0.039 C 
ATOM     10  G   UNL     1      82.466  -8.333  29.107  1.00  0.00     0.000 G0
ENDBRANCH   6   7
ENDBRANCH   5   6
ENDBRANCH   3   5
ENDBRANCH   1   3
BRANCH   1  11
ATOM     11  C   UNL     1      80.865  -5.217  29.491  1.00  0.00     0.087 C 
BRANCH  11  12
ATOM     12  C   UNL     1      80.477  -6.704  29.756  1.00  0.00     0.066 C 
BRANCH  12  13
ATOM     13  C   UNL     1      81.149  -7.688  28.802  1.00  0.00     0.140 C 
ATOM     14  O   UNL     1      80.535  -8.040  27.805  1.00  0.00    -0.299 OA
BRANCH  13  15
ATOM     15  C   UNL     1      82.470  -8.352  29.122  1.00  0.00     0.106 CG0
ATOM     16  G   UNL     1      83.586  -8.032  28.135  1.00  0.00     0.000 G0
ENDBRANCH  13  15
ENDBRANCH  12  13
BRANCH  12  17
ATOM     17  C   UNL     1      80.776  -7.106  31.242  1.00  0.00    -0.006 C 
ATOM     18  C   UNL     1      81.607  -6.038  31.979  1.00  0.00     0.008 C 
ATOM     19  C   UNL     1      79.486  -7.366  32.044  1.00  0.00     0.008 C 
ENDBRANCH  12  17
ENDBRANCH  11  12
ENDBRANCH   1  11
TORSDOF 1
ENDMDL
MODEL 7
REMARK VINA RESULT:    -2.503      2.022      4.395
REMARK INTER + INTRA:          -4.164
REMARK INTER:                  -4.038
REMARK INTRA:                  -0.126
REMARK UNBOUND:                -0.344
REMARK SMILES CC1=CCC[C@H](C)C(=O)C[C@H](C(C)C)C(=O)C1
REMARK SMILES IDX 8 1 9 2 6 3 7 4 5 5 4 6 3 7 2 8 1 9 10 11 11 12 15 13 16 14
REMARK SMILES IDX 17 15 12 17 13 18 14 19
REMARK H PARENT
REMARK Flexibility Score: 70.00
ROOT
ATOM      1  C   UNL     1      81.341  -5.060  27.777  1.00  0.00     0.136 C 
ATOM      2  O   UNL     1      80.757  -4.120  27.258  1.00  0.00    -0.299 OA
ENDROOT
BRANCH   1   3
ATOM      3  C   UNL     1      82.857  -5.086  27.719  1.00  0.00     0.053 C 
ATOM      4  C   UNL     1      83.373  -3.800  27.059  1.00  0.00     0.016 C 
BRANCH   3   5
ATOM      5  C   UNL     1      83.456  -5.266  29.150  1.00  0.00     0.015 C 
BRANCH   5   6
ATOM      6  C   UNL     1      84.105  -6.650  29.372  1.00  0.00     0.028 C 
BRANCH   6   7
ATOM      7  C   UNL     1      84.199  -7.504  28.126  1.00  0.00    -0.028 C 
ATOM      8  C   UNL     1      83.244  -8.336  27.636  1.00  0.00    -0.070 CG0
ATOM      9  C   UNL     1      83.510  -8.988  26.301  1.00  0.00     0.039 C 
ATOM     10  G   UNL     1      81.977  -8.721  28.388  1.00  0.00     0.000 G0
ENDBRANCH   6   7
ENDBRANCH   5   6
ENDBRANCH   3   5
ENDBRANCH   1   3
BRANCH   1  11
ATOM     11  C   UNL     1      80.493  -6.142  28.420  1.00  0.00     0.087 C 
BRANCH  11  12
ATOM     12  C   UNL     1      79.922  -7.271  27.509  1.00  0.00     0.066 C 
BRANCH  12  13
ATOM     13  C   UNL     1      80.689  -8.586  27.617  1.00  0.00     0.140 C 
ATOM     14  O   UNL     1      80.181  -9.594  27.147  1.00  0.00    -0.299 OA
BRANCH  13  15
ATOM     15  C   UNL     1      81.972  -8.713  28.408  1.00  0.00     0.106 CG0
ATOM     16  G   UNL     1      83.227  -8.341  27.629  1.00  0.00     0.000 G0
ENDBRANCH  13  15
ENDBRANCH  12  13
BRANCH  12  17
ATOM     17  C   UNL     1      78.400  -7.511  27.798  1.00  0.00    -0.006 C 
ATOM     18  C   UNL     1      78.015  -7.136  29.242  1.00  0.00     0.008 C 
ATOM     19  C   UNL     1      77.494  -6.728  26.828  1.00  0.00     0.008 C 
ENDBRANCH  12  17
ENDBRANCH  11  12
ENDBRANCH   1  11
TORSDOF 1
ENDMDL
MODEL 8
REMARK VINA RESULT:    -2.453      2.654      4.424
REMARK INTER + INTRA:          -4.087
REMARK INTER:                  -3.946
REMARK INTRA:                  -0.141
REMARK UNBOUND:                -0.344
REMARK SMILES CC1=CCC[C@H](C)C(=O)C[C@H](C(C)C)C(=O)C1
REMARK SMILES IDX 8 1 9 2 6 3 7 4 5 5 4 6 3 7 2 8 1 9 10 11 11 12 15 13 16 14
REMARK SMILES IDX 17 15 12 17 13 18 14 19
REMARK H PARENT
REMARK Flexibility Score: 70.00
ROOT
ATOM      1  C   UNL     1      79.047  -8.475  26.672  1.00  0.00     0.136 C 
ATOM      2  O   UNL     1      78.302  -9.417  26.442  1.00  0.00    -0.299 OA
ENDROOT
BRANCH   1   3
ATOM      3  C   UNL     1      78.428  -7.149  27.070  1.00  0.00     0.053 C 
ATOM      4  C   UNL     1      77.409  -6.713  26.008  1.00  0.00     0.016 C 
BRANCH   3   5
ATOM      5  C   UNL     1      77.766  -7.254  28.480  1.00  0.00     0.015 C 
BRANCH   5   6
ATOM      6  C   UNL     1      78.717  -7.807  29.564  1.00  0.00     0.028 C 
BRANCH   6   7
ATOM      7  C   UNL     1      79.634  -6.771  30.178  1.00  0.00    -0.028 C 
ATOM      8  C   UNL     1      80.920  -6.514  29.828  1.00  0.00    -0.070 CG0
ATOM      9  C   UNL     1      81.599  -5.341  30.492  1.00  0.00     0.039 C 
ATOM     10  G   UNL     1      81.741  -7.384  28.885  1.00  0.00     0.000 G0
ENDBRANCH   6   7
ENDBRANCH   5   6
ENDBRANCH   3   5
ENDBRANCH   1   3
BRANCH   1  11
ATOM     11  C   UNL     1      80.538  -8.710  26.516  1.00  0.00     0.087 C 
BRANCH  11  12
ATOM     12  C   UNL     1      81.453  -7.480  26.233  1.00  0.00     0.066 C 
BRANCH  12  13
ATOM     13  C   UNL     1      81.963  -6.795  27.499  1.00  0.00     0.140 C 
ATOM     14  O   UNL     1      82.669  -5.804  27.378  1.00  0.00    -0.299 OA
BRANCH  13  15
ATOM     15  C   UNL     1      81.753  -7.383  28.877  1.00  0.00     0.106 CG0
ATOM     16  G   UNL     1      80.926  -6.508  29.810  1.00  0.00     0.000 G0
ENDBRANCH  13  15
ENDBRANCH  12  13
BRANCH  12  17
ATOM     17  C   UNL     1      82.659  -7.876  25.313  1.00  0.00    -0.006 C 
ATOM     18  C   UNL     1      83.751  -8.643  26.082  1.00  0.00     0.008 C 
ATOM     19  C   UNL     1      82.215  -8.728  24.108  1.00  0.00     0.008 C 
ENDBRANCH  12  17
ENDBRANCH  11  12
ENDBRANCH   1  11
TORSDOF 1
ENDMDL
MODEL 9
REMARK VINA RESULT:    -2.405      2.915      4.528
REMARK INTER + INTRA:          -4.015
REMARK INTER:                  -3.995
REMARK INTRA:                  -0.020
REMARK UNBOUND:                -0.344
REMARK SMILES CC1=CCC[C@H](C)C(=O)C[C@H](C(C)C)C(=O)C1
REMARK SMILES IDX 8 1 9 2 6 3 7 4 5 5 4 6 3 7 2 8 1 9 10 11 11 12 15 13 16 14
REMARK SMILES IDX 17 15 12 17 13 18 14 19
REMARK H PARENT
REMARK Flexibility Score: 70.00
ROOT
ATOM      1  C   UNL     1      78.260  -5.772  27.363  1.00  0.00     0.136 C 
ATOM      2  O   UNL     1      78.041  -4.769  28.027  1.00  0.00    -0.299 OA
ENDROOT
BRANCH   1   3
ATOM      3  C   UNL     1      77.082  -6.486  26.728  1.00  0.00     0.053 C 
ATOM      4  C   UNL     1      77.580  -7.423  25.618  1.00  0.00     0.016 C 
BRANCH   3   5
ATOM      5  C   UNL     1      76.270  -7.271  27.807  1.00  0.00     0.015 C 
BRANCH   5   6
ATOM      6  C   UNL     1      77.135  -8.252  28.630  1.00  0.00     0.028 C 
BRANCH   6   7
ATOM      7  C   UNL     1      77.356  -7.835  30.068  1.00  0.00    -0.028 C 
ATOM      8  C   UNL     1      78.527  -7.436  30.628  1.00  0.00    -0.070 CG0
ATOM      9  C   UNL     1      78.481  -6.939  32.052  1.00  0.00     0.039 C 
ATOM     10  G   UNL     1      79.884  -7.548  29.945  1.00  0.00     0.000 G0
ENDBRANCH   6   7
ENDBRANCH   5   6
ENDBRANCH   3   5
ENDBRANCH   1   3
BRANCH   1  11
ATOM     11  C   UNL     1      79.701  -6.236  27.251  1.00  0.00     0.087 C 
BRANCH  11  12
ATOM     12  C   UNL     1      80.739  -5.672  28.269  1.00  0.00     0.066 C 
BRANCH  12  13
ATOM     13  C   UNL     1      80.572  -6.229  29.681  1.00  0.00     0.140 C 
ATOM     14  O   UNL     1      81.120  -5.643  30.603  1.00  0.00    -0.299 OA
BRANCH  13  15
ATOM     15  C   UNL     1      79.886  -7.549  29.954  1.00  0.00     0.106 CG0
ATOM     16  G   UNL     1      78.524  -7.419  30.624  1.00  0.00     0.000 G0
ENDBRANCH  13  15
ENDBRANCH  12  13
BRANCH  12  17
ATOM     17  C   UNL     1      82.205  -5.911  27.767  1.00  0.00    -0.006 C 
ATOM     18  C   UNL     1      82.257  -6.847  26.545  1.00  0.00     0.008 C 
ATOM     19  C   UNL     1      82.917  -4.592  27.408  1.00  0.00     0.008 C 
ENDBRANCH  12  17
ENDBRANCH  11  12
ENDBRANCH   1  11
TORSDOF 1
ENDMDL
