MODEL 1
REMARK VINA RESULT:    -5.994      0.000      0.000
REMARK INTER + INTRA:          -8.403
REMARK INTER:                  -8.097
REMARK INTRA:                  -0.306
REMARK UNBOUND:                -0.306
REMARK SMILES CC[C@@H](CC[C@@H](C)[C@@H]1CC[C@H]2[C@@H]3CC(=O)C4=CC(=O)CC[C@@]4(C)[C@@H]3CC[C@]21C)C(C)C
REMARK SMILES IDX 4 1 3 2 2 3 1 4 29 5 30 6 31 7 5 8 6 9 7 10 8 11 9 12 27 13
REMARK SMILES IDX 10 14 11 15 26 16 28 17 12 18 25 19 24 20 13 21 22 22 14 23
REMARK SMILES IDX 16 24 21 25 23 26 15 27 17 28 20 29 18 30 19 31
REMARK H PARENT
REMARK Flexibility Score: inf
ROOT
ATOM      1  C   UNL     1     -11.376   5.813 -14.800  1.00  0.00     0.004 C 
ENDROOT
BRANCH   1   2
ATOM      2  C   UNL     1     -12.651   5.515 -15.644  1.00  0.00    -0.009 C 
BRANCH   2   3
ATOM      3  C   UNL     1     -12.482   4.326 -16.635  1.00  0.00     0.000 C 
ATOM      4  C   UNL     1     -12.894   2.941 -16.117  1.00  0.00     0.004 C 
ENDBRANCH   2   3
BRANCH   2   5
ATOM      5  C   UNL     1     -13.284   6.784 -16.311  1.00  0.00    -0.014 C 
ATOM      6  C   UNL     1     -13.014   8.101 -15.567  1.00  0.00     0.007 C 
ATOM      7  C   UNL     1     -14.796   6.615 -16.550  1.00  0.00     0.007 C 
ENDBRANCH   2   5
ENDBRANCH   1   2
BRANCH   1   8
ATOM      8  C   UNL     1     -10.433   4.604 -14.599  1.00  0.00     0.004 C 
BRANCH   8   9
ATOM      9  C   UNL     1      -9.344   4.729 -13.490  1.00  0.00    -0.011 C 
ATOM     10  C   UNL     1      -9.356   6.182 -12.965  1.00  0.00     0.008 C 
BRANCH   9  11
ATOM     11  C   UNL     1      -9.476   3.627 -12.367  1.00  0.00    -0.002 C 
ATOM     12  C   UNL     1      -9.424   2.195 -12.927  1.00  0.00     0.005 C 
ATOM     13  C   UNL     1     -10.743   3.652 -11.442  1.00  0.00    -0.026 C 
ATOM     14  C   UNL     1     -10.828   1.606 -12.785  1.00  0.00     0.005 C 
ATOM     15  C   UNL     1     -11.720   2.680 -12.138  1.00  0.00    -0.001 C 
ATOM     16  C   UNL     1     -10.331   3.087 -10.045  1.00  0.00     0.007 C 
ATOM     17  C   UNL     1     -11.333   5.075 -11.264  1.00  0.00     0.012 C 
ATOM     18  C   UNL     1     -12.851   2.053 -11.259  1.00  0.00     0.004 C 
ATOM     19  C   UNL     1     -11.520   2.723  -9.158  1.00  0.00     0.005 C 
ATOM     20  C   UNL     1     -12.423   1.650  -9.806  1.00  0.00     0.003 C 
ATOM     21  C   UNL     1     -14.164   2.871 -11.266  1.00  0.00     0.085 C 
ATOM     22  C   UNL     1     -13.649   1.212  -8.877  1.00  0.00    -0.000 C 
ATOM     23  C   UNL     1     -15.263   2.024 -10.685  1.00  0.00     0.159 C 
ATOM     24  C   UNL     1     -14.884   0.947  -9.749  1.00  0.00     0.005 C 
ATOM     25  C   UNL     1     -13.260  -0.034  -8.010  1.00  0.00     0.020 C 
ATOM     26  C   UNL     1     -14.075   2.323  -7.875  1.00  0.00     0.017 C 
ATOM     27  O   UNL     1     -16.465   2.216 -11.013  1.00  0.00    -0.295 OA
ATOM     28  C   UNL     1     -15.470  -0.256  -9.850  1.00  0.00     0.055 C 
ATOM     29  C   UNL     1     -13.451  -1.362  -8.742  1.00  0.00     0.081 C 
ATOM     30  C   UNL     1     -14.855  -1.444  -9.251  1.00  0.00     0.156 C 
ATOM     31  O   UNL     1     -15.468  -2.544  -9.252  1.00  0.00    -0.295 OA
ENDBRANCH   9  11
ENDBRANCH   8   9
ENDBRANCH   1   8
TORSDOF 6
ENDMDL
MODEL 2
REMARK VINA RESULT:    -5.901      2.164      7.405
REMARK INTER + INTRA:          -8.278
REMARK INTER:                  -7.335
REMARK INTRA:                  -0.943
REMARK UNBOUND:                -0.306
REMARK SMILES CC[C@@H](CC[C@@H](C)[C@@H]1CC[C@H]2[C@@H]3CC(=O)C4=CC(=O)CC[C@@]4(C)[C@@H]3CC[C@]21C)C(C)C
REMARK SMILES IDX 4 1 3 2 2 3 1 4 29 5 30 6 31 7 5 8 6 9 7 10 8 11 9 12 27 13
REMARK SMILES IDX 10 14 11 15 26 16 28 17 12 18 25 19 24 20 13 21 22 22 14 23
REMARK SMILES IDX 16 24 21 25 23 26 15 27 17 28 20 29 18 30 19 31
REMARK H PARENT
REMARK Flexibility Score: inf
ROOT
ATOM      1  C   UNL     1     -13.881  -0.129  -8.711  1.00  0.00     0.004 C 
ENDROOT
BRANCH   1   2
ATOM      2  C   UNL     1     -15.027  -0.217  -9.763  1.00  0.00    -0.009 C 
BRANCH   2   3
ATOM      3  C   UNL     1     -15.664   1.161 -10.111  1.00  0.00     0.000 C 
ATOM      4  C   UNL     1     -15.950   1.426 -11.596  1.00  0.00     0.004 C 
ENDBRANCH   2   3
BRANCH   2   5
ATOM      5  C   UNL     1     -16.091  -1.324  -9.454  1.00  0.00    -0.014 C 
ATOM      6  C   UNL     1     -17.156  -0.919  -8.423  1.00  0.00     0.007 C 
ATOM      7  C   UNL     1     -15.435  -2.654  -9.036  1.00  0.00     0.007 C 
ENDBRANCH   2   5
ENDBRANCH   1   2
BRANCH   1   8
ATOM      8  C   UNL     1     -13.611   1.291  -8.161  1.00  0.00     0.004 C 
BRANCH   8   9
ATOM      9  C   UNL     1     -12.124   1.685  -7.912  1.00  0.00    -0.011 C 
ATOM     10  C   UNL     1     -11.260   0.410  -8.034  1.00  0.00     0.008 C 
BRANCH   9  11
ATOM     11  C   UNL     1     -11.643   2.888  -8.815  1.00  0.00    -0.002 C 
ATOM     12  C   UNL     1     -12.659   4.043  -8.860  1.00  0.00     0.005 C 
ATOM     13  C   UNL     1     -11.294   2.601 -10.317  1.00  0.00    -0.026 C 
ATOM     14  C   UNL     1     -13.263   4.056 -10.264  1.00  0.00     0.005 C 
ATOM     15  C   UNL     1     -12.610   2.914 -11.063  1.00  0.00    -0.001 C 
ATOM     16  C   UNL     1     -10.181   3.605 -10.754  1.00  0.00     0.007 C 
ATOM     17  C   UNL     1     -10.798   1.151 -10.555  1.00  0.00     0.012 C 
ATOM     18  C   UNL     1     -12.506   3.247 -12.586  1.00  0.00     0.004 C 
ATOM     19  C   UNL     1      -9.987   3.684 -12.267  1.00  0.00     0.005 C 
ATOM     20  C   UNL     1     -11.276   4.127 -12.996  1.00  0.00     0.003 C 
ATOM     21  C   UNL     1     -12.657   2.009 -13.502  1.00  0.00     0.085 C 
ATOM     22  C   UNL     1     -11.089   4.268 -14.578  1.00  0.00    -0.000 C 
ATOM     23  C   UNL     1     -12.880   2.477 -14.913  1.00  0.00     0.159 C 
ATOM     24  C   UNL     1     -12.370   3.810 -15.289  1.00  0.00     0.005 C 
ATOM     25  C   UNL     1     -10.698   5.738 -14.954  1.00  0.00     0.020 C 
ATOM     26  C   UNL     1      -9.954   3.361 -15.136  1.00  0.00     0.017 C 
ATOM     27  O   UNL     1     -13.509   1.759 -15.737  1.00  0.00    -0.295 OA
ATOM     28  C   UNL     1     -13.131   4.627 -16.034  1.00  0.00     0.055 C 
ATOM     29  C   UNL     1     -11.905   6.664 -15.101  1.00  0.00     0.081 C 
ATOM     30  C   UNL     1     -12.866   6.067 -16.079  1.00  0.00     0.156 C 
ATOM     31  O   UNL     1     -13.511   6.806 -16.868  1.00  0.00    -0.295 OA
ENDBRANCH   9  11
ENDBRANCH   8   9
ENDBRANCH   1   8
TORSDOF 6
ENDMDL
MODEL 3
REMARK VINA RESULT:    -5.873      2.231      7.030
REMARK INTER + INTRA:          -8.239
REMARK INTER:                  -7.670
REMARK INTRA:                  -0.570
REMARK UNBOUND:                -0.306
REMARK SMILES CC[C@@H](CC[C@@H](C)[C@@H]1CC[C@H]2[C@@H]3CC(=O)C4=CC(=O)CC[C@@]4(C)[C@@H]3CC[C@]21C)C(C)C
REMARK SMILES IDX 4 1 3 2 2 3 1 4 29 5 30 6 31 7 5 8 6 9 7 10 8 11 9 12 27 13
REMARK SMILES IDX 10 14 11 15 26 16 28 17 12 18 25 19 24 20 13 21 22 22 14 23
REMARK SMILES IDX 16 24 21 25 23 26 15 27 17 28 20 29 18 30 19 31
REMARK H PARENT
REMARK Flexibility Score: inf
ROOT
ATOM      1  C   UNL     1     -14.098   0.545  -9.398  1.00  0.00     0.004 C 
ENDROOT
BRANCH   1   2
ATOM      2  C   UNL     1     -15.578   0.757  -9.838  1.00  0.00    -0.009 C 
BRANCH   2   3
ATOM      3  C   UNL     1     -16.403  -0.562  -9.914  1.00  0.00     0.000 C 
ATOM      4  C   UNL     1     -17.083  -1.018  -8.615  1.00  0.00     0.004 C 
ENDBRANCH   2   3
BRANCH   2   5
ATOM      5  C   UNL     1     -15.741   1.657 -11.110  1.00  0.00    -0.014 C 
ATOM      6  C   UNL     1     -16.469   2.988 -10.865  1.00  0.00     0.007 C 
ATOM      7  C   UNL     1     -16.412   0.897 -12.270  1.00  0.00     0.007 C 
ENDBRANCH   2   5
ENDBRANCH   1   2
BRANCH   1   8
ATOM      8  C   UNL     1     -13.647   1.408  -8.196  1.00  0.00     0.004 C 
BRANCH   8   9
ATOM      9  C   UNL     1     -12.122   1.700  -8.065  1.00  0.00    -0.011 C 
ATOM     10  C   UNL     1     -11.355   0.379  -8.301  1.00  0.00     0.008 C 
BRANCH   9  11
ATOM     11  C   UNL     1     -11.643   2.903  -8.969  1.00  0.00    -0.002 C 
ATOM     12  C   UNL     1     -12.659   4.058  -9.013  1.00  0.00     0.005 C 
ATOM     13  C   UNL     1     -11.294   2.616 -10.471  1.00  0.00    -0.026 C 
ATOM     14  C   UNL     1     -13.264   4.070 -10.417  1.00  0.00     0.005 C 
ATOM     15  C   UNL     1     -12.611   2.929 -11.216  1.00  0.00    -0.001 C 
ATOM     16  C   UNL     1     -10.182   3.621 -10.909  1.00  0.00     0.007 C 
ATOM     17  C   UNL     1     -10.797   1.166 -10.709  1.00  0.00     0.012 C 
ATOM     18  C   UNL     1     -12.508   3.262 -12.739  1.00  0.00     0.004 C 
ATOM     19  C   UNL     1      -9.989   3.700 -12.422  1.00  0.00     0.005 C 
ATOM     20  C   UNL     1     -11.279   4.142 -13.150  1.00  0.00     0.003 C 
ATOM     21  C   UNL     1     -12.659   2.023 -13.654  1.00  0.00     0.085 C 
ATOM     22  C   UNL     1     -11.093   4.283 -14.733  1.00  0.00    -0.000 C 
ATOM     23  C   UNL     1     -12.884   2.491 -15.066  1.00  0.00     0.159 C 
ATOM     24  C   UNL     1     -12.375   3.824 -15.442  1.00  0.00     0.005 C 
ATOM     25  C   UNL     1     -10.704   5.753 -15.109  1.00  0.00     0.020 C 
ATOM     26  C   UNL     1      -9.959   3.376 -15.291  1.00  0.00     0.017 C 
ATOM     27  O   UNL     1     -13.514   1.773 -15.889  1.00  0.00    -0.295 OA
ATOM     28  C   UNL     1     -13.137   4.640 -16.186  1.00  0.00     0.055 C 
ATOM     29  C   UNL     1     -11.911   6.679 -15.255  1.00  0.00     0.081 C 
ATOM     30  C   UNL     1     -12.873   6.081 -16.232  1.00  0.00     0.156 C 
ATOM     31  O   UNL     1     -13.519   6.820 -17.021  1.00  0.00    -0.295 OA
ENDBRANCH   9  11
ENDBRANCH   8   9
ENDBRANCH   1   8
TORSDOF 6
ENDMDL
MODEL 4
REMARK VINA RESULT:    -5.828      2.059      3.295
REMARK INTER + INTRA:          -8.179
REMARK INTER:                  -8.476
REMARK INTRA:                   0.297
REMARK UNBOUND:                -0.306
REMARK SMILES CC[C@@H](CC[C@@H](C)[C@@H]1CC[C@H]2[C@@H]3CC(=O)C4=CC(=O)CC[C@@]4(C)[C@@H]3CC[C@]21C)C(C)C
REMARK SMILES IDX 4 1 3 2 2 3 1 4 29 5 30 6 31 7 5 8 6 9 7 10 8 11 9 12 27 13
REMARK SMILES IDX 10 14 11 15 26 16 28 17 12 18 25 19 24 20 13 21 22 22 14 23
REMARK SMILES IDX 16 24 21 25 23 26 15 27 17 28 20 29 18 30 19 31
REMARK H PARENT
REMARK Flexibility Score: inf
ROOT
ATOM      1  C   UNL     1     -13.324   5.225 -16.285  1.00  0.00     0.004 C 
ENDROOT
BRANCH   1   2
ATOM      2  C   UNL     1     -13.753   6.654 -16.735  1.00  0.00    -0.009 C 
BRANCH   2   3
ATOM      3  C   UNL     1     -12.890   7.791 -16.112  1.00  0.00     0.000 C 
ATOM      4  C   UNL     1     -13.590   8.697 -15.089  1.00  0.00     0.004 C 
ENDBRANCH   2   3
BRANCH   2   5
ATOM      5  C   UNL     1     -15.292   6.921 -16.626  1.00  0.00    -0.014 C 
ATOM      6  C   UNL     1     -16.125   5.706 -16.191  1.00  0.00     0.007 C 
ATOM      7  C   UNL     1     -15.867   7.515 -17.926  1.00  0.00     0.007 C 
ENDBRANCH   2   5
ENDBRANCH   1   2
BRANCH   1   8
ATOM      8  C   UNL     1     -11.894   4.812 -16.704  1.00  0.00     0.004 C 
BRANCH   8   9
ATOM      9  C   UNL     1     -10.816   4.749 -15.580  1.00  0.00    -0.011 C 
ATOM     10  C   UNL     1     -11.169   5.807 -14.511  1.00  0.00     0.008 C 
BRANCH   9  11
ATOM     11  C   UNL     1     -10.603   3.292 -15.009  1.00  0.00    -0.002 C 
ATOM     12  C   UNL     1     -11.858   2.411 -15.136  1.00  0.00     0.005 C 
ATOM     13  C   UNL     1     -10.149   3.133 -13.516  1.00  0.00    -0.026 C 
ATOM     14  C   UNL     1     -12.405   2.203 -13.723  1.00  0.00     0.005 C 
ATOM     15  C   UNL     1     -11.478   2.952 -12.750  1.00  0.00    -0.001 C 
ATOM     16  C   UNL     1      -9.289   1.835 -13.408  1.00  0.00     0.007 C 
ATOM     17  C   UNL     1      -9.320   4.341 -13.005  1.00  0.00     0.012 C 
ATOM     18  C   UNL     1     -11.408   2.256 -11.352  1.00  0.00     0.004 C 
ATOM     19  C   UNL     1      -9.072   1.362 -11.971  1.00  0.00     0.005 C 
ATOM     20  C   UNL     1     -10.405   1.055 -11.253  1.00  0.00     0.003 C 
ATOM     21  C   UNL     1     -11.236   3.246 -10.176  1.00  0.00     0.085 C 
ATOM     22  C   UNL     1     -10.207   0.509  -9.762  1.00  0.00    -0.000 C 
ATOM     23  C   UNL     1     -11.519   2.521  -8.889  1.00  0.00     0.159 C 
ATOM     24  C   UNL     1     -11.323   1.059  -8.862  1.00  0.00     0.005 C 
ATOM     25  C   UNL     1     -10.160  -1.057  -9.756  1.00  0.00     0.020 C 
ATOM     26  C   UNL     1      -8.875   0.987  -9.115  1.00  0.00     0.017 C 
ATOM     27  O   UNL     1     -11.937   3.146  -7.877  1.00  0.00    -0.295 OA
ATOM     28  C   UNL     1     -12.230   0.278  -8.256  1.00  0.00     0.055 C 
ATOM     29  C   UNL     1     -11.545  -1.702  -9.716  1.00  0.00     0.081 C 
ATOM     30  C   UNL     1     -12.309  -1.155  -8.553  1.00  0.00     0.156 C 
ATOM     31  O   UNL     1     -13.084  -1.897  -7.895  1.00  0.00    -0.295 OA
ENDBRANCH   9  11
ENDBRANCH   8   9
ENDBRANCH   1   8
TORSDOF 6
ENDMDL
MODEL 5
REMARK VINA RESULT:    -5.753      2.549      3.942
REMARK INTER + INTRA:          -8.078
REMARK INTER:                  -7.414
REMARK INTRA:                  -0.664
REMARK UNBOUND:                -0.306
REMARK SMILES CC[C@@H](CC[C@@H](C)[C@@H]1CC[C@H]2[C@@H]3CC(=O)C4=CC(=O)CC[C@@]4(C)[C@@H]3CC[C@]21C)C(C)C
REMARK SMILES IDX 4 1 3 2 2 3 1 4 29 5 30 6 31 7 5 8 6 9 7 10 8 11 9 12 27 13
REMARK SMILES IDX 10 14 11 15 26 16 28 17 12 18 25 19 24 20 13 21 22 22 14 23
REMARK SMILES IDX 16 24 21 25 23 26 15 27 17 28 20 29 18 30 19 31
REMARK H PARENT
REMARK Flexibility Score: inf
ROOT
ATOM      1  C   UNL     1     -11.628   8.883 -14.474  1.00  0.00     0.004 C 
ENDROOT
BRANCH   1   2
ATOM      2  C   UNL     1     -11.523   9.977 -13.369  1.00  0.00    -0.009 C 
BRANCH   2   3
ATOM      3  C   UNL     1     -12.887  10.326 -12.702  1.00  0.00     0.000 C 
ATOM      4  C   UNL     1     -12.844  10.694 -11.213  1.00  0.00     0.004 C 
ENDBRANCH   2   3
BRANCH   2   5
ATOM      5  C   UNL     1     -10.710  11.244 -13.803  1.00  0.00    -0.014 C 
ATOM      6  C   UNL     1     -10.241  11.234 -15.266  1.00  0.00     0.007 C 
ATOM      7  C   UNL     1      -9.514  11.508 -12.869  1.00  0.00     0.007 C 
ENDBRANCH   2   5
ENDBRANCH   1   2
BRANCH   1   8
ATOM      8  C   UNL     1     -10.838   7.586 -14.183  1.00  0.00     0.004 C 
BRANCH   8   9
ATOM      9  C   UNL     1     -11.559   6.235 -14.475  1.00  0.00    -0.011 C 
ATOM     10  C   UNL     1     -11.948   6.209 -15.970  1.00  0.00     0.008 C 
BRANCH   9  11
ATOM     11  C   UNL     1     -10.735   4.978 -13.992  1.00  0.00    -0.002 C 
ATOM     12  C   UNL     1     -11.101   3.694 -14.757  1.00  0.00     0.005 C 
ATOM     13  C   UNL     1     -10.805   4.576 -12.477  1.00  0.00    -0.026 C 
ATOM     14  C   UNL     1     -11.852   2.788 -13.781  1.00  0.00     0.005 C 
ATOM     15  C   UNL     1     -11.933   3.523 -12.432  1.00  0.00    -0.001 C 
ATOM     16  C   UNL     1      -9.443   3.918 -12.089  1.00  0.00     0.007 C 
ATOM     17  C   UNL     1     -11.073   5.786 -11.544  1.00  0.00     0.012 C 
ATOM     18  C   UNL     1     -11.937   2.532 -11.223  1.00  0.00     0.004 C 
ATOM     19  C   UNL     1      -9.484   3.166 -10.760  1.00  0.00     0.005 C 
ATOM     20  C   UNL     1     -10.526   2.025 -10.768  1.00  0.00     0.003 C 
ATOM     21  C   UNL     1     -12.785   3.022 -10.025  1.00  0.00     0.085 C 
ATOM     22  C   UNL     1     -10.555   1.187  -9.406  1.00  0.00    -0.000 C 
ATOM     23  C   UNL     1     -12.996   1.871  -9.080  1.00  0.00     0.159 C 
ATOM     24  C   UNL     1     -12.000   0.781  -9.085  1.00  0.00     0.005 C 
ATOM     25  C   UNL     1      -9.602  -0.053  -9.507  1.00  0.00     0.020 C 
ATOM     26  C   UNL     1     -10.069   2.011  -8.179  1.00  0.00     0.017 C 
ATOM     27  O   UNL     1     -14.008   1.833  -8.329  1.00  0.00    -0.295 OA
ATOM     28  C   UNL     1     -12.413  -0.494  -9.034  1.00  0.00     0.055 C 
ATOM     29  C   UNL     1     -10.257  -1.266 -10.167  1.00  0.00     0.081 C 
ATOM     30  C   UNL     1     -11.529  -1.587  -9.449  1.00  0.00     0.156 C 
ATOM     31  O   UNL     1     -11.884  -2.785  -9.289  1.00  0.00    -0.295 OA
ENDBRANCH   9  11
ENDBRANCH   8   9
ENDBRANCH   1   8
TORSDOF 6
ENDMDL
MODEL 6
REMARK VINA RESULT:    -5.606      1.730      2.818
REMARK INTER + INTRA:          -7.879
REMARK INTER:                  -7.270
REMARK INTRA:                  -0.609
REMARK UNBOUND:                -0.306
REMARK SMILES CC[C@@H](CC[C@@H](C)[C@@H]1CC[C@H]2[C@@H]3CC(=O)C4=CC(=O)CC[C@@]4(C)[C@@H]3CC[C@]21C)C(C)C
REMARK SMILES IDX 4 1 3 2 2 3 1 4 29 5 30 6 31 7 5 8 6 9 7 10 8 11 9 12 27 13
REMARK SMILES IDX 10 14 11 15 26 16 28 17 12 18 25 19 24 20 13 21 22 22 14 23
REMARK SMILES IDX 16 24 21 25 23 26 15 27 17 28 20 29 18 30 19 31
REMARK H PARENT
REMARK Flexibility Score: inf
ROOT
ATOM      1  C   UNL     1     -12.339   6.968 -15.968  1.00  0.00     0.004 C 
ENDROOT
BRANCH   1   2
ATOM      2  C   UNL     1     -13.237   5.997 -16.792  1.00  0.00    -0.009 C 
BRANCH   2   3
ATOM      3  C   UNL     1     -14.679   6.532 -17.035  1.00  0.00     0.000 C 
ATOM      4  C   UNL     1     -15.152   7.664 -16.111  1.00  0.00     0.004 C 
ENDBRANCH   2   3
BRANCH   2   5
ATOM      5  C   UNL     1     -13.210   4.517 -16.279  1.00  0.00    -0.014 C 
ATOM      6  C   UNL     1     -12.369   3.557 -17.135  1.00  0.00     0.007 C 
ATOM      7  C   UNL     1     -14.629   3.947 -16.091  1.00  0.00     0.007 C 
ENDBRANCH   2   5
ENDBRANCH   1   2
BRANCH   1   8
ATOM      8  C   UNL     1     -11.870   6.419 -14.601  1.00  0.00     0.004 C 
BRANCH   8   9
ATOM      9  C   UNL     1     -10.379   6.657 -14.214  1.00  0.00    -0.011 C 
ATOM     10  C   UNL     1     -10.306   7.920 -13.326  1.00  0.00     0.008 C 
BRANCH   9  11
ATOM     11  C   UNL     1      -9.690   5.380 -13.592  1.00  0.00    -0.002 C 
ATOM     12  C   UNL     1      -9.869   4.122 -14.460  1.00  0.00     0.005 C 
ATOM     13  C   UNL     1     -10.109   4.935 -12.147  1.00  0.00    -0.026 C 
ATOM     14  C   UNL     1     -10.826   3.193 -13.712  1.00  0.00     0.005 C 
ATOM     15  C   UNL     1     -11.217   3.888 -12.396  1.00  0.00    -0.001 C 
ATOM     16  C   UNL     1      -8.875   4.256 -11.474  1.00  0.00     0.007 C 
ATOM     17  C   UNL     1     -10.587   6.118 -11.265  1.00  0.00     0.012 C 
ATOM     18  C   UNL     1     -11.502   2.863 -11.252  1.00  0.00     0.004 C 
ATOM     19  C   UNL     1      -9.223   3.466 -10.214  1.00  0.00     0.005 C 
ATOM     20  C   UNL     1     -10.234   2.333 -10.498  1.00  0.00     0.003 C 
ATOM     21  C   UNL     1     -12.604   3.324 -10.269  1.00  0.00     0.085 C 
ATOM     22  C   UNL     1     -10.579   1.455  -9.206  1.00  0.00    -0.000 C 
ATOM     23  C   UNL     1     -13.028   2.147  -9.433  1.00  0.00     0.159 C 
ATOM     24  C   UNL     1     -12.059   1.051  -9.241  1.00  0.00     0.005 C 
ATOM     25  C   UNL     1      -9.629   0.212  -9.120  1.00  0.00     0.020 C 
ATOM     26  C   UNL     1     -10.391   2.239  -7.875  1.00  0.00     0.017 C 
ATOM     27  O   UNL     1     -14.187   2.093  -8.939  1.00  0.00    -0.295 OA
ATOM     28  C   UNL     1     -12.472  -0.223  -9.325  1.00  0.00     0.055 C 
ATOM     29  C   UNL     1     -10.113  -0.976  -9.950  1.00  0.00     0.081 C 
ATOM     30  C   UNL     1     -11.517  -1.310  -9.557  1.00  0.00     0.156 C 
ATOM     31  O   UNL     1     -11.899  -2.509  -9.520  1.00  0.00    -0.295 OA
ENDBRANCH   9  11
ENDBRANCH   8   9
ENDBRANCH   1   8
TORSDOF 6
ENDMDL
MODEL 7
REMARK VINA RESULT:    -5.571      2.044      3.165
REMARK INTER + INTRA:          -7.832
REMARK INTER:                  -8.281
REMARK INTRA:                   0.449
REMARK UNBOUND:                -0.306
REMARK SMILES CC[C@@H](CC[C@@H](C)[C@@H]1CC[C@H]2[C@@H]3CC(=O)C4=CC(=O)CC[C@@]4(C)[C@@H]3CC[C@]21C)C(C)C
REMARK SMILES IDX 4 1 3 2 2 3 1 4 29 5 30 6 31 7 5 8 6 9 7 10 8 11 9 12 27 13
REMARK SMILES IDX 10 14 11 15 26 16 28 17 12 18 25 19 24 20 13 21 22 22 14 23
REMARK SMILES IDX 16 24 21 25 23 26 15 27 17 28 20 29 18 30 19 31
REMARK H PARENT
REMARK Flexibility Score: inf
ROOT
ATOM      1  C   UNL     1     -12.409   6.598 -16.664  1.00  0.00     0.004 C 
ENDROOT
BRANCH   1   2
ATOM      2  C   UNL     1     -13.601   7.265 -15.916  1.00  0.00    -0.009 C 
BRANCH   2   3
ATOM      3  C   UNL     1     -14.949   7.189 -16.694  1.00  0.00     0.000 C 
ATOM      4  C   UNL     1     -16.016   6.247 -16.121  1.00  0.00     0.004 C 
ENDBRANCH   2   3
BRANCH   2   5
ATOM      5  C   UNL     1     -13.289   8.699 -15.370  1.00  0.00    -0.014 C 
ATOM      6  C   UNL     1     -11.866   8.879 -14.819  1.00  0.00     0.007 C 
ATOM      7  C   UNL     1     -14.321   9.154 -14.320  1.00  0.00     0.007 C 
ENDBRANCH   2   5
ENDBRANCH   1   2
BRANCH   1   8
ATOM      8  C   UNL     1     -12.066   5.164 -16.195  1.00  0.00     0.004 C 
BRANCH   8   9
ATOM      9  C   UNL     1     -10.740   4.976 -15.399  1.00  0.00    -0.011 C 
ATOM     10  C   UNL     1     -10.709   6.017 -14.258  1.00  0.00     0.008 C 
BRANCH   9  11
ATOM     11  C   UNL     1     -10.506   3.486 -14.930  1.00  0.00    -0.002 C 
ATOM     12  C   UNL     1     -11.734   2.588 -15.162  1.00  0.00     0.005 C 
ATOM     13  C   UNL     1     -10.095   3.229 -13.438  1.00  0.00    -0.026 C 
ATOM     14  C   UNL     1     -12.319   2.263 -13.787  1.00  0.00     0.005 C 
ATOM     15  C   UNL     1     -11.442   2.960 -12.731  1.00  0.00    -0.001 C 
ATOM     16  C   UNL     1      -9.205   1.947 -13.397  1.00  0.00     0.007 C 
ATOM     17  C   UNL     1      -9.314   4.415 -12.814  1.00  0.00     0.012 C 
ATOM     18  C   UNL     1     -11.397   2.165 -11.387  1.00  0.00     0.004 C 
ATOM     19  C   UNL     1      -9.021   1.375 -11.992  1.00  0.00     0.005 C 
ATOM     20  C   UNL     1     -10.367   0.984 -11.342  1.00  0.00     0.003 C 
ATOM     21  C   UNL     1     -11.288   3.070 -10.136  1.00  0.00     0.085 C 
ATOM     22  C   UNL     1     -10.201   0.335  -9.890  1.00  0.00    -0.000 C 
ATOM     23  C   UNL     1     -11.591   2.245  -8.916  1.00  0.00     0.159 C 
ATOM     24  C   UNL     1     -11.358   0.790  -8.990  1.00  0.00     0.005 C 
ATOM     25  C   UNL     1     -10.114  -1.226  -9.996  1.00  0.00     0.020 C 
ATOM     26  C   UNL     1      -8.903   0.795  -9.166  1.00  0.00     0.017 C 
ATOM     27  O   UNL     1     -12.056   2.784  -7.875  1.00  0.00    -0.295 OA
ATOM     28  C   UNL     1     -12.263  -0.055  -8.471  1.00  0.00     0.055 C 
ATOM     29  C   UNL     1     -11.482  -1.905 -10.049  1.00  0.00     0.081 C 
ATOM     30  C   UNL     1     -12.295  -1.463  -8.875  1.00  0.00     0.156 C 
ATOM     31  O   UNL     1     -13.071  -2.271  -8.299  1.00  0.00    -0.295 OA
ENDBRANCH   9  11
ENDBRANCH   8   9
ENDBRANCH   1   8
TORSDOF 6
ENDMDL
MODEL 8
REMARK VINA RESULT:    -5.510      2.042      7.082
REMARK INTER + INTRA:          -7.749
REMARK INTER:                  -6.959
REMARK INTRA:                  -0.790
REMARK UNBOUND:                -0.306
REMARK SMILES CC[C@@H](CC[C@@H](C)[C@@H]1CC[C@H]2[C@@H]3CC(=O)C4=CC(=O)CC[C@@]4(C)[C@@H]3CC[C@]21C)C(C)C
REMARK SMILES IDX 4 1 3 2 2 3 1 4 29 5 30 6 31 7 5 8 6 9 7 10 8 11 9 12 27 13
REMARK SMILES IDX 10 14 11 15 26 16 28 17 12 18 25 19 24 20 13 21 22 22 14 23
REMARK SMILES IDX 16 24 21 25 23 26 15 27 17 28 20 29 18 30 19 31
REMARK H PARENT
REMARK Flexibility Score: inf
ROOT
ATOM      1  C   UNL     1     -11.955   0.800  -9.743  1.00  0.00     0.004 C 
ENDROOT
BRANCH   1   2
ATOM      2  C   UNL     1     -13.449   0.942  -9.325  1.00  0.00    -0.009 C 
BRANCH   2   3
ATOM      3  C   UNL     1     -13.988  -0.271  -8.508  1.00  0.00     0.000 C 
ATOM      4  C   UNL     1     -13.073  -1.501  -8.429  1.00  0.00     0.004 C 
ENDBRANCH   2   3
BRANCH   2   5
ATOM      5  C   UNL     1     -14.400   1.365 -10.495  1.00  0.00    -0.014 C 
ATOM      6  C   UNL     1     -14.812   2.845 -10.483  1.00  0.00     0.007 C 
ATOM      7  C   UNL     1     -15.653   0.471 -10.570  1.00  0.00     0.007 C 
ENDBRANCH   2   5
ENDBRANCH   1   2
BRANCH   1   8
ATOM      8  C   UNL     1     -10.996   1.821  -9.088  1.00  0.00     0.004 C 
BRANCH   8   9
ATOM      9  C   UNL     1      -9.607   2.025  -9.764  1.00  0.00    -0.011 C 
ATOM     10  C   UNL     1      -9.133   0.661 -10.315  1.00  0.00     0.008 C 
BRANCH   9  11
ATOM     11  C   UNL     1      -9.600   3.195 -10.824  1.00  0.00    -0.002 C 
ATOM     12  C   UNL     1     -10.430   4.411 -10.376  1.00  0.00     0.005 C 
ATOM     13  C   UNL     1     -10.095   2.885 -12.281  1.00  0.00    -0.026 C 
ATOM     14  C   UNL     1     -11.673   4.460 -11.266  1.00  0.00     0.005 C 
ATOM     15  C   UNL     1     -11.588   3.279 -12.249  1.00  0.00    -0.001 C 
ATOM     16  C   UNL     1      -9.318   3.818 -13.263  1.00  0.00     0.007 C 
ATOM     17  C   UNL     1      -9.871   1.407 -12.693  1.00  0.00     0.012 C 
ATOM     18  C   UNL     1     -12.270   3.603 -13.617  1.00  0.00     0.004 C 
ATOM     19  C   UNL     1      -9.931   3.883 -14.660  1.00  0.00     0.005 C 
ATOM     20  C   UNL     1     -11.386   4.405 -14.633  1.00  0.00     0.003 C 
ATOM     21  C   UNL     1     -12.938   2.376 -14.282  1.00  0.00     0.085 C 
ATOM     22  C   UNL     1     -12.038   4.532 -16.088  1.00  0.00    -0.000 C 
ATOM     23  C   UNL     1     -13.836   2.855 -15.389  1.00  0.00     0.159 C 
ATOM     24  C   UNL     1     -13.524   4.153 -16.019  1.00  0.00     0.005 C 
ATOM     25  C   UNL     1     -11.822   5.975 -16.660  1.00  0.00     0.020 C 
ATOM     26  C   UNL     1     -11.405   3.555 -17.121  1.00  0.00     0.017 C 
ATOM     27  O   UNL     1     -14.837   2.177 -15.746  1.00  0.00    -0.295 OA
ATOM     28  C   UNL     1     -14.516   5.015 -16.290  1.00  0.00     0.055 C 
ATOM     29  C   UNL     1     -12.879   6.974 -16.192  1.00  0.00     0.081 C 
ATOM     30  C   UNL     1     -14.237   6.437 -16.513  1.00  0.00     0.156 C 
ATOM     31  O   UNL     1     -15.158   7.213 -16.879  1.00  0.00    -0.295 OA
ENDBRANCH   9  11
ENDBRANCH   8   9
ENDBRANCH   1   8
TORSDOF 6
ENDMDL
MODEL 9
REMARK VINA RESULT:    -5.080      3.977      7.485
REMARK INTER + INTRA:          -7.169
REMARK INTER:                  -5.957
REMARK INTRA:                  -1.212
REMARK UNBOUND:                -0.306
REMARK SMILES CC[C@@H](CC[C@@H](C)[C@@H]1CC[C@H]2[C@@H]3CC(=O)C4=CC(=O)CC[C@@]4(C)[C@@H]3CC[C@]21C)C(C)C
REMARK SMILES IDX 4 1 3 2 2 3 1 4 29 5 30 6 31 7 5 8 6 9 7 10 8 11 9 12 27 13
REMARK SMILES IDX 10 14 11 15 26 16 28 17 12 18 25 19 24 20 13 21 22 22 14 23
REMARK SMILES IDX 16 24 21 25 23 26 15 27 17 28 20 29 18 30 19 31
REMARK H PARENT
REMARK Flexibility Score: inf
ROOT
ATOM      1  C   UNL     1     -10.791   1.516 -11.472  1.00  0.00     0.004 C 
ENDROOT
BRANCH   1   2
ATOM      2  C   UNL     1     -11.319   2.555 -12.506  1.00  0.00    -0.009 C 
BRANCH   2   3
ATOM      3  C   UNL     1     -12.837   2.404 -12.825  1.00  0.00     0.000 C 
ATOM      4  C   UNL     1     -13.736   1.952 -11.665  1.00  0.00     0.004 C 
ENDBRANCH   2   3
BRANCH   2   5
ATOM      5  C   UNL     1     -10.432   2.682 -13.791  1.00  0.00    -0.014 C 
ATOM      6  C   UNL     1      -9.137   1.855 -13.761  1.00  0.00     0.007 C 
ATOM      7  C   UNL     1     -10.111   4.151 -14.126  1.00  0.00     0.007 C 
ENDBRANCH   2   5
ENDBRANCH   1   2
BRANCH   1   8
ATOM      8  C   UNL     1      -9.996   2.120 -10.291  1.00  0.00     0.004 C 
BRANCH   8   9
ATOM      9  C   UNL     1     -10.699   2.142  -8.900  1.00  0.00    -0.011 C 
ATOM     10  C   UNL     1      -9.763   1.463  -7.875  1.00  0.00     0.008 C 
BRANCH   9  11
ATOM     11  C   UNL     1     -11.193   3.582  -8.479  1.00  0.00    -0.002 C 
ATOM     12  C   UNL     1     -12.643   3.865  -8.910  1.00  0.00     0.005 C 
ATOM     13  C   UNL     1     -10.377   4.826  -8.976  1.00  0.00    -0.026 C 
ATOM     14  C   UNL     1     -12.585   4.902 -10.032  1.00  0.00     0.005 C 
ATOM     15  C   UNL     1     -11.104   5.245 -10.272  1.00  0.00    -0.001 C 
ATOM     16  C   UNL     1     -10.510   5.951  -7.901  1.00  0.00     0.007 C 
ATOM     17  C   UNL     1      -8.875   4.511  -9.203  1.00  0.00     0.012 C 
ATOM     18  C   UNL     1     -10.913   6.720 -10.753  1.00  0.00     0.004 C 
ATOM     19  C   UNL     1     -10.069   7.327  -8.397  1.00  0.00     0.005 C 
ATOM     20  C   UNL     1     -10.893   7.797  -9.616  1.00  0.00     0.003 C 
ATOM     21  C   UNL     1      -9.733   6.901 -11.738  1.00  0.00     0.085 C 
ATOM     22  C   UNL     1     -10.487   9.258 -10.126  1.00  0.00    -0.000 C 
ATOM     23  C   UNL     1      -9.850   8.252 -12.387  1.00  0.00     0.159 C 
ATOM     24  C   UNL     1     -10.577   9.310 -11.658  1.00  0.00     0.005 C 
ATOM     25  C   UNL     1     -11.387  10.345  -9.445  1.00  0.00     0.020 C 
ATOM     26  C   UNL     1      -9.016   9.632  -9.780  1.00  0.00     0.017 C 
ATOM     27  O   UNL     1      -9.364   8.460 -13.532  1.00  0.00    -0.295 OA
ATOM     28  C   UNL     1     -11.432  10.105 -12.318  1.00  0.00     0.055 C 
ATOM     29  C   UNL     1     -12.720  10.559 -10.160  1.00  0.00     0.081 C 
ATOM     30  C   UNL     1     -12.461  10.863 -11.601  1.00  0.00     0.156 C 
ATOM     31  O   UNL     1     -13.181  11.692 -12.216  1.00  0.00    -0.295 OA
ENDBRANCH   9  11
ENDBRANCH   8   9
ENDBRANCH   1   8
TORSDOF 6
ENDMDL
