MODEL 1
REMARK VINA RESULT:    -5.825      0.000      0.000
REMARK INTER + INTRA:         -13.176
REMARK INTER:                 -10.592
REMARK INTRA:                  -2.584
REMARK UNBOUND:                -2.584
REMARK SMILES CCCCCC=CCC=CCCCCCCCC(=O)[O-]
REMARK SMILES IDX 11 1 12 2 13 3 14 4 15 5 16 6 17 7 18 8 19 9 20 10 10 11
REMARK SMILES IDX 9 12 8 13 7 14 6 15 5 16 4 17 3 18 2 19 1 20
REMARK H PARENT
REMARK Flexibility Score: inf
ROOT
ATOM      1  C   UNL     1      51.487  50.571   6.570  1.00  0.00     0.027 C 
ENDROOT
BRANCH   1   2
ATOM      2  C   UNL     1      52.363  51.412   7.506  1.00  0.00     0.004 C 
BRANCH   2   3
ATOM      3  C   UNL     1      53.790  50.854   7.573  1.00  0.00     0.000 C 
BRANCH   3   4
ATOM      4  C   UNL     1      54.815  51.898   7.104  1.00  0.00     0.000 C 
BRANCH   4   5
ATOM      5  C   UNL     1      54.196  52.921   6.126  1.00  0.00     0.000 C 
BRANCH   5   6
ATOM      6  C   UNL     1      54.392  52.552   4.646  1.00  0.00     0.006 C 
BRANCH   6   7
ATOM      7  C   UNL     1      55.618  51.663   4.411  1.00  0.00     0.053 C 
BRANCH   7   8
ATOM      8  C   UNL     1      55.201  50.324   3.890  1.00  0.00     0.041 C 
ATOM      9  O   UNL     1      54.042  49.888   4.121  1.00  0.00    -0.550 OA
ATOM     10  O   UNL     1      56.106  49.537   3.190  1.00  0.00    -0.550 OA
ENDBRANCH   7   8
ENDBRANCH   6   7
ENDBRANCH   5   6
ENDBRANCH   4   5
ENDBRANCH   3   4
ENDBRANCH   2   3
ENDBRANCH   1   2
BRANCH   1  11
ATOM     11  C   UNL     1      50.365  51.388   5.992  1.00  0.00    -0.031 C 
ATOM     12  C   UNL     1      50.583  52.303   5.033  1.00  0.00    -0.027 C 
BRANCH  12  13
ATOM     13  C   UNL     1      49.461  53.123   4.459  1.00  0.00     0.054 C 
BRANCH  13  14
ATOM     14  C   UNL     1      48.920  52.504   3.196  1.00  0.00    -0.027 C 
ATOM     15  C   UNL     1      47.890  51.637   3.152  1.00  0.00    -0.031 C 
BRANCH  15  16
ATOM     16  C   UNL     1      47.088  51.204   4.353  1.00  0.00     0.027 C 
BRANCH  16  17
ATOM     17  C   UNL     1      47.482  49.786   4.790  1.00  0.00     0.004 C 
BRANCH  17  18
ATOM     18  C   UNL     1      48.121  48.972   3.652  1.00  0.00     0.000 C 
BRANCH  18  19
ATOM     19  C   UNL     1      49.483  48.379   4.042  1.00  0.00    -0.003 C 
ATOM     20  C   UNL     1      50.613  49.033   3.251  1.00  0.00     0.004 C 
ENDBRANCH  18  19
ENDBRANCH  17  18
ENDBRANCH  16  17
ENDBRANCH  15  16
ENDBRANCH  13  14
ENDBRANCH  12  13
ENDBRANCH   1  11
TORSDOF 14
ENDMDL
MODEL 2
REMARK VINA RESULT:    -5.825      3.010      6.801
REMARK INTER + INTRA:         -13.176
REMARK INTER:                 -11.292
REMARK INTRA:                  -1.884
REMARK UNBOUND:                -2.584
REMARK SMILES CCCCCC=CCC=CCCCCCCCC(=O)[O-]
REMARK SMILES IDX 11 1 12 2 13 3 14 4 15 5 16 6 17 7 18 8 19 9 20 10 10 11
REMARK SMILES IDX 9 12 8 13 7 14 6 15 5 16 4 17 3 18 2 19 1 20
REMARK H PARENT
REMARK Flexibility Score: inf
ROOT
ATOM      1  C   UNL     1      49.864  51.293   4.751  1.00  0.00     0.027 C 
ENDROOT
BRANCH   1   2
ATOM      2  C   UNL     1      49.881  49.829   5.206  1.00  0.00     0.004 C 
BRANCH   2   3
ATOM      3  C   UNL     1      50.239  48.896   4.043  1.00  0.00     0.000 C 
BRANCH   3   4
ATOM      4  C   UNL     1      49.937  49.559   2.690  1.00  0.00     0.000 C 
BRANCH   4   5
ATOM      5  C   UNL     1      48.665  48.982   2.030  1.00  0.00     0.000 C 
BRANCH   5   6
ATOM      6  C   UNL     1      48.222  47.634   2.625  1.00  0.00     0.006 C 
BRANCH   6   7
ATOM      7  C   UNL     1      47.415  46.784   1.638  1.00  0.00     0.053 C 
BRANCH   7   8
ATOM      8  C   UNL     1      48.042  45.435   1.477  1.00  0.00     0.041 C 
ATOM      9  O   UNL     1      48.748  44.950   2.399  1.00  0.00    -0.550 OA
ATOM     10  O   UNL     1      47.886  44.734   0.288  1.00  0.00    -0.550 OA
ENDBRANCH   7   8
ENDBRANCH   6   7
ENDBRANCH   5   6
ENDBRANCH   4   5
ENDBRANCH   3   4
ENDBRANCH   2   3
ENDBRANCH   1   2
BRANCH   1  11
ATOM     11  C   UNL     1      50.866  52.113   5.517  1.00  0.00    -0.031 C 
ATOM     12  C   UNL     1      51.262  51.765   6.752  1.00  0.00    -0.027 C 
BRANCH  12  13
ATOM     13  C   UNL     1      52.260  52.588   7.518  1.00  0.00     0.054 C 
BRANCH  13  14
ATOM     14  C   UNL     1      53.502  51.792   7.832  1.00  0.00    -0.027 C 
ATOM     15  C   UNL     1      54.686  51.948   7.210  1.00  0.00    -0.031 C 
BRANCH  15  16
ATOM     16  C   UNL     1      54.962  52.984   6.149  1.00  0.00     0.027 C 
BRANCH  16  17
ATOM     17  C   UNL     1      54.534  52.475   4.765  1.00  0.00     0.004 C 
BRANCH  17  18
ATOM     18  C   UNL     1      55.614  51.611   4.093  1.00  0.00     0.000 C 
BRANCH  18  19
ATOM     19  C   UNL     1      55.183  50.145   3.934  1.00  0.00    -0.003 C 
ATOM     20  C   UNL     1      53.703  49.969   4.263  1.00  0.00     0.004 C 
ENDBRANCH  18  19
ENDBRANCH  17  18
ENDBRANCH  16  17
ENDBRANCH  15  16
ENDBRANCH  13  14
ENDBRANCH  12  13
ENDBRANCH   1  11
TORSDOF 14
ENDMDL
MODEL 3
REMARK VINA RESULT:    -5.574      3.158      7.172
REMARK INTER + INTRA:         -12.719
REMARK INTER:                 -11.298
REMARK INTRA:                  -1.422
REMARK UNBOUND:                -2.584
REMARK SMILES CCCCCC=CCC=CCCCCCCCC(=O)[O-]
REMARK SMILES IDX 11 1 12 2 13 3 14 4 15 5 16 6 17 7 18 8 19 9 20 10 10 11
REMARK SMILES IDX 9 12 8 13 7 14 6 15 5 16 4 17 3 18 2 19 1 20
REMARK H PARENT
REMARK Flexibility Score: inf
ROOT
ATOM      1  C   UNL     1      51.547  49.399   4.086  1.00  0.00     0.027 C 
ENDROOT
BRANCH   1   2
ATOM      2  C   UNL     1      50.039  49.208   4.290  1.00  0.00     0.004 C 
BRANCH   2   3
ATOM      3  C   UNL     1      49.463  48.238   3.251  1.00  0.00     0.000 C 
BRANCH   3   4
ATOM      4  C   UNL     1      48.883  48.997   2.047  1.00  0.00     0.000 C 
BRANCH   4   5
ATOM      5  C   UNL     1      47.467  48.505   1.677  1.00  0.00     0.000 C 
BRANCH   5   6
ATOM      6  C   UNL     1      47.126  47.121   2.256  1.00  0.00     0.006 C 
BRANCH   6   7
ATOM      7  C   UNL     1      46.993  46.040   1.178  1.00  0.00     0.053 C 
BRANCH   7   8
ATOM      8  C   UNL     1      48.126  45.067   1.271  1.00  0.00     0.041 C 
ATOM      9  O   UNL     1      48.375  44.290   0.312  1.00  0.00    -0.550 OA
ATOM     10  O   UNL     1      48.876  44.985   2.437  1.00  0.00    -0.550 OA
ENDBRANCH   7   8
ENDBRANCH   6   7
ENDBRANCH   5   6
ENDBRANCH   4   5
ENDBRANCH   3   4
ENDBRANCH   2   3
ENDBRANCH   1   2
BRANCH   1  11
ATOM     11  C   UNL     1      52.036  50.643   4.775  1.00  0.00    -0.031 C 
ATOM     12  C   UNL     1      51.193  51.622   5.141  1.00  0.00    -0.027 C 
BRANCH  12  13
ATOM     13  C   UNL     1      51.683  52.868   5.826  1.00  0.00     0.054 C 
BRANCH  13  14
ATOM     14  C   UNL     1      52.021  52.602   7.271  1.00  0.00    -0.027 C 
ATOM     15  C   UNL     1      53.259  52.689   7.793  1.00  0.00    -0.031 C 
BRANCH  15  16
ATOM     16  C   UNL     1      54.481  53.124   7.023  1.00  0.00     0.027 C 
BRANCH  16  17
ATOM     17  C   UNL     1      55.008  51.980   6.145  1.00  0.00     0.004 C 
BRANCH  17  18
ATOM     18  C   UNL     1      55.277  52.422   4.697  1.00  0.00     0.000 C 
BRANCH  18  19
ATOM     19  C   UNL     1      56.171  51.433   3.934  1.00  0.00    -0.003 C 
ATOM     20  C   UNL     1      55.461  50.097   3.726  1.00  0.00     0.004 C 
ENDBRANCH  18  19
ENDBRANCH  17  18
ENDBRANCH  16  17
ENDBRANCH  15  16
ENDBRANCH  13  14
ENDBRANCH  12  13
ENDBRANCH   1  11
TORSDOF 14
ENDMDL
MODEL 4
REMARK VINA RESULT:    -5.549      2.139      3.657
REMARK INTER + INTRA:         -12.675
REMARK INTER:                 -11.104
REMARK INTRA:                  -1.571
REMARK UNBOUND:                -2.584
REMARK SMILES CCCCCC=CCC=CCCCCCCCC(=O)[O-]
REMARK SMILES IDX 11 1 12 2 13 3 14 4 15 5 16 6 17 7 18 8 19 9 20 10 10 11
REMARK SMILES IDX 9 12 8 13 7 14 6 15 5 16 4 17 3 18 2 19 1 20
REMARK H PARENT
REMARK Flexibility Score: inf
ROOT
ATOM      1  C   UNL     1      54.259  49.741   4.725  1.00  0.00     0.027 C 
ENDROOT
BRANCH   1   2
ATOM      2  C   UNL     1      55.445  50.119   3.829  1.00  0.00     0.004 C 
BRANCH   2   3
ATOM      3  C   UNL     1      55.795  51.605   3.980  1.00  0.00     0.000 C 
BRANCH   3   4
ATOM      4  C   UNL     1      55.208  52.182   5.277  1.00  0.00     0.000 C 
BRANCH   4   5
ATOM      5  C   UNL     1      54.014  53.124   5.006  1.00  0.00     0.000 C 
BRANCH   5   6
ATOM      6  C   UNL     1      52.942  53.089   6.109  1.00  0.00     0.006 C 
BRANCH   6   7
ATOM      7  C   UNL     1      53.495  52.636   7.465  1.00  0.00     0.053 C 
BRANCH   7   8
ATOM      8  C   UNL     1      53.153  51.202   7.715  1.00  0.00     0.041 C 
ATOM      9  O   UNL     1      52.011  50.761   7.419  1.00  0.00    -0.550 OA
ATOM     10  O   UNL     1      54.079  50.362   8.321  1.00  0.00    -0.550 OA
ENDBRANCH   7   8
ENDBRANCH   6   7
ENDBRANCH   5   6
ENDBRANCH   4   5
ENDBRANCH   3   4
ENDBRANCH   2   3
ENDBRANCH   1   2
BRANCH   1  11
ATOM     11  C   UNL     1      52.984  49.655   3.932  1.00  0.00    -0.031 C 
ATOM     12  C   UNL     1      51.785  49.852   4.505  1.00  0.00    -0.027 C 
BRANCH  12  13
ATOM     13  C   UNL     1      50.510  49.762   3.713  1.00  0.00     0.054 C 
BRANCH  13  14
ATOM     14  C   UNL     1      50.059  48.332   3.562  1.00  0.00    -0.027 C 
ATOM     15  C   UNL     1      49.019  47.937   2.803  1.00  0.00    -0.031 C 
BRANCH  15  16
ATOM     16  C   UNL     1      48.191  48.859   1.944  1.00  0.00     0.027 C 
BRANCH  16  17
ATOM     17  C   UNL     1      46.981  49.392   2.726  1.00  0.00     0.004 C 
BRANCH  17  18
ATOM     18  C   UNL     1      47.060  50.907   2.976  1.00  0.00     0.000 C 
BRANCH  18  19
ATOM     19  C   UNL     1      47.150  51.256   4.469  1.00  0.00    -0.003 C 
ATOM     20  C   UNL     1      47.087  49.998   5.332  1.00  0.00     0.004 C 
ENDBRANCH  18  19
ENDBRANCH  17  18
ENDBRANCH  16  17
ENDBRANCH  15  16
ENDBRANCH  13  14
ENDBRANCH  12  13
ENDBRANCH   1  11
TORSDOF 14
ENDMDL
MODEL 5
REMARK VINA RESULT:    -5.510      1.906      2.736
REMARK INTER + INTRA:         -12.603
REMARK INTER:                 -10.621
REMARK INTRA:                  -1.983
REMARK UNBOUND:                -2.584
REMARK SMILES CCCCCC=CCC=CCCCCCCCC(=O)[O-]
REMARK SMILES IDX 11 1 12 2 13 3 14 4 15 5 16 6 17 7 18 8 19 9 20 10 10 11
REMARK SMILES IDX 9 12 8 13 7 14 6 15 5 16 4 17 3 18 2 19 1 20
REMARK H PARENT
REMARK Flexibility Score: inf
ROOT
ATOM      1  C   UNL     1      51.758  49.819   4.843  1.00  0.00     0.027 C 
ENDROOT
BRANCH   1   2
ATOM      2  C   UNL     1      52.971  49.580   3.936  1.00  0.00     0.004 C 
BRANCH   2   3
ATOM      3  C   UNL     1      54.281  49.750   4.715  1.00  0.00     0.000 C 
BRANCH   3   4
ATOM      4  C   UNL     1      55.337  50.478   3.867  1.00  0.00     0.000 C 
BRANCH   4   5
ATOM      5  C   UNL     1      55.443  51.975   4.231  1.00  0.00     0.000 C 
BRANCH   5   6
ATOM      6  C   UNL     1      54.418  52.425   5.287  1.00  0.00     0.006 C 
BRANCH   6   7
ATOM      7  C   UNL     1      55.003  52.471   6.703  1.00  0.00     0.053 C 
BRANCH   7   8
ATOM      8  C   UNL     1      54.027  51.913   7.690  1.00  0.00     0.041 C 
ATOM      9  O   UNL     1      54.360  50.959   8.441  1.00  0.00    -0.550 OA
ATOM     10  O   UNL     1      52.733  52.415   7.746  1.00  0.00    -0.550 OA
ENDBRANCH   7   8
ENDBRANCH   6   7
ENDBRANCH   5   6
ENDBRANCH   4   5
ENDBRANCH   3   4
ENDBRANCH   2   3
ENDBRANCH   1   2
BRANCH   1  11
ATOM     11  C   UNL     1      50.947  50.994   4.370  1.00  0.00    -0.031 C 
ATOM     12  C   UNL     1      50.539  51.953   5.216  1.00  0.00    -0.027 C 
BRANCH  12  13
ATOM     13  C   UNL     1      49.725  53.125   4.743  1.00  0.00     0.054 C 
BRANCH  13  14
ATOM     14  C   UNL     1      49.133  52.868   3.381  1.00  0.00    -0.027 C 
ATOM     15  C   UNL     1      47.886  52.409   3.164  1.00  0.00    -0.031 C 
BRANCH  15  16
ATOM     16  C   UNL     1      46.875  52.142   4.251  1.00  0.00     0.027 C 
BRANCH  16  17
ATOM     17  C   UNL     1      47.073  50.740   4.846  1.00  0.00     0.004 C 
BRANCH  17  18
ATOM     18  C   UNL     1      46.931  49.626   3.796  1.00  0.00     0.000 C 
BRANCH  18  19
ATOM     19  C   UNL     1      48.227  48.825   3.605  1.00  0.00    -0.003 C 
ATOM     20  C   UNL     1      48.548  48.644   2.124  1.00  0.00     0.004 C 
ENDBRANCH  18  19
ENDBRANCH  17  18
ENDBRANCH  16  17
ENDBRANCH  15  16
ENDBRANCH  13  14
ENDBRANCH  12  13
ENDBRANCH   1  11
TORSDOF 14
ENDMDL
MODEL 6
REMARK VINA RESULT:    -5.415      1.835      2.989
REMARK INTER + INTRA:         -12.431
REMARK INTER:                 -10.283
REMARK INTRA:                  -2.147
REMARK UNBOUND:                -2.584
REMARK SMILES CCCCCC=CCC=CCCCCCCCC(=O)[O-]
REMARK SMILES IDX 11 1 12 2 13 3 14 4 15 5 16 6 17 7 18 8 19 9 20 10 10 11
REMARK SMILES IDX 9 12 8 13 7 14 6 15 5 16 4 17 3 18 2 19 1 20
REMARK H PARENT
REMARK Flexibility Score: inf
ROOT
ATOM      1  C   UNL     1      53.530  49.598   4.634  1.00  0.00     0.027 C 
ENDROOT
BRANCH   1   2
ATOM      2  C   UNL     1      54.631  50.210   3.760  1.00  0.00     0.004 C 
BRANCH   2   3
ATOM      3  C   UNL     1      55.602  51.046   4.604  1.00  0.00     0.000 C 
BRANCH   3   4
ATOM      4  C   UNL     1      55.375  52.549   4.378  1.00  0.00     0.000 C 
BRANCH   4   5
ATOM      5  C   UNL     1      54.299  53.123   5.325  1.00  0.00     0.000 C 
BRANCH   5   6
ATOM      6  C   UNL     1      54.719  53.125   6.805  1.00  0.00     0.006 C 
BRANCH   6   7
ATOM      7  C   UNL     1      53.768  52.316   7.695  1.00  0.00     0.053 C 
BRANCH   7   8
ATOM      8  C   UNL     1      54.361  50.981   8.014  1.00  0.00     0.041 C 
ATOM      9  O   UNL     1      53.629  49.957   8.059  1.00  0.00    -0.550 OA
ATOM     10  O   UNL     1      55.714  50.873   8.308  1.00  0.00    -0.550 OA
ENDBRANCH   7   8
ENDBRANCH   6   7
ENDBRANCH   5   6
ENDBRANCH   4   5
ENDBRANCH   3   4
ENDBRANCH   2   3
ENDBRANCH   1   2
BRANCH   1  11
ATOM     11  C   UNL     1      52.297  50.459   4.637  1.00  0.00    -0.031 C 
ATOM     12  C   UNL     1      51.368  50.353   5.601  1.00  0.00    -0.027 C 
BRANCH  12  13
ATOM     13  C   UNL     1      50.133  51.210   5.602  1.00  0.00     0.054 C 
BRANCH  13  14
ATOM     14  C   UNL     1      48.907  50.406   5.952  1.00  0.00    -0.027 C 
ATOM     15  C   UNL     1      47.695  50.579   5.390  1.00  0.00    -0.031 C 
BRANCH  15  16
ATOM     16  C   UNL     1      47.400  51.561   4.284  1.00  0.00     0.027 C 
BRANCH  16  17
ATOM     17  C   UNL     1      48.104  51.147   2.985  1.00  0.00     0.004 C 
BRANCH  17  18
ATOM     18  C   UNL     1      48.112  49.624   2.775  1.00  0.00     0.000 C 
BRANCH  18  19
ATOM     19  C   UNL     1      49.517  49.075   2.481  1.00  0.00    -0.003 C 
ATOM     20  C   UNL     1      49.849  47.897   3.394  1.00  0.00     0.004 C 
ENDBRANCH  18  19
ENDBRANCH  17  18
ENDBRANCH  16  17
ENDBRANCH  15  16
ENDBRANCH  13  14
ENDBRANCH  12  13
ENDBRANCH   1  11
TORSDOF 14
ENDMDL
MODEL 7
REMARK VINA RESULT:    -5.374      1.875      6.228
REMARK INTER + INTRA:         -12.355
REMARK INTER:                 -10.483
REMARK INTRA:                  -1.873
REMARK UNBOUND:                -2.584
REMARK SMILES CCCCCC=CCC=CCCCCCCCC(=O)[O-]
REMARK SMILES IDX 11 1 12 2 13 3 14 4 15 5 16 6 17 7 18 8 19 9 20 10 10 11
REMARK SMILES IDX 9 12 8 13 7 14 6 15 5 16 4 17 3 18 2 19 1 20
REMARK H PARENT
REMARK Flexibility Score: inf
ROOT
ATOM      1  C   UNL     1      49.954  50.287   6.246  1.00  0.00     0.027 C 
ENDROOT
BRANCH   1   2
ATOM      2  C   UNL     1      49.353  51.272   5.236  1.00  0.00     0.004 C 
BRANCH   2   3
ATOM      3  C   UNL     1      47.919  50.873   4.866  1.00  0.00     0.000 C 
BRANCH   3   4
ATOM      4  C   UNL     1      47.588  51.280   3.422  1.00  0.00     0.000 C 
BRANCH   4   5
ATOM      5  C   UNL     1      47.271  50.058   2.532  1.00  0.00     0.000 C 
BRANCH   5   6
ATOM      6  C   UNL     1      48.516  49.240   2.145  1.00  0.00     0.006 C 
BRANCH   6   7
ATOM      7  C   UNL     1      48.516  47.833   2.753  1.00  0.00     0.053 C 
BRANCH   7   8
ATOM      8  C   UNL     1      49.856  47.517   3.338  1.00  0.00     0.041 C 
ATOM      9  O   UNL     1      50.677  48.441   3.579  1.00  0.00    -0.550 OA
ATOM     10  O   UNL     1      50.218  46.197   3.572  1.00  0.00    -0.550 OA
ENDBRANCH   7   8
ENDBRANCH   6   7
ENDBRANCH   5   6
ENDBRANCH   4   5
ENDBRANCH   3   4
ENDBRANCH   2   3
ENDBRANCH   1   2
BRANCH   1  11
ATOM     11  C   UNL     1      51.022  50.943   7.077  1.00  0.00    -0.031 C 
ATOM     12  C   UNL     1      51.368  52.227   6.892  1.00  0.00    -0.027 C 
BRANCH  12  13
ATOM     13  C   UNL     1      52.439  52.881   7.721  1.00  0.00     0.054 C 
BRANCH  13  14
ATOM     14  C   UNL     1      53.645  51.987   7.863  1.00  0.00    -0.027 C 
ATOM     15  C   UNL     1      54.754  52.078   7.105  1.00  0.00    -0.031 C 
BRANCH  15  16
ATOM     16  C   UNL     1      54.980  53.125   6.044  1.00  0.00     0.027 C 
BRANCH  16  17
ATOM     17  C   UNL     1      54.654  52.568   4.650  1.00  0.00     0.004 C 
BRANCH  17  18
ATOM     18  C   UNL     1      55.614  51.445   4.223  1.00  0.00     0.000 C 
BRANCH  18  19
ATOM     19  C   UNL     1      54.906  50.091   4.064  1.00  0.00    -0.003 C 
ATOM     20  C   UNL     1      53.399  50.232   4.261  1.00  0.00     0.004 C 
ENDBRANCH  18  19
ENDBRANCH  17  18
ENDBRANCH  16  17
ENDBRANCH  15  16
ENDBRANCH  13  14
ENDBRANCH  12  13
ENDBRANCH   1  11
TORSDOF 14
ENDMDL
MODEL 8
REMARK VINA RESULT:    -5.303      2.375      6.477
REMARK INTER + INTRA:         -12.228
REMARK INTER:                 -10.824
REMARK INTRA:                  -1.404
REMARK UNBOUND:                -2.584
REMARK SMILES CCCCCC=CCC=CCCCCCCCC(=O)[O-]
REMARK SMILES IDX 11 1 12 2 13 3 14 4 15 5 16 6 17 7 18 8 19 9 20 10 10 11
REMARK SMILES IDX 9 12 8 13 7 14 6 15 5 16 4 17 3 18 2 19 1 20
REMARK H PARENT
REMARK Flexibility Score: inf
ROOT
ATOM      1  C   UNL     1      50.944  49.649   4.271  1.00  0.00     0.027 C 
ENDROOT
BRANCH   1   2
ATOM      2  C   UNL     1      50.592  50.730   5.300  1.00  0.00     0.004 C 
BRANCH   2   3
ATOM      3  C   UNL     1      50.142  52.022   4.606  1.00  0.00     0.000 C 
BRANCH   3   4
ATOM      4  C   UNL     1      49.122  51.727   3.496  1.00  0.00     0.000 C 
BRANCH   4   5
ATOM      5  C   UNL     1      47.703  51.494   4.058  1.00  0.00     0.000 C 
BRANCH   5   6
ATOM      6  C   UNL     1      46.899  50.439   3.278  1.00  0.00     0.006 C 
BRANCH   6   7
ATOM      7  C   UNL     1      47.257  49.002   3.676  1.00  0.00     0.053 C 
BRANCH   7   8
ATOM      8  C   UNL     1      47.912  48.291   2.534  1.00  0.00     0.041 C 
ATOM      9  O   UNL     1      48.830  47.457   2.750  1.00  0.00    -0.550 OA
ATOM     10  O   UNL     1      47.541  48.585   1.228  1.00  0.00    -0.550 OA
ENDBRANCH   7   8
ENDBRANCH   6   7
ENDBRANCH   5   6
ENDBRANCH   4   5
ENDBRANCH   3   4
ENDBRANCH   2   3
ENDBRANCH   1   2
BRANCH   1  11
ATOM     11  C   UNL     1      52.426  49.395   4.235  1.00  0.00    -0.031 C 
ATOM     12  C   UNL     1      53.314  50.401   4.281  1.00  0.00    -0.027 C 
BRANCH  12  13
ATOM     13  C   UNL     1      54.795  50.147   4.241  1.00  0.00     0.054 C 
BRANCH  13  14
ATOM     14  C   UNL     1      55.569  51.433   4.104  1.00  0.00    -0.027 C 
ATOM     15  C   UNL     1      55.123  52.638   4.505  1.00  0.00    -0.031 C 
BRANCH  15  16
ATOM     16  C   UNL     1      53.808  52.871   5.206  1.00  0.00     0.027 C 
BRANCH  16  17
ATOM     17  C   UNL     1      54.014  52.999   6.723  1.00  0.00     0.004 C 
BRANCH  17  18
ATOM     18  C   UNL     1      52.953  52.234   7.531  1.00  0.00     0.000 C 
BRANCH  18  19
ATOM     19  C   UNL     1      53.314  50.755   7.728  1.00  0.00    -0.003 C 
ATOM     20  C   UNL     1      54.734  50.603   8.268  1.00  0.00     0.004 C 
ENDBRANCH  18  19
ENDBRANCH  17  18
ENDBRANCH  16  17
ENDBRANCH  15  16
ENDBRANCH  13  14
ENDBRANCH  12  13
ENDBRANCH   1  11
TORSDOF 14
ENDMDL
