MODEL 1
REMARK VINA RESULT:    -4.427      0.000      0.000
REMARK INTER + INTRA:          -5.883
REMARK INTER:                  -5.721
REMARK INTRA:                  -0.162
REMARK UNBOUND:                -0.162
REMARK SMILES CCO[C@@H]1O[C@H](CO)[C@@H](O)[C@@H](O)[C@H]1O
REMARK SMILES IDX 4 1 13 2 11 3 9 4 6 5 5 6 3 7 2 8 1 9 14 10 12 12 7 14 8 15
REMARK SMILES IDX 10 17
REMARK H PARENT 14 11 12 13 8 16 10 18
REMARK Flexibility Score: inf
ROOT
ATOM      1  C   UNL     1      10.502  -6.212   2.093  1.00  0.00     0.281 C 
ATOM      2  C   UNL     1       9.202  -5.509   2.566  1.00  0.00     0.202 C 
ATOM      3  C   UNL     1       9.356  -3.974   2.509  1.00  0.00     0.179 C 
ATOM      4  C   UNL     1      10.170  -3.551   1.270  1.00  0.00     0.177 C 
ATOM      5  C   UNL     1      11.546  -4.292   1.250  1.00  0.00     0.178 C 
ATOM      6  O   UNL     1      11.619  -5.338   2.209  1.00  0.00    -0.341 OA
ENDROOT
BRANCH   1   7
ATOM      7  O   UNL     1      10.663  -7.439   2.803  1.00  0.00    -0.350 OA
BRANCH   7   8
ATOM      8  C   UNL     1      10.424  -8.610   2.039  1.00  0.00     0.160 C 
ATOM      9  C   UNL     1      11.626  -8.988   1.174  1.00  0.00     0.035 C 
ENDBRANCH   7   8
ENDBRANCH   1   7
BRANCH   2  10
ATOM     10  O   UNL     1       8.121  -5.913   1.764  1.00  0.00    -0.385 OA
ATOM     11  H   UNL     1       7.404  -6.214   2.382  1.00  0.00     0.211 HD
ENDBRANCH   2  10
BRANCH   3  12
ATOM     12  O   UNL     1       8.092  -3.360   2.514  1.00  0.00    -0.387 OA
ATOM     13  H   UNL     1       7.880  -3.148   3.461  1.00  0.00     0.211 HD
ENDBRANCH   3  12
BRANCH   5  14
ATOM     14  C   UNL     1      12.695  -3.314   1.522  1.00  0.00     0.191 C 
BRANCH  14  15
ATOM     15  O   UNL     1      13.449  -3.131   0.354  1.00  0.00    -0.394 OA
ATOM     16  H   UNL     1      13.194  -2.239   0.001  1.00  0.00     0.210 HD
ENDBRANCH  14  15
ENDBRANCH   5  14
BRANCH   4  17
ATOM     17  O   UNL     1       9.461  -3.862   0.096  1.00  0.00    -0.387 OA
ATOM     18  H   UNL     1      10.002  -4.527  -0.405  1.00  0.00     0.211 HD
ENDBRANCH   4  17
TORSDOF 7
ENDMDL
MODEL 2
REMARK VINA RESULT:    -3.893      1.822      4.029
REMARK INTER + INTRA:          -5.193
REMARK INTER:                  -5.038
REMARK INTRA:                  -0.155
REMARK UNBOUND:                -0.162
REMARK SMILES CCO[C@@H]1O[C@H](CO)[C@@H](O)[C@@H](O)[C@H]1O
REMARK SMILES IDX 4 1 13 2 11 3 9 4 6 5 5 6 3 7 2 8 1 9 14 10 12 12 7 14 8 15
REMARK SMILES IDX 10 17
REMARK H PARENT 14 11 12 13 8 16 10 18
REMARK Flexibility Score: inf
ROOT
ATOM      1  C   UNL     1       8.353  -5.768   2.467  1.00  0.00     0.281 C 
ATOM      2  C   UNL     1       9.087  -7.130   2.585  1.00  0.00     0.202 C 
ATOM      3  C   UNL     1      10.492  -7.054   1.952  1.00  0.00     0.179 C 
ATOM      4  C   UNL     1      11.148  -5.688   2.237  1.00  0.00     0.177 C 
ATOM      5  C   UNL     1      10.212  -4.530   1.759  1.00  0.00     0.178 C 
ATOM      6  O   UNL     1       8.910  -4.985   1.417  1.00  0.00    -0.341 OA
ENDROOT
BRANCH   1   7
ATOM      7  O   UNL     1       6.951  -5.994   2.327  1.00  0.00    -0.350 OA
BRANCH   7   8
ATOM      8  C   UNL     1       6.131  -5.218   3.184  1.00  0.00     0.160 C 
ATOM      9  C   UNL     1       4.899  -4.672   2.463  1.00  0.00     0.035 C 
ENDBRANCH   7   8
ENDBRANCH   1   7
BRANCH   2  10
ATOM     10  O   UNL     1       9.188  -7.502   3.936  1.00  0.00    -0.385 OA
ATOM     11  H   UNL     1       9.907  -8.186   3.991  1.00  0.00     0.211 HD
ENDBRANCH   2  10
BRANCH   3  12
ATOM     12  O   UNL     1      11.295  -8.106   2.426  1.00  0.00    -0.387 OA
ATOM     13  H   UNL     1      12.084  -7.690   2.863  1.00  0.00     0.211 HD
ENDBRANCH   3  12
BRANCH   5  14
ATOM     14  C   UNL     1      10.806  -3.819   0.537  1.00  0.00     0.191 C 
BRANCH  14  15
ATOM     15  O   UNL     1       9.792  -3.543  -0.390  1.00  0.00    -0.394 OA
ATOM     16  H   UNL     1      10.213  -2.995  -1.102  1.00  0.00     0.210 HD
ENDBRANCH  14  15
ENDBRANCH   5  14
BRANCH   4  17
ATOM     17  O   UNL     1      11.391  -5.546   3.615  1.00  0.00    -0.387 OA
ATOM     18  H   UNL     1      11.290  -4.582   3.832  1.00  0.00     0.211 HD
ENDBRANCH   4  17
TORSDOF 7
ENDMDL
MODEL 3
REMARK VINA RESULT:    -3.870      2.362      4.905
REMARK INTER + INTRA:          -5.163
REMARK INTER:                  -4.930
REMARK INTRA:                  -0.233
REMARK UNBOUND:                -0.162
REMARK SMILES CCO[C@@H]1O[C@H](CO)[C@@H](O)[C@@H](O)[C@H]1O
REMARK SMILES IDX 4 1 13 2 11 3 9 4 6 5 5 6 3 7 2 8 1 9 14 10 12 12 7 14 8 15
REMARK SMILES IDX 10 17
REMARK H PARENT 14 11 12 13 8 16 10 18
REMARK Flexibility Score: inf
ROOT
ATOM      1  C   UNL     1       8.873  -4.357   2.640  1.00  0.00     0.281 C 
ATOM      2  C   UNL     1       8.666  -5.890   2.765  1.00  0.00     0.202 C 
ATOM      3  C   UNL     1       7.273  -6.212   3.345  1.00  0.00     0.179 C 
ATOM      4  C   UNL     1       6.213  -5.236   2.797  1.00  0.00     0.177 C 
ATOM      5  C   UNL     1       6.647  -3.760   3.068  1.00  0.00     0.178 C 
ATOM      6  O   UNL     1       7.993  -3.658   3.514  1.00  0.00    -0.341 OA
ENDROOT
BRANCH   1   7
ATOM      7  O   UNL     1      10.249  -4.044   2.847  1.00  0.00    -0.350 OA
BRANCH   7   8
ATOM      8  C   UNL     1      10.809  -3.149   1.901  1.00  0.00     0.160 C 
ATOM      9  C   UNL     1      11.437  -3.883   0.716  1.00  0.00     0.035 C 
ENDBRANCH   7   8
ENDBRANCH   1   7
BRANCH   2  10
ATOM     10  O   UNL     1       8.814  -6.496   1.505  1.00  0.00    -0.385 OA
ATOM     11  H   UNL     1       9.325  -5.859   0.940  1.00  0.00     0.211 HD
ENDBRANCH   2  10
BRANCH   3  12
ATOM     12  O   UNL     1       6.926  -7.544   3.061  1.00  0.00    -0.387 OA
ATOM     13  H   UNL     1       7.665  -8.112   3.402  1.00  0.00     0.211 HD
ENDBRANCH   3  12
BRANCH   5  14
ATOM     14  C   UNL     1       5.745  -3.110   4.123  1.00  0.00     0.191 C 
BRANCH  14  15
ATOM     15  O   UNL     1       4.486  -3.728   4.115  1.00  0.00    -0.394 OA
ATOM     16  H   UNL     1       3.874  -3.110   4.594  1.00  0.00     0.210 HD
ENDBRANCH  14  15
ENDBRANCH   5  14
BRANCH   4  17
ATOM     17  O   UNL     1       6.053  -5.424   1.412  1.00  0.00    -0.387 OA
ATOM     18  H   UNL     1       6.430  -6.315   1.192  1.00  0.00     0.211 HD
ENDBRANCH   4  17
TORSDOF 7
ENDMDL
MODEL 4
REMARK VINA RESULT:    -3.859      1.700      4.105
REMARK INTER + INTRA:          -5.149
REMARK INTER:                  -4.974
REMARK INTRA:                  -0.175
REMARK UNBOUND:                -0.162
REMARK SMILES CCO[C@@H]1O[C@H](CO)[C@@H](O)[C@@H](O)[C@H]1O
REMARK SMILES IDX 4 1 13 2 11 3 9 4 6 5 5 6 3 7 2 8 1 9 14 10 12 12 7 14 8 15
REMARK SMILES IDX 10 17
REMARK H PARENT 14 11 12 13 8 16 10 18
REMARK Flexibility Score: inf
ROOT
ATOM      1  C   UNL     1      11.812  -3.699   2.001  1.00  0.00     0.281 C 
ATOM      2  C   UNL     1      10.572  -3.886   1.087  1.00  0.00     0.202 C 
ATOM      3  C   UNL     1       9.766  -5.134   1.501  1.00  0.00     0.179 C 
ATOM      4  C   UNL     1       9.743  -5.288   3.035  1.00  0.00     0.177 C 
ATOM      5  C   UNL     1      11.202  -5.303   3.597  1.00  0.00     0.178 C 
ATOM      6  O   UNL     1      12.168  -4.929   2.624  1.00  0.00    -0.341 OA
ENDROOT
BRANCH   1   7
ATOM      7  O   UNL     1      12.874  -3.115   1.249  1.00  0.00    -0.350 OA
BRANCH   7   8
ATOM      8  C   UNL     1      13.781  -2.330   2.004  1.00  0.00     0.160 C 
ATOM      9  C   UNL     1      15.085  -3.074   2.291  1.00  0.00     0.035 C 
ENDBRANCH   7   8
ENDBRANCH   1   7
BRANCH   2  10
ATOM     10  O   UNL     1       9.756  -2.743   1.152  1.00  0.00    -0.385 OA
ATOM     11  H   UNL     1       9.550  -2.594   2.112  1.00  0.00     0.211 HD
ENDBRANCH   2  10
BRANCH   3  12
ATOM     12  O   UNL     1       8.461  -5.063   0.983  1.00  0.00    -0.387 OA
ATOM     13  H   UNL     1       8.547  -4.998  -0.004  1.00  0.00     0.211 HD
ENDBRANCH   3  12
BRANCH   5  14
ATOM     14  C   UNL     1      11.569  -6.695   4.124  1.00  0.00     0.191 C 
BRANCH  14  15
ATOM     15  O   UNL     1      11.823  -7.557   3.048  1.00  0.00    -0.394 OA
ATOM     16  H   UNL     1      12.501  -8.207   3.371  1.00  0.00     0.210 HD
ENDBRANCH  14  15
ENDBRANCH   5  14
BRANCH   4  17
ATOM     17  O   UNL     1       9.035  -4.221   3.618  1.00  0.00    -0.387 OA
ATOM     18  H   UNL     1       9.098  -3.453   2.993  1.00  0.00     0.211 HD
ENDBRANCH   4  17
TORSDOF 7
ENDMDL
MODEL 5
REMARK VINA RESULT:    -3.853      2.426      3.724
REMARK INTER + INTRA:          -5.141
REMARK INTER:                  -4.890
REMARK INTRA:                  -0.250
REMARK UNBOUND:                -0.162
REMARK SMILES CCO[C@@H]1O[C@H](CO)[C@@H](O)[C@@H](O)[C@H]1O
REMARK SMILES IDX 4 1 13 2 11 3 9 4 6 5 5 6 3 7 2 8 1 9 14 10 12 12 7 14 8 15
REMARK SMILES IDX 10 17
REMARK H PARENT 14 11 12 13 8 16 10 18
REMARK Flexibility Score: inf
ROOT
ATOM      1  C   UNL     1       9.138  -4.269   3.305  1.00  0.00     0.281 C 
ATOM      2  C   UNL     1       8.874  -4.054   1.791  1.00  0.00     0.202 C 
ATOM      3  C   UNL     1      10.046  -3.300   1.130  1.00  0.00     0.179 C 
ATOM      4  C   UNL     1      11.395  -3.760   1.718  1.00  0.00     0.177 C 
ATOM      5  C   UNL     1      11.385  -3.606   3.273  1.00  0.00     0.178 C 
ATOM      6  O   UNL     1      10.090  -3.328   3.788  1.00  0.00    -0.341 OA
ENDROOT
BRANCH   1   7
ATOM      7  O   UNL     1       7.900  -4.240   4.012  1.00  0.00    -0.350 OA
BRANCH   7   8
ATOM      8  C   UNL     1       7.039  -3.166   3.671  1.00  0.00     0.160 C 
ATOM      9  C   UNL     1       5.592  -3.623   3.488  1.00  0.00     0.035 C 
ENDBRANCH   7   8
ENDBRANCH   1   7
BRANCH   2  10
ATOM     10  O   UNL     1       8.684  -5.295   1.159  1.00  0.00    -0.385 OA
ATOM     11  H   UNL     1       7.721  -5.350   0.921  1.00  0.00     0.211 HD
ENDBRANCH   2  10
BRANCH   3  12
ATOM     12  O   UNL     1      10.016  -3.483  -0.264  1.00  0.00    -0.387 OA
ATOM     13  H   UNL     1       9.570  -4.354  -0.429  1.00  0.00     0.211 HD
ENDBRANCH   3  12
BRANCH   5  14
ATOM     14  C   UNL     1      12.327  -2.480   3.716  1.00  0.00     0.191 C 
BRANCH  14  15
ATOM     15  O   UNL     1      13.102  -2.055   2.628  1.00  0.00    -0.394 OA
ATOM     16  H   UNL     1      12.956  -2.723   1.909  1.00  0.00     0.210 HD
ENDBRANCH  14  15
ENDBRANCH   5  14
BRANCH   4  17
ATOM     17  O   UNL     1      11.632  -5.106   1.389  1.00  0.00    -0.387 OA
ATOM     18  H   UNL     1      12.372  -5.119   0.727  1.00  0.00     0.211 HD
ENDBRANCH   4  17
TORSDOF 7
ENDMDL
MODEL 6
REMARK VINA RESULT:    -3.765      2.180      4.186
REMARK INTER + INTRA:          -5.027
REMARK INTER:                  -4.837
REMARK INTRA:                  -0.190
REMARK UNBOUND:                -0.162
REMARK SMILES CCO[C@@H]1O[C@H](CO)[C@@H](O)[C@@H](O)[C@H]1O
REMARK SMILES IDX 4 1 13 2 11 3 9 4 6 5 5 6 3 7 2 8 1 9 14 10 12 12 7 14 8 15
REMARK SMILES IDX 10 17
REMARK H PARENT 14 11 12 13 8 16 10 18
REMARK Flexibility Score: inf
ROOT
ATOM      1  C   UNL     1       7.442  -5.376   3.178  1.00  0.00     0.281 C 
ATOM      2  C   UNL     1       8.348  -4.175   3.557  1.00  0.00     0.202 C 
ATOM      3  C   UNL     1       9.815  -4.448   3.165  1.00  0.00     0.179 C 
ATOM      4  C   UNL     1       9.892  -5.203   1.823  1.00  0.00     0.177 C 
ATOM      5  C   UNL     1       9.037  -6.510   1.890  1.00  0.00     0.178 C 
ATOM      6  O   UNL     1       8.212  -6.566   3.046  1.00  0.00    -0.341 OA
ENDROOT
BRANCH   1   7
ATOM      7  O   UNL     1       6.380  -5.488   4.125  1.00  0.00    -0.350 OA
BRANCH   7   8
ATOM      8  C   UNL     1       5.191  -4.799   3.776  1.00  0.00     0.160 C 
ATOM      9  C   UNL     1       4.944  -4.806   2.268  1.00  0.00     0.035 C 
ENDBRANCH   7   8
ENDBRANCH   1   7
BRANCH   2  10
ATOM     10  O   UNL     1       7.889  -3.011   2.918  1.00  0.00    -0.385 OA
ATOM     11  H   UNL     1       8.633  -2.687   2.346  1.00  0.00     0.211 HD
ENDBRANCH   2  10
BRANCH   3  12
ATOM     12  O   UNL     1      10.534  -3.241   3.105  1.00  0.00    -0.387 OA
ATOM     13  H   UNL     1      10.361  -2.849   2.210  1.00  0.00     0.211 HD
ENDBRANCH   3  12
BRANCH   5  14
ATOM     14  C   UNL     1       9.937  -7.751   1.885  1.00  0.00     0.191 C 
BRANCH  14  15
ATOM     15  O   UNL     1      11.282  -7.362   1.822  1.00  0.00    -0.394 OA
ATOM     16  H   UNL     1      11.373  -6.818   0.997  1.00  0.00     0.210 HD
ENDBRANCH  14  15
ENDBRANCH   5  14
BRANCH   4  17
ATOM     17  O   UNL     1       9.411  -4.389   0.782  1.00  0.00    -0.387 OA
ATOM     18  H   UNL     1       8.522  -4.745   0.520  1.00  0.00     0.211 HD
ENDBRANCH   4  17
TORSDOF 7
ENDMDL
MODEL 7
REMARK VINA RESULT:    -3.658      2.130      4.474
REMARK INTER + INTRA:          -4.889
REMARK INTER:                  -4.674
REMARK INTRA:                  -0.215
REMARK UNBOUND:                -0.162
REMARK SMILES CCO[C@@H]1O[C@H](CO)[C@@H](O)[C@@H](O)[C@H]1O
REMARK SMILES IDX 4 1 13 2 11 3 9 4 6 5 5 6 3 7 2 8 1 9 14 10 12 12 7 14 8 15
REMARK SMILES IDX 10 17
REMARK H PARENT 14 11 12 13 8 16 10 18
REMARK Flexibility Score: inf
ROOT
ATOM      1  C   UNL     1      10.600  -3.894   3.092  1.00  0.00     0.281 C 
ATOM      2  C   UNL     1      10.639  -5.443   3.016  1.00  0.00     0.202 C 
ATOM      3  C   UNL     1       9.221  -6.036   3.148  1.00  0.00     0.179 C 
ATOM      4  C   UNL     1       8.189  -5.157   2.413  1.00  0.00     0.177 C 
ATOM      5  C   UNL     1       8.272  -3.683   2.927  1.00  0.00     0.178 C 
ATOM      6  O   UNL     1       9.413  -3.451   3.742  1.00  0.00    -0.341 OA
ENDROOT
BRANCH   1   7
ATOM      7  O   UNL     1      11.796  -3.418   3.706  1.00  0.00    -0.350 OA
BRANCH   7   8
ATOM      8  C   UNL     1      12.444  -2.362   3.017  1.00  0.00     0.160 C 
ATOM      9  C   UNL     1      13.360  -2.875   1.907  1.00  0.00     0.035 C 
ENDBRANCH   7   8
ENDBRANCH   1   7
BRANCH   2  10
ATOM     10  O   UNL     1      11.217  -5.847   1.799  1.00  0.00    -0.385 OA
ATOM     11  H   UNL     1      11.369  -5.021   1.268  1.00  0.00     0.211 HD
ENDBRANCH   2  10
BRANCH   3  12
ATOM     12  O   UNL     1       9.198  -7.354   2.658  1.00  0.00    -0.387 OA
ATOM     13  H   UNL     1       9.696  -7.911   3.312  1.00  0.00     0.211 HD
ENDBRANCH   3  12
BRANCH   5  14
ATOM     14  C   UNL     1       7.024  -3.318   3.738  1.00  0.00     0.191 C 
BRANCH  14  15
ATOM     15  O   UNL     1       5.893  -3.351   2.911  1.00  0.00    -0.394 OA
ATOM     16  H   UNL     1       6.091  -4.017   2.202  1.00  0.00     0.210 HD
ENDBRANCH  14  15
ENDBRANCH   5  14
BRANCH   4  17
ATOM     17  O   UNL     1       8.435  -5.177   1.028  1.00  0.00    -0.387 OA
ATOM     18  H   UNL     1       9.067  -4.438   0.833  1.00  0.00     0.211 HD
ENDBRANCH   4  17
TORSDOF 7
ENDMDL
MODEL 8
REMARK VINA RESULT:    -3.619      1.594      3.451
REMARK INTER + INTRA:          -4.838
REMARK INTER:                  -4.611
REMARK INTRA:                  -0.228
REMARK UNBOUND:                -0.162
REMARK SMILES CCO[C@@H]1O[C@H](CO)[C@@H](O)[C@@H](O)[C@H]1O
REMARK SMILES IDX 4 1 13 2 11 3 9 4 6 5 5 6 3 7 2 8 1 9 14 10 12 12 7 14 8 15
REMARK SMILES IDX 10 17
REMARK H PARENT 14 11 12 13 8 16 10 18
REMARK Flexibility Score: inf
ROOT
ATOM      1  C   UNL     1      10.580  -6.499   2.227  1.00  0.00     0.281 C 
ATOM      2  C   UNL     1      11.211  -5.123   1.886  1.00  0.00     0.202 C 
ATOM      3  C   UNL     1      10.118  -4.072   1.603  1.00  0.00     0.179 C 
ATOM      4  C   UNL     1       8.914  -4.264   2.548  1.00  0.00     0.177 C 
ATOM      5  C   UNL     1       8.378  -5.729   2.447  1.00  0.00     0.178 C 
ATOM      6  O   UNL     1       9.252  -6.583   1.721  1.00  0.00    -0.341 OA
ENDROOT
BRANCH   1   7
ATOM      7  O   UNL     1      11.433  -7.542   1.760  1.00  0.00    -0.350 OA
BRANCH   7   8
ATOM      8  C   UNL     1      11.562  -8.649   2.637  1.00  0.00     0.160 C 
ATOM      9  C   UNL     1      12.528  -8.362   3.787  1.00  0.00     0.035 C 
ENDBRANCH   7   8
ENDBRANCH   1   7
BRANCH   2  10
ATOM     10  O   UNL     1      12.025  -4.695   2.948  1.00  0.00    -0.385 OA
ATOM     11  H   UNL     1      12.176  -3.722   2.818  1.00  0.00     0.211 HD
ENDBRANCH   2  10
BRANCH   3  12
ATOM     12  O   UNL     1      10.649  -2.776   1.722  1.00  0.00    -0.387 OA
ATOM     13  H   UNL     1      11.384  -2.827   2.387  1.00  0.00     0.211 HD
ENDBRANCH   3  12
BRANCH   5  14
ATOM     14  C   UNL     1       7.005  -5.760   1.765  1.00  0.00     0.191 C 
BRANCH  14  15
ATOM     15  O   UNL     1       7.165  -5.705   0.374  1.00  0.00    -0.394 OA
ATOM     16  H   UNL     1       6.255  -5.579  -0.003  1.00  0.00     0.210 HD
ENDBRANCH  14  15
ENDBRANCH   5  14
BRANCH   4  17
ATOM     17  O   UNL     1       9.297  -4.004   3.876  1.00  0.00    -0.387 OA
ATOM     18  H   UNL     1       9.314  -3.017   3.987  1.00  0.00     0.211 HD
ENDBRANCH   4  17
TORSDOF 7
ENDMDL
MODEL 9
REMARK VINA RESULT:    -3.509      1.399      4.058
REMARK INTER + INTRA:          -4.696
REMARK INTER:                  -4.545
REMARK INTRA:                  -0.151
REMARK UNBOUND:                -0.162
REMARK SMILES CCO[C@@H]1O[C@H](CO)[C@@H](O)[C@@H](O)[C@H]1O
REMARK SMILES IDX 4 1 13 2 11 3 9 4 6 5 5 6 3 7 2 8 1 9 14 10 12 12 7 14 8 15
REMARK SMILES IDX 10 17
REMARK H PARENT 14 11 12 13 8 16 10 18
REMARK Flexibility Score: inf
ROOT
ATOM      1  C   UNL     1      10.792  -4.913   2.018  1.00  0.00     0.281 C 
ATOM      2  C   UNL     1       9.364  -4.590   1.506  1.00  0.00     0.202 C 
ATOM      3  C   UNL     1       8.481  -5.855   1.503  1.00  0.00     0.179 C 
ATOM      4  C   UNL     1       8.783  -6.737   2.732  1.00  0.00     0.177 C 
ATOM      5  C   UNL     1      10.309  -7.071   2.794  1.00  0.00     0.178 C 
ATOM      6  O   UNL     1      11.076  -6.301   1.877  1.00  0.00    -0.341 OA
ENDROOT
BRANCH   1   7
ATOM      7  O   UNL     1      11.735  -4.070   1.359  1.00  0.00    -0.350 OA
BRANCH   7   8
ATOM      8  C   UNL     1      12.311  -3.062   2.174  1.00  0.00     0.160 C 
ATOM      9  C   UNL     1      13.786  -2.830   1.846  1.00  0.00     0.035 C 
ENDBRANCH   7   8
ENDBRANCH   1   7
BRANCH   2  10
ATOM     10  O   UNL     1       8.780  -3.599   2.313  1.00  0.00    -0.385 OA
ATOM     11  H   UNL     1       8.359  -4.068   3.081  1.00  0.00     0.211 HD
ENDBRANCH   2  10
BRANCH   3  12
ATOM     12  O   UNL     1       7.122  -5.499   1.462  1.00  0.00    -0.387 OA
ATOM     13  H   UNL     1       6.958  -5.097   0.569  1.00  0.00     0.211 HD
ENDBRANCH   3  12
BRANCH   5  14
ATOM     14  C   UNL     1      10.555  -8.554   2.494  1.00  0.00     0.191 C 
BRANCH  14  15
ATOM     15  O   UNL     1      11.779  -8.707   1.828  1.00  0.00    -0.394 OA
ATOM     16  H   UNL     1      12.427  -9.019   2.513  1.00  0.00     0.210 HD
ENDBRANCH  14  15
ENDBRANCH   5  14
BRANCH   4  17
ATOM     17  O   UNL     1       8.409  -6.067   3.911  1.00  0.00    -0.387 OA
ATOM     18  H   UNL     1       7.521  -6.421   4.179  1.00  0.00     0.211 HD
ENDBRANCH   4  17
TORSDOF 7
ENDMDL
