MODEL 1
REMARK VINA RESULT:    -5.171      0.000      0.000
REMARK INTER + INTRA:          -5.972
REMARK INTER:                  -5.926
REMARK INTRA:                  -0.046
REMARK UNBOUND:                -0.046
REMARK SMILES O=C([O-])c1cc(O)c(O)c(O)c1
REMARK SMILES IDX 4 1 5 2 12 3 6 4 10 5 8 6 2 7 1 8 3 9 7 10 11 12 9 14
REMARK H PARENT 7 11 11 13 9 15
REMARK Flexibility Score: inf
ROOT
ATOM      1  C   UNL     1       5.921  -2.589  18.018  1.00  0.00     0.005 A 
ATOM      2  C   UNL     1       4.830  -2.579  17.132  1.00  0.00     0.060 A 
ATOM      3  C   UNL     1       7.214  -2.376  17.511  1.00  0.00     0.060 A 
ATOM      4  C   UNL     1       5.028  -2.359  15.761  1.00  0.00     0.162 A 
ATOM      5  C   UNL     1       7.416  -2.156  16.141  1.00  0.00     0.162 A 
ATOM      6  C   UNL     1       6.320  -2.147  15.264  1.00  0.00     0.200 A 
ENDROOT
BRANCH   1   7
ATOM      7  C   UNL     1       5.716  -2.821  19.466  1.00  0.00     0.072 C 
ATOM      8  O   UNL     1       5.353  -3.951  19.888  1.00  0.00    -0.545 OA
ATOM      9  O   UNL     1       5.921  -1.794  20.380  1.00  0.00    -0.545 OA
ENDBRANCH   1   7
BRANCH   4  10
ATOM     10  O   UNL     1       3.943  -2.350  14.886  1.00  0.00    -0.504 OA
ATOM     11  H   UNL     1       4.012  -1.942  13.960  1.00  0.00     0.293 HD
ENDBRANCH   4  10
BRANCH   5  12
ATOM     12  O   UNL     1       8.705  -1.946  15.650  1.00  0.00    -0.504 OA
ATOM     13  H   UNL     1       9.513  -1.952  16.260  1.00  0.00     0.293 HD
ENDBRANCH   5  12
BRANCH   6  14
ATOM     14  O   UNL     1       6.496  -1.931  13.897  1.00  0.00    -0.502 OA
ATOM     15  H   UNL     1       7.415  -1.892  13.472  1.00  0.00     0.293 HD
ENDBRANCH   6  14
TORSDOF 4
ENDMDL
MODEL 2
REMARK VINA RESULT:    -5.164      1.663      3.320
REMARK INTER + INTRA:          -5.965
REMARK INTER:                  -5.914
REMARK INTRA:                  -0.051
REMARK UNBOUND:                -0.046
REMARK SMILES O=C([O-])c1cc(O)c(O)c(O)c1
REMARK SMILES IDX 4 1 5 2 12 3 6 4 10 5 8 6 2 7 1 8 3 9 7 10 11 12 9 14
REMARK H PARENT 7 11 11 13 9 15
REMARK Flexibility Score: inf
ROOT
ATOM      1  C   UNL     1       4.267  -2.410  16.596  1.00  0.00     0.005 A 
ATOM      2  C   UNL     1       5.265  -2.535  17.578  1.00  0.00     0.060 A 
ATOM      3  C   UNL     1       4.647  -2.162  15.267  1.00  0.00     0.060 A 
ATOM      4  C   UNL     1       6.620  -2.413  17.238  1.00  0.00     0.162 A 
ATOM      5  C   UNL     1       6.001  -2.040  14.921  1.00  0.00     0.162 A 
ATOM      6  C   UNL     1       6.989  -2.166  15.910  1.00  0.00     0.200 A 
ENDROOT
BRANCH   1   7
ATOM      7  C   UNL     1       2.836  -2.538  16.953  1.00  0.00     0.072 C 
ATOM      8  O   UNL     1       2.435  -2.237  18.109  1.00  0.00    -0.545 OA
ATOM      9  O   UNL     1       1.914  -2.992  16.017  1.00  0.00    -0.545 OA
ENDBRANCH   1   7
BRANCH   4  10
ATOM     10  O   UNL     1       7.605  -2.538  18.215  1.00  0.00    -0.504 OA
ATOM     11  H   UNL     1       7.371  -2.727  19.184  1.00  0.00     0.293 HD
ENDBRANCH   4  10
BRANCH   5  12
ATOM     12  O   UNL     1       6.364  -1.793  13.598  1.00  0.00    -0.504 OA
ATOM     13  H   UNL     1       5.689  -1.481  12.910  1.00  0.00     0.293 HD
ENDBRANCH   5  12
BRANCH   6  14
ATOM     14  O   UNL     1       8.342  -2.048  15.591  1.00  0.00    -0.502 OA
ATOM     15  H   UNL     1       9.069  -2.451  16.171  1.00  0.00     0.293 HD
ENDBRANCH   6  14
TORSDOF 4
ENDMDL
MODEL 3
REMARK VINA RESULT:    -5.096      1.549      3.254
REMARK INTER + INTRA:          -5.887
REMARK INTER:                  -5.841
REMARK INTRA:                  -0.045
REMARK UNBOUND:                -0.046
REMARK SMILES O=C([O-])c1cc(O)c(O)c(O)c1
REMARK SMILES IDX 4 1 5 2 12 3 6 4 10 5 8 6 2 7 1 8 3 9 7 10 11 12 9 14
REMARK H PARENT 7 11 11 13 9 15
REMARK Flexibility Score: inf
ROOT
ATOM      1  C   UNL     1       7.144  -2.143  16.588  1.00  0.00     0.005 A 
ATOM      2  C   UNL     1       6.169  -2.450  17.553  1.00  0.00     0.060 A 
ATOM      3  C   UNL     1       6.746  -1.942  15.256  1.00  0.00     0.060 A 
ATOM      4  C   UNL     1       4.818  -2.555  17.193  1.00  0.00     0.162 A 
ATOM      5  C   UNL     1       5.396  -2.045  14.891  1.00  0.00     0.162 A 
ATOM      6  C   UNL     1       4.430  -2.352  15.862  1.00  0.00     0.200 A 
ENDROOT
BRANCH   1   7
ATOM      7  C   UNL     1       8.571  -2.033  16.966  1.00  0.00     0.072 C 
ATOM      8  O   UNL     1       9.393  -2.929  16.634  1.00  0.00    -0.545 OA
ATOM      9  O   UNL     1       9.026  -0.938  17.692  1.00  0.00    -0.545 OA
ENDBRANCH   1   7
BRANCH   4  10
ATOM     10  O   UNL     1       3.855  -2.859  18.152  1.00  0.00    -0.504 OA
ATOM     11  H   UNL     1       3.764  -3.793  18.536  1.00  0.00     0.293 HD
ENDBRANCH   4  10
BRANCH   5  12
ATOM     12  O   UNL     1       5.013  -1.843  13.565  1.00  0.00    -0.504 OA
ATOM     13  H   UNL     1       4.066  -2.019  13.253  1.00  0.00     0.293 HD
ENDBRANCH   5  12
BRANCH   6  14
ATOM     14  O   UNL     1       3.080  -2.460  15.523  1.00  0.00    -0.502 OA
ATOM     15  H   UNL     1       2.527  -3.272  15.770  1.00  0.00     0.293 HD
ENDBRANCH   6  14
TORSDOF 4
ENDMDL
MODEL 4
REMARK VINA RESULT:    -5.085      0.122      2.420
REMARK INTER + INTRA:          -5.874
REMARK INTER:                  -5.829
REMARK INTRA:                  -0.045
REMARK UNBOUND:                -0.046
REMARK SMILES O=C([O-])c1cc(O)c(O)c(O)c1
REMARK SMILES IDX 4 1 5 2 12 3 6 4 10 5 8 6 2 7 1 8 3 9 7 10 11 12 9 14
REMARK H PARENT 7 11 11 13 9 15
REMARK Flexibility Score: inf
ROOT
ATOM      1  C   UNL     1       5.878  -2.629  18.018  1.00  0.00     0.005 A 
ATOM      2  C   UNL     1       7.177  -2.500  17.499  1.00  0.00     0.060 A 
ATOM      3  C   UNL     1       4.781  -2.505  17.149  1.00  0.00     0.060 A 
ATOM      4  C   UNL     1       7.378  -2.250  16.134  1.00  0.00     0.162 A 
ATOM      5  C   UNL     1       4.977  -2.256  15.783  1.00  0.00     0.162 A 
ATOM      6  C   UNL     1       6.279  -2.128  15.275  1.00  0.00     0.200 A 
ENDROOT
BRANCH   1   7
ATOM      7  C   UNL     1       5.663  -2.893  19.459  1.00  0.00     0.072 C 
ATOM      8  O   UNL     1       5.336  -4.042  19.858  1.00  0.00    -0.545 OA
ATOM      9  O   UNL     1       5.820  -1.875  20.393  1.00  0.00    -0.545 OA
ENDBRANCH   1   7
BRANCH   4  10
ATOM     10  O   UNL     1       8.669  -2.123  15.623  1.00  0.00    -0.504 OA
ATOM     11  H   UNL     1       8.867  -2.266  14.639  1.00  0.00     0.293 HD
ENDBRANCH   4  10
BRANCH   5  12
ATOM     12  O   UNL     1       3.879  -2.134  14.931  1.00  0.00    -0.504 OA
ATOM     13  H   UNL     1       3.970  -1.747  13.999  1.00  0.00     0.293 HD
ENDBRANCH   5  12
BRANCH   6  14
ATOM     14  O   UNL     1       6.499  -1.879  13.919  1.00  0.00    -0.502 OA
ATOM     15  H   UNL     1       7.279  -1.321  13.594  1.00  0.00     0.293 HD
ENDBRANCH   6  14
TORSDOF 4
ENDMDL
MODEL 5
REMARK VINA RESULT:    -5.080      1.749      2.984
REMARK INTER + INTRA:          -5.868
REMARK INTER:                  -5.817
REMARK INTRA:                  -0.051
REMARK UNBOUND:                -0.046
REMARK SMILES O=C([O-])c1cc(O)c(O)c(O)c1
REMARK SMILES IDX 4 1 5 2 12 3 6 4 10 5 8 6 2 7 1 8 3 9 7 10 11 12 9 14
REMARK H PARENT 7 11 11 13 9 15
REMARK Flexibility Score: inf
ROOT
ATOM      1  C   UNL     1       3.999  -2.443  16.595  1.00  0.00     0.005 A 
ATOM      2  C   UNL     1       4.424  -2.175  15.283  1.00  0.00     0.060 A 
ATOM      3  C   UNL     1       4.962  -2.592  17.607  1.00  0.00     0.060 A 
ATOM      4  C   UNL     1       5.789  -2.058  14.985  1.00  0.00     0.162 A 
ATOM      5  C   UNL     1       6.329  -2.475  17.314  1.00  0.00     0.162 A 
ATOM      6  C   UNL     1       6.743  -2.207  16.000  1.00  0.00     0.200 A 
ENDROOT
BRANCH   1   7
ATOM      7  C   UNL     1       2.558  -2.568  16.911  1.00  0.00     0.072 C 
ATOM      8  O   UNL     1       1.738  -2.935  16.028  1.00  0.00    -0.545 OA
ATOM      9  O   UNL     1       2.090  -2.282  18.188  1.00  0.00    -0.545 OA
ENDBRANCH   1   7
BRANCH   4  10
ATOM     10  O   UNL     1       6.206  -1.792  13.682  1.00  0.00    -0.504 OA
ATOM     11  H   UNL     1       5.633  -2.035  12.882  1.00  0.00     0.293 HD
ENDBRANCH   4  10
BRANCH   5  12
ATOM     12  O   UNL     1       7.275  -2.625  18.328  1.00  0.00    -0.504 OA
ATOM     13  H   UNL     1       7.867  -1.857  18.620  1.00  0.00     0.293 HD
ENDBRANCH   5  12
BRANCH   6  14
ATOM     14  O   UNL     1       8.097  -2.086  15.684  1.00  0.00    -0.502 OA
ATOM     15  H   UNL     1       8.415  -1.908  14.739  1.00  0.00     0.293 HD
ENDBRANCH   6  14
TORSDOF 4
ENDMDL
MODEL 6
REMARK VINA RESULT:    -4.990      1.294      3.424
REMARK INTER + INTRA:          -5.764
REMARK INTER:                  -5.718
REMARK INTRA:                  -0.047
REMARK UNBOUND:                -0.046
REMARK SMILES O=C([O-])c1cc(O)c(O)c(O)c1
REMARK SMILES IDX 4 1 5 2 12 3 6 4 10 5 8 6 2 7 1 8 3 9 7 10 11 12 9 14
REMARK H PARENT 7 11 11 13 9 15
REMARK Flexibility Score: inf
ROOT
ATOM      1  C   UNL     1       7.169  -2.112  16.876  1.00  0.00     0.005 A 
ATOM      2  C   UNL     1       6.542  -2.030  15.621  1.00  0.00     0.060 A 
ATOM      3  C   UNL     1       6.391  -2.394  18.011  1.00  0.00     0.060 A 
ATOM      4  C   UNL     1       5.158  -2.226  15.502  1.00  0.00     0.162 A 
ATOM      5  C   UNL     1       5.007  -2.590  17.897  1.00  0.00     0.162 A 
ATOM      6  C   UNL     1       4.389  -2.506  16.639  1.00  0.00     0.200 A 
ENDROOT
BRANCH   1   7
ATOM      7  C   UNL     1       8.630  -1.906  17.004  1.00  0.00     0.072 C 
ATOM      8  O   UNL     1       9.438  -2.645  16.382  1.00  0.00    -0.545 OA
ATOM      9  O   UNL     1       9.130  -0.893  17.814  1.00  0.00    -0.545 OA
ENDBRANCH   1   7
BRANCH   4  10
ATOM     10  O   UNL     1       4.540  -2.144  14.256  1.00  0.00    -0.504 OA
ATOM     11  H   UNL     1       4.791  -1.425  13.585  1.00  0.00     0.293 HD
ENDBRANCH   4  10
BRANCH   5  12
ATOM     12  O   UNL     1       4.245  -2.868  19.031  1.00  0.00    -0.504 OA
ATOM     13  H   UNL     1       3.276  -2.582  19.103  1.00  0.00     0.293 HD
ENDBRANCH   5  12
BRANCH   6  14
ATOM     14  O   UNL     1       3.014  -2.697  16.500  1.00  0.00    -0.502 OA
ATOM     15  H   UNL     1       2.474  -2.223  15.786  1.00  0.00     0.293 HD
ENDBRANCH   6  14
TORSDOF 4
ENDMDL
MODEL 7
REMARK VINA RESULT:    -4.829      7.438      9.180
REMARK INTER + INTRA:          -5.580
REMARK INTER:                  -5.531
REMARK INTRA:                  -0.049
REMARK UNBOUND:                -0.046
REMARK SMILES O=C([O-])c1cc(O)c(O)c(O)c1
REMARK SMILES IDX 4 1 5 2 12 3 6 4 10 5 8 6 2 7 1 8 3 9 7 10 11 12 9 14
REMARK H PARENT 7 11 11 13 9 15
REMARK Flexibility Score: inf
ROOT
ATOM      1  C   UNL     1       9.705   1.093  24.634  1.00  0.00     0.005 A 
ATOM      2  C   UNL     1       9.600   1.272  23.245  1.00  0.00     0.060 A 
ATOM      3  C   UNL     1       8.595   1.380  25.445  1.00  0.00     0.060 A 
ATOM      4  C   UNL     1       8.404   1.732  22.674  1.00  0.00     0.162 A 
ATOM      5  C   UNL     1       7.397   1.840  24.879  1.00  0.00     0.162 A 
ATOM      6  C   UNL     1       7.302   2.015  23.490  1.00  0.00     0.200 A 
ENDROOT
BRANCH   1   7
ATOM      7  C   UNL     1      10.966   0.608  25.240  1.00  0.00     0.072 C 
ATOM      8  O   UNL     1      11.382   1.091  26.327  1.00  0.00    -0.545 OA
ATOM      9  O   UNL     1      11.710  -0.387  24.617  1.00  0.00    -0.545 OA
ENDBRANCH   1   7
BRANCH   4  10
ATOM     10  O   UNL     1       8.304   1.907  21.295  1.00  0.00    -0.504 OA
ATOM     11  H   UNL     1       9.123   2.073  20.720  1.00  0.00     0.293 HD
ENDBRANCH   4  10
BRANCH   5  12
ATOM     12  O   UNL     1       6.302   2.122  25.695  1.00  0.00    -0.504 OA
ATOM     13  H   UNL     1       6.390   2.181  26.703  1.00  0.00     0.293 HD
ENDBRANCH   5  12
BRANCH   6  14
ATOM     14  O   UNL     1       6.121   2.471  22.903  1.00  0.00    -0.502 OA
ATOM     15  H   UNL     1       5.806   3.430  23.000  1.00  0.00     0.293 HD
ENDBRANCH   6  14
TORSDOF 4
ENDMDL
MODEL 8
REMARK VINA RESULT:    -4.778      7.460      9.115
REMARK INTER + INTRA:          -5.522
REMARK INTER:                  -5.472
REMARK INTRA:                  -0.050
REMARK UNBOUND:                -0.046
REMARK SMILES O=C([O-])c1cc(O)c(O)c(O)c1
REMARK SMILES IDX 4 1 5 2 12 3 6 4 10 5 8 6 2 7 1 8 3 9 7 10 11 12 9 14
REMARK H PARENT 7 11 11 13 9 15
REMARK Flexibility Score: inf
ROOT
ATOM      1  C   UNL     1       9.777   1.081  24.735  1.00  0.00     0.005 A 
ATOM      2  C   UNL     1       8.623   1.389  25.475  1.00  0.00     0.060 A 
ATOM      3  C   UNL     1       9.747   1.218  23.337  1.00  0.00     0.060 A 
ATOM      4  C   UNL     1       7.457   1.826  24.830  1.00  0.00     0.162 A 
ATOM      5  C   UNL     1       8.583   1.655  22.687  1.00  0.00     0.162 A 
ATOM      6  C   UNL     1       7.436   1.960  23.436  1.00  0.00     0.200 A 
ENDROOT
BRANCH   1   7
ATOM      7  C   UNL     1      11.008   0.620  25.414  1.00  0.00     0.072 C 
ATOM      8  O   UNL     1      11.325   1.075  26.545  1.00  0.00    -0.545 OA
ATOM      9  O   UNL     1      11.833  -0.324  24.813  1.00  0.00    -0.545 OA
ENDBRANCH   1   7
BRANCH   4  10
ATOM     10  O   UNL     1       6.315   2.130  25.568  1.00  0.00    -0.504 OA
ATOM     11  H   UNL     1       5.976   3.082  25.654  1.00  0.00     0.293 HD
ENDBRANCH   4  10
BRANCH   5  12
ATOM     12  O   UNL     1       8.566   1.786  21.299  1.00  0.00    -0.504 OA
ATOM     13  H   UNL     1       7.925   2.416  20.832  1.00  0.00     0.293 HD
ENDBRANCH   5  12
BRANCH   6  14
ATOM     14  O   UNL     1       6.266   2.396  22.812  1.00  0.00    -0.502 OA
ATOM     15  H   UNL     1       5.362   1.990  23.020  1.00  0.00     0.293 HD
ENDBRANCH   6  14
TORSDOF 4
ENDMDL
MODEL 9
REMARK VINA RESULT:    -4.758      7.331      9.075
REMARK INTER + INTRA:          -5.499
REMARK INTER:                  -5.453
REMARK INTRA:                  -0.046
REMARK UNBOUND:                -0.046
REMARK SMILES O=C([O-])c1cc(O)c(O)c(O)c1
REMARK SMILES IDX 4 1 5 2 12 3 6 4 10 5 8 6 2 7 1 8 3 9 7 10 11 12 9 14
REMARK H PARENT 7 11 11 13 9 15
REMARK Flexibility Score: inf
ROOT
ATOM      1  C   UNL     1       6.461   2.282  24.508  1.00  0.00     0.005 A 
ATOM      2  C   UNL     1       7.485   1.955  25.413  1.00  0.00     0.060 A 
ATOM      3  C   UNL     1       6.718   2.205  23.129  1.00  0.00     0.060 A 
ATOM      4  C   UNL     1       8.747   1.557  24.948  1.00  0.00     0.162 A 
ATOM      5  C   UNL     1       7.978   1.807  22.659  1.00  0.00     0.162 A 
ATOM      6  C   UNL     1       8.995   1.482  23.571  1.00  0.00     0.200 A 
ENDROOT
BRANCH   1   7
ATOM      7  C   UNL     1       5.128   2.703  24.996  1.00  0.00     0.072 C 
ATOM      8  O   UNL     1       4.999   3.755  25.678  1.00  0.00    -0.545 OA
ATOM      9  O   UNL     1       4.000   1.944  24.709  1.00  0.00    -0.545 OA
ENDBRANCH   1   7
BRANCH   4  10
ATOM     10  O   UNL     1       9.759   1.232  25.849  1.00  0.00    -0.504 OA
ATOM     11  H   UNL     1      10.739   1.330  25.604  1.00  0.00     0.293 HD
ENDBRANCH   4  10
BRANCH   5  12
ATOM     12  O   UNL     1       8.221   1.734  21.288  1.00  0.00    -0.504 OA
ATOM     13  H   UNL     1       7.898   2.453  20.652  1.00  0.00     0.293 HD
ENDBRANCH   5  12
BRANCH   6  14
ATOM     14  O   UNL     1      10.256   1.083  23.128  1.00  0.00    -0.502 OA
ATOM     15  H   UNL     1      10.928   1.742  22.753  1.00  0.00     0.293 HD
ENDBRANCH   6  14
TORSDOF 4
ENDMDL
