MODEL 1
REMARK VINA RESULT:    -5.671      0.000      0.000
REMARK INTER + INTRA:          -5.671
REMARK INTER:                  -5.671
REMARK INTRA:                   0.000
REMARK UNBOUND:                 0.000
REMARK SMILES CC(C)=C1CC[C@H](C)CC1=O
REMARK SMILES IDX 8 1 7 2 6 3 5 4 4 5 2 6 1 7 3 8 10 9 11 10 9 11
REMARK H PARENT
REMARK Flexibility Score: inf
ROOT
ATOM      1  C   UNL     1      -5.984  -3.176  -2.210  1.00  0.00     0.008 C 
ATOM      2  C   UNL     1      -5.693  -2.592  -0.824  1.00  0.00    -0.006 C 
ATOM      3  C   UNL     1      -4.179  -2.461  -0.596  1.00  0.00     0.008 C 
ATOM      4  C   UNL     1      -3.866  -1.975   0.825  1.00  0.00     0.039 C 
ATOM      5  C   UNL     1      -4.623  -0.703   1.185  1.00  0.00    -0.006 C 
ATOM      6  C   UNL     1      -4.089   0.225   2.033  1.00  0.00    -0.070 C 
ATOM      7  C   UNL     1      -2.730   0.020   2.663  1.00  0.00     0.039 C 
ATOM      8  C   UNL     1      -4.805   1.517   2.353  1.00  0.00     0.039 C 
ATOM      9  C   UNL     1      -6.015  -0.595   0.653  1.00  0.00     0.159 C 
ATOM     10  O   UNL     1      -6.915   0.011   1.293  1.00  0.00    -0.295 OA
ATOM     11  C   UNL     1      -6.367  -1.220  -0.665  1.00  0.00     0.084 C 
ENDROOT
TORSDOF 0
ENDMDL
MODEL 2
REMARK VINA RESULT:    -5.555      1.644      2.627
REMARK INTER + INTRA:          -5.555
REMARK INTER:                  -5.555
REMARK INTRA:                   0.000
REMARK UNBOUND:                 0.000
REMARK SMILES CC(C)=C1CC[C@H](C)CC1=O
REMARK SMILES IDX 8 1 7 2 6 3 5 4 4 5 2 6 1 7 3 8 10 9 11 10 9 11
REMARK H PARENT
REMARK Flexibility Score: inf
ROOT
ATOM      1  C   UNL     1      -4.864  -4.191  -2.633  1.00  0.00     0.008 C 
ATOM      2  C   UNL     1      -5.076  -2.798  -2.031  1.00  0.00    -0.006 C 
ATOM      3  C   UNL     1      -6.357  -2.762  -1.184  1.00  0.00     0.008 C 
ATOM      4  C   UNL     1      -6.640  -1.349  -0.657  1.00  0.00     0.039 C 
ATOM      5  C   UNL     1      -5.444  -0.747   0.068  1.00  0.00    -0.006 C 
ATOM      6  C   UNL     1      -5.609   0.123   1.108  1.00  0.00    -0.070 C 
ATOM      7  C   UNL     1      -6.986   0.537   1.573  1.00  0.00     0.039 C 
ATOM      8  C   UNL     1      -4.430   0.683   1.872  1.00  0.00     0.039 C 
ATOM      9  C   UNL     1      -4.101  -1.071  -0.500  1.00  0.00     0.159 C 
ATOM     10  O   UNL     1      -3.147  -0.250  -0.435  1.00  0.00    -0.295 OA
ATOM     11  C   UNL     1      -3.868  -2.393  -1.171  1.00  0.00     0.084 C 
ENDROOT
TORSDOF 0
ENDMDL
MODEL 3
REMARK VINA RESULT:    -5.539      1.719      4.185
REMARK INTER + INTRA:          -5.539
REMARK INTER:                  -5.539
REMARK INTRA:                   0.000
REMARK UNBOUND:                 0.000
REMARK SMILES CC(C)=C1CC[C@H](C)CC1=O
REMARK SMILES IDX 8 1 7 2 6 3 5 4 4 5 2 6 1 7 3 8 10 9 11 10 9 11
REMARK H PARENT
REMARK Flexibility Score: inf
ROOT
ATOM      1  C   UNL     1      -5.913   0.927   2.208  1.00  0.00     0.008 C 
ATOM      2  C   UNL     1      -5.637   0.338   0.821  1.00  0.00    -0.006 C 
ATOM      3  C   UNL     1      -4.127   0.164   0.596  1.00  0.00     0.008 C 
ATOM      4  C   UNL     1      -3.825  -0.328  -0.826  1.00  0.00     0.039 C 
ATOM      5  C   UNL     1      -4.618  -1.575  -1.191  1.00  0.00    -0.006 C 
ATOM      6  C   UNL     1      -4.109  -2.517  -2.040  1.00  0.00    -0.070 C 
ATOM      7  C   UNL     1      -2.744  -2.350  -2.667  1.00  0.00     0.039 C 
ATOM      8  C   UNL     1      -4.863  -3.786  -2.366  1.00  0.00     0.039 C 
ATOM      9  C   UNL     1      -6.014  -1.645  -0.663  1.00  0.00     0.159 C 
ATOM     10  O   UNL     1      -6.930  -2.222  -1.306  1.00  0.00    -0.295 OA
ATOM     11  C   UNL     1      -6.350  -1.013   0.656  1.00  0.00     0.084 C 
ENDROOT
TORSDOF 0
ENDMDL
MODEL 4
REMARK VINA RESULT:    -5.438      1.715      4.588
REMARK INTER + INTRA:          -5.438
REMARK INTER:                  -5.438
REMARK INTRA:                   0.000
REMARK UNBOUND:                 0.000
REMARK SMILES CC(C)=C1CC[C@H](C)CC1=O
REMARK SMILES IDX 8 1 7 2 6 3 5 4 4 5 2 6 1 7 3 8 10 9 11 10 9 11
REMARK H PARENT
REMARK Flexibility Score: inf
ROOT
ATOM      1  C   UNL     1      -4.854   1.776   2.610  1.00  0.00     0.008 C 
ATOM      2  C   UNL     1      -4.934   0.390   1.960  1.00  0.00    -0.006 C 
ATOM      3  C   UNL     1      -6.166   0.288   1.048  1.00  0.00     0.008 C 
ATOM      4  C   UNL     1      -6.319  -1.124   0.470  1.00  0.00     0.039 C 
ATOM      5  C   UNL     1      -5.048  -1.617  -0.208  1.00  0.00    -0.006 C 
ATOM      6  C   UNL     1      -5.097  -2.465  -1.278  1.00  0.00    -0.070 C 
ATOM      7  C   UNL     1      -6.416  -2.962  -1.824  1.00  0.00     0.039 C 
ATOM      8  C   UNL     1      -3.844  -2.916  -1.995  1.00  0.00     0.039 C 
ATOM      9  C   UNL     1      -3.762  -1.215   0.436  1.00  0.00     0.159 C 
ATOM     10  O   UNL     1      -2.749  -1.963   0.399  1.00  0.00    -0.295 OA
ATOM     11  C   UNL     1      -3.659   0.099   1.154  1.00  0.00     0.084 C 
ENDROOT
TORSDOF 0
ENDMDL
MODEL 5
REMARK VINA RESULT:    -5.317      1.241      4.151
REMARK INTER + INTRA:          -5.317
REMARK INTER:                  -5.317
REMARK INTRA:                   0.000
REMARK UNBOUND:                 0.000
REMARK SMILES CC(C)=C1CC[C@H](C)CC1=O
REMARK SMILES IDX 8 1 7 2 6 3 5 4 4 5 2 6 1 7 3 8 10 9 11 10 9 11
REMARK H PARENT
REMARK Flexibility Score: inf
ROOT
ATOM      1  C   UNL     1      -1.810   0.110   2.251  1.00  0.00     0.008 C 
ATOM      2  C   UNL     1      -2.668  -0.232   1.028  1.00  0.00    -0.006 C 
ATOM      3  C   UNL     1      -2.275  -1.603   0.456  1.00  0.00     0.008 C 
ATOM      4  C   UNL     1      -3.053  -1.918  -0.828  1.00  0.00     0.039 C 
ATOM      5  C   UNL     1      -4.558  -1.768  -0.650  1.00  0.00    -0.006 C 
ATOM      6  C   UNL     1      -5.436  -2.548  -1.347  1.00  0.00    -0.070 C 
ATOM      7  C   UNL     1      -4.950  -3.581  -2.338  1.00  0.00     0.039 C 
ATOM      8  C   UNL     1      -6.930  -2.449  -1.137  1.00  0.00     0.039 C 
ATOM      9  C   UNL     1      -5.007  -0.651   0.234  1.00  0.00     0.159 C 
ATOM     10  O   UNL     1      -6.089  -0.042   0.021  1.00  0.00    -0.295 OA
ATOM     11  C   UNL     1      -4.159  -0.227   1.398  1.00  0.00     0.084 C 
ENDROOT
TORSDOF 0
ENDMDL
MODEL 6
REMARK VINA RESULT:    -5.261      1.288      1.544
REMARK INTER + INTRA:          -5.261
REMARK INTER:                  -5.261
REMARK INTRA:                   0.000
REMARK UNBOUND:                 0.000
REMARK SMILES CC(C)=C1CC[C@H](C)CC1=O
REMARK SMILES IDX 8 1 7 2 6 3 5 4 4 5 2 6 1 7 3 8 10 9 11 10 9 11
REMARK H PARENT
REMARK Flexibility Score: inf
ROOT
ATOM      1  C   UNL     1      -6.919  -2.323  -1.121  1.00  0.00     0.008 C 
ATOM      2  C   UNL     1      -6.099  -1.874   0.094  1.00  0.00    -0.006 C 
ATOM      3  C   UNL     1      -4.799  -2.686   0.201  1.00  0.00     0.008 C 
ATOM      4  C   UNL     1      -4.014  -2.321   1.468  1.00  0.00     0.039 C 
ATOM      5  C   UNL     1      -3.780  -0.822   1.597  1.00  0.00    -0.006 C 
ATOM      6  C   UNL     1      -2.657  -0.328   2.199  1.00  0.00    -0.070 C 
ATOM      7  C   UNL     1      -1.609  -1.251   2.779  1.00  0.00     0.039 C 
ATOM      8  C   UNL     1      -2.386   1.156   2.283  1.00  0.00     0.039 C 
ATOM      9  C   UNL     1      -4.894   0.059   1.136  1.00  0.00     0.159 C 
ATOM     10  O   UNL     1      -5.121   1.170   1.685  1.00  0.00    -0.295 OA
ATOM     11  C   UNL     1      -5.774  -0.375   0.000  1.00  0.00     0.084 C 
ENDROOT
TORSDOF 0
ENDMDL
MODEL 7
REMARK VINA RESULT:    -5.195      1.962      2.782
REMARK INTER + INTRA:          -5.195
REMARK INTER:                  -5.195
REMARK INTRA:                   0.000
REMARK UNBOUND:                 0.000
REMARK SMILES CC(C)=C1CC[C@H](C)CC1=O
REMARK SMILES IDX 8 1 7 2 6 3 5 4 4 5 2 6 1 7 3 8 10 9 11 10 9 11
REMARK H PARENT
REMARK Flexibility Score: inf
ROOT
ATOM      1  C   UNL     1      -1.424  -2.102  -2.557  1.00  0.00     0.008 C 
ATOM      2  C   UNL     1      -2.365  -1.907  -1.362  1.00  0.00    -0.006 C 
ATOM      3  C   UNL     1      -2.019  -0.616  -0.604  1.00  0.00     0.008 C 
ATOM      4  C   UNL     1      -2.883  -0.457   0.654  1.00  0.00     0.039 C 
ATOM      5  C   UNL     1      -4.372  -0.581   0.357  1.00  0.00    -0.006 C 
ATOM      6  C   UNL     1      -5.300   0.112   1.083  1.00  0.00    -0.070 C 
ATOM      7  C   UNL     1      -4.888   1.017   2.221  1.00  0.00     0.039 C 
ATOM      8  C   UNL     1      -6.775   0.042   0.762  1.00  0.00     0.039 C 
ATOM      9  C   UNL     1      -4.754  -1.582  -0.682  1.00  0.00     0.159 C 
ATOM     10  O   UNL     1      -5.844  -2.210  -0.619  1.00  0.00    -0.295 OA
ATOM     11  C   UNL     1      -3.828  -1.865  -1.830  1.00  0.00     0.084 C 
ENDROOT
TORSDOF 0
ENDMDL
MODEL 8
REMARK VINA RESULT:    -4.908      2.117      3.856
REMARK INTER + INTRA:          -4.908
REMARK INTER:                  -4.908
REMARK INTRA:                   0.000
REMARK UNBOUND:                 0.000
REMARK SMILES CC(C)=C1CC[C@H](C)CC1=O
REMARK SMILES IDX 8 1 7 2 6 3 5 4 4 5 2 6 1 7 3 8 10 9 11 10 9 11
REMARK H PARENT
REMARK Flexibility Score: inf
ROOT
ATOM      1  C   UNL     1      -0.478  -2.140  -1.560  1.00  0.00     0.008 C 
ATOM      2  C   UNL     1      -1.941  -1.687  -1.635  1.00  0.00    -0.006 C 
ATOM      3  C   UNL     1      -2.864  -2.879  -1.932  1.00  0.00     0.008 C 
ATOM      4  C   UNL     1      -4.319  -2.429  -2.112  1.00  0.00     0.039 C 
ATOM      5  C   UNL     1      -4.815  -1.581  -0.948  1.00  0.00    -0.006 C 
ATOM      6  C   UNL     1      -6.124  -1.607  -0.558  1.00  0.00    -0.070 C 
ATOM      7  C   UNL     1      -7.139  -2.466  -1.278  1.00  0.00     0.039 C 
ATOM      8  C   UNL     1      -6.617  -0.814   0.631  1.00  0.00     0.039 C 
ATOM      9  C   UNL     1      -3.819  -0.646  -0.345  1.00  0.00     0.159 C 
ATOM     10  O   UNL     1      -4.172   0.460   0.144  1.00  0.00    -0.295 OA
ATOM     11  C   UNL     1      -2.363  -1.012  -0.321  1.00  0.00     0.084 C 
ENDROOT
TORSDOF 0
ENDMDL
MODEL 9
REMARK VINA RESULT:    -4.894      2.079      4.534
REMARK INTER + INTRA:          -4.894
REMARK INTER:                  -4.894
REMARK INTRA:                   0.000
REMARK UNBOUND:                 0.000
REMARK SMILES CC(C)=C1CC[C@H](C)CC1=O
REMARK SMILES IDX 8 1 7 2 6 3 5 4 4 5 2 6 1 7 3 8 10 9 11 10 9 11
REMARK H PARENT
REMARK Flexibility Score: inf
ROOT
ATOM      1  C   UNL     1      -1.741  -1.155   3.521  1.00  0.00     0.008 C 
ATOM      2  C   UNL     1      -2.531  -1.012   2.216  1.00  0.00    -0.006 C 
ATOM      3  C   UNL     1      -1.579  -0.849   1.021  1.00  0.00     0.008 C 
ATOM      4  C   UNL     1      -2.352  -0.603  -0.281  1.00  0.00     0.039 C 
ATOM      5  C   UNL     1      -3.426  -1.653  -0.529  1.00  0.00    -0.006 C 
ATOM      6  C   UNL     1      -3.772  -2.030  -1.796  1.00  0.00    -0.070 C 
ATOM      7  C   UNL     1      -3.114  -1.407  -3.006  1.00  0.00     0.039 C 
ATOM      8  C   UNL     1      -4.796  -3.112  -2.053  1.00  0.00     0.039 C 
ATOM      9  C   UNL     1      -4.149  -2.151   0.680  1.00  0.00     0.159 C 
ATOM     10  O   UNL     1      -5.357  -2.503   0.621  1.00  0.00    -0.295 OA
ATOM     11  C   UNL     1      -3.439  -2.233   1.999  1.00  0.00     0.084 C 
ENDROOT
TORSDOF 0
ENDMDL
