MODEL 1
REMARK VINA RESULT:    -4.182      0.000      0.000
REMARK INTER + INTRA:          -4.746
REMARK INTER:                  -5.649
REMARK INTRA:                   0.903
REMARK UNBOUND:                 0.903
REMARK SMILES C=C1C(=O)O[C@H]2[C@H]3O[C@@]3(C)CCC=C(C)CC[C@@H]12
REMARK SMILES IDX 6 1 18 2 2 3 1 4 3 5 4 6 5 7 17 8 16 9 14 10 15 11 13 12
REMARK SMILES IDX 7 14 9 15 8 16 10 17 11 18 12 19
REMARK H PARENT
REMARK Flexibility Score: 70.00
ROOT
ATOM      1  C   UNL     1       3.489  24.710  53.983  1.00  0.00     0.216 C 
ATOM      2  C   UNL     1       2.176  25.465  53.585  1.00  0.00     0.070 C 
ATOM      3  C   UNL     1       1.109  24.688  54.301  1.00  0.00     0.037 C 
ATOM      4  C   UNL     1      -0.174  25.029  54.406  1.00  0.00     0.021 C 
ATOM      5  C   UNL     1       1.726  23.511  54.868  1.00  0.00     0.334 C 
ATOM      6  O   UNL     1       1.124  22.596  55.488  1.00  0.00    -0.247 OA
ATOM      7  O   UNL     1       3.083  23.501  54.622  1.00  0.00    -0.455 OA
ENDROOT
BRANCH   2   8
ATOM      8  C   UNL     1       1.904  25.606  52.066  1.00  0.00     0.017 C 
BRANCH   8   9
ATOM      9  C   UNL     1       0.993  24.520  51.444  1.00  0.00     0.031 C 
BRANCH   9  10
ATOM     10  C   UNL     1       1.673  23.839  50.276  1.00  0.00    -0.077 C 
ATOM     11  C   UNL     1       1.493  24.427  48.898  1.00  0.00     0.039 C 
ATOM     12  C   UNL     1       2.454  22.743  50.402  1.00  0.00    -0.028 CG0
ATOM     13  G   UNL     1       2.681  21.946  51.669  1.00  0.00     0.000 G0
ENDBRANCH   9  10
ENDBRANCH   8   9
ENDBRANCH   2   8
BRANCH   1  14
ATOM     14  C   UNL     1       4.566  24.537  52.884  1.00  0.00     0.192 C 
ATOM     15  C   UNL     1       4.895  23.285  52.120  1.00  0.00     0.096 C 
ATOM     16  O   UNL     1       5.544  23.621  53.325  1.00  0.00    -0.362 OA
ATOM     17  C   UNL     1       5.878  23.423  50.951  1.00  0.00     0.045 C 
BRANCH  15  18
ATOM     18  C   UNL     1       4.122  21.956  52.267  1.00  0.00     0.042 C 
BRANCH  18  19
ATOM     19  C   UNL     1       2.689  21.949  51.684  1.00  0.00     0.030 CG0
ATOM     20  G   UNL     1       2.465  22.744  50.415  1.00  0.00     0.000 G0
ENDBRANCH  18  19
ENDBRANCH  15  18
ENDBRANCH   1  14
TORSDOF 0
ENDMDL
MODEL 2
REMARK VINA RESULT:    -4.150      1.904      3.790
REMARK INTER + INTRA:          -4.702
REMARK INTER:                  -5.573
REMARK INTRA:                   0.870
REMARK UNBOUND:                 0.903
REMARK SMILES C=C1C(=O)O[C@H]2[C@H]3O[C@@]3(C)CCC=C(C)CC[C@@H]12
REMARK SMILES IDX 6 1 18 2 2 3 1 4 3 5 4 6 5 7 17 8 16 9 14 10 15 11 13 12
REMARK SMILES IDX 7 14 9 15 8 16 10 17 11 18 12 19
REMARK H PARENT
REMARK Flexibility Score: 70.00
ROOT
ATOM      1  C   UNL     1       1.354  23.433  53.633  1.00  0.00     0.216 C 
ATOM      2  C   UNL     1       1.529  22.267  52.603  1.00  0.00     0.070 C 
ATOM      3  C   UNL     1       2.938  21.809  52.846  1.00  0.00     0.037 C 
ATOM      4  C   UNL     1       3.514  20.728  52.323  1.00  0.00     0.021 C 
ATOM      5  C   UNL     1       3.552  22.742  53.763  1.00  0.00     0.334 C 
ATOM      6  O   UNL     1       4.751  22.709  54.146  1.00  0.00    -0.247 OA
ATOM      7  O   UNL     1       2.651  23.710  54.156  1.00  0.00    -0.455 OA
ENDROOT
BRANCH   2   8
ATOM      8  C   UNL     1       1.256  22.620  51.119  1.00  0.00     0.017 C 
BRANCH   8   9
ATOM      9  C   UNL     1       2.497  23.036  50.291  1.00  0.00     0.031 C 
BRANCH   9  10
ATOM     10  C   UNL     1       2.284  24.379  49.624  1.00  0.00    -0.077 C 
ATOM     11  C   UNL     1       1.632  24.410  48.265  1.00  0.00     0.039 C 
ATOM     12  C   UNL     1       2.627  25.556  50.192  1.00  0.00    -0.028 CG0
ATOM     13  G   UNL     1       3.378  25.737  51.495  1.00  0.00     0.000 G0
ENDBRANCH   9  10
ENDBRANCH   8   9
ENDBRANCH   2   8
BRANCH   1  14
ATOM     14  C   UNL     1       0.561  24.678  53.164  1.00  0.00     0.192 C 
ATOM     15  C   UNL     1       1.117  26.018  52.773  1.00  0.00     0.096 C 
ATOM     16  O   UNL     1       0.732  25.722  54.096  1.00  0.00    -0.362 OA
ATOM     17  C   UNL     1       0.134  27.027  52.166  1.00  0.00     0.045 C 
BRANCH  15  18
ATOM     18  C   UNL     1       2.626  26.338  52.702  1.00  0.00     0.042 C 
BRANCH  18  19
ATOM     19  C   UNL     1       3.384  25.719  51.504  1.00  0.00     0.030 CG0
ATOM     20  G   UNL     1       2.607  25.560  50.214  1.00  0.00     0.000 G0
ENDBRANCH  18  19
ENDBRANCH  15  18
ENDBRANCH   1  14
TORSDOF 0
ENDMDL
MODEL 3
REMARK VINA RESULT:    -4.111      2.023      3.950
REMARK INTER + INTRA:          -4.651
REMARK INTER:                  -5.573
REMARK INTRA:                   0.922
REMARK UNBOUND:                 0.903
REMARK SMILES C=C1C(=O)O[C@H]2[C@H]3O[C@@]3(C)CCC=C(C)CC[C@@H]12
REMARK SMILES IDX 6 1 18 2 2 3 1 4 3 5 4 6 5 7 17 8 16 9 14 10 15 11 13 12
REMARK SMILES IDX 7 14 9 15 8 16 10 17 11 18 12 19
REMARK H PARENT
REMARK Flexibility Score: 70.00
ROOT
ATOM      1  C   UNL     1       2.275  22.124  52.657  1.00  0.00     0.216 C 
ATOM      2  C   UNL     1       3.785  21.896  53.007  1.00  0.00     0.070 C 
ATOM      3  C   UNL     1       3.865  22.318  54.445  1.00  0.00     0.037 C 
ATOM      4  C   UNL     1       4.914  22.163  55.252  1.00  0.00     0.021 C 
ATOM      5  C   UNL     1       2.596  22.908  54.804  1.00  0.00     0.334 C 
ATOM      6  O   UNL     1       2.319  23.429  55.916  1.00  0.00    -0.247 OA
ATOM      7  O   UNL     1       1.712  22.851  53.746  1.00  0.00    -0.455 OA
ENDROOT
BRANCH   2   8
ATOM      8  C   UNL     1       4.812  22.626  52.105  1.00  0.00     0.017 C 
BRANCH   8   9
ATOM      9  C   UNL     1       5.324  23.987  52.637  1.00  0.00     0.031 C 
BRANCH   9  10
ATOM     10  C   UNL     1       5.104  25.088  51.623  1.00  0.00    -0.077 C 
ATOM     11  C   UNL     1       6.198  25.374  50.625  1.00  0.00     0.039 C 
ATOM     12  C   UNL     1       3.968  25.817  51.547  1.00  0.00    -0.028 CG0
ATOM     13  G   UNL     1       2.800  25.758  52.509  1.00  0.00     0.000 G0
ENDBRANCH   9  10
ENDBRANCH   8   9
ENDBRANCH   2   8
BRANCH   1  14
ATOM     14  C   UNL     1       1.954  22.697  51.255  1.00  0.00     0.192 C 
ATOM     15  C   UNL     1       1.539  24.102  50.918  1.00  0.00     0.096 C 
ATOM     16  O   UNL     1       0.600  23.093  51.208  1.00  0.00    -0.362 OA
ATOM     17  C   UNL     1       1.460  24.466  49.430  1.00  0.00     0.045 C 
BRANCH  15  18
ATOM     18  C   UNL     1       1.449  25.246  51.952  1.00  0.00     0.042 C 
BRANCH  18  19
ATOM     19  C   UNL     1       2.802  25.751  52.510  1.00  0.00     0.030 CG0
ATOM     20  G   UNL     1       3.954  25.833  51.532  1.00  0.00     0.000 G0
ENDBRANCH  18  19
ENDBRANCH  15  18
ENDBRANCH   1  14
TORSDOF 0
ENDMDL
MODEL 4
REMARK VINA RESULT:    -3.977      2.559      4.123
REMARK INTER + INTRA:          -4.469
REMARK INTER:                  -5.377
REMARK INTRA:                   0.908
REMARK UNBOUND:                 0.903
REMARK SMILES C=C1C(=O)O[C@H]2[C@H]3O[C@@]3(C)CCC=C(C)CC[C@@H]12
REMARK SMILES IDX 6 1 18 2 2 3 1 4 3 5 4 6 5 7 17 8 16 9 14 10 15 11 13 12
REMARK SMILES IDX 7 14 9 15 8 16 10 17 11 18 12 19
REMARK H PARENT
REMARK Flexibility Score: 70.00
ROOT
ATOM      1  C   UNL     1       3.386  23.002  50.503  1.00  0.00     0.216 C 
ATOM      2  C   UNL     1       2.365  22.176  51.356  1.00  0.00     0.070 C 
ATOM      3  C   UNL     1       1.136  23.038  51.340  1.00  0.00     0.037 C 
ATOM      4  C   UNL     1      -0.068  22.699  51.798  1.00  0.00     0.021 C 
ATOM      5  C   UNL     1       1.489  24.297  50.724  1.00  0.00     0.334 C 
ATOM      6  O   UNL     1       0.724  25.289  50.596  1.00  0.00    -0.247 OA
ATOM      7  O   UNL     1       2.804  24.288  50.308  1.00  0.00    -0.455 OA
ENDROOT
BRANCH   2   8
ATOM      8  C   UNL     1       2.819  21.798  52.788  1.00  0.00     0.017 C 
BRANCH   8   9
ATOM      9  C   UNL     1       2.354  22.755  53.913  1.00  0.00     0.031 C 
BRANCH   9  10
ATOM     10  C   UNL     1       3.530  23.267  54.717  1.00  0.00    -0.077 C 
ATOM     11  C   UNL     1       3.965  22.485  55.931  1.00  0.00     0.039 C 
ATOM     12  C   UNL     1       4.228  24.378  54.392  1.00  0.00    -0.028 CG0
ATOM     13  G   UNL     1       3.896  25.352  53.282  1.00  0.00     0.000 G0
ENDBRANCH   9  10
ENDBRANCH   8   9
ENDBRANCH   2   8
BRANCH   1  14
ATOM     14  C   UNL     1       4.858  23.019  50.985  1.00  0.00     0.192 C 
ATOM     15  C   UNL     1       5.576  24.141  51.680  1.00  0.00     0.096 C 
ATOM     16  O   UNL     1       5.573  24.008  50.277  1.00  0.00    -0.362 OA
ATOM     17  C   UNL     1       6.979  23.838  52.222  1.00  0.00     0.045 C 
BRANCH  15  18
ATOM     18  C   UNL     1       4.902  25.464  52.106  1.00  0.00     0.042 C 
BRANCH  18  19
ATOM     19  C   UNL     1       3.898  25.355  53.278  1.00  0.00     0.030 CG0
ATOM     20  G   UNL     1       4.232  24.363  54.373  1.00  0.00     0.000 G0
ENDBRANCH  18  19
ENDBRANCH  15  18
ENDBRANCH   1  14
TORSDOF 0
ENDMDL
MODEL 5
REMARK VINA RESULT:    -3.866      3.437      6.200
REMARK INTER + INTRA:          -4.320
REMARK INTER:                  -5.368
REMARK INTRA:                   1.048
REMARK UNBOUND:                 0.903
REMARK SMILES C=C1C(=O)O[C@H]2[C@H]3O[C@@]3(C)CCC=C(C)CC[C@@H]12
REMARK SMILES IDX 6 1 18 2 2 3 1 4 3 5 4 6 5 7 17 8 16 9 14 10 15 11 13 12
REMARK SMILES IDX 7 14 9 15 8 16 10 17 11 18 12 19
REMARK H PARENT
REMARK Flexibility Score: 70.00
ROOT
ATOM      1  C   UNL     1       1.322  25.632  54.105  1.00  0.00     0.216 C 
ATOM      2  C   UNL     1       2.281  24.557  54.718  1.00  0.00     0.070 C 
ATOM      3  C   UNL     1       2.270  23.467  53.685  1.00  0.00     0.037 C 
ATOM      4  C   UNL     1       3.058  22.393  53.668  1.00  0.00     0.021 C 
ATOM      5  C   UNL     1       1.263  23.799  52.704  1.00  0.00     0.334 C 
ATOM      6  O   UNL     1       0.932  23.082  51.724  1.00  0.00    -0.247 OA
ATOM      7  O   UNL     1       0.678  25.014  52.993  1.00  0.00    -0.455 OA
ENDROOT
BRANCH   2   8
ATOM      8  C   UNL     1       1.920  24.048  56.136  1.00  0.00     0.017 C 
BRANCH   8   9
ATOM      9  C   UNL     1       0.827  22.953  56.198  1.00  0.00     0.031 C 
BRANCH   9  10
ATOM     10  C   UNL     1       0.075  23.004  57.511  1.00  0.00    -0.077 C 
ATOM     11  C   UNL     1       0.807  22.619  58.772  1.00  0.00     0.039 C 
ATOM     12  C   UNL     1      -1.213  23.399  57.618  1.00  0.00    -0.028 CG0
ATOM     13  G   UNL     1      -2.148  23.727  56.473  1.00  0.00     0.000 G0
ENDBRANCH   9  10
ENDBRANCH   8   9
ENDBRANCH   2   8
BRANCH   1  14
ATOM     14  C   UNL     1       0.372  26.369  55.082  1.00  0.00     0.192 C 
ATOM     15  C   UNL     1      -0.959  25.893  55.593  1.00  0.00     0.096 C 
ATOM     16  O   UNL     1      -0.839  26.669  54.422  1.00  0.00    -0.362 OA
ATOM     17  C   UNL     1      -1.618  26.728  56.698  1.00  0.00     0.045 C 
BRANCH  15  18
ATOM     18  C   UNL     1      -1.560  24.507  55.271  1.00  0.00     0.042 C 
BRANCH  18  19
ATOM     19  C   UNL     1      -2.156  23.741  56.476  1.00  0.00     0.030 CG0
ATOM     20  G   UNL     1      -1.209  23.411  57.610  1.00  0.00     0.000 G0
ENDBRANCH  18  19
ENDBRANCH  15  18
ENDBRANCH   1  14
TORSDOF 0
ENDMDL
MODEL 6
REMARK VINA RESULT:    -3.818      2.651      4.428
REMARK INTER + INTRA:          -4.254
REMARK INTER:                  -5.128
REMARK INTRA:                   0.875
REMARK UNBOUND:                 0.903
REMARK SMILES C=C1C(=O)O[C@H]2[C@H]3O[C@@]3(C)CCC=C(C)CC[C@@H]12
REMARK SMILES IDX 6 1 18 2 2 3 1 4 3 5 4 6 5 7 17 8 16 9 14 10 15 11 13 12
REMARK SMILES IDX 7 14 9 15 8 16 10 17 11 18 12 19
REMARK H PARENT
REMARK Flexibility Score: 70.00
ROOT
ATOM      1  C   UNL     1       1.567  23.789  50.036  1.00  0.00     0.216 C 
ATOM      2  C   UNL     1       2.483  22.677  50.650  1.00  0.00     0.070 C 
ATOM      3  C   UNL     1       1.918  22.499  52.030  1.00  0.00     0.037 C 
ATOM      4  C   UNL     1       2.255  21.549  52.900  1.00  0.00     0.021 C 
ATOM      5  C   UNL     1       0.932  23.534  52.240  1.00  0.00     0.334 C 
ATOM      6  O   UNL     1       0.295  23.733  53.308  1.00  0.00    -0.247 OA
ATOM      7  O   UNL     1       0.787  24.310  51.109  1.00  0.00    -0.455 OA
ENDROOT
BRANCH   2   8
ATOM      8  C   UNL     1       4.004  22.971  50.654  1.00  0.00     0.017 C 
BRANCH   8   9
ATOM      9  C   UNL     1       4.556  23.633  51.940  1.00  0.00     0.031 C 
BRANCH   9  10
ATOM     10  C   UNL     1       5.299  24.913  51.620  1.00  0.00    -0.077 C 
ATOM     11  C   UNL     1       6.763  24.825  51.268  1.00  0.00     0.039 C 
ATOM     12  C   UNL     1       4.715  26.131  51.611  1.00  0.00    -0.028 CG0
ATOM     13  G   UNL     1       3.294  26.447  52.029  1.00  0.00     0.000 G0
ENDBRANCH   9  10
ENDBRANCH   8   9
ENDBRANCH   2   8
BRANCH   1  14
ATOM     14  C   UNL     1       2.252  24.858  49.148  1.00  0.00     0.192 C 
ATOM     15  C   UNL     1       2.562  26.282  49.513  1.00  0.00     0.096 C 
ATOM     16  O   UNL     1       1.348  25.912  48.901  1.00  0.00    -0.362 OA
ATOM     17  C   UNL     1       3.415  27.083  48.521  1.00  0.00     0.045 C 
BRANCH  15  18
ATOM     18  C   UNL     1       2.308  26.890  50.910  1.00  0.00     0.042 C 
BRANCH  18  19
ATOM     19  C   UNL     1       3.295  26.452  52.019  1.00  0.00     0.030 CG0
ATOM     20  G   UNL     1       4.709  26.131  51.584  1.00  0.00     0.000 G0
ENDBRANCH  18  19
ENDBRANCH  15  18
ENDBRANCH   1  14
TORSDOF 0
ENDMDL
MODEL 7
REMARK VINA RESULT:    -3.776      2.318      4.035
REMARK INTER + INTRA:          -4.197
REMARK INTER:                  -5.087
REMARK INTRA:                   0.889
REMARK UNBOUND:                 0.903
REMARK SMILES C=C1C(=O)O[C@H]2[C@H]3O[C@@]3(C)CCC=C(C)CC[C@@H]12
REMARK SMILES IDX 6 1 18 2 2 3 1 4 3 5 4 6 5 7 17 8 16 9 14 10 15 11 13 12
REMARK SMILES IDX 7 14 9 15 8 16 10 17 11 18 12 19
REMARK H PARENT
REMARK Flexibility Score: 70.00
ROOT
ATOM      1  C   UNL     1       1.485  23.694  50.756  1.00  0.00     0.216 C 
ATOM      2  C   UNL     1       0.501  24.477  51.688  1.00  0.00     0.070 C 
ATOM      3  C   UNL     1       0.973  25.897  51.561  1.00  0.00     0.037 C 
ATOM      4  C   UNL     1       0.358  26.975  52.044  1.00  0.00     0.021 C 
ATOM      5  C   UNL     1       2.205  25.886  50.808  1.00  0.00     0.334 C 
ATOM      6  O   UNL     1       2.919  26.892  50.558  1.00  0.00    -0.247 OA
ATOM      7  O   UNL     1       2.524  24.605  50.407  1.00  0.00    -0.455 OA
ENDROOT
BRANCH   2   8
ATOM      8  C   UNL     1       0.425  23.995  53.159  1.00  0.00     0.017 C 
BRANCH   8   9
ATOM      9  C   UNL     1       1.379  24.709  54.148  1.00  0.00     0.031 C 
BRANCH   9  10
ATOM     10  C   UNL     1       2.250  23.712  54.883  1.00  0.00    -0.077 C 
ATOM     11  C   UNL     1       1.709  23.076  56.139  1.00  0.00     0.039 C 
ATOM     12  C   UNL     1       3.480  23.343  54.462  1.00  0.00    -0.028 CG0
ATOM     13  G   UNL     1       4.240  23.932  53.292  1.00  0.00     0.000 G0
ENDBRANCH   9  10
ENDBRANCH   8   9
ENDBRANCH   2   8
BRANCH   1  14
ATOM     14  C   UNL     1       1.970  22.307  51.246  1.00  0.00     0.192 C 
ATOM     15  C   UNL     1       3.322  21.960  51.803  1.00  0.00     0.096 C 
ATOM     16  O   UNL     1       3.031  21.865  50.428  1.00  0.00    -0.362 OA
ATOM     17  C   UNL     1       3.491  20.554  52.392  1.00  0.00     0.045 C 
BRANCH  15  18
ATOM     18  C   UNL     1       4.442  22.993  52.055  1.00  0.00     0.042 C 
BRANCH  18  19
ATOM     19  C   UNL     1       4.234  23.922  53.275  1.00  0.00     0.030 CG0
ATOM     20  G   UNL     1       3.492  23.336  54.458  1.00  0.00     0.000 G0
ENDBRANCH  18  19
ENDBRANCH  15  18
ENDBRANCH   1  14
TORSDOF 0
ENDMDL
MODEL 8
REMARK VINA RESULT:    -3.752      2.028      4.303
REMARK INTER + INTRA:          -4.165
REMARK INTER:                  -5.047
REMARK INTRA:                   0.882
REMARK UNBOUND:                 0.903
REMARK SMILES C=C1C(=O)O[C@H]2[C@H]3O[C@@]3(C)CCC=C(C)CC[C@@H]12
REMARK SMILES IDX 6 1 18 2 2 3 1 4 3 5 4 6 5 7 17 8 16 9 14 10 15 11 13 12
REMARK SMILES IDX 7 14 9 15 8 16 10 17 11 18 12 19
REMARK H PARENT
REMARK Flexibility Score: 70.00
ROOT
ATOM      1  C   UNL     1       3.779  22.012  52.657  1.00  0.00     0.216 C 
ATOM      2  C   UNL     1       2.541  22.159  51.710  1.00  0.00     0.070 C 
ATOM      3  C   UNL     1       3.011  23.159  50.692  1.00  0.00     0.037 C 
ATOM      4  C   UNL     1       2.372  23.503  49.576  1.00  0.00     0.021 C 
ATOM      5  C   UNL     1       4.289  23.669  51.134  1.00  0.00     0.334 C 
ATOM      6  O   UNL     1       4.954  24.572  50.561  1.00  0.00    -0.247 OA
ATOM      7  O   UNL     1       4.689  23.051  52.300  1.00  0.00    -0.455 OA
ENDROOT
BRANCH   2   8
ATOM      8  C   UNL     1       1.208  22.567  52.386  1.00  0.00     0.017 C 
BRANCH   8   9
ATOM      9  C   UNL     1       0.904  24.085  52.407  1.00  0.00     0.031 C 
BRANCH   9  10
ATOM     10  C   UNL     1       0.637  24.569  53.816  1.00  0.00    -0.077 C 
ATOM     11  C   UNL     1      -0.773  24.497  54.345  1.00  0.00     0.039 C 
ATOM     12  C   UNL     1       1.601  25.044  54.636  1.00  0.00    -0.028 CG0
ATOM     13  G   UNL     1       3.049  25.292  54.269  1.00  0.00     0.000 G0
ENDBRANCH   9  10
ENDBRANCH   8   9
ENDBRANCH   2   8
BRANCH   1  14
ATOM     14  C   UNL     1       3.496  21.887  54.175  1.00  0.00     0.192 C 
ATOM     15  C   UNL     1       3.681  22.945  55.227  1.00  0.00     0.096 C 
ATOM     16  O   UNL     1       4.703  22.033  54.891  1.00  0.00    -0.362 OA
ATOM     17  C   UNL     1       3.151  22.628  56.631  1.00  0.00     0.045 C 
BRANCH  15  18
ATOM     18  C   UNL     1       4.121  24.394  54.924  1.00  0.00     0.042 C 
BRANCH  18  19
ATOM     19  C   UNL     1       3.047  25.295  54.268  1.00  0.00     0.030 CG0
ATOM     20  G   UNL     1       1.607  25.026  54.649  1.00  0.00     0.000 G0
ENDBRANCH  18  19
ENDBRANCH  15  18
ENDBRANCH   1  14
TORSDOF 0
ENDMDL
MODEL 9
REMARK VINA RESULT:    -3.730      1.773      4.255
REMARK INTER + INTRA:          -4.135
REMARK INTER:                  -5.018
REMARK INTRA:                   0.883
REMARK UNBOUND:                 0.903
REMARK SMILES C=C1C(=O)O[C@H]2[C@H]3O[C@@]3(C)CCC=C(C)CC[C@@H]12
REMARK SMILES IDX 6 1 18 2 2 3 1 4 3 5 4 6 5 7 17 8 16 9 14 10 15 11 13 12
REMARK SMILES IDX 7 14 9 15 8 16 10 17 11 18 12 19
REMARK H PARENT
REMARK Flexibility Score: 70.00
ROOT
ATOM      1  C   UNL     1       3.083  22.336  52.777  1.00  0.00     0.216 C 
ATOM      2  C   UNL     1       3.604  22.617  51.327  1.00  0.00     0.070 C 
ATOM      3  C   UNL     1       5.003  23.109  51.561  1.00  0.00     0.037 C 
ATOM      4  C   UNL     1       5.923  23.334  50.625  1.00  0.00     0.021 C 
ATOM      5  C   UNL     1       5.178  23.280  52.985  1.00  0.00     0.334 C 
ATOM      6  O   UNL     1       6.209  23.737  53.546  1.00  0.00    -0.247 OA
ATOM      7  O   UNL     1       4.044  22.895  53.669  1.00  0.00    -0.455 OA
ENDROOT
BRANCH   2   8
ATOM      8  C   UNL     1       2.755  23.594  50.474  1.00  0.00     0.017 C 
BRANCH   8   9
ATOM      9  C   UNL     1       3.179  25.081  50.537  1.00  0.00     0.031 C 
BRANCH   9  10
ATOM     10  C   UNL     1       2.018  25.965  50.938  1.00  0.00    -0.077 C 
ATOM     11  C   UNL     1       1.091  26.466  49.859  1.00  0.00     0.039 C 
ATOM     12  C   UNL     1       1.751  26.311  52.217  1.00  0.00    -0.028 CG0
ATOM     13  G   UNL     1       2.606  25.999  53.427  1.00  0.00     0.000 G0
ENDBRANCH   9  10
ENDBRANCH   8   9
ENDBRANCH   2   8
BRANCH   1  14
ATOM     14  C   UNL     1       1.612  22.711  53.084  1.00  0.00     0.192 C 
ATOM     15  C   UNL     1       1.119  23.889  53.876  1.00  0.00     0.096 C 
ATOM     16  O   UNL     1       1.391  22.643  54.476  1.00  0.00    -0.362 OA
ATOM     17  C   UNL     1      -0.395  24.141  53.878  1.00  0.00     0.045 C 
BRANCH  15  18
ATOM     18  C   UNL     1       2.039  24.987  54.454  1.00  0.00     0.042 C 
BRANCH  18  19
ATOM     19  C   UNL     1       2.602  25.997  53.425  1.00  0.00     0.030 CG0
ATOM     20  G   UNL     1       1.739  26.290  52.216  1.00  0.00     0.000 G0
ENDBRANCH  18  19
ENDBRANCH  15  18
ENDBRANCH   1  14
TORSDOF 0
ENDMDL
