MODEL 1
REMARK VINA RESULT:    -5.623      0.000      0.000
REMARK INTER + INTRA:         -13.425
REMARK INTER:                 -10.883
REMARK INTRA:                  -2.543
REMARK UNBOUND:                -2.543
REMARK SMILES CCCCCCCCCCCCCCCCCC(=O)[O-]
REMARK SMILES IDX 10 1 11 2 12 3 13 4 14 5 15 6 16 7 17 8 18 9 19 10 20 11
REMARK SMILES IDX 9 12 8 13 7 14 6 15 5 16 4 17 3 18 2 19 1 20
REMARK H PARENT
REMARK Flexibility Score: inf
ROOT
ATOM      1  C   UNL     1      63.127   1.622  19.468  1.00  0.00     0.000 C 
ENDROOT
BRANCH   1   2
ATOM      2  C   UNL     1      63.722   3.009  19.182  1.00  0.00     0.000 C 
BRANCH   2   3
ATOM      3  C   UNL     1      65.242   2.962  18.945  1.00  0.00     0.000 C 
BRANCH   3   4
ATOM      4  C   UNL     1      66.015   3.957  19.829  1.00  0.00     0.000 C 
BRANCH   4   5
ATOM      5  C   UNL     1      65.461   5.394  19.827  1.00  0.00     0.000 C 
BRANCH   5   6
ATOM      6  C   UNL     1      65.903   6.267  21.017  1.00  0.00     0.000 C 
BRANCH   6   7
ATOM      7  C   UNL     1      66.085   7.758  20.662  1.00  0.00     0.006 C 
BRANCH   7   8
ATOM      8  C   UNL     1      65.439   8.127  19.320  1.00  0.00     0.053 C 
BRANCH   8   9
ATOM      9  C   UNL     1      65.195   9.601  19.244  1.00  0.00     0.041 C 
ATOM     10  O   UNL     1      64.076  10.076  19.573  1.00  0.00    -0.550 OA
ATOM     11  O   UNL     1      66.188  10.446  18.767  1.00  0.00    -0.550 OA
ENDBRANCH   8   9
ENDBRANCH   7   8
ENDBRANCH   6   7
ENDBRANCH   5   6
ENDBRANCH   4   5
ENDBRANCH   3   4
ENDBRANCH   2   3
ENDBRANCH   1   2
BRANCH   1  12
ATOM     12  C   UNL     1      61.645   1.687  19.881  1.00  0.00     0.000 C 
BRANCH  12  13
ATOM     13  C   UNL     1      61.207   3.118  20.257  1.00  0.00    -0.000 C 
BRANCH  13  14
ATOM     14  C   UNL     1      61.258   3.398  21.768  1.00  0.00    -0.000 C 
BRANCH  14  15
ATOM     15  C   UNL     1      62.196   4.560  22.130  1.00  0.00    -0.000 C 
BRANCH  15  16
ATOM     16  C   UNL     1      63.497   4.092  22.803  1.00  0.00    -0.000 C 
BRANCH  16  17
ATOM     17  C   UNL     1      63.566   2.564  23.016  1.00  0.00    -0.000 C 
BRANCH  17  18
ATOM     18  C   UNL     1      65.005   2.032  22.942  1.00  0.00    -0.000 C 
BRANCH  18  19
ATOM     19  C   UNL     1      65.910   2.754  23.948  1.00  0.00    -0.003 C 
ATOM     20  C   UNL     1      67.227   3.173  23.303  1.00  0.00     0.004 C 
ENDBRANCH  18  19
ENDBRANCH  17  18
ENDBRANCH  16  17
ENDBRANCH  15  16
ENDBRANCH  14  15
ENDBRANCH  13  14
ENDBRANCH  12  13
ENDBRANCH   1  12
TORSDOF 16
ENDMDL
MODEL 2
REMARK VINA RESULT:    -5.547      3.104      4.108
REMARK INTER + INTRA:         -13.277
REMARK INTER:                 -10.650
REMARK INTRA:                  -2.627
REMARK UNBOUND:                -2.543
REMARK SMILES CCCCCCCCCCCCCCCCCC(=O)[O-]
REMARK SMILES IDX 10 1 11 2 12 3 13 4 14 5 15 6 16 7 17 8 18 9 19 10 20 11
REMARK SMILES IDX 9 12 8 13 7 14 6 15 5 16 4 17 3 18 2 19 1 20
REMARK H PARENT
REMARK Flexibility Score: inf
ROOT
ATOM      1  C   UNL     1      64.435   1.784  19.689  1.00  0.00     0.000 C 
ENDROOT
BRANCH   1   2
ATOM      2  C   UNL     1      64.789   3.054  18.901  1.00  0.00     0.000 C 
BRANCH   2   3
ATOM      3  C   UNL     1      65.838   3.921  19.620  1.00  0.00     0.000 C 
BRANCH   3   4
ATOM      4  C   UNL     1      65.364   5.368  19.846  1.00  0.00     0.000 C 
BRANCH   4   5
ATOM      5  C   UNL     1      66.141   6.145  20.925  1.00  0.00     0.000 C 
BRANCH   5   6
ATOM      6  C   UNL     1      67.096   5.293  21.782  1.00  0.00     0.000 C 
BRANCH   6   7
ATOM      7  C   UNL     1      67.114   5.690  23.274  1.00  0.00     0.006 C 
BRANCH   7   8
ATOM      8  C   UNL     1      67.777   4.625  24.159  1.00  0.00     0.053 C 
BRANCH   8   9
ATOM      9  C   UNL     1      67.455   4.868  25.600  1.00  0.00     0.041 C 
ATOM     10  O   UNL     1      66.282   5.166  25.946  1.00  0.00    -0.550 OA
ATOM     11  O   UNL     1      68.462   4.810  26.556  1.00  0.00    -0.550 OA
ENDBRANCH   8   9
ENDBRANCH   7   8
ENDBRANCH   6   7
ENDBRANCH   5   6
ENDBRANCH   4   5
ENDBRANCH   3   4
ENDBRANCH   2   3
ENDBRANCH   1   2
BRANCH   1  12
ATOM     12  C   UNL     1      63.172   1.086  19.151  1.00  0.00     0.000 C 
BRANCH  12  13
ATOM     13  C   UNL     1      61.924   1.406  19.999  1.00  0.00    -0.000 C 
BRANCH  13  14
ATOM     14  C   UNL     1      61.237   2.725  19.609  1.00  0.00    -0.000 C 
BRANCH  14  15
ATOM     15  C   UNL     1      60.960   3.635  20.815  1.00  0.00    -0.000 C 
BRANCH  15  16
ATOM     16  C   UNL     1      61.498   3.059  22.136  1.00  0.00    -0.000 C 
BRANCH  16  17
ATOM     17  C   UNL     1      62.401   4.040  22.913  1.00  0.00    -0.000 C 
BRANCH  17  18
ATOM     18  C   UNL     1      63.889   3.680  22.791  1.00  0.00    -0.000 C 
BRANCH  18  19
ATOM     19  C   UNL     1      64.234   2.462  23.656  1.00  0.00    -0.003 C 
ATOM     20  C   UNL     1      65.532   1.808  23.196  1.00  0.00     0.004 C 
ENDBRANCH  18  19
ENDBRANCH  17  18
ENDBRANCH  16  17
ENDBRANCH  15  16
ENDBRANCH  14  15
ENDBRANCH  13  14
ENDBRANCH  12  13
ENDBRANCH   1  12
TORSDOF 16
ENDMDL
MODEL 3
REMARK VINA RESULT:    -5.481      3.015      5.278
REMARK INTER + INTRA:         -13.149
REMARK INTER:                 -10.214
REMARK INTRA:                  -2.936
REMARK UNBOUND:                -2.543
REMARK SMILES CCCCCCCCCCCCCCCCCC(=O)[O-]
REMARK SMILES IDX 10 1 11 2 12 3 13 4 14 5 15 6 16 7 17 8 18 9 19 10 20 11
REMARK SMILES IDX 9 12 8 13 7 14 6 15 5 16 4 17 3 18 2 19 1 20
REMARK H PARENT
REMARK Flexibility Score: inf
ROOT
ATOM      1  C   UNL     1      61.206   3.667  21.487  1.00  0.00     0.000 C 
ENDROOT
BRANCH   1   2
ATOM      2  C   UNL     1      62.454   4.535  21.706  1.00  0.00     0.000 C 
BRANCH   2   3
ATOM      3  C   UNL     1      63.213   4.166  22.993  1.00  0.00     0.000 C 
BRANCH   3   4
ATOM      4  C   UNL     1      63.094   2.673  23.349  1.00  0.00     0.000 C 
BRANCH   4   5
ATOM      5  C   UNL     1      64.432   1.913  23.413  1.00  0.00     0.000 C 
BRANCH   5   6
ATOM      6  C   UNL     1      65.672   2.739  23.022  1.00  0.00     0.000 C 
BRANCH   6   7
ATOM      7  C   UNL     1      66.658   2.970  24.188  1.00  0.00     0.006 C 
BRANCH   7   8
ATOM      8  C   UNL     1      66.526   4.370  24.801  1.00  0.00     0.053 C 
BRANCH   8   9
ATOM      9  C   UNL     1      67.844   4.831  25.342  1.00  0.00     0.041 C 
ATOM     10  O   UNL     1      68.771   5.160  24.556  1.00  0.00    -0.550 OA
ATOM     11  O   UNL     1      68.063   4.853  26.713  1.00  0.00    -0.550 OA
ENDBRANCH   8   9
ENDBRANCH   7   8
ENDBRANCH   6   7
ENDBRANCH   5   6
ENDBRANCH   4   5
ENDBRANCH   3   4
ENDBRANCH   2   3
ENDBRANCH   1   2
BRANCH   1  12
ATOM     12  C   UNL     1      61.062   3.193  20.030  1.00  0.00     0.000 C 
BRANCH  12  13
ATOM     13  C   UNL     1      61.353   1.685  19.876  1.00  0.00    -0.000 C 
BRANCH  13  14
ATOM     14  C   UNL     1      62.626   1.384  19.068  1.00  0.00    -0.000 C 
BRANCH  14  15
ATOM     15  C   UNL     1      63.872   1.229  19.953  1.00  0.00    -0.000 C 
BRANCH  15  16
ATOM     16  C   UNL     1      64.990   2.223  19.594  1.00  0.00    -0.000 C 
BRANCH  16  17
ATOM     17  C   UNL     1      64.560   3.286  18.561  1.00  0.00    -0.000 C 
BRANCH  17  18
ATOM     18  C   UNL     1      64.906   4.711  19.017  1.00  0.00    -0.000 C 
BRANCH  18  19
ATOM     19  C   UNL     1      65.919   4.690  20.168  1.00  0.00    -0.003 C 
ATOM     20  C   UNL     1      66.082   6.075  20.786  1.00  0.00     0.004 C 
ENDBRANCH  18  19
ENDBRANCH  17  18
ENDBRANCH  16  17
ENDBRANCH  15  16
ENDBRANCH  14  15
ENDBRANCH  13  14
ENDBRANCH  12  13
ENDBRANCH   1  12
TORSDOF 16
ENDMDL
MODEL 4
REMARK VINA RESULT:    -5.434      1.816      2.249
REMARK INTER + INTRA:         -13.059
REMARK INTER:                 -10.322
REMARK INTRA:                  -2.737
REMARK UNBOUND:                -2.543
REMARK SMILES CCCCCCCCCCCCCCCCCC(=O)[O-]
REMARK SMILES IDX 10 1 11 2 12 3 13 4 14 5 15 6 16 7 17 8 18 9 19 10 20 11
REMARK SMILES IDX 9 12 8 13 7 14 6 15 5 16 4 17 3 18 2 19 1 20
REMARK H PARENT
REMARK Flexibility Score: inf
ROOT
ATOM      1  C   UNL     1      63.253   1.254  19.129  1.00  0.00     0.000 C 
ENDROOT
BRANCH   1   2
ATOM      2  C   UNL     1      64.466   1.928  19.787  1.00  0.00     0.000 C 
BRANCH   2   3
ATOM      3  C   UNL     1      65.252   2.817  18.807  1.00  0.00     0.000 C 
BRANCH   3   4
ATOM      4  C   UNL     1      64.685   4.245  18.710  1.00  0.00     0.000 C 
BRANCH   4   5
ATOM      5  C   UNL     1      65.230   5.232  19.759  1.00  0.00     0.000 C 
BRANCH   5   6
ATOM      6  C   UNL     1      66.436   4.722  20.571  1.00  0.00     0.000 C 
BRANCH   6   7
ATOM      7  C   UNL     1      66.823   5.638  21.753  1.00  0.00     0.006 C 
BRANCH   7   8
ATOM      8  C   UNL     1      68.267   6.146  21.656  1.00  0.00     0.053 C 
BRANCH   8   9
ATOM      9  C   UNL     1      68.321   7.429  20.888  1.00  0.00     0.041 C 
ATOM     10  O   UNL     1      67.280   8.120  20.735  1.00  0.00    -0.550 OA
ATOM     11  O   UNL     1      69.512   7.839  20.302  1.00  0.00    -0.550 OA
ENDBRANCH   8   9
ENDBRANCH   7   8
ENDBRANCH   6   7
ENDBRANCH   5   6
ENDBRANCH   4   5
ENDBRANCH   3   4
ENDBRANCH   2   3
ENDBRANCH   1   2
BRANCH   1  12
ATOM     12  C   UNL     1      62.000   1.285  20.024  1.00  0.00     0.000 C 
BRANCH  12  13
ATOM     13  C   UNL     1      60.952   2.302  19.525  1.00  0.00    -0.000 C 
BRANCH  13  14
ATOM     14  C   UNL     1      60.924   3.605  20.340  1.00  0.00    -0.000 C 
BRANCH  14  15
ATOM     15  C   UNL     1      61.454   3.427  21.770  1.00  0.00    -0.000 C 
BRANCH  15  16
ATOM     16  C   UNL     1      62.459   4.518  22.177  1.00  0.00    -0.000 C 
BRANCH  16  17
ATOM     17  C   UNL     1      63.710   3.967  22.894  1.00  0.00    -0.000 C 
BRANCH  17  18
ATOM     18  C   UNL     1      63.554   2.489  23.281  1.00  0.00    -0.000 C 
BRANCH  18  19
ATOM     19  C   UNL     1      64.921   1.814  23.437  1.00  0.00    -0.003 C 
ATOM     20  C   UNL     1      65.948   2.775  24.028  1.00  0.00     0.004 C 
ENDBRANCH  18  19
ENDBRANCH  17  18
ENDBRANCH  16  17
ENDBRANCH  15  16
ENDBRANCH  14  15
ENDBRANCH  13  14
ENDBRANCH  12  13
ENDBRANCH   1  12
TORSDOF 16
ENDMDL
MODEL 5
REMARK VINA RESULT:    -5.385      2.921      6.013
REMARK INTER + INTRA:         -12.964
REMARK INTER:                 -10.811
REMARK INTRA:                  -2.153
REMARK UNBOUND:                -2.543
REMARK SMILES CCCCCCCCCCCCCCCCCC(=O)[O-]
REMARK SMILES IDX 10 1 11 2 12 3 13 4 14 5 15 6 16 7 17 8 18 9 19 10 20 11
REMARK SMILES IDX 9 12 8 13 7 14 6 15 5 16 4 17 3 18 2 19 1 20
REMARK H PARENT
REMARK Flexibility Score: inf
ROOT
ATOM      1  C   UNL     1      64.564   2.148  19.872  1.00  0.00     0.000 C 
ENDROOT
BRANCH   1   2
ATOM      2  C   UNL     1      63.518   1.283  19.151  1.00  0.00     0.000 C 
BRANCH   2   3
ATOM      3  C   UNL     1      62.090   1.530  19.668  1.00  0.00     0.000 C 
BRANCH   3   4
ATOM      4  C   UNL     1      61.684   3.014  19.615  1.00  0.00     0.000 C 
BRANCH   4   5
ATOM      5  C   UNL     1      61.125   3.582  20.933  1.00  0.00     0.000 C 
BRANCH   5   6
ATOM      6  C   UNL     1      62.120   4.420  21.758  1.00  0.00     0.000 C 
BRANCH   6   7
ATOM      7  C   UNL     1      62.832   3.624  22.873  1.00  0.00     0.006 C 
BRANCH   7   8
ATOM      8  C   UNL     1      64.278   4.085  23.095  1.00  0.00     0.053 C 
BRANCH   8   9
ATOM      9  C   UNL     1      65.153   2.919  23.432  1.00  0.00     0.041 C 
ATOM     10  O   UNL     1      64.644   1.791  23.667  1.00  0.00    -0.550 OA
ATOM     11  O   UNL     1      66.528   3.088  23.533  1.00  0.00    -0.550 OA
ENDBRANCH   8   9
ENDBRANCH   7   8
ENDBRANCH   6   7
ENDBRANCH   5   6
ENDBRANCH   4   5
ENDBRANCH   3   4
ENDBRANCH   2   3
ENDBRANCH   1   2
BRANCH   1  12
ATOM     12  C   UNL     1      65.563   2.801  18.899  1.00  0.00     0.000 C 
BRANCH  12  13
ATOM     13  C   UNL     1      65.013   4.108  18.289  1.00  0.00    -0.000 C 
BRANCH  13  14
ATOM     14  C   UNL     1      64.766   5.215  19.327  1.00  0.00    -0.000 C 
BRANCH  14  15
ATOM     15  C   UNL     1      65.962   5.431  20.267  1.00  0.00    -0.000 C 
BRANCH  15  16
ATOM     16  C   UNL     1      66.190   6.911  20.616  1.00  0.00    -0.000 C 
BRANCH  16  17
ATOM     17  C   UNL     1      65.476   7.887  19.657  1.00  0.00    -0.000 C 
BRANCH  17  18
ATOM     18  C   UNL     1      66.300   9.157  19.402  1.00  0.00    -0.000 C 
BRANCH  18  19
ATOM     19  C   UNL     1      65.410  10.405  19.430  1.00  0.00    -0.003 C 
ATOM     20  C   UNL     1      63.977  10.053  19.812  1.00  0.00     0.004 C 
ENDBRANCH  18  19
ENDBRANCH  17  18
ENDBRANCH  16  17
ENDBRANCH  15  16
ENDBRANCH  14  15
ENDBRANCH  13  14
ENDBRANCH  12  13
ENDBRANCH   1  12
TORSDOF 16
ENDMDL
MODEL 6
REMARK VINA RESULT:    -5.252      1.551      3.030
REMARK INTER + INTRA:         -12.708
REMARK INTER:                 -10.168
REMARK INTRA:                  -2.540
REMARK UNBOUND:                -2.543
REMARK SMILES CCCCCCCCCCCCCCCCCC(=O)[O-]
REMARK SMILES IDX 10 1 11 2 12 3 13 4 14 5 15 6 16 7 17 8 18 9 19 10 20 11
REMARK SMILES IDX 9 12 8 13 7 14 6 15 5 16 4 17 3 18 2 19 1 20
REMARK H PARENT
REMARK Flexibility Score: inf
ROOT
ATOM      1  C   UNL     1      60.904   2.760  20.483  1.00  0.00     0.000 C 
ENDROOT
BRANCH   1   2
ATOM      2  C   UNL     1      61.581   1.758  19.536  1.00  0.00     0.000 C 
BRANCH   2   3
ATOM      3  C   UNL     1      62.855   1.141  20.141  1.00  0.00     0.000 C 
BRANCH   3   4
ATOM      4  C   UNL     1      64.085   1.296  19.229  1.00  0.00     0.000 C 
BRANCH   4   5
ATOM      5  C   UNL     1      64.980   2.509  19.548  1.00  0.00     0.000 C 
BRANCH   5   6
ATOM      6  C   UNL     1      65.036   3.586  18.449  1.00  0.00     0.000 C 
BRANCH   6   7
ATOM      7  C   UNL     1      65.018   5.031  18.992  1.00  0.00     0.006 C 
BRANCH   7   8
ATOM      8  C   UNL     1      65.845   5.188  20.275  1.00  0.00     0.053 C 
BRANCH   8   9
ATOM      9  C   UNL     1      66.012   6.635  20.618  1.00  0.00     0.041 C 
ATOM     10  O   UNL     1      65.109   7.463  20.325  1.00  0.00    -0.550 OA
ATOM     11  O   UNL     1      67.184   7.077  21.218  1.00  0.00    -0.550 OA
ENDBRANCH   8   9
ENDBRANCH   7   8
ENDBRANCH   6   7
ENDBRANCH   5   6
ENDBRANCH   4   5
ENDBRANCH   3   4
ENDBRANCH   2   3
ENDBRANCH   1   2
BRANCH   1  12
ATOM     12  C   UNL     1      61.628   2.877  21.837  1.00  0.00     0.000 C 
BRANCH  12  13
ATOM     13  C   UNL     1      62.099   4.319  22.123  1.00  0.00    -0.000 C 
BRANCH  13  14
ATOM     14  C   UNL     1      63.424   4.390  22.900  1.00  0.00    -0.000 C 
BRANCH  14  15
ATOM     15  C   UNL     1      64.132   3.031  22.999  1.00  0.00    -0.000 C 
BRANCH  15  16
ATOM     16  C   UNL     1      65.442   3.094  23.802  1.00  0.00    -0.000 C 
BRANCH  16  17
ATOM     17  C   UNL     1      65.863   4.530  24.182  1.00  0.00    -0.000 C 
BRANCH  17  18
ATOM     18  C   UNL     1      67.334   4.813  23.845  1.00  0.00    -0.000 C 
BRANCH  18  19
ATOM     19  C   UNL     1      67.930   3.685  22.996  1.00  0.00    -0.003 C 
ATOM     20  C   UNL     1      69.447   3.627  23.140  1.00  0.00     0.004 C 
ENDBRANCH  18  19
ENDBRANCH  17  18
ENDBRANCH  16  17
ENDBRANCH  15  16
ENDBRANCH  14  15
ENDBRANCH  13  14
ENDBRANCH  12  13
ENDBRANCH   1  12
TORSDOF 16
ENDMDL
MODEL 7
REMARK VINA RESULT:    -5.230      1.391      2.779
REMARK INTER + INTRA:         -12.665
REMARK INTER:                 -10.633
REMARK INTRA:                  -2.032
REMARK UNBOUND:                -2.543
REMARK SMILES CCCCCCCCCCCCCCCCCC(=O)[O-]
REMARK SMILES IDX 10 1 11 2 12 3 13 4 14 5 15 6 16 7 17 8 18 9 19 10 20 11
REMARK SMILES IDX 9 12 8 13 7 14 6 15 5 16 4 17 3 18 2 19 1 20
REMARK H PARENT
REMARK Flexibility Score: inf
ROOT
ATOM      1  C   UNL     1      64.952   3.266  18.421  1.00  0.00     0.000 C 
ENDROOT
BRANCH   1   2
ATOM      2  C   UNL     1      65.023   4.754  18.797  1.00  0.00     0.000 C 
BRANCH   2   3
ATOM      3  C   UNL     1      65.682   4.986  20.169  1.00  0.00     0.000 C 
BRANCH   3   4
ATOM      4  C   UNL     1      65.598   6.451  20.633  1.00  0.00     0.000 C 
BRANCH   4   5
ATOM      5  C   UNL     1      65.403   7.479  19.503  1.00  0.00     0.000 C 
BRANCH   5   6
ATOM      6  C   UNL     1      66.301   8.728  19.594  1.00  0.00     0.000 C 
BRANCH   6   7
ATOM      7  C   UNL     1      65.605  10.030  19.143  1.00  0.00     0.006 C 
BRANCH   7   8
ATOM      8  C   UNL     1      64.948  10.781  20.308  1.00  0.00     0.053 C 
BRANCH   8   9
ATOM      9  C   UNL     1      65.251  12.244  20.225  1.00  0.00     0.041 C 
ATOM     10  O   UNL     1      64.324  13.074  20.031  1.00  0.00    -0.550 OA
ATOM     11  O   UNL     1      66.564  12.689  20.315  1.00  0.00    -0.550 OA
ENDBRANCH   8   9
ENDBRANCH   7   8
ENDBRANCH   6   7
ENDBRANCH   5   6
ENDBRANCH   4   5
ENDBRANCH   3   4
ENDBRANCH   2   3
ENDBRANCH   1   2
BRANCH   1  12
ATOM     12  C   UNL     1      64.606   2.368  19.623  1.00  0.00     0.000 C 
BRANCH  12  13
ATOM     13  C   UNL     1      63.499   1.346  19.286  1.00  0.00    -0.000 C 
BRANCH  13  14
ATOM     14  C   UNL     1      62.176   1.608  20.026  1.00  0.00    -0.000 C 
BRANCH  14  15
ATOM     15  C   UNL     1      61.566   2.978  19.695  1.00  0.00    -0.000 C 
BRANCH  15  16
ATOM     16  C   UNL     1      61.009   3.701  20.932  1.00  0.00    -0.000 C 
BRANCH  16  17
ATOM     17  C   UNL     1      62.063   4.548  21.677  1.00  0.00    -0.000 C 
BRANCH  17  18
ATOM     18  C   UNL     1      62.490   3.906  23.005  1.00  0.00    -0.000 C 
BRANCH  18  19
ATOM     19  C   UNL     1      64.014   3.759  23.079  1.00  0.00    -0.003 C 
ATOM     20  C   UNL     1      64.419   2.307  23.317  1.00  0.00     0.004 C 
ENDBRANCH  18  19
ENDBRANCH  17  18
ENDBRANCH  16  17
ENDBRANCH  15  16
ENDBRANCH  14  15
ENDBRANCH  13  14
ENDBRANCH  12  13
ENDBRANCH   1  12
TORSDOF 16
ENDMDL
MODEL 8
REMARK VINA RESULT:    -5.203      2.586      3.043
REMARK INTER + INTRA:         -12.612
REMARK INTER:                  -9.945
REMARK INTRA:                  -2.667
REMARK UNBOUND:                -2.543
REMARK SMILES CCCCCCCCCCCCCCCCCC(=O)[O-]
REMARK SMILES IDX 10 1 11 2 12 3 13 4 14 5 15 6 16 7 17 8 18 9 19 10 20 11
REMARK SMILES IDX 9 12 8 13 7 14 6 15 5 16 4 17 3 18 2 19 1 20
REMARK H PARENT
REMARK Flexibility Score: inf
ROOT
ATOM      1  C   UNL     1      63.432   2.081  19.628  1.00  0.00     0.000 C 
ENDROOT
BRANCH   1   2
ATOM      2  C   UNL     1      63.996   3.395  19.067  1.00  0.00     0.000 C 
BRANCH   2   3
ATOM      3  C   UNL     1      65.535   3.414  19.043  1.00  0.00     0.000 C 
BRANCH   3   4
ATOM      4  C   UNL     1      66.138   4.335  20.119  1.00  0.00     0.000 C 
BRANCH   4   5
ATOM      5  C   UNL     1      65.406   5.676  20.310  1.00  0.00     0.000 C 
BRANCH   5   6
ATOM      6  C   UNL     1      66.290   6.840  20.796  1.00  0.00     0.000 C 
BRANCH   6   7
ATOM      7  C   UNL     1      67.718   6.411  21.196  1.00  0.00     0.006 C 
BRANCH   7   8
ATOM      8  C   UNL     1      68.236   7.166  22.428  1.00  0.00     0.053 C 
BRANCH   8   9
ATOM      9  C   UNL     1      69.669   6.822  22.688  1.00  0.00     0.041 C 
ATOM     10  O   UNL     1      70.542   7.038  21.807  1.00  0.00    -0.550 OA
ATOM     11  O   UNL     1      70.033   6.222  23.887  1.00  0.00    -0.550 OA
ENDBRANCH   8   9
ENDBRANCH   7   8
ENDBRANCH   6   7
ENDBRANCH   5   6
ENDBRANCH   4   5
ENDBRANCH   3   4
ENDBRANCH   2   3
ENDBRANCH   1   2
BRANCH   1  12
ATOM     12  C   UNL     1      61.893   2.072  19.679  1.00  0.00     0.000 C 
BRANCH  12  13
ATOM     13  C   UNL     1      61.336   3.125  20.660  1.00  0.00    -0.000 C 
BRANCH  13  14
ATOM     14  C   UNL     1      61.906   3.001  22.083  1.00  0.00    -0.000 C 
BRANCH  14  15
ATOM     15  C   UNL     1      62.668   4.257  22.533  1.00  0.00    -0.000 C 
BRANCH  15  16
ATOM     16  C   UNL     1      64.032   3.935  23.166  1.00  0.00    -0.000 C 
BRANCH  16  17
ATOM     17  C   UNL     1      64.381   2.432  23.146  1.00  0.00    -0.000 C 
BRANCH  17  18
ATOM     18  C   UNL     1      65.813   2.161  23.630  1.00  0.00    -0.000 C 
BRANCH  18  19
ATOM     19  C   UNL     1      66.599   3.469  23.779  1.00  0.00    -0.003 C 
ATOM     20  C   UNL     1      68.009   3.335  23.211  1.00  0.00     0.004 C 
ENDBRANCH  18  19
ENDBRANCH  17  18
ENDBRANCH  16  17
ENDBRANCH  15  16
ENDBRANCH  14  15
ENDBRANCH  13  14
ENDBRANCH  12  13
ENDBRANCH   1  12
TORSDOF 16
ENDMDL
MODEL 9
REMARK VINA RESULT:    -5.202      2.578      5.472
REMARK INTER + INTRA:         -12.611
REMARK INTER:                 -10.429
REMARK INTRA:                  -2.182
REMARK UNBOUND:                -2.543
REMARK SMILES CCCCCCCCCCCCCCCCCC(=O)[O-]
REMARK SMILES IDX 10 1 11 2 12 3 13 4 14 5 15 6 16 7 17 8 18 9 19 10 20 11
REMARK SMILES IDX 9 12 8 13 7 14 6 15 5 16 4 17 3 18 2 19 1 20
REMARK H PARENT
REMARK Flexibility Score: inf
ROOT
ATOM      1  C   UNL     1      61.766   1.692  19.885  1.00  0.00     0.000 C 
ENDROOT
BRANCH   1   2
ATOM      2  C   UNL     1      61.630   3.220  19.805  1.00  0.00     0.000 C 
BRANCH   2   3
ATOM      3  C   UNL     1      61.306   3.857  21.168  1.00  0.00     0.000 C 
BRANCH   3   4
ATOM      4  C   UNL     1      61.712   2.965  22.356  1.00  0.00     0.000 C 
BRANCH   4   5
ATOM      5  C   UNL     1      63.067   3.317  22.998  1.00  0.00     0.000 C 
BRANCH   5   6
ATOM      6  C   UNL     1      63.831   2.126  23.607  1.00  0.00     0.000 C 
BRANCH   6   7
ATOM      7  C   UNL     1      65.356   2.178  23.370  1.00  0.00     0.006 C 
BRANCH   7   8
ATOM      8  C   UNL     1      66.109   2.845  24.528  1.00  0.00     0.053 C 
BRANCH   8   9
ATOM      9  C   UNL     1      66.928   3.993  24.028  1.00  0.00     0.041 C 
ATOM     10  O   UNL     1      66.543   5.176  24.219  1.00  0.00    -0.550 OA
ATOM     11  O   UNL     1      68.094   3.755  23.311  1.00  0.00    -0.550 OA
ENDBRANCH   8   9
ENDBRANCH   7   8
ENDBRANCH   6   7
ENDBRANCH   5   6
ENDBRANCH   4   5
ENDBRANCH   3   4
ENDBRANCH   2   3
ENDBRANCH   1   2
BRANCH   1  12
ATOM     12  C   UNL     1      63.135   1.192  19.387  1.00  0.00     0.000 C 
BRANCH  12  13
ATOM     13  C   UNL     1      64.291   2.104  19.849  1.00  0.00    -0.000 C 
BRANCH  13  14
ATOM     14  C   UNL     1      65.032   2.791  18.690  1.00  0.00    -0.000 C 
BRANCH  14  15
ATOM     15  C   UNL     1      65.400   4.250  18.997  1.00  0.00    -0.000 C 
BRANCH  15  16
ATOM     16  C   UNL     1      65.638   4.506  20.495  1.00  0.00    -0.000 C 
BRANCH  16  17
ATOM     17  C   UNL     1      66.229   5.900  20.795  1.00  0.00    -0.000 C 
BRANCH  17  18
ATOM     18  C   UNL     1      65.449   7.024  20.099  1.00  0.00    -0.000 C 
BRANCH  18  19
ATOM     19  C   UNL     1      66.078   8.392  20.389  1.00  0.00    -0.003 C 
ATOM     20  C   UNL     1      66.132   9.254  19.132  1.00  0.00     0.004 C 
ENDBRANCH  18  19
ENDBRANCH  17  18
ENDBRANCH  16  17
ENDBRANCH  15  16
ENDBRANCH  14  15
ENDBRANCH  13  14
ENDBRANCH  12  13
ENDBRANCH   1  12
TORSDOF 16
ENDMDL
