MODEL 1
REMARK VINA RESULT:    -3.673      0.000      0.000
REMARK INTER + INTRA:          -4.347
REMARK INTER:                  -4.317
REMARK INTRA:                  -0.031
REMARK UNBOUND:                -0.031
REMARK SMILES CCCCC(=O)[O-]
REMARK SMILES IDX 4 1 5 2 6 3 7 4 3 5 2 6 1 7
REMARK H PARENT
REMARK Flexibility Score: inf
ROOT
ATOM      1  C   UNL     1      -3.513 -23.115   1.195  1.00  0.00     0.053 C 
ENDROOT
BRANCH   1   2
ATOM      2  C   UNL     1      -4.847 -23.716   1.518  1.00  0.00     0.041 C 
ATOM      3  O   UNL     1      -5.309 -24.653   0.814  1.00  0.00    -0.550 OA
ATOM      4  O   UNL     1      -5.567 -23.263   2.616  1.00  0.00    -0.550 OA
ENDBRANCH   1   2
BRANCH   1   5
ATOM      5  C   UNL     1      -2.752 -23.901   0.114  1.00  0.00     0.006 C 
BRANCH   5   6
ATOM      6  C   UNL     1      -1.252 -23.565   0.040  1.00  0.00    -0.003 C 
ATOM      7  C   UNL     1      -0.891 -22.260   0.746  1.00  0.00     0.004 C 
ENDBRANCH   5   6
ENDBRANCH   1   5
TORSDOF 3
ENDMDL
MODEL 2
REMARK VINA RESULT:    -3.571      2.624      3.904
REMARK INTER + INTRA:          -4.228
REMARK INTER:                  -4.193
REMARK INTRA:                  -0.036
REMARK UNBOUND:                -0.031
REMARK SMILES CCCCC(=O)[O-]
REMARK SMILES IDX 4 1 5 2 6 3 7 4 3 5 2 6 1 7
REMARK H PARENT
REMARK Flexibility Score: inf
ROOT
ATOM      1  C   UNL     1      -2.470 -23.956   0.074  1.00  0.00     0.053 C 
ENDROOT
BRANCH   1   2
ATOM      2  C   UNL     1      -2.443 -24.417  -1.351  1.00  0.00     0.041 C 
ATOM      3  O   UNL     1      -1.376 -24.851  -1.859  1.00  0.00    -0.550 OA
ATOM      4  O   UNL     1      -3.607 -24.394  -2.111  1.00  0.00    -0.550 OA
ENDBRANCH   1   2
BRANCH   1   5
ATOM      5  C   UNL     1      -3.834 -24.186   0.748  1.00  0.00     0.006 C 
BRANCH   5   6
ATOM      6  C   UNL     1      -4.385 -22.947   1.476  1.00  0.00    -0.003 C 
ATOM      7  C   UNL     1      -5.470 -23.281   2.497  1.00  0.00     0.004 C 
ENDBRANCH   5   6
ENDBRANCH   1   5
TORSDOF 3
ENDMDL
MODEL 3
REMARK VINA RESULT:    -3.570     11.614     12.197
REMARK INTER + INTRA:          -4.227
REMARK INTER:                  -4.184
REMARK INTRA:                  -0.043
REMARK UNBOUND:                -0.031
REMARK SMILES CCCCC(=O)[O-]
REMARK SMILES IDX 4 1 5 2 6 3 7 4 3 5 2 6 1 7
REMARK H PARENT
REMARK Flexibility Score: inf
ROOT
ATOM      1  C   UNL     1       1.692 -19.088  -8.065  1.00  0.00     0.053 C 
ENDROOT
BRANCH   1   2
ATOM      2  C   UNL     1       1.142 -19.015  -9.456  1.00  0.00     0.041 C 
ATOM      3  O   UNL     1       1.180 -17.933 -10.099  1.00  0.00    -0.550 OA
ATOM      4  O   UNL     1       0.613 -20.152 -10.055  1.00  0.00    -0.550 OA
ENDBRANCH   1   2
BRANCH   1   5
ATOM      5  C   UNL     1       2.582 -20.323  -7.841  1.00  0.00     0.006 C 
BRANCH   5   6
ATOM      6  C   UNL     1       3.948 -20.000  -7.210  1.00  0.00    -0.003 C 
ATOM      7  C   UNL     1       4.953 -19.430  -8.208  1.00  0.00     0.004 C 
ENDBRANCH   5   6
ENDBRANCH   1   5
TORSDOF 3
ENDMDL
MODEL 4
REMARK VINA RESULT:    -3.522     10.977     11.697
REMARK INTER + INTRA:          -4.171
REMARK INTER:                  -4.061
REMARK INTRA:                  -0.110
REMARK UNBOUND:                -0.031
REMARK SMILES CCCCC(=O)[O-]
REMARK SMILES IDX 4 1 5 2 6 3 7 4 3 5 2 6 1 7
REMARK H PARENT
REMARK Flexibility Score: inf
ROOT
ATOM      1  C   UNL     1       3.826 -20.603  -7.473  1.00  0.00     0.053 C 
ENDROOT
BRANCH   1   2
ATOM      2  C   UNL     1       3.157 -21.900  -7.811  1.00  0.00     0.041 C 
ATOM      3  O   UNL     1       2.819 -22.698  -6.897  1.00  0.00    -0.550 OA
ATOM      4  O   UNL     1       2.879 -22.215  -9.136  1.00  0.00    -0.550 OA
ENDBRANCH   1   2
BRANCH   1   5
ATOM      5  C   UNL     1       3.207 -19.404  -8.214  1.00  0.00     0.006 C 
BRANCH   5   6
ATOM      6  C   UNL     1       1.722 -19.171  -7.887  1.00  0.00    -0.003 C 
ATOM      7  C   UNL     1       0.879 -18.841  -9.117  1.00  0.00     0.004 C 
ENDBRANCH   5   6
ENDBRANCH   1   5
TORSDOF 3
ENDMDL
MODEL 5
REMARK VINA RESULT:    -3.505      2.782      3.721
REMARK INTER + INTRA:          -4.150
REMARK INTER:                  -4.022
REMARK INTRA:                  -0.128
REMARK UNBOUND:                -0.031
REMARK SMILES CCCCC(=O)[O-]
REMARK SMILES IDX 4 1 5 2 6 3 7 4 3 5 2 6 1 7
REMARK H PARENT
REMARK Flexibility Score: inf
ROOT
ATOM      1  C   UNL     1      -2.730 -25.798  -0.064  1.00  0.00     0.053 C 
ENDROOT
BRANCH   1   2
ATOM      2  C   UNL     1      -2.197 -24.541  -0.681  1.00  0.00     0.041 C 
ATOM      3  O   UNL     1      -2.460 -24.261  -1.880  1.00  0.00    -0.550 OA
ATOM      4  O   UNL     1      -1.434 -23.663   0.078  1.00  0.00    -0.550 OA
ENDBRANCH   1   2
BRANCH   1   5
ATOM      5  C   UNL     1      -3.702 -25.525   1.097  1.00  0.00     0.006 C 
BRANCH   5   6
ATOM      6  C   UNL     1      -4.769 -24.463   0.779  1.00  0.00    -0.003 C 
ATOM      7  C   UNL     1      -4.808 -23.323   1.795  1.00  0.00     0.004 C 
ENDBRANCH   5   6
ENDBRANCH   1   5
TORSDOF 3
ENDMDL
MODEL 6
REMARK VINA RESULT:    -3.485      9.148      9.613
REMARK INTER + INTRA:          -4.127
REMARK INTER:                  -4.108
REMARK INTRA:                  -0.019
REMARK UNBOUND:                -0.031
REMARK SMILES CCCCC(=O)[O-]
REMARK SMILES IDX 4 1 5 2 6 3 7 4 3 5 2 6 1 7
REMARK H PARENT
REMARK Flexibility Score: inf
ROOT
ATOM      1  C   UNL     1       2.778 -30.601   4.801  1.00  0.00     0.053 C 
ENDROOT
BRANCH   1   2
ATOM      2  C   UNL     1       1.998 -30.196   6.014  1.00  0.00     0.041 C 
ATOM      3  O   UNL     1       1.002 -30.872   6.384  1.00  0.00    -0.550 OA
ATOM      4  O   UNL     1       2.390 -29.087   6.755  1.00  0.00    -0.550 OA
ENDBRANCH   1   2
BRANCH   1   5
ATOM      5  C   UNL     1       3.498 -29.416   4.134  1.00  0.00     0.006 C 
BRANCH   5   6
ATOM      6  C   UNL     1       3.611 -29.539   2.604  1.00  0.00    -0.003 C 
ATOM      7  C   UNL     1       2.770 -28.509   1.853  1.00  0.00     0.004 C 
ENDBRANCH   5   6
ENDBRANCH   1   5
TORSDOF 3
ENDMDL
MODEL 7
REMARK VINA RESULT:    -3.483      8.586      9.294
REMARK INTER + INTRA:          -4.124
REMARK INTER:                  -4.108
REMARK INTRA:                  -0.016
REMARK UNBOUND:                -0.031
REMARK SMILES CCCCC(=O)[O-]
REMARK SMILES IDX 4 1 5 2 6 3 7 4 3 5 2 6 1 7
REMARK H PARENT
REMARK Flexibility Score: inf
ROOT
ATOM      1  C   UNL     1       3.603 -29.311   3.616  1.00  0.00     0.053 C 
ENDROOT
BRANCH   1   2
ATOM      2  C   UNL     1       3.031 -29.935   4.852  1.00  0.00     0.041 C 
ATOM      3  O   UNL     1       2.972 -29.280   5.926  1.00  0.00    -0.550 OA
ATOM      4  O   UNL     1       2.535 -31.233   4.810  1.00  0.00    -0.550 OA
ENDBRANCH   1   2
BRANCH   1   5
ATOM      5  C   UNL     1       2.764 -29.601   2.360  1.00  0.00     0.006 C 
BRANCH   5   6
ATOM      6  C   UNL     1       2.862 -28.510   1.280  1.00  0.00    -0.003 C 
ATOM      7  C   UNL     1       1.529 -27.824   0.992  1.00  0.00     0.004 C 
ENDBRANCH   5   6
ENDBRANCH   1   5
TORSDOF 3
ENDMDL
MODEL 8
REMARK VINA RESULT:    -3.467      7.706      8.496
REMARK INTER + INTRA:          -4.105
REMARK INTER:                  -4.088
REMARK INTRA:                  -0.017
REMARK UNBOUND:                -0.031
REMARK SMILES CCCCC(=O)[O-]
REMARK SMILES IDX 4 1 5 2 6 3 7 4 3 5 2 6 1 7
REMARK H PARENT
REMARK Flexibility Score: inf
ROOT
ATOM      1  C   UNL     1       2.195 -27.105  -1.187  1.00  0.00     0.053 C 
ENDROOT
BRANCH   1   2
ATOM      2  C   UNL     1       2.897 -27.098  -2.511  1.00  0.00     0.041 C 
ATOM      3  O   UNL     1       2.246 -26.923  -3.574  1.00  0.00    -0.550 OA
ATOM      4  O   UNL     1       4.276 -27.255  -2.568  1.00  0.00    -0.550 OA
ENDBRANCH   1   2
BRANCH   1   5
ATOM      5  C   UNL     1       2.703 -28.216  -0.251  1.00  0.00     0.006 C 
BRANCH   5   6
ATOM      6  C   UNL     1       2.115 -28.149   1.170  1.00  0.00    -0.003 C 
ATOM      7  C   UNL     1       3.011 -28.795   2.224  1.00  0.00     0.004 C 
ENDBRANCH   5   6
ENDBRANCH   1   5
TORSDOF 3
ENDMDL
MODEL 9
REMARK VINA RESULT:    -3.455      5.157      6.117
REMARK INTER + INTRA:          -4.092
REMARK INTER:                  -4.073
REMARK INTRA:                  -0.019
REMARK UNBOUND:                -0.031
REMARK SMILES CCCCC(=O)[O-]
REMARK SMILES IDX 4 1 5 2 6 3 7 4 3 5 2 6 1 7
REMARK H PARENT
REMARK Flexibility Score: inf
ROOT
ATOM      1  C   UNL     1       1.045 -26.805  -0.437  1.00  0.00     0.053 C 
ENDROOT
BRANCH   1   2
ATOM      2  C   UNL     1      -0.367 -26.320  -0.569  1.00  0.00     0.041 C 
ATOM      3  O   UNL     1      -0.665 -25.462  -1.442  1.00  0.00    -0.550 OA
ATOM      4  O   UNL     1      -1.360 -26.839   0.252  1.00  0.00    -0.550 OA
ENDBRANCH   1   2
BRANCH   1   5
ATOM      5  C   UNL     1       1.266 -27.654   0.827  1.00  0.00     0.006 C 
BRANCH   5   6
ATOM      6  C   UNL     1       2.622 -28.380   0.860  1.00  0.00    -0.003 C 
ATOM      7  C   UNL     1       3.042 -28.810   2.264  1.00  0.00     0.004 C 
ENDBRANCH   5   6
ENDBRANCH   1   5
TORSDOF 3
ENDMDL
