MODEL 1
REMARK VINA RESULT:    -2.969      0.000      0.000
REMARK INTER + INTRA:          -4.032
REMARK INTER:                  -4.010
REMARK INTRA:                  -0.022
REMARK UNBOUND:                -0.022
REMARK SMILES CC[C@H](CC[C@H](C)[C@@H]1CC[C@@H]2[C@@H]3CC(=O)C4=CC(=O)CC[C@@]4(C)[C@H]3CC[C@]21C)C(C)C
REMARK SMILES IDX 4 1 3 2 2 3 1 4 29 5 30 6 31 7 5 8 6 9 7 10 8 11 9 12 27 13
REMARK SMILES IDX 10 14 11 15 26 16 28 17 12 18 25 19 24 20 13 21 22 22 14 23
REMARK SMILES IDX 16 24 21 25 23 26 15 27 17 28 20 29 18 30 19 31
REMARK H PARENT
REMARK Flexibility Score: inf
ROOT
ATOM      1  C   UNL     1       4.108  19.309   4.943  1.00  0.00     0.004 C 
ENDROOT
BRANCH   1   2
ATOM      2  C   UNL     1       5.646  19.202   5.148  1.00  0.00    -0.009 C 
BRANCH   2   3
ATOM      3  C   UNL     1       6.056  17.722   5.431  1.00  0.00     0.000 C 
ATOM      4  C   UNL     1       6.863  17.029   4.326  1.00  0.00     0.004 C 
ENDBRANCH   2   3
BRANCH   2   5
ATOM      5  C   UNL     1       6.488  19.946   4.052  1.00  0.00    -0.014 C 
ATOM      6  C   UNL     1       7.308  21.160   4.549  1.00  0.00     0.007 C 
ATOM      7  C   UNL     1       5.649  20.323   2.822  1.00  0.00     0.007 C 
ENDBRANCH   2   5
ENDBRANCH   1   2
BRANCH   1   8
ATOM      8  C   UNL     1       3.229  19.473   6.208  1.00  0.00     0.004 C 
BRANCH   8   9
ATOM      9  C   UNL     1       2.689  20.876   6.654  1.00  0.00    -0.011 C 
ATOM     10  C   UNL     1       1.155  20.959   6.520  1.00  0.00     0.008 C 
BRANCH   9  11
ATOM     11  C   UNL     1       3.380  22.169   6.062  1.00  0.00    -0.002 C 
ATOM     12  C   UNL     1       3.564  23.358   7.044  1.00  0.00     0.005 C 
ATOM     13  C   UNL     1       2.689  22.824   4.809  1.00  0.00    -0.026 C 
ATOM     14  C   UNL     1       3.411  24.660   6.229  1.00  0.00     0.005 C 
ATOM     15  C   UNL     1       3.402  24.184   4.793  1.00  0.00    -0.001 C 
ATOM     16  C   UNL     1       2.957  22.102   3.443  1.00  0.00     0.007 C 
ATOM     17  C   UNL     1       1.152  22.965   5.065  1.00  0.00     0.012 C 
ATOM     18  C   UNL     1       3.013  25.166   3.652  1.00  0.00     0.004 C 
ATOM     19  C   UNL     1       3.234  23.047   2.229  1.00  0.00     0.005 C 
ATOM     20  C   UNL     1       2.526  24.414   2.371  1.00  0.00     0.003 C 
ATOM     21  C   UNL     1       2.000  26.280   4.009  1.00  0.00     0.085 C 
ATOM     22  C   UNL     1       2.482  25.363   1.087  1.00  0.00    -0.000 C 
ATOM     23  C   UNL     1       1.777  27.158   2.798  1.00  0.00     0.159 C 
ATOM     24  C   UNL     1       2.515  26.836   1.554  1.00  0.00     0.005 C 
ATOM     25  C   UNL     1       3.588  25.065   0.007  1.00  0.00     0.020 C 
ATOM     26  C   UNL     1       1.104  25.176   0.386  1.00  0.00     0.017 C 
ATOM     27  O   UNL     1       0.965  28.122   2.842  1.00  0.00    -0.295 OA
ATOM     28  C   UNL     1       3.433  27.717   1.133  1.00  0.00     0.055 C 
ATOM     29  C   UNL     1       4.897  25.813   0.252  1.00  0.00     0.081 C 
ATOM     30  C   UNL     1       4.605  27.277   0.365  1.00  0.00     0.156 C 
ATOM     31  O   UNL     1       5.406  28.125  -0.111  1.00  0.00    -0.295 OA
ENDBRANCH   9  11
ENDBRANCH   8   9
ENDBRANCH   1   8
TORSDOF 6
ENDMDL
MODEL 2
REMARK VINA RESULT:    -2.643      4.002      7.385
REMARK INTER + INTRA:          -3.592
REMARK INTER:                  -3.309
REMARK INTRA:                  -0.283
REMARK UNBOUND:                -0.022
REMARK SMILES CC[C@H](CC[C@H](C)[C@@H]1CC[C@@H]2[C@@H]3CC(=O)C4=CC(=O)CC[C@@]4(C)[C@H]3CC[C@]21C)C(C)C
REMARK SMILES IDX 4 1 3 2 2 3 1 4 29 5 30 6 31 7 5 8 6 9 7 10 8 11 9 12 27 13
REMARK SMILES IDX 10 14 11 15 26 16 28 17 12 18 25 19 24 20 13 21 22 22 14 23
REMARK SMILES IDX 16 24 21 25 23 26 15 27 17 28 20 29 18 30 19 31
REMARK H PARENT
REMARK Flexibility Score: inf
ROOT
ATOM      1  C   UNL     1       0.881  26.536  10.486  1.00  0.00     0.004 C 
ENDROOT
BRANCH   1   2
ATOM      2  C   UNL     1       0.875  25.610  11.736  1.00  0.00    -0.009 C 
BRANCH   2   3
ATOM      3  C   UNL     1       0.933  24.111  11.304  1.00  0.00     0.000 C 
ATOM      4  C   UNL     1       1.640  23.161  12.278  1.00  0.00     0.004 C 
ENDBRANCH   2   3
BRANCH   2   5
ATOM      5  C   UNL     1       1.893  26.039  12.851  1.00  0.00    -0.014 C 
ATOM      6  C   UNL     1       1.265  26.498  14.189  1.00  0.00     0.007 C 
ATOM      7  C   UNL     1       2.917  27.068  12.348  1.00  0.00     0.007 C 
ENDBRANCH   2   5
ENDBRANCH   1   2
BRANCH   1   8
ATOM      8  C   UNL     1       1.225  25.890   9.121  1.00  0.00     0.004 C 
BRANCH   8   9
ATOM      9  C   UNL     1       2.083  26.647   8.049  1.00  0.00    -0.011 C 
ATOM     10  C   UNL     1       1.634  28.115   7.901  1.00  0.00     0.008 C 
BRANCH   9  11
ATOM     11  C   UNL     1       2.284  25.971   6.635  1.00  0.00    -0.002 C 
ATOM     12  C   UNL     1       1.102  26.106   5.636  1.00  0.00     0.005 C 
ATOM     13  C   UNL     1       2.600  24.429   6.630  1.00  0.00    -0.026 C 
ATOM     14  C   UNL     1       1.059  24.816   4.790  1.00  0.00     0.005 C 
ATOM     15  C   UNL     1       2.348  24.110   5.149  1.00  0.00    -0.001 C 
ATOM     16  C   UNL     1       4.081  24.048   6.979  1.00  0.00     0.007 C 
ATOM     17  C   UNL     1       1.602  23.681   7.574  1.00  0.00     0.012 C 
ATOM     18  C   UNL     1       2.579  22.640   4.700  1.00  0.00     0.004 C 
ATOM     19  C   UNL     1       4.705  22.914   6.103  1.00  0.00     0.005 C 
ATOM     20  C   UNL     1       3.644  21.916   5.586  1.00  0.00     0.003 C 
ATOM     21  C   UNL     1       1.323  21.745   4.574  1.00  0.00     0.085 C 
ATOM     22  C   UNL     1       4.165  20.558   4.925  1.00  0.00    -0.000 C 
ATOM     23  C   UNL     1       1.733  20.374   4.088  1.00  0.00     0.159 C 
ATOM     24  C   UNL     1       3.170  20.125   3.824  1.00  0.00     0.005 C 
ATOM     25  C   UNL     1       5.645  20.607   4.392  1.00  0.00     0.020 C 
ATOM     26  C   UNL     1       4.110  19.436   6.003  1.00  0.00     0.017 C 
ATOM     27  O   UNL     1       0.877  19.461   3.937  1.00  0.00    -0.295 OA
ATOM     28  C   UNL     1       3.536  19.899   2.555  1.00  0.00     0.055 C 
ATOM     29  C   UNL     1       5.759  21.102   2.952  1.00  0.00     0.081 C 
ATOM     30  C   UNL     1       4.877  20.262   2.080  1.00  0.00     0.156 C 
ATOM     31  O   UNL     1       5.243  19.953   0.915  1.00  0.00    -0.295 OA
ENDBRANCH   9  11
ENDBRANCH   8   9
ENDBRANCH   1   8
TORSDOF 6
ENDMDL
MODEL 3
REMARK VINA RESULT:    -2.412      3.205      7.637
REMARK INTER + INTRA:          -3.279
REMARK INTER:                  -3.151
REMARK INTRA:                  -0.129
REMARK UNBOUND:                -0.022
REMARK SMILES CC[C@H](CC[C@H](C)[C@@H]1CC[C@@H]2[C@@H]3CC(=O)C4=CC(=O)CC[C@@]4(C)[C@H]3CC[C@]21C)C(C)C
REMARK SMILES IDX 4 1 3 2 2 3 1 4 29 5 30 6 31 7 5 8 6 9 7 10 8 11 9 12 27 13
REMARK SMILES IDX 10 14 11 15 26 16 28 17 12 18 25 19 24 20 13 21 22 22 14 23
REMARK SMILES IDX 16 24 21 25 23 26 15 27 17 28 20 29 18 30 19 31
REMARK H PARENT
REMARK Flexibility Score: inf
ROOT
ATOM      1  C   UNL     1       1.643  27.987   2.602  1.00  0.00     0.004 C 
ENDROOT
BRANCH   1   2
ATOM      2  C   UNL     1       1.857  27.282   1.232  1.00  0.00    -0.009 C 
BRANCH   2   3
ATOM      3  C   UNL     1       2.979  28.002   0.418  1.00  0.00     0.000 C 
ATOM      4  C   UNL     1       4.358  28.061   1.087  1.00  0.00     0.004 C 
ENDBRANCH   2   3
BRANCH   2   5
ATOM      5  C   UNL     1       1.982  25.721   1.331  1.00  0.00    -0.014 C 
ATOM      6  C   UNL     1       3.373  25.138   0.984  1.00  0.00     0.007 C 
ATOM      7  C   UNL     1       0.877  24.992   0.551  1.00  0.00     0.007 C 
ENDBRANCH   2   5
ENDBRANCH   1   2
BRANCH   1   8
ATOM      8  C   UNL     1       2.298  27.341   3.847  1.00  0.00     0.004 C 
BRANCH   8   9
ATOM      9  C   UNL     1       1.551  27.275   5.225  1.00  0.00    -0.011 C 
ATOM     10  C   UNL     1       2.294  28.085   6.307  1.00  0.00     0.008 C 
BRANCH   9  11
ATOM     11  C   UNL     1       1.116  25.860   5.776  1.00  0.00    -0.002 C 
ATOM     12  C   UNL     1       0.876  25.764   7.307  1.00  0.00     0.005 C 
ATOM     13  C   UNL     1       2.089  24.659   5.476  1.00  0.00    -0.026 C 
ATOM     14  C   UNL     1       1.307  24.352   7.758  1.00  0.00     0.005 C 
ATOM     15  C   UNL     1       1.532  23.615   6.456  1.00  0.00    -0.001 C 
ATOM     16  C   UNL     1       2.005  24.075   4.023  1.00  0.00     0.007 C 
ATOM     17  C   UNL     1       3.558  25.069   5.821  1.00  0.00     0.012 C 
ATOM     18  C   UNL     1       2.223  22.222   6.462  1.00  0.00     0.004 C 
ATOM     19  C   UNL     1       2.054  22.517   3.923  1.00  0.00     0.005 C 
ATOM     20  C   UNL     1       2.859  21.876   5.077  1.00  0.00     0.003 C 
ATOM     21  C   UNL     1       3.259  21.964   7.581  1.00  0.00     0.085 C 
ATOM     22  C   UNL     1       3.234  20.328   4.948  1.00  0.00    -0.000 C 
ATOM     23  C   UNL     1       3.789  20.554   7.456  1.00  0.00     0.159 C 
ATOM     24  C   UNL     1       3.265  19.703   6.361  1.00  0.00     0.005 C 
ATOM     25  C   UNL     1       2.321  19.507   3.963  1.00  0.00     0.020 C 
ATOM     26  C   UNL     1       4.691  20.221   4.410  1.00  0.00     0.017 C 
ATOM     27  O   UNL     1       4.673  20.125   8.247  1.00  0.00    -0.295 OA
ATOM     28  C   UNL     1       2.535  18.634   6.705  1.00  0.00     0.055 C 
ATOM     29  C   UNL     1       1.072  18.930   4.626  1.00  0.00     0.081 C 
ATOM     30  C   UNL     1       1.486  18.119   5.815  1.00  0.00     0.156 C 
ATOM     31  O   UNL     1       0.876  17.055   6.103  1.00  0.00    -0.295 OA
ENDBRANCH   9  11
ENDBRANCH   8   9
ENDBRANCH   1   8
TORSDOF 6
ENDMDL
MODEL 4
REMARK VINA RESULT:    -1.596      3.686      7.186
REMARK INTER + INTRA:          -2.177
REMARK INTER:                  -1.511
REMARK INTRA:                  -0.667
REMARK UNBOUND:                -0.022
REMARK SMILES CC[C@H](CC[C@H](C)[C@@H]1CC[C@@H]2[C@@H]3CC(=O)C4=CC(=O)CC[C@@]4(C)[C@H]3CC[C@]21C)C(C)C
REMARK SMILES IDX 4 1 3 2 2 3 1 4 29 5 30 6 31 7 5 8 6 9 7 10 8 11 9 12 27 13
REMARK SMILES IDX 10 14 11 15 26 16 28 17 12 18 25 19 24 20 13 21 22 22 14 23
REMARK SMILES IDX 16 24 21 25 23 26 15 27 17 28 20 29 18 30 19 31
REMARK H PARENT
REMARK Flexibility Score: inf
ROOT
ATOM      1  C   UNL     1       0.912  24.923   7.374  1.00  0.00     0.004 C 
ENDROOT
BRANCH   1   2
ATOM      2  C   UNL     1       1.346  26.395   7.626  1.00  0.00    -0.009 C 
BRANCH   2   3
ATOM      3  C   UNL     1       1.522  26.657   9.155  1.00  0.00     0.000 C 
ATOM      4  C   UNL     1       2.071  28.037   9.539  1.00  0.00     0.004 C 
ENDBRANCH   2   3
BRANCH   2   5
ATOM      5  C   UNL     1       2.528  26.876   6.712  1.00  0.00    -0.014 C 
ATOM      6  C   UNL     1       2.213  26.957   5.199  1.00  0.00     0.007 C 
ATOM      7  C   UNL     1       3.821  26.084   6.957  1.00  0.00     0.007 C 
ENDBRANCH   2   5
ENDBRANCH   1   2
BRANCH   1   8
ATOM      8  C   UNL     1       1.466  23.841   8.334  1.00  0.00     0.004 C 
BRANCH   8   9
ATOM      9  C   UNL     1       0.875  22.388   8.359  1.00  0.00    -0.011 C 
ATOM     10  C   UNL     1       1.162  21.687   9.702  1.00  0.00     0.008 C 
BRANCH   9  11
ATOM     11  C   UNL     1       1.187  21.430   7.142  1.00  0.00    -0.002 C 
ATOM     12  C   UNL     1       0.875  19.924   7.357  1.00  0.00     0.005 C 
ATOM     13  C   UNL     1       2.667  21.431   6.607  1.00  0.00    -0.026 C 
ATOM     14  C   UNL     1       1.930  19.114   6.573  1.00  0.00     0.005 C 
ATOM     15  C   UNL     1       2.639  20.162   5.742  1.00  0.00    -0.001 C 
ATOM     16  C   UNL     1       3.050  22.649   5.696  1.00  0.00     0.007 C 
ATOM     17  C   UNL     1       3.664  21.306   7.807  1.00  0.00     0.012 C 
ATOM     18  C   UNL     1       3.948  19.799   4.988  1.00  0.00     0.004 C 
ATOM     19  C   UNL     1       3.914  22.301   4.441  1.00  0.00     0.005 C 
ATOM     20  C   UNL     1       4.811  21.062   4.666  1.00  0.00     0.003 C 
ATOM     21  C   UNL     1       4.846  18.717   5.634  1.00  0.00     0.085 C 
ATOM     22  C   UNL     1       5.948  20.765   3.584  1.00  0.00    -0.000 C 
ATOM     23  C   UNL     1       6.043  18.465   4.745  1.00  0.00     0.159 C 
ATOM     24  C   UNL     1       6.154  19.236   3.485  1.00  0.00     0.005 C 
ATOM     25  C   UNL     1       5.704  21.417   2.173  1.00  0.00     0.020 C 
ATOM     26  C   UNL     1       7.294  21.335   4.119  1.00  0.00     0.017 C 
ATOM     27  O   UNL     1       6.934  17.638   5.083  1.00  0.00    -0.295 OA
ATOM     28  C   UNL     1       6.057  18.558   2.334  1.00  0.00     0.055 C 
ATOM     29  C   UNL     1       4.878  20.543   1.231  1.00  0.00     0.081 C 
ATOM     30  C   UNL     1       5.528  19.199   1.122  1.00  0.00     0.156 C 
ATOM     31  O   UNL     1       5.536  18.583   0.024  1.00  0.00    -0.295 OA
ENDBRANCH   9  11
ENDBRANCH   8   9
ENDBRANCH   1   8
TORSDOF 6
ENDMDL
