MODEL 1
REMARK VINA RESULT:    -4.577      0.000      0.000
REMARK INTER + INTRA:          -6.717
REMARK INTER:                  -6.450
REMARK INTRA:                  -0.267
REMARK UNBOUND:                -0.267
REMARK SMILES CCCCCCCCC(=O)[O-]
REMARK SMILES IDX 6 1 7 2 8 3 9 4 10 5 11 6 5 7 4 8 3 9 2 10 1 11
REMARK H PARENT
REMARK Flexibility Score: inf
ROOT
ATOM      1  C   UNL     1       0.490   7.337  18.857  1.00  0.00     0.000 C 
ENDROOT
BRANCH   1   2
ATOM      2  C   UNL     1       0.645   7.536  20.371  1.00  0.00     0.006 C 
BRANCH   2   3
ATOM      3  C   UNL     1      -0.404   6.750  21.170  1.00  0.00     0.053 C 
BRANCH   3   4
ATOM      4  C   UNL     1      -0.052   6.675  22.625  1.00  0.00     0.041 C 
ATOM      5  O   UNL     1      -0.956   6.735  23.499  1.00  0.00    -0.550 OA
ATOM      6  O   UNL     1       1.277   6.574  23.013  1.00  0.00    -0.550 OA
ENDBRANCH   3   4
ENDBRANCH   2   3
ENDBRANCH   1   2
BRANCH   1   7
ATOM      7  C   UNL     1      -0.127   5.970  18.541  1.00  0.00     0.000 C 
BRANCH   7   8
ATOM      8  C   UNL     1      -0.143   5.706  17.031  1.00  0.00    -0.000 C 
BRANCH   8   9
ATOM      9  C   UNL     1      -1.518   5.208  16.572  1.00  0.00    -0.000 C 
BRANCH   9  10
ATOM     10  C   UNL     1      -1.412   3.826  15.918  1.00  0.00    -0.003 C 
ATOM     11  C   UNL     1      -1.570   2.714  16.951  1.00  0.00     0.004 C 
ENDBRANCH   9  10
ENDBRANCH   8   9
ENDBRANCH   7   8
ENDBRANCH   1   7
TORSDOF 7
ENDMDL
MODEL 2
REMARK VINA RESULT:    -4.546      3.731      6.065
REMARK INTER + INTRA:          -6.674
REMARK INTER:                  -6.405
REMARK INTRA:                  -0.269
REMARK UNBOUND:                -0.267
REMARK SMILES CCCCCCCCC(=O)[O-]
REMARK SMILES IDX 6 1 7 2 8 3 9 4 10 5 11 6 5 7 4 8 3 9 2 10 1 11
REMARK H PARENT
REMARK Flexibility Score: inf
ROOT
ATOM      1  C   UNL     1      -0.218   6.047  18.351  1.00  0.00     0.000 C 
ENDROOT
BRANCH   1   2
ATOM      2  C   UNL     1      -0.107   5.579  16.893  1.00  0.00     0.006 C 
BRANCH   2   3
ATOM      3  C   UNL     1      -0.808   4.235  16.660  1.00  0.00     0.053 C 
BRANCH   3   4
ATOM      4  C   UNL     1      -2.011   4.381  15.778  1.00  0.00     0.041 C 
ATOM      5  O   UNL     1      -2.241   5.474  15.195  1.00  0.00    -0.550 OA
ATOM      6  O   UNL     1      -2.895   3.322  15.627  1.00  0.00    -0.550 OA
ENDBRANCH   3   4
ENDBRANCH   2   3
ENDBRANCH   1   2
BRANCH   1   7
ATOM      7  C   UNL     1       0.544   7.360  18.566  1.00  0.00     0.000 C 
BRANCH   7   8
ATOM      8  C   UNL     1       0.551   7.758  20.047  1.00  0.00    -0.000 C 
BRANCH   8   9
ATOM      9  C   UNL     1      -0.168   6.709  20.904  1.00  0.00    -0.000 C 
BRANCH   9  10
ATOM     10  C   UNL     1       0.343   6.734  22.348  1.00  0.00    -0.003 C 
ATOM     11  C   UNL     1      -0.803   6.563  23.341  1.00  0.00     0.004 C 
ENDBRANCH   9  10
ENDBRANCH   8   9
ENDBRANCH   7   8
ENDBRANCH   1   7
TORSDOF 7
ENDMDL
MODEL 3
REMARK VINA RESULT:    -4.386      1.443      2.107
REMARK INTER + INTRA:          -6.449
REMARK INTER:                  -5.828
REMARK INTRA:                  -0.620
REMARK UNBOUND:                -0.267
REMARK SMILES CCCCCCCCC(=O)[O-]
REMARK SMILES IDX 6 1 7 2 8 3 9 4 10 5 11 6 5 7 4 8 3 9 2 10 1 11
REMARK H PARENT
REMARK Flexibility Score: inf
ROOT
ATOM      1  C   UNL     1       0.638   8.573  19.571  1.00  0.00     0.000 C 
ENDROOT
BRANCH   1   2
ATOM      2  C   UNL     1       1.043   7.477  20.568  1.00  0.00     0.006 C 
BRANCH   2   3
ATOM      3  C   UNL     1      -0.173   6.779  21.190  1.00  0.00     0.053 C 
BRANCH   3   4
ATOM      4  C   UNL     1      -0.023   6.620  22.673  1.00  0.00     0.041 C 
ATOM      5  O   UNL     1      -1.022   6.751  23.429  1.00  0.00    -0.550 OA
ATOM      6  O   UNL     1       1.226   6.360  23.221  1.00  0.00    -0.550 OA
ENDBRANCH   3   4
ENDBRANCH   2   3
ENDBRANCH   1   2
BRANCH   1   7
ATOM      7  C   UNL     1       1.659   8.686  18.433  1.00  0.00     0.000 C 
BRANCH   7   8
ATOM      8  C   UNL     1       1.001   8.422  17.073  1.00  0.00    -0.000 C 
BRANCH   8   9
ATOM      9  C   UNL     1       1.172   6.958  16.652  1.00  0.00    -0.000 C 
BRANCH   9  10
ATOM     10  C   UNL     1      -0.156   6.199  16.748  1.00  0.00    -0.003 C 
ATOM     11  C   UNL     1      -0.120   5.164  17.868  1.00  0.00     0.004 C 
ENDBRANCH   9  10
ENDBRANCH   8   9
ENDBRANCH   7   8
ENDBRANCH   1   7
TORSDOF 7
ENDMDL
MODEL 4
REMARK VINA RESULT:    -4.333      1.412      2.163
REMARK INTER + INTRA:          -6.373
REMARK INTER:                  -6.142
REMARK INTRA:                  -0.231
REMARK UNBOUND:                -0.267
REMARK SMILES CCCCCCCCC(=O)[O-]
REMARK SMILES IDX 6 1 7 2 8 3 9 4 10 5 11 6 5 7 4 8 3 9 2 10 1 11
REMARK H PARENT
REMARK Flexibility Score: inf
ROOT
ATOM      1  C   UNL     1      -0.174   5.975  17.369  1.00  0.00     0.000 C 
ENDROOT
BRANCH   1   2
ATOM      2  C   UNL     1      -0.053   5.811  18.891  1.00  0.00     0.006 C 
BRANCH   2   3
ATOM      3  C   UNL     1       0.309   7.129  19.589  1.00  0.00     0.053 C 
BRANCH   3   4
ATOM      4  C   UNL     1       0.490   6.942  21.065  1.00  0.00     0.041 C 
ATOM      5  O   UNL     1      -0.509   6.747  21.807  1.00  0.00    -0.550 OA
ATOM      6  O   UNL     1       1.758   7.018  21.624  1.00  0.00    -0.550 OA
ENDBRANCH   3   4
ENDBRANCH   2   3
ENDBRANCH   1   2
BRANCH   1   7
ATOM      7  C   UNL     1      -1.466   5.334  16.848  1.00  0.00     0.000 C 
BRANCH   7   8
ATOM      8  C   UNL     1      -1.163   4.120  15.962  1.00  0.00    -0.000 C 
BRANCH   8   9
ATOM      9  C   UNL     1      -2.455   3.462  15.466  1.00  0.00    -0.000 C 
BRANCH   9  10
ATOM     10  C   UNL     1      -3.213   2.798  16.620  1.00  0.00    -0.003 C 
ATOM     11  C   UNL     1      -4.720   2.983  16.468  1.00  0.00     0.004 C 
ENDBRANCH   9  10
ENDBRANCH   8   9
ENDBRANCH   7   8
ENDBRANCH   1   7
TORSDOF 7
ENDMDL
MODEL 5
REMARK VINA RESULT:    -4.305      2.928      5.352
REMARK INTER + INTRA:          -6.334
REMARK INTER:                  -5.901
REMARK INTRA:                  -0.433
REMARK UNBOUND:                -0.267
REMARK SMILES CCCCCCCCC(=O)[O-]
REMARK SMILES IDX 6 1 7 2 8 3 9 4 10 5 11 6 5 7 4 8 3 9 2 10 1 11
REMARK H PARENT
REMARK Flexibility Score: inf
ROOT
ATOM      1  C   UNL     1       1.448   8.593  18.293  1.00  0.00     0.000 C 
ENDROOT
BRANCH   1   2
ATOM      2  C   UNL     1       0.708   8.012  17.079  1.00  0.00     0.006 C 
BRANCH   2   3
ATOM      3  C   UNL     1       1.030   6.528  16.858  1.00  0.00     0.053 C 
BRANCH   3   4
ATOM      4  C   UNL     1      -0.160   5.657  17.123  1.00  0.00     0.041 C 
ATOM      5  O   UNL     1      -0.208   4.948  18.163  1.00  0.00    -0.550 OA
ATOM      6  O   UNL     1      -1.200   5.604  16.206  1.00  0.00    -0.550 OA
ENDBRANCH   3   4
ENDBRANCH   2   3
ENDBRANCH   1   2
BRANCH   1   7
ATOM      7  C   UNL     1       0.577   8.523  19.553  1.00  0.00     0.000 C 
BRANCH   7   8
ATOM      8  C   UNL     1       1.027   7.381  20.472  1.00  0.00    -0.000 C 
BRANCH   8   9
ATOM      9  C   UNL     1      -0.169   6.757  21.202  1.00  0.00    -0.000 C 
BRANCH   9  10
ATOM     10  C   UNL     1       0.133   6.572  22.693  1.00  0.00    -0.003 C 
ATOM     11  C   UNL     1      -1.150   6.557  23.517  1.00  0.00     0.004 C 
ENDBRANCH   9  10
ENDBRANCH   8   9
ENDBRANCH   7   8
ENDBRANCH   1   7
TORSDOF 7
ENDMDL
MODEL 6
REMARK VINA RESULT:    -4.192      2.331      3.352
REMARK INTER + INTRA:          -6.175
REMARK INTER:                  -5.842
REMARK INTRA:                  -0.333
REMARK UNBOUND:                -0.267
REMARK SMILES CCCCCCCCC(=O)[O-]
REMARK SMILES IDX 6 1 7 2 8 3 9 4 10 5 11 6 5 7 4 8 3 9 2 10 1 11
REMARK H PARENT
REMARK Flexibility Score: inf
ROOT
ATOM      1  C   UNL     1      -1.066   5.188  16.468  1.00  0.00     0.000 C 
ENDROOT
BRANCH   1   2
ATOM      2  C   UNL     1       0.044   5.890  17.264  1.00  0.00     0.006 C 
BRANCH   2   3
ATOM      3  C   UNL     1      -0.145   5.740  18.780  1.00  0.00     0.053 C 
BRANCH   3   4
ATOM      4  C   UNL     1       0.213   6.999  19.510  1.00  0.00     0.041 C 
ATOM      5  O   UNL     1       0.007   7.094  20.749  1.00  0.00    -0.550 OA
ATOM      6  O   UNL     1       0.741   8.078  18.815  1.00  0.00    -0.550 OA
ENDBRANCH   3   4
ENDBRANCH   2   3
ENDBRANCH   1   2
BRANCH   1   7
ATOM      7  C   UNL     1      -1.215   3.726  16.904  1.00  0.00     0.000 C 
BRANCH   7   8
ATOM      8  C   UNL     1      -2.395   3.055  16.191  1.00  0.00    -0.000 C 
BRANCH   8   9
ATOM      9  C   UNL     1      -3.622   3.974  16.169  1.00  0.00    -0.000 C 
BRANCH   9  10
ATOM     10  C   UNL     1      -4.919   3.159  16.127  1.00  0.00    -0.003 C 
ATOM     11  C   UNL     1      -4.981   2.163  17.281  1.00  0.00     0.004 C 
ENDBRANCH   9  10
ENDBRANCH   8   9
ENDBRANCH   7   8
ENDBRANCH   1   7
TORSDOF 7
ENDMDL
MODEL 7
REMARK VINA RESULT:    -4.113      3.781      6.130
REMARK INTER + INTRA:          -6.064
REMARK INTER:                  -5.744
REMARK INTRA:                  -0.320
REMARK UNBOUND:                -0.267
REMARK SMILES CCCCCCCCC(=O)[O-]
REMARK SMILES IDX 6 1 7 2 8 3 9 4 10 5 11 6 5 7 4 8 3 9 2 10 1 11
REMARK H PARENT
REMARK Flexibility Score: inf
ROOT
ATOM      1  C   UNL     1       0.187   5.931  16.666  1.00  0.00     0.000 C 
ENDROOT
BRANCH   1   2
ATOM      2  C   UNL     1      -0.760   4.782  17.044  1.00  0.00     0.006 C 
BRANCH   2   3
ATOM      3  C   UNL     1      -1.236   3.995  15.815  1.00  0.00     0.053 C 
BRANCH   3   4
ATOM      4  C   UNL     1      -2.659   3.547  15.960  1.00  0.00     0.041 C 
ATOM      5  O   UNL     1      -3.563   4.074  15.260  1.00  0.00    -0.550 OA
ATOM      6  O   UNL     1      -2.989   2.573  16.892  1.00  0.00    -0.550 OA
ENDBRANCH   3   4
ENDBRANCH   2   3
ENDBRANCH   1   2
BRANCH   1   7
ATOM      7  C   UNL     1       0.353   6.911  17.833  1.00  0.00     0.000 C 
BRANCH   7   8
ATOM      8  C   UNL     1      -0.057   6.264  19.161  1.00  0.00    -0.000 C 
BRANCH   8   9
ATOM      9  C   UNL     1       0.372   7.129  20.352  1.00  0.00    -0.000 C 
BRANCH   9  10
ATOM     10  C   UNL     1       0.813   8.522  19.890  1.00  0.00    -0.003 C 
ATOM     11  C   UNL     1       2.225   8.840  20.371  1.00  0.00     0.004 C 
ENDBRANCH   9  10
ENDBRANCH   8   9
ENDBRANCH   7   8
ENDBRANCH   1   7
TORSDOF 7
ENDMDL
MODEL 8
REMARK VINA RESULT:    -4.099      4.117      6.454
REMARK INTER + INTRA:          -6.043
REMARK INTER:                  -5.839
REMARK INTRA:                  -0.205
REMARK UNBOUND:                -0.267
REMARK SMILES CCCCCCCCC(=O)[O-]
REMARK SMILES IDX 6 1 7 2 8 3 9 4 10 5 11 6 5 7 4 8 3 9 2 10 1 11
REMARK H PARENT
REMARK Flexibility Score: inf
ROOT
ATOM      1  C   UNL     1      -1.513   5.071  16.238  1.00  0.00     0.000 C 
ENDROOT
BRANCH   1   2
ATOM      2  C   UNL     1      -2.245   3.753  15.949  1.00  0.00     0.006 C 
BRANCH   2   3
ATOM      3  C   UNL     1      -3.610   3.981  15.285  1.00  0.00     0.053 C 
BRANCH   3   4
ATOM      4  C   UNL     1      -4.719   3.340  16.063  1.00  0.00     0.041 C 
ATOM      5  O   UNL     1      -5.907   3.730  15.911  1.00  0.00    -0.550 OA
ATOM      6  O   UNL     1      -4.435   2.336  16.979  1.00  0.00    -0.550 OA
ENDBRANCH   3   4
ENDBRANCH   2   3
ENDBRANCH   1   2
BRANCH   1   7
ATOM      7  C   UNL     1      -0.504   4.900  17.379  1.00  0.00     0.000 C 
BRANCH   7   8
ATOM      8  C   UNL     1      -0.030   6.261  17.906  1.00  0.00    -0.000 C 
BRANCH   8   9
ATOM      9  C   UNL     1      -0.098   6.313  19.437  1.00  0.00    -0.000 C 
BRANCH   9  10
ATOM     10  C   UNL     1       0.471   7.634  19.967  1.00  0.00    -0.003 C 
ATOM     11  C   UNL     1       1.115   8.445  18.846  1.00  0.00     0.004 C 
ENDBRANCH   9  10
ENDBRANCH   8   9
ENDBRANCH   7   8
ENDBRANCH   1   7
TORSDOF 7
ENDMDL
MODEL 9
REMARK VINA RESULT:    -3.994      3.465      5.343
REMARK INTER + INTRA:          -5.896
REMARK INTER:                  -5.383
REMARK INTRA:                  -0.512
REMARK UNBOUND:                -0.267
REMARK SMILES CCCCCCCCC(=O)[O-]
REMARK SMILES IDX 6 1 7 2 8 3 9 4 10 5 11 6 5 7 4 8 3 9 2 10 1 11
REMARK H PARENT
REMARK Flexibility Score: inf
ROOT
ATOM      1  C   UNL     1      -2.610   3.027  16.020  1.00  0.00     0.000 C 
ENDROOT
BRANCH   1   2
ATOM      2  C   UNL     1      -1.337   3.579  16.678  1.00  0.00     0.006 C 
BRANCH   2   3
ATOM      3  C   UNL     1      -1.089   5.050  16.318  1.00  0.00     0.053 C 
BRANCH   3   4
ATOM      4  C   UNL     1      -0.176   5.715  17.303  1.00  0.00     0.041 C 
ATOM      5  O   UNL     1      -0.095   5.285  18.484  1.00  0.00    -0.550 OA
ATOM      6  O   UNL     1       0.558   6.831  16.925  1.00  0.00    -0.550 OA
ENDBRANCH   3   4
ENDBRANCH   2   3
ENDBRANCH   1   2
BRANCH   1   7
ATOM      7  C   UNL     1      -3.485   2.294  17.044  1.00  0.00     0.000 C 
BRANCH   7   8
ATOM      8  C   UNL     1      -4.970   2.606  16.824  1.00  0.00    -0.000 C 
BRANCH   8   9
ATOM      9  C   UNL     1      -5.170   3.506  15.599  1.00  0.00    -0.000 C 
BRANCH   9  10
ATOM     10  C   UNL     1      -6.064   4.703  15.937  1.00  0.00    -0.003 C 
ATOM     11  C   UNL     1      -5.503   5.496  17.114  1.00  0.00     0.004 C 
ENDBRANCH   9  10
ENDBRANCH   8   9
ENDBRANCH   7   8
ENDBRANCH   1   7
TORSDOF 7
ENDMDL
