MODEL 1
REMARK VINA RESULT:    -5.658      0.000      0.000
REMARK INTER + INTRA:          -6.154
REMARK INTER:                  -6.154
REMARK INTRA:                   0.000
REMARK UNBOUND:                 0.000
REMARK SMILES Cc1cc(O)c2c(c1)C(=O)c1cc(O)cc(O)c1C2=O
REMARK SMILES IDX 1 1 2 2 8 3 7 4 6 5 4 6 3 7 19 8 20 9 18 10 11 11 9 12 10 13
REMARK SMILES IDX 12 14 13 15 15 16 16 17 5 18 17 20 14 22
REMARK H PARENT 5 19 17 21 14 23
REMARK Flexibility Score: inf
ROOT
ATOM      1  C   UNL     1     -28.658 -50.047  50.875  1.00  0.00     0.044 C 
ATOM      2  C   UNL     1     -28.130 -51.128  51.772  1.00  0.00    -0.047 A 
ATOM      3  C   UNL     1     -28.723 -52.393  51.775  1.00  0.00     0.016 A 
ATOM      4  C   UNL     1     -28.268 -53.400  52.644  1.00  0.00     0.038 A 
ATOM      5  C   UNL     1     -27.215 -53.125  53.550  1.00  0.00     0.076 A 
ATOM      6  C   UNL     1     -26.578 -51.856  53.499  1.00  0.00     0.127 A 
ATOM      7  C   UNL     1     -27.068 -50.865  52.642  1.00  0.00     0.050 A 
ATOM      8  C   UNL     1     -26.865 -54.161  54.561  1.00  0.00     0.201 C 
ATOM      9  O   UNL     1     -26.259 -53.836  55.617  1.00  0.00    -0.288 OA
ATOM     10  C   UNL     1     -27.328 -55.562  54.388  1.00  0.00     0.076 A 
ATOM     11  C   UNL     1     -28.334 -55.840  53.437  1.00  0.00     0.041 A 
ATOM     12  C   UNL     1     -28.885 -54.747  52.605  1.00  0.00     0.194 C 
ATOM     13  O   UNL     1     -29.869 -54.968  51.849  1.00  0.00    -0.289 OA
ATOM     14  C   UNL     1     -28.810 -57.155  53.288  1.00  0.00     0.059 A 
ATOM     15  C   UNL     1     -28.290 -58.191  54.069  1.00  0.00     0.120 A 
ATOM     16  C   UNL     1     -27.290 -57.922  55.003  1.00  0.00     0.093 A 
ATOM     17  C   UNL     1     -26.802 -56.619  55.168  1.00  0.00     0.131 A 
ENDROOT
BRANCH   6  18
ATOM     18  O   UNL     1     -25.441 -51.544  54.249  1.00  0.00    -0.507 OA
ATOM     19  H   UNL     1     -24.903 -52.227  54.763  1.00  0.00     0.293 HD
ENDBRANCH   6  18
BRANCH  17  20
ATOM     20  O   UNL     1     -25.793 -56.380  56.100  1.00  0.00    -0.507 OA
ATOM     21  H   UNL     1     -25.249 -55.524  56.092  1.00  0.00     0.293 HD
ENDBRANCH  17  20
BRANCH  15  22
ATOM     22  O   UNL     1     -28.759 -59.495  53.923  1.00  0.00    -0.508 OA
ATOM     23  H   UNL     1     -29.170 -59.817  53.054  1.00  0.00     0.293 HD
ENDBRANCH  15  22
TORSDOF 3
ENDMDL
MODEL 2
REMARK VINA RESULT:    -5.549      2.359      6.291
REMARK INTER + INTRA:          -6.036
REMARK INTER:                  -6.036
REMARK INTRA:                   0.000
REMARK UNBOUND:                 0.000
REMARK SMILES Cc1cc(O)c2c(c1)C(=O)c1cc(O)cc(O)c1C2=O
REMARK SMILES IDX 1 1 2 2 8 3 7 4 6 5 4 6 3 7 19 8 20 9 18 10 11 11 9 12 10 13
REMARK SMILES IDX 12 14 13 15 15 16 16 17 5 18 17 20 14 22
REMARK H PARENT 5 19 17 21 14 23
REMARK Flexibility Score: inf
ROOT
ATOM      1  C   UNL     1     -31.135 -58.001  57.969  1.00  0.00     0.044 C 
ATOM      2  C   UNL     1     -30.775 -57.201  56.752  1.00  0.00    -0.047 A 
ATOM      3  C   UNL     1     -29.761 -56.241  56.815  1.00  0.00     0.016 A 
ATOM      4  C   UNL     1     -29.446 -55.453  55.694  1.00  0.00     0.038 A 
ATOM      5  C   UNL     1     -30.180 -55.609  54.494  1.00  0.00     0.076 A 
ATOM      6  C   UNL     1     -31.167 -56.628  54.420  1.00  0.00     0.127 A 
ATOM      7  C   UNL     1     -31.478 -57.381  55.558  1.00  0.00     0.050 A 
ATOM      8  C   UNL     1     -29.926 -54.653  53.381  1.00  0.00     0.201 C 
ATOM      9  O   UNL     1     -30.798 -54.475  52.487  1.00  0.00    -0.288 OA
ATOM     10  C   UNL     1     -28.697 -53.818  53.378  1.00  0.00     0.076 A 
ATOM     11  C   UNL     1     -27.933 -53.716  54.560  1.00  0.00     0.041 A 
ATOM     12  C   UNL     1     -28.343 -54.466  55.769  1.00  0.00     0.194 C 
ATOM     13  O   UNL     1     -27.738 -54.278  56.859  1.00  0.00    -0.289 OA
ATOM     14  C   UNL     1     -26.789 -52.899  54.584  1.00  0.00     0.059 A 
ATOM     15  C   UNL     1     -26.397 -52.192  53.444  1.00  0.00     0.120 A 
ATOM     16  C   UNL     1     -27.144 -52.298  52.271  1.00  0.00     0.093 A 
ATOM     17  C   UNL     1     -28.289 -53.104  52.226  1.00  0.00     0.131 A 
ENDROOT
BRANCH   6  18
ATOM     18  O   UNL     1     -31.839 -56.954  53.239  1.00  0.00    -0.507 OA
ATOM     19  H   UNL     1     -31.903 -57.892  52.869  1.00  0.00     0.293 HD
ENDBRANCH   6  18
BRANCH  17  20
ATOM     20  O   UNL     1     -29.010 -53.201  51.036  1.00  0.00    -0.507 OA
ATOM     21  H   UNL     1     -29.836 -53.783  50.958  1.00  0.00     0.293 HD
ENDBRANCH  17  20
BRANCH  15  22
ATOM     22  O   UNL     1     -25.263 -51.383  53.465  1.00  0.00    -0.508 OA
ATOM     23  H   UNL     1     -25.117 -50.692  54.192  1.00  0.00     0.293 HD
ENDBRANCH  15  22
TORSDOF 3
ENDMDL
MODEL 3
REMARK VINA RESULT:    -5.408     11.759     14.427
REMARK INTER + INTRA:          -5.882
REMARK INTER:                  -5.882
REMARK INTRA:                   0.000
REMARK UNBOUND:                 0.000
REMARK SMILES Cc1cc(O)c2c(c1)C(=O)c1cc(O)cc(O)c1C2=O
REMARK SMILES IDX 1 1 2 2 8 3 7 4 6 5 4 6 3 7 19 8 20 9 18 10 11 11 9 12 10 13
REMARK SMILES IDX 12 14 13 15 15 16 16 17 5 18 17 20 14 22
REMARK H PARENT 5 19 17 21 14 23
REMARK Flexibility Score: inf
ROOT
ATOM      1  C   UNL     1     -27.834 -67.272  56.200  1.00  0.00     0.044 C 
ATOM      2  C   UNL     1     -26.419 -66.864  56.489  1.00  0.00    -0.047 A 
ATOM      3  C   UNL     1     -25.633 -67.620  57.364  1.00  0.00     0.016 A 
ATOM      4  C   UNL     1     -24.322 -67.222  57.679  1.00  0.00     0.038 A 
ATOM      5  C   UNL     1     -23.797 -66.029  57.130  1.00  0.00     0.076 A 
ATOM      6  C   UNL     1     -24.579 -65.299  56.195  1.00  0.00     0.127 A 
ATOM      7  C   UNL     1     -25.890 -65.703  55.919  1.00  0.00     0.050 A 
ATOM      8  C   UNL     1     -22.467 -65.557  57.607  1.00  0.00     0.201 C 
ATOM      9  O   UNL     1     -22.144 -64.345  57.485  1.00  0.00    -0.288 OA
ATOM     10  C   UNL     1     -21.560 -66.484  58.333  1.00  0.00     0.076 A 
ATOM     11  C   UNL     1     -22.075 -67.703  58.824  1.00  0.00     0.041 A 
ATOM     12  C   UNL     1     -23.492 -68.057  58.580  1.00  0.00     0.194 C 
ATOM     13  O   UNL     1     -23.986 -69.081  59.125  1.00  0.00    -0.289 OA
ATOM     14  C   UNL     1     -21.240 -68.574  59.546  1.00  0.00     0.059 A 
ATOM     15  C   UNL     1     -19.901 -68.245  59.776  1.00  0.00     0.120 A 
ATOM     16  C   UNL     1     -19.386 -67.046  59.284  1.00  0.00     0.093 A 
ATOM     17  C   UNL     1     -20.202 -66.163  58.564  1.00  0.00     0.131 A 
ENDROOT
BRANCH   6  18
ATOM     18  O   UNL     1     -24.093 -64.194  55.492  1.00  0.00    -0.507 OA
ATOM     19  H   UNL     1     -23.235 -63.714  55.726  1.00  0.00     0.293 HD
ENDBRANCH   6  18
BRANCH  17  20
ATOM     20  O   UNL     1     -19.658 -64.977  58.072  1.00  0.00    -0.507 OA
ATOM     21  H   UNL     1     -20.232 -64.271  57.626  1.00  0.00     0.293 HD
ENDBRANCH  17  20
BRANCH  15  22
ATOM     22  O   UNL     1     -19.070 -69.106  60.489  1.00  0.00    -0.508 OA
ATOM     23  H   UNL     1     -19.110 -70.111  60.360  1.00  0.00     0.293 HD
ENDBRANCH  15  22
TORSDOF 3
ENDMDL
MODEL 4
REMARK VINA RESULT:    -5.328      2.626      5.248
REMARK INTER + INTRA:          -5.795
REMARK INTER:                  -5.795
REMARK INTRA:                   0.000
REMARK UNBOUND:                 0.000
REMARK SMILES Cc1cc(O)c2c(c1)C(=O)c1cc(O)cc(O)c1C2=O
REMARK SMILES IDX 1 1 2 2 8 3 7 4 6 5 4 6 3 7 19 8 20 9 18 10 11 11 9 12 10 13
REMARK SMILES IDX 12 14 13 15 15 16 16 17 5 18 17 20 14 22
REMARK H PARENT 5 19 17 21 14 23
REMARK Flexibility Score: inf
ROOT
ATOM      1  C   UNL     1     -33.454 -56.798  51.731  1.00  0.00     0.044 C 
ATOM      2  C   UNL     1     -32.429 -56.266  52.689  1.00  0.00    -0.047 A 
ATOM      3  C   UNL     1     -31.333 -55.540  52.215  1.00  0.00     0.016 A 
ATOM      4  C   UNL     1     -30.342 -55.077  53.098  1.00  0.00     0.038 A 
ATOM      5  C   UNL     1     -30.435 -55.370  54.479  1.00  0.00     0.076 A 
ATOM      6  C   UNL     1     -31.583 -56.056  54.961  1.00  0.00     0.127 A 
ATOM      7  C   UNL     1     -32.541 -56.528  54.057  1.00  0.00     0.050 A 
ATOM      8  C   UNL     1     -29.291 -55.001  55.359  1.00  0.00     0.201 C 
ATOM      9  O   UNL     1     -29.129 -55.584  56.465  1.00  0.00    -0.288 OA
ATOM     10  C   UNL     1     -28.270 -54.029  54.890  1.00  0.00     0.076 A 
ATOM     11  C   UNL     1     -28.222 -53.691  53.520  1.00  0.00     0.041 A 
ATOM     12  C   UNL     1     -29.206 -54.277  52.582  1.00  0.00     0.194 C 
ATOM     13  O   UNL     1     -29.086 -54.077  51.342  1.00  0.00    -0.289 OA
ATOM     14  C   UNL     1     -27.237 -52.802  53.054  1.00  0.00     0.059 A 
ATOM     15  C   UNL     1     -26.309 -52.245  53.938  1.00  0.00     0.120 A 
ATOM     16  C   UNL     1     -26.359 -52.569  55.293  1.00  0.00     0.093 A 
ATOM     17  C   UNL     1     -27.331 -53.454  55.778  1.00  0.00     0.131 A 
ENDROOT
BRANCH   6  18
ATOM     18  O   UNL     1     -31.833 -56.262  56.319  1.00  0.00    -0.507 OA
ATOM     19  H   UNL     1     -31.573 -57.103  56.817  1.00  0.00     0.293 HD
ENDBRANCH   6  18
BRANCH  17  20
ATOM     20  O   UNL     1     -27.365 -53.750  57.141  1.00  0.00    -0.507 OA
ATOM     21  H   UNL     1     -28.240 -53.872  57.638  1.00  0.00     0.293 HD
ENDBRANCH  17  20
BRANCH  15  22
ATOM     22  O   UNL     1     -25.333 -51.362  53.479  1.00  0.00    -0.508 OA
ATOM     23  H   UNL     1     -25.184 -51.204  52.489  1.00  0.00     0.293 HD
ENDBRANCH  15  22
TORSDOF 3
ENDMDL
MODEL 5
REMARK VINA RESULT:    -5.261     12.682     14.544
REMARK INTER + INTRA:          -5.722
REMARK INTER:                  -5.722
REMARK INTRA:                   0.000
REMARK UNBOUND:                 0.000
REMARK SMILES Cc1cc(O)c2c(c1)C(=O)c1cc(O)cc(O)c1C2=O
REMARK SMILES IDX 1 1 2 2 8 3 7 4 6 5 4 6 3 7 19 8 20 9 18 10 11 11 9 12 10 13
REMARK SMILES IDX 12 14 13 15 15 16 16 17 5 18 17 20 14 22
REMARK H PARENT 5 19 17 21 14 23
REMARK Flexibility Score: inf
ROOT
ATOM      1  C   UNL     1     -22.312 -65.357  51.244  1.00  0.00     0.044 C 
ATOM      2  C   UNL     1     -21.978 -66.031  52.542  1.00  0.00    -0.047 A 
ATOM      3  C   UNL     1     -22.940 -66.129  53.552  1.00  0.00     0.016 A 
ATOM      4  C   UNL     1     -22.625 -66.716  54.790  1.00  0.00     0.038 A 
ATOM      5  C   UNL     1     -21.314 -67.189  55.033  1.00  0.00     0.076 A 
ATOM      6  C   UNL     1     -20.360 -67.140  53.981  1.00  0.00     0.127 A 
ATOM      7  C   UNL     1     -20.692 -66.527  52.768  1.00  0.00     0.050 A 
ATOM      8  C   UNL     1     -20.974 -67.659  56.405  1.00  0.00     0.201 C 
ATOM      9  O   UNL     1     -19.773 -67.692  56.784  1.00  0.00    -0.288 OA
ATOM     10  C   UNL     1     -22.054 -67.982  57.373  1.00  0.00     0.076 A 
ATOM     11  C   UNL     1     -23.373 -67.563  57.095  1.00  0.00     0.041 A 
ATOM     12  C   UNL     1     -23.668 -66.845  55.835  1.00  0.00     0.194 C 
ATOM     13  O   UNL     1     -24.816 -66.359  55.643  1.00  0.00    -0.289 OA
ATOM     14  C   UNL     1     -24.400 -67.828  58.020  1.00  0.00     0.059 A 
ATOM     15  C   UNL     1     -24.125 -68.509  59.209  1.00  0.00     0.120 A 
ATOM     16  C   UNL     1     -22.825 -68.932  59.482  1.00  0.00     0.093 A 
ATOM     17  C   UNL     1     -21.788 -68.678  58.576  1.00  0.00     0.131 A 
ENDROOT
BRANCH   6  18
ATOM     18  O   UNL     1     -19.089 -67.712  54.078  1.00  0.00    -0.507 OA
ATOM     19  H   UNL     1     -18.277 -67.363  53.588  1.00  0.00     0.293 HD
ENDBRANCH   6  18
BRANCH  17  20
ATOM     20  O   UNL     1     -20.499 -69.124  58.869  1.00  0.00    -0.507 OA
ATOM     21  H   UNL     1     -20.290 -70.109  58.990  1.00  0.00     0.293 HD
ENDBRANCH  17  20
BRANCH  15  22
ATOM     22  O   UNL     1     -25.140 -68.773  60.126  1.00  0.00    -0.508 OA
ATOM     23  H   UNL     1     -25.304 -69.709  60.482  1.00  0.00     0.293 HD
ENDBRANCH  15  22
TORSDOF 3
ENDMDL
MODEL 6
REMARK VINA RESULT:    -5.153     10.922     13.438
REMARK INTER + INTRA:          -5.604
REMARK INTER:                  -5.604
REMARK INTRA:                   0.000
REMARK UNBOUND:                 0.000
REMARK SMILES Cc1cc(O)c2c(c1)C(=O)c1cc(O)cc(O)c1C2=O
REMARK SMILES IDX 1 1 2 2 8 3 7 4 6 5 4 6 3 7 19 8 20 9 18 10 11 11 9 12 10 13
REMARK SMILES IDX 12 14 13 15 15 16 16 17 5 18 17 20 14 22
REMARK H PARENT 5 19 17 21 14 23
REMARK Flexibility Score: inf
ROOT
ATOM      1  C   UNL     1     -19.659 -60.505  56.350  1.00  0.00     0.044 C 
ATOM      2  C   UNL     1     -19.797 -61.956  56.706  1.00  0.00    -0.047 A 
ATOM      3  C   UNL     1     -21.061 -62.506  56.943  1.00  0.00     0.016 A 
ATOM      4  C   UNL     1     -21.199 -63.852  57.322  1.00  0.00     0.038 A 
ATOM      5  C   UNL     1     -20.049 -64.658  57.495  1.00  0.00     0.076 A 
ATOM      6  C   UNL     1     -18.773 -64.109  57.194  1.00  0.00     0.127 A 
ATOM      7  C   UNL     1     -18.662 -62.759  56.843  1.00  0.00     0.050 A 
ATOM      8  C   UNL     1     -20.223 -66.030  58.048  1.00  0.00     0.201 C 
ATOM      9  O   UNL     1     -19.254 -66.618  58.601  1.00  0.00    -0.288 OA
ATOM     10  C   UNL     1     -21.565 -66.668  58.057  1.00  0.00     0.076 A 
ATOM     11  C   UNL     1     -22.706 -65.871  57.821  1.00  0.00     0.041 A 
ATOM     12  C   UNL     1     -22.549 -64.427  57.532  1.00  0.00     0.194 C 
ATOM     13  O   UNL     1     -23.569 -63.690  57.448  1.00  0.00    -0.289 OA
ATOM     14  C   UNL     1     -23.985 -66.452  57.863  1.00  0.00     0.059 A 
ATOM     15  C   UNL     1     -24.137 -67.816  58.131  1.00  0.00     0.120 A 
ATOM     16  C   UNL     1     -23.011 -68.608  58.356  1.00  0.00     0.093 A 
ATOM     17  C   UNL     1     -21.728 -68.048  58.320  1.00  0.00     0.131 A 
ENDROOT
BRANCH   6  18
ATOM     18  O   UNL     1     -17.599 -64.865  57.194  1.00  0.00    -0.507 OA
ATOM     19  H   UNL     1     -16.904 -64.823  56.462  1.00  0.00     0.293 HD
ENDBRANCH   6  18
BRANCH  17  20
ATOM     20  O   UNL     1     -20.619 -68.867  58.535  1.00  0.00    -0.507 OA
ATOM     21  H   UNL     1     -20.154 -68.909  59.435  1.00  0.00     0.293 HD
ENDBRANCH  17  20
BRANCH  15  22
ATOM     22  O   UNL     1     -25.403 -68.395  58.173  1.00  0.00    -0.508 OA
ATOM     23  H   UNL     1     -26.177 -68.017  57.638  1.00  0.00     0.293 HD
ENDBRANCH  15  22
TORSDOF 3
ENDMDL
MODEL 7
REMARK VINA RESULT:    -5.134     10.427     12.162
REMARK INTER + INTRA:          -5.585
REMARK INTER:                  -5.585
REMARK INTRA:                   0.000
REMARK UNBOUND:                 0.000
REMARK SMILES Cc1cc(O)c2c(c1)C(=O)c1cc(O)cc(O)c1C2=O
REMARK SMILES IDX 1 1 2 2 8 3 7 4 6 5 4 6 3 7 19 8 20 9 18 10 11 11 9 12 10 13
REMARK SMILES IDX 12 14 13 15 15 16 16 17 5 18 17 20 14 22
REMARK H PARENT 5 19 17 21 14 23
REMARK Flexibility Score: inf
ROOT
ATOM      1  C   UNL     1     -32.258 -62.847  51.828  1.00  0.00     0.044 C 
ATOM      2  C   UNL     1     -31.397 -63.760  52.651  1.00  0.00    -0.047 A 
ATOM      3  C   UNL     1     -31.823 -64.182  53.913  1.00  0.00     0.016 A 
ATOM      4  C   UNL     1     -31.006 -65.000  54.712  1.00  0.00     0.038 A 
ATOM      5  C   UNL     1     -29.723 -65.380  54.251  1.00  0.00     0.076 A 
ATOM      6  C   UNL     1     -29.322 -64.997  52.942  1.00  0.00     0.127 A 
ATOM      7  C   UNL     1     -30.144 -64.162  52.179  1.00  0.00     0.050 A 
ATOM      8  C   UNL     1     -28.824 -66.112  55.185  1.00  0.00     0.201 C 
ATOM      9  O   UNL     1     -27.577 -66.108  54.999  1.00  0.00    -0.288 OA
ATOM     10  C   UNL     1     -29.376 -66.754  56.406  1.00  0.00     0.076 A 
ATOM     11  C   UNL     1     -30.681 -66.419  56.827  1.00  0.00     0.041 A 
ATOM     12  C   UNL     1     -31.490 -65.467  56.033  1.00  0.00     0.194 C 
ATOM     13  O   UNL     1     -32.603 -65.069  56.473  1.00  0.00    -0.289 OA
ATOM     14  C   UNL     1     -31.205 -66.989  58.002  1.00  0.00     0.059 A 
ATOM     15  C   UNL     1     -30.445 -67.891  58.752  1.00  0.00     0.120 A 
ATOM     16  C   UNL     1     -29.159 -68.231  58.334  1.00  0.00     0.093 A 
ATOM     17  C   UNL     1     -28.618 -67.674  57.169  1.00  0.00     0.131 A 
ENDROOT
BRANCH   6  18
ATOM     18  O   UNL     1     -28.140 -65.444  52.346  1.00  0.00    -0.507 OA
ATOM     19  H   UNL     1     -28.068 -66.303  51.819  1.00  0.00     0.293 HD
ENDBRANCH   6  18
BRANCH  17  20
ATOM     20  O   UNL     1     -27.334 -68.042  56.767  1.00  0.00    -0.507 OA
ATOM     21  H   UNL     1     -27.148 -68.400  55.838  1.00  0.00     0.293 HD
ENDBRANCH  17  20
BRANCH  15  22
ATOM     22  O   UNL     1     -30.961 -68.458  59.915  1.00  0.00    -0.508 OA
ATOM     23  H   UNL     1     -31.951 -68.414  60.133  1.00  0.00     0.293 HD
ENDBRANCH  15  22
TORSDOF 3
ENDMDL
MODEL 8
REMARK VINA RESULT:    -5.078      1.991      3.503
REMARK INTER + INTRA:          -5.524
REMARK INTER:                  -5.524
REMARK INTRA:                   0.000
REMARK UNBOUND:                 0.000
REMARK SMILES Cc1cc(O)c2c(c1)C(=O)c1cc(O)cc(O)c1C2=O
REMARK SMILES IDX 1 1 2 2 8 3 7 4 6 5 4 6 3 7 19 8 20 9 18 10 11 11 9 12 10 13
REMARK SMILES IDX 12 14 13 15 15 16 16 17 5 18 17 20 14 22
REMARK H PARENT 5 19 17 21 14 23
REMARK Flexibility Score: inf
ROOT
ATOM      1  C   UNL     1     -25.084 -50.217  56.138  1.00  0.00     0.044 C 
ATOM      2  C   UNL     1     -25.845 -51.247  55.356  1.00  0.00    -0.047 A 
ATOM      3  C   UNL     1     -26.388 -52.362  56.001  1.00  0.00     0.016 A 
ATOM      4  C   UNL     1     -27.063 -53.357  55.273  1.00  0.00     0.038 A 
ATOM      5  C   UNL     1     -27.171 -53.249  53.866  1.00  0.00     0.076 A 
ATOM      6  C   UNL     1     -26.669 -52.084  53.225  1.00  0.00     0.127 A 
ATOM      7  C   UNL     1     -25.980 -51.122  53.971  1.00  0.00     0.050 A 
ATOM      8  C   UNL     1     -27.751 -54.394  53.111  1.00  0.00     0.201 C 
ATOM      9  O   UNL     1     -27.501 -54.537  51.884  1.00  0.00    -0.288 OA
ATOM     10  C   UNL     1     -28.534 -55.439  53.822  1.00  0.00     0.076 A 
ATOM     11  C   UNL     1     -28.472 -55.502  55.232  1.00  0.00     0.041 A 
ATOM     12  C   UNL     1     -27.665 -54.512  55.979  1.00  0.00     0.194 C 
ATOM     13  O   UNL     1     -27.505 -54.643  57.224  1.00  0.00    -0.289 OA
ATOM     14  C   UNL     1     -29.176 -56.509  55.917  1.00  0.00     0.059 A 
ATOM     15  C   UNL     1     -29.943 -57.443  55.214  1.00  0.00     0.120 A 
ATOM     16  C   UNL     1     -30.013 -57.377  53.823  1.00  0.00     0.093 A 
ATOM     17  C   UNL     1     -29.318 -56.384  53.121  1.00  0.00     0.131 A 
ENDROOT
BRANCH   6  18
ATOM     18  O   UNL     1     -26.858 -51.821  51.866  1.00  0.00    -0.507 OA
ATOM     19  H   UNL     1     -27.470 -52.360  51.270  1.00  0.00     0.293 HD
ENDBRANCH   6  18
BRANCH  17  20
ATOM     20  O   UNL     1     -29.417 -56.335  51.730  1.00  0.00    -0.507 OA
ATOM     21  H   UNL     1     -28.820 -55.733  51.174  1.00  0.00     0.293 HD
ENDBRANCH  17  20
BRANCH  15  22
ATOM     22  O   UNL     1     -30.642 -58.440  55.891  1.00  0.00    -0.508 OA
ATOM     23  H   UNL     1     -30.358 -59.412  55.844  1.00  0.00     0.293 HD
ENDBRANCH  15  22
TORSDOF 3
ENDMDL
