MODEL 1
REMARK VINA RESULT:    -4.098      0.000      0.000
REMARK INTER + INTRA:          -7.921
REMARK INTER:                  -6.972
REMARK INTRA:                  -0.948
REMARK UNBOUND:                -0.948
REMARK SMILES CCCCCCCCCCCCCC(=O)[O-]
REMARK SMILES IDX 8 1 9 2 10 3 11 4 12 5 13 6 14 7 15 8 16 9 7 10 6 11 5 12
REMARK SMILES IDX 4 13 3 14 2 15 1 16
REMARK H PARENT
REMARK Flexibility Score: inf
ROOT
ATOM      1  C   UNL     1     -97.900 -62.022 -69.749  1.00  0.00     0.000 C 
ENDROOT
BRANCH   1   2
ATOM      2  C   UNL     1     -98.637 -63.060 -68.890  1.00  0.00     0.000 C 
BRANCH   2   3
ATOM      3  C   UNL     1     -99.986 -62.546 -68.358  1.00  0.00     0.000 C 
BRANCH   3   4
ATOM      4  C   UNL     1     -99.929 -61.880 -66.968  1.00  0.00     0.000 C 
BRANCH   4   5
ATOM      5  C   UNL     1     -99.716 -60.353 -66.982  1.00  0.00     0.006 C 
BRANCH   5   6
ATOM      6  C   UNL     1     -98.689 -59.845 -65.958  1.00  0.00     0.053 C 
BRANCH   6   7
ATOM      7  C   UNL     1     -97.831 -58.754 -66.522  1.00  0.00     0.041 C 
ATOM      8  O   UNL     1     -97.818 -58.533 -67.762  1.00  0.00    -0.550 OA
ATOM      9  O   UNL     1     -97.019 -58.004 -65.681  1.00  0.00    -0.550 OA
ENDBRANCH   6   7
ENDBRANCH   5   6
ENDBRANCH   4   5
ENDBRANCH   3   4
ENDBRANCH   2   3
ENDBRANCH   1   2
BRANCH   1  10
ATOM     10  C   UNL     1     -96.641 -62.631 -70.385  1.00  0.00     0.000 C 
BRANCH  10  11
ATOM     11  C   UNL     1     -96.134 -61.823 -71.592  1.00  0.00    -0.000 C 
BRANCH  11  12
ATOM     12  C   UNL     1     -95.148 -60.714 -71.187  1.00  0.00    -0.000 C 
BRANCH  12  13
ATOM     13  C   UNL     1     -93.686 -61.188 -71.207  1.00  0.00    -0.000 C 
BRANCH  13  14
ATOM     14  C   UNL     1     -93.071 -61.274 -69.799  1.00  0.00    -0.000 C 
BRANCH  14  15
ATOM     15  C   UNL     1     -93.171 -62.686 -69.200  1.00  0.00    -0.003 C 
ATOM     16  C   UNL     1     -92.880 -63.784 -70.223  1.00  0.00     0.004 C 
ENDBRANCH  14  15
ENDBRANCH  13  14
ENDBRANCH  12  13
ENDBRANCH  11  12
ENDBRANCH  10  11
ENDBRANCH   1  10
TORSDOF 12
ENDMDL
MODEL 2
REMARK VINA RESULT:    -4.055      1.338      2.514
REMARK INTER + INTRA:          -7.847
REMARK INTER:                  -6.880
REMARK INTRA:                  -0.967
REMARK UNBOUND:                -0.948
REMARK SMILES CCCCCCCCCCCCCC(=O)[O-]
REMARK SMILES IDX 8 1 9 2 10 3 11 4 12 5 13 6 14 7 15 8 16 9 7 10 6 11 5 12
REMARK SMILES IDX 4 13 3 14 2 15 1 16
REMARK H PARENT
REMARK Flexibility Score: inf
ROOT
ATOM      1  C   UNL     1    -100.013 -62.269 -68.127  1.00  0.00     0.000 C 
ENDROOT
BRANCH   1   2
ATOM      2  C   UNL     1     -99.574 -61.845 -66.718  1.00  0.00     0.000 C 
BRANCH   2   3
ATOM      3  C   UNL     1    -100.307 -60.589 -66.216  1.00  0.00     0.000 C 
BRANCH   3   4
ATOM      4  C   UNL     1     -99.665 -59.248 -66.629  1.00  0.00     0.000 C 
BRANCH   4   5
ATOM      5  C   UNL     1     -98.132 -59.280 -66.793  1.00  0.00     0.006 C 
BRANCH   5   6
ATOM      6  C   UNL     1     -97.386 -58.196 -65.998  1.00  0.00     0.053 C 
BRANCH   6   7
ATOM      7  C   UNL     1     -96.776 -58.745 -64.745  1.00  0.00     0.041 C 
ATOM      8  O   UNL     1     -96.016 -58.027 -64.042  1.00  0.00    -0.550 OA
ATOM      9  O   UNL     1     -97.020 -60.060 -64.371  1.00  0.00    -0.550 OA
ENDBRANCH   6   7
ENDBRANCH   5   6
ENDBRANCH   4   5
ENDBRANCH   3   4
ENDBRANCH   2   3
ENDBRANCH   1   2
BRANCH   1  10
ATOM     10  C   UNL     1     -98.863 -62.960 -68.875  1.00  0.00     0.000 C 
BRANCH  10  11
ATOM     11  C   UNL     1     -97.715 -61.997 -69.223  1.00  0.00    -0.000 C 
BRANCH  11  12
ATOM     12  C   UNL     1     -97.139 -62.249 -70.627  1.00  0.00    -0.000 C 
BRANCH  12  13
ATOM     13  C   UNL     1     -95.632 -62.549 -70.601  1.00  0.00    -0.000 C 
BRANCH  13  14
ATOM     14  C   UNL     1     -94.773 -61.273 -70.568  1.00  0.00    -0.000 C 
BRANCH  14  15
ATOM     15  C   UNL     1     -93.584 -61.390 -69.600  1.00  0.00    -0.003 C 
ATOM     16  C   UNL     1     -93.266 -62.838 -69.229  1.00  0.00     0.004 C 
ENDBRANCH  14  15
ENDBRANCH  13  14
ENDBRANCH  12  13
ENDBRANCH  11  12
ENDBRANCH  10  11
ENDBRANCH   1  10
TORSDOF 12
ENDMDL
MODEL 3
REMARK VINA RESULT:    -3.712      2.325      3.356
REMARK INTER + INTRA:          -7.265
REMARK INTER:                  -6.423
REMARK INTRA:                  -0.842
REMARK UNBOUND:                -0.948
REMARK SMILES CCCCCCCCCCCCCC(=O)[O-]
REMARK SMILES IDX 8 1 9 2 10 3 11 4 12 5 13 6 14 7 15 8 16 9 7 10 6 11 5 12
REMARK SMILES IDX 4 13 3 14 2 15 1 16
REMARK H PARENT
REMARK Flexibility Score: inf
ROOT
ATOM      1  C   UNL     1     -97.365 -58.894 -67.784  1.00  0.00     0.000 C 
ENDROOT
BRANCH   1   2
ATOM      2  C   UNL     1     -98.276 -59.099 -66.566  1.00  0.00     0.000 C 
BRANCH   2   3
ATOM      3  C   UNL     1     -99.747 -59.336 -66.952  1.00  0.00     0.000 C 
BRANCH   3   4
ATOM      4  C   UNL     1    -100.460 -60.449 -66.157  1.00  0.00     0.000 C 
BRANCH   4   5
ATOM      5  C   UNL     1     -99.635 -61.736 -65.949  1.00  0.00     0.006 C 
BRANCH   5   6
ATOM      6  C   UNL     1     -99.628 -62.259 -64.504  1.00  0.00     0.053 C 
BRANCH   6   7
ATOM      7  C   UNL     1     -98.244 -62.302 -63.933  1.00  0.00     0.041 C 
ATOM      8  O   UNL     1     -97.520 -61.271 -63.946  1.00  0.00    -0.550 OA
ATOM      9  O   UNL     1     -97.741 -63.489 -63.418  1.00  0.00    -0.550 OA
ENDBRANCH   6   7
ENDBRANCH   5   6
ENDBRANCH   4   5
ENDBRANCH   3   4
ENDBRANCH   2   3
ENDBRANCH   1   2
BRANCH   1  10
ATOM     10  C   UNL     1     -97.406 -60.119 -68.711  1.00  0.00     0.000 C 
BRANCH  10  11
ATOM     11  C   UNL     1     -96.200 -60.185 -69.664  1.00  0.00    -0.000 C 
BRANCH  11  12
ATOM     12  C   UNL     1     -96.391 -61.217 -70.788  1.00  0.00    -0.000 C 
BRANCH  12  13
ATOM     13  C   UNL     1     -95.936 -62.627 -70.378  1.00  0.00    -0.000 C 
BRANCH  13  14
ATOM     14  C   UNL     1     -94.918 -63.231 -71.361  1.00  0.00    -0.000 C 
BRANCH  14  15
ATOM     15  C   UNL     1     -93.566 -63.533 -70.695  1.00  0.00    -0.003 C 
ATOM     16  C   UNL     1     -93.414 -62.852 -69.335  1.00  0.00     0.004 C 
ENDBRANCH  14  15
ENDBRANCH  13  14
ENDBRANCH  12  13
ENDBRANCH  11  12
ENDBRANCH  10  11
ENDBRANCH   1  10
TORSDOF 12
ENDMDL
MODEL 4
REMARK VINA RESULT:    -3.547     13.955     15.349
REMARK INTER + INTRA:          -6.984
REMARK INTER:                  -5.179
REMARK INTRA:                  -1.805
REMARK UNBOUND:                -0.948
REMARK SMILES CCCCCCCCCCCCCC(=O)[O-]
REMARK SMILES IDX 8 1 9 2 10 3 11 4 12 5 13 6 14 7 15 8 16 9 7 10 6 11 5 12
REMARK SMILES IDX 4 13 3 14 2 15 1 16
REMARK H PARENT
REMARK Flexibility Score: inf
ROOT
ATOM      1  C   UNL     1     -97.012 -44.849 -69.533  1.00  0.00     0.000 C 
ENDROOT
BRANCH   1   2
ATOM      2  C   UNL     1     -97.692 -45.898 -68.641  1.00  0.00     0.000 C 
BRANCH   2   3
ATOM      3  C   UNL     1     -98.448 -46.969 -69.447  1.00  0.00     0.000 C 
BRANCH   3   4
ATOM      4  C   UNL     1     -98.537 -46.704 -70.963  1.00  0.00     0.000 C 
BRANCH   4   5
ATOM      5  C   UNL     1     -98.815 -47.948 -71.831  1.00  0.00     0.006 C 
BRANCH   5   6
ATOM      6  C   UNL     1     -99.264 -47.633 -73.267  1.00  0.00     0.053 C 
BRANCH   6   7
ATOM      7  C   UNL     1    -100.701 -47.214 -73.323  1.00  0.00     0.041 C 
ATOM      8  O   UNL     1    -101.612 -48.029 -73.020  1.00  0.00    -0.550 OA
ATOM      9  O   UNL     1    -101.035 -45.933 -73.742  1.00  0.00    -0.550 OA
ENDBRANCH   6   7
ENDBRANCH   5   6
ENDBRANCH   4   5
ENDBRANCH   3   4
ENDBRANCH   2   3
ENDBRANCH   1   2
BRANCH   1  10
ATOM     10  C   UNL     1     -95.501 -44.794 -69.259  1.00  0.00     0.000 C 
BRANCH  10  11
ATOM     11  C   UNL     1     -95.043 -45.848 -68.237  1.00  0.00    -0.000 C 
BRANCH  11  12
ATOM     12  C   UNL     1     -94.083 -46.884 -68.846  1.00  0.00    -0.000 C 
BRANCH  12  13
ATOM     13  C   UNL     1     -93.942 -46.734 -70.369  1.00  0.00    -0.000 C 
BRANCH  13  14
ATOM     14  C   UNL     1     -94.359 -48.003 -71.132  1.00  0.00    -0.000 C 
BRANCH  14  15
ATOM     15  C   UNL     1     -95.176 -47.687 -72.395  1.00  0.00    -0.003 C 
ATOM     16  C   UNL     1     -95.280 -46.187 -72.671  1.00  0.00     0.004 C 
ENDBRANCH  14  15
ENDBRANCH  13  14
ENDBRANCH  12  13
ENDBRANCH  11  12
ENDBRANCH  10  11
ENDBRANCH   1  10
TORSDOF 12
ENDMDL
MODEL 5
REMARK VINA RESULT:    -3.481     14.250     15.526
REMARK INTER + INTRA:          -6.871
REMARK INTER:                  -5.336
REMARK INTRA:                  -1.535
REMARK UNBOUND:                -0.948
REMARK SMILES CCCCCCCCCCCCCC(=O)[O-]
REMARK SMILES IDX 8 1 9 2 10 3 11 4 12 5 13 6 14 7 15 8 16 9 7 10 6 11 5 12
REMARK SMILES IDX 4 13 3 14 2 15 1 16
REMARK H PARENT
REMARK Flexibility Score: inf
ROOT
ATOM      1  C   UNL     1     -98.470 -46.924 -69.609  1.00  0.00     0.000 C 
ENDROOT
BRANCH   1   2
ATOM      2  C   UNL     1     -97.941 -46.871 -71.049  1.00  0.00     0.000 C 
BRANCH   2   3
ATOM      3  C   UNL     1     -98.556 -47.954 -71.953  1.00  0.00     0.000 C 
BRANCH   3   4
ATOM      4  C   UNL     1     -99.504 -47.428 -73.050  1.00  0.00     0.000 C 
BRANCH   4   5
ATOM      5  C   UNL     1    -101.001 -47.708 -72.810  1.00  0.00     0.006 C 
BRANCH   5   6
ATOM      6  C   UNL     1    -101.626 -46.890 -71.669  1.00  0.00     0.053 C 
BRANCH   6   7
ATOM      7  C   UNL     1    -101.430 -45.418 -71.864  1.00  0.00     0.041 C 
ATOM      8  O   UNL     1    -100.837 -44.735 -70.988  1.00  0.00    -0.550 OA
ATOM      9  O   UNL     1    -101.932 -44.795 -72.999  1.00  0.00    -0.550 OA
ENDBRANCH   6   7
ENDBRANCH   5   6
ENDBRANCH   4   5
ENDBRANCH   3   4
ENDBRANCH   2   3
ENDBRANCH   1   2
BRANCH   1  10
ATOM     10  C   UNL     1     -97.856 -45.802 -68.757  1.00  0.00     0.000 C 
BRANCH  10  11
ATOM     11  C   UNL     1     -96.974 -44.846 -69.578  1.00  0.00    -0.000 C 
BRANCH  11  12
ATOM     12  C   UNL     1     -95.512 -44.836 -69.103  1.00  0.00    -0.000 C 
BRANCH  12  13
ATOM     13  C   UNL     1     -95.187 -46.012 -68.168  1.00  0.00    -0.000 C 
BRANCH  13  14
ATOM     14  C   UNL     1     -93.998 -46.854 -68.664  1.00  0.00    -0.000 C 
BRANCH  14  15
ATOM     15  C   UNL     1     -93.763 -46.705 -70.176  1.00  0.00    -0.003 C 
ATOM     16  C   UNL     1     -94.352 -47.864 -70.981  1.00  0.00     0.004 C 
ENDBRANCH  14  15
ENDBRANCH  13  14
ENDBRANCH  12  13
ENDBRANCH  11  12
ENDBRANCH  10  11
ENDBRANCH   1  10
TORSDOF 12
ENDMDL
MODEL 6
REMARK VINA RESULT:    -3.345     14.040     15.069
REMARK INTER + INTRA:          -6.639
REMARK INTER:                  -5.714
REMARK INTRA:                  -0.925
REMARK UNBOUND:                -0.948
REMARK SMILES CCCCCCCCCCCCCC(=O)[O-]
REMARK SMILES IDX 8 1 9 2 10 3 11 4 12 5 13 6 14 7 15 8 16 9 7 10 6 11 5 12
REMARK SMILES IDX 4 13 3 14 2 15 1 16
REMARK H PARENT
REMARK Flexibility Score: inf
ROOT
ATOM      1  C   UNL     1     -98.748 -48.096 -71.942  1.00  0.00     0.000 C 
ENDROOT
BRANCH   1   2
ATOM      2  C   UNL     1     -99.115 -47.604 -73.349  1.00  0.00     0.000 C 
BRANCH   2   3
ATOM      3  C   UNL     1    -100.457 -46.852 -73.389  1.00  0.00     0.000 C 
BRANCH   3   4
ATOM      4  C   UNL     1    -101.666 -47.644 -72.851  1.00  0.00     0.000 C 
BRANCH   4   5
ATOM      5  C   UNL     1    -102.269 -47.108 -71.538  1.00  0.00     0.006 C 
BRANCH   5   6
ATOM      6  C   UNL     1    -103.618 -47.737 -71.154  1.00  0.00     0.053 C 
BRANCH   6   7
ATOM      7  C   UNL     1    -104.049 -47.338 -69.776  1.00  0.00     0.041 C 
ATOM      8  O   UNL     1    -104.304 -48.218 -68.911  1.00  0.00    -0.550 OA
ATOM      9  O   UNL     1    -104.201 -45.995 -69.457  1.00  0.00    -0.550 OA
ENDBRANCH   6   7
ENDBRANCH   5   6
ENDBRANCH   4   5
ENDBRANCH   3   4
ENDBRANCH   2   3
ENDBRANCH   1   2
BRANCH   1  10
ATOM     10  C   UNL     1     -97.969 -47.019 -71.171  1.00  0.00     0.000 C 
BRANCH  10  11
ATOM     11  C   UNL     1     -98.623 -46.660 -69.825  1.00  0.00    -0.000 C 
BRANCH  11  12
ATOM     12  C   UNL     1     -97.596 -46.219 -68.769  1.00  0.00    -0.000 C 
BRANCH  12  13
ATOM     13  C   UNL     1     -96.288 -45.709 -69.394  1.00  0.00    -0.000 C 
BRANCH  13  14
ATOM     14  C   UNL     1     -95.096 -45.788 -68.424  1.00  0.00    -0.000 C 
BRANCH  14  15
ATOM     15  C   UNL     1     -94.133 -46.935 -68.770  1.00  0.00    -0.003 C 
ATOM     16  C   UNL     1     -94.252 -47.388 -70.226  1.00  0.00     0.004 C 
ENDBRANCH  14  15
ENDBRANCH  13  14
ENDBRANCH  12  13
ENDBRANCH  11  12
ENDBRANCH  10  11
ENDBRANCH   1  10
TORSDOF 12
ENDMDL
MODEL 7
REMARK VINA RESULT:    -3.301     13.629     15.518
REMARK INTER + INTRA:          -6.565
REMARK INTER:                  -5.240
REMARK INTRA:                  -1.325
REMARK UNBOUND:                -0.948
REMARK SMILES CCCCCCCCCCCCCC(=O)[O-]
REMARK SMILES IDX 8 1 9 2 10 3 11 4 12 5 13 6 14 7 15 8 16 9 7 10 6 11 5 12
REMARK SMILES IDX 4 13 3 14 2 15 1 16
REMARK H PARENT
REMARK Flexibility Score: inf
ROOT
ATOM      1  C   UNL     1     -97.603 -46.003 -68.679  1.00  0.00     0.000 C 
ENDROOT
BRANCH   1   2
ATOM      2  C   UNL     1     -96.317 -45.533 -69.375  1.00  0.00     0.000 C 
BRANCH   2   3
ATOM      3  C   UNL     1     -95.046 -46.151 -68.765  1.00  0.00     0.000 C 
BRANCH   3   4
ATOM      4  C   UNL     1     -94.347 -47.208 -69.644  1.00  0.00     0.000 C 
BRANCH   4   5
ATOM      5  C   UNL     1     -93.623 -46.650 -70.886  1.00  0.00     0.006 C 
BRANCH   5   6
ATOM      6  C   UNL     1     -94.316 -46.966 -72.221  1.00  0.00     0.053 C 
BRANCH   6   7
ATOM      7  C   UNL     1     -94.066 -48.376 -72.660  1.00  0.00     0.041 C 
ATOM      8  O   UNL     1     -92.924 -48.722 -73.062  1.00  0.00    -0.550 OA
ATOM      9  O   UNL     1     -95.103 -49.299 -72.658  1.00  0.00    -0.550 OA
ENDBRANCH   6   7
ENDBRANCH   5   6
ENDBRANCH   4   5
ENDBRANCH   3   4
ENDBRANCH   2   3
ENDBRANCH   1   2
BRANCH   1  10
ATOM     10  C   UNL     1     -98.451 -46.869 -69.623  1.00  0.00     0.000 C 
BRANCH  10  11
ATOM     11  C   UNL     1     -97.887 -46.921 -71.052  1.00  0.00    -0.000 C 
BRANCH  11  12
ATOM     12  C   UNL     1     -98.472 -48.079 -71.878  1.00  0.00    -0.000 C 
BRANCH  12  13
ATOM     13  C   UNL     1     -99.216 -47.593 -73.131  1.00  0.00    -0.000 C 
BRANCH  13  14
ATOM     14  C   UNL     1    -100.744 -47.719 -73.001  1.00  0.00    -0.000 C 
BRANCH  14  15
ATOM     15  C   UNL     1    -101.382 -46.483 -72.347  1.00  0.00    -0.003 C 
ATOM     16  C   UNL     1    -102.133 -46.819 -71.059  1.00  0.00     0.004 C 
ENDBRANCH  14  15
ENDBRANCH  13  14
ENDBRANCH  12  13
ENDBRANCH  11  12
ENDBRANCH  10  11
ENDBRANCH   1  10
TORSDOF 12
ENDMDL
MODEL 8
REMARK VINA RESULT:    -3.265     13.937     15.305
REMARK INTER + INTRA:          -6.504
REMARK INTER:                  -4.741
REMARK INTRA:                  -1.763
REMARK UNBOUND:                -0.948
REMARK SMILES CCCCCCCCCCCCCC(=O)[O-]
REMARK SMILES IDX 8 1 9 2 10 3 11 4 12 5 13 6 14 7 15 8 16 9 7 10 6 11 5 12
REMARK SMILES IDX 4 13 3 14 2 15 1 16
REMARK H PARENT
REMARK Flexibility Score: inf
ROOT
ATOM      1  C   UNL     1     -95.672 -48.332 -72.624  1.00  0.00     0.000 C 
ENDROOT
BRANCH   1   2
ATOM      2  C   UNL     1     -96.099 -46.932 -73.091  1.00  0.00     0.000 C 
BRANCH   2   3
ATOM      3  C   UNL     1     -97.474 -46.513 -72.543  1.00  0.00     0.000 C 
BRANCH   3   4
ATOM      4  C   UNL     1     -98.292 -47.647 -71.893  1.00  0.00     0.000 C 
BRANCH   4   5
ATOM      5  C   UNL     1     -99.019 -47.265 -70.587  1.00  0.00     0.006 C 
BRANCH   5   6
ATOM      6  C   UNL     1     -99.644 -45.862 -70.596  1.00  0.00     0.053 C 
BRANCH   6   7
ATOM      7  C   UNL     1    -101.085 -45.895 -71.003  1.00  0.00     0.041 C 
ATOM      8  O   UNL     1    -101.638 -46.989 -71.293  1.00  0.00    -0.550 OA
ATOM      9  O   UNL     1    -101.810 -44.714 -71.093  1.00  0.00    -0.550 OA
ENDBRANCH   6   7
ENDBRANCH   5   6
ENDBRANCH   4   5
ENDBRANCH   3   4
ENDBRANCH   2   3
ENDBRANCH   1   2
BRANCH   1  10
ATOM     10  C   UNL     1     -94.362 -48.267 -71.824  1.00  0.00     0.000 C 
BRANCH  10  11
ATOM     11  C   UNL     1     -93.740 -46.861 -71.814  1.00  0.00    -0.000 C 
BRANCH  11  12
ATOM     12  C   UNL     1     -93.190 -46.468 -70.432  1.00  0.00    -0.000 C 
BRANCH  12  13
ATOM     13  C   UNL     1     -93.964 -47.127 -69.280  1.00  0.00    -0.000 C 
BRANCH  13  14
ATOM     14  C   UNL     1     -94.756 -46.111 -68.438  1.00  0.00    -0.000 C 
BRANCH  14  15
ATOM     15  C   UNL     1     -96.156 -45.838 -69.010  1.00  0.00    -0.003 C 
ATOM     16  C   UNL     1     -96.266 -44.463 -69.669  1.00  0.00     0.004 C 
ENDBRANCH  14  15
ENDBRANCH  13  14
ENDBRANCH  12  13
ENDBRANCH  11  12
ENDBRANCH  10  11
ENDBRANCH   1  10
TORSDOF 12
ENDMDL
MODEL 9
REMARK VINA RESULT:    -3.222     15.782     19.705
REMARK INTER + INTRA:          -6.430
REMARK INTER:                  -4.915
REMARK INTRA:                  -1.515
REMARK UNBOUND:                -0.948
REMARK SMILES CCCCCCCCCCCCCC(=O)[O-]
REMARK SMILES IDX 8 1 9 2 10 3 11 4 12 5 13 6 14 7 15 8 16 9 7 10 6 11 5 12
REMARK SMILES IDX 4 13 3 14 2 15 1 16
REMARK H PARENT
REMARK Flexibility Score: inf
ROOT
ATOM      1  C   UNL     1    -109.230 -46.845 -58.274  1.00  0.00     0.000 C 
ENDROOT
BRANCH   1   2
ATOM      2  C   UNL     1    -108.260 -47.511 -59.261  1.00  0.00     0.000 C 
BRANCH   2   3
ATOM      3  C   UNL     1    -108.941 -47.937 -60.574  1.00  0.00     0.000 C 
BRANCH   3   4
ATOM      4  C   UNL     1    -107.980 -48.400 -61.687  1.00  0.00     0.000 C 
BRANCH   4   5
ATOM      5  C   UNL     1    -108.592 -49.371 -62.718  1.00  0.00     0.006 C 
BRANCH   5   6
ATOM      6  C   UNL     1    -107.795 -50.670 -62.918  1.00  0.00     0.053 C 
BRANCH   6   7
ATOM      7  C   UNL     1    -106.912 -50.602 -64.126  1.00  0.00     0.041 C 
ATOM      8  O   UNL     1    -105.970 -51.426 -64.269  1.00  0.00    -0.550 OA
ATOM      9  O   UNL     1    -107.108 -49.609 -65.075  1.00  0.00    -0.550 OA
ENDBRANCH   6   7
ENDBRANCH   5   6
ENDBRANCH   4   5
ENDBRANCH   3   4
ENDBRANCH   2   3
ENDBRANCH   1   2
BRANCH   1  10
ATOM     10  C   UNL     1    -108.650 -46.846 -56.851  1.00  0.00     0.000 C 
BRANCH  10  11
ATOM     11  C   UNL     1    -107.401 -47.734 -56.718  1.00  0.00    -0.000 C 
BRANCH  11  12
ATOM     12  C   UNL     1    -107.596 -48.883 -55.715  1.00  0.00    -0.000 C 
BRANCH  12  13
ATOM     13  C   UNL     1    -108.780 -49.792 -56.082  1.00  0.00    -0.000 C 
BRANCH  13  14
ATOM     14  C   UNL     1    -108.479 -50.700 -57.287  1.00  0.00    -0.000 C 
BRANCH  14  15
ATOM     15  C   UNL     1    -109.650 -50.766 -58.280  1.00  0.00    -0.003 C 
ATOM     16  C   UNL     1    -109.300 -51.531 -59.556  1.00  0.00     0.004 C 
ENDBRANCH  14  15
ENDBRANCH  13  14
ENDBRANCH  12  13
ENDBRANCH  11  12
ENDBRANCH  10  11
ENDBRANCH   1  10
TORSDOF 12
ENDMDL
