MODEL 1
REMARK VINA RESULT:    -4.364      0.000      0.000
REMARK INTER + INTRA:          -4.665
REMARK INTER:                  -5.257
REMARK INTRA:                   0.592
REMARK UNBOUND:                 0.592
REMARK SMILES O=c1c(O)c(-c2ccc(O)cc2O)oc2cc(O)cc(O)c12
REMARK SMILES IDX 5 1 3 2 2 3 1 4 22 5 20 6 19 7 17 8 16 9 15 10 14 11 6 12
REMARK SMILES IDX 8 13 7 14 9 15 11 16 12 17 10 18 13 20 4 22 21 24 18 26
REMARK H PARENT 10 19 13 21 4 23 21 25 18 27
REMARK Flexibility Score: inf
ROOT
ATOM      1  C   UNL     1      72.039  40.882  20.266  1.00  0.00     0.184 A 
ATOM      2  C   UNL     1      72.918  40.938  19.167  1.00  0.00     0.208 A 
ATOM      3  C   UNL     1      74.298  40.831  19.396  1.00  0.00     0.238 A 
ATOM      4  O   UNL     1      75.093  40.871  18.419  1.00  0.00    -0.285 OA
ATOM      5  C   UNL     1      74.777  40.686  20.714  1.00  0.00     0.111 A 
ATOM      6  C   UNL     1      76.152  40.575  21.031  1.00  0.00     0.134 A 
ATOM      7  C   UNL     1      76.549  40.441  22.370  1.00  0.00     0.093 A 
ATOM      8  C   UNL     1      75.601  40.416  23.396  1.00  0.00     0.123 A 
ATOM      9  C   UNL     1      74.240  40.524  23.088  1.00  0.00     0.094 A 
ATOM     10  C   UNL     1      73.824  40.657  21.760  1.00  0.00     0.146 A 
ATOM     11  O   UNL     1      72.526  40.755  21.497  1.00  0.00    -0.451 OA
ENDROOT
BRANCH   1  12
ATOM     12  C   UNL     1      70.570  40.970  20.096  1.00  0.00     0.063 A 
ATOM     13  C   UNL     1      68.618  41.119  18.649  1.00  0.00     0.047 A 
ATOM     14  C   UNL     1      70.005  41.065  18.811  1.00  0.00     0.020 A 
ATOM     15  C   UNL     1      67.777  41.069  19.763  1.00  0.00     0.119 A 
ATOM     16  C   UNL     1      68.329  40.961  21.045  1.00  0.00     0.093 A 
ATOM     17  C   UNL     1      69.720  40.907  21.218  1.00  0.00     0.130 A 
BRANCH  15  18
ATOM     18  O   UNL     1      66.397  41.125  19.584  1.00  0.00    -0.508 OA
ATOM     19  H   UNL     1      65.904  42.010  19.534  1.00  0.00     0.293 HD
ENDBRANCH  15  18
BRANCH  17  20
ATOM     20  O   UNL     1      70.256  40.806  22.502  1.00  0.00    -0.507 OA
ATOM     21  H   UNL     1      70.246  39.932  23.016  1.00  0.00     0.293 HD
ENDBRANCH  17  20
ENDBRANCH   1  12
BRANCH   2  22
ATOM     22  O   UNL     1      72.418  41.123  17.875  1.00  0.00    -0.502 OA
ATOM     23  H   UNL     1      71.915  41.959  17.602  1.00  0.00     0.293 HD
ENDBRANCH   2  22
BRANCH   6  24
ATOM     24  O   UNL     1      77.124  40.598  20.030  1.00  0.00    -0.507 OA
ATOM     25  H   UNL     1      77.467  39.746  19.601  1.00  0.00     0.293 HD
ENDBRANCH   6  24
BRANCH   8  26
ATOM     26  O   UNL     1      76.022  40.282  24.716  1.00  0.00    -0.508 OA
ATOM     27  H   UNL     1      76.064  41.078  25.342  1.00  0.00     0.293 HD
ENDBRANCH   8  26
TORSDOF 6
ENDMDL
MODEL 2
REMARK VINA RESULT:    -2.187      2.215      6.939
REMARK INTER + INTRA:          -2.042
REMARK INTER:                  -1.696
REMARK INTRA:                  -0.346
REMARK UNBOUND:                 0.592
REMARK SMILES O=c1c(O)c(-c2ccc(O)cc2O)oc2cc(O)cc(O)c12
REMARK SMILES IDX 5 1 3 2 2 3 1 4 22 5 20 6 19 7 17 8 16 9 15 10 14 11 6 12
REMARK SMILES IDX 8 13 7 14 9 15 11 16 12 17 10 18 13 20 4 22 21 24 18 26
REMARK H PARENT 10 19 13 21 4 23 21 25 18 27
REMARK Flexibility Score: inf
ROOT
ATOM      1  C   UNL     1      72.607  39.455  19.945  1.00  0.00     0.184 A 
ATOM      2  C   UNL     1      72.429  39.654  21.327  1.00  0.00     0.208 A 
ATOM      3  C   UNL     1      71.186  40.109  21.793  1.00  0.00     0.238 A 
ATOM      4  O   UNL     1      71.013  40.283  23.029  1.00  0.00    -0.285 OA
ATOM      5  C   UNL     1      70.151  40.371  20.872  1.00  0.00     0.111 A 
ATOM      6  C   UNL     1      68.870  40.835  21.257  1.00  0.00     0.134 A 
ATOM      7  C   UNL     1      67.895  41.080  20.279  1.00  0.00     0.093 A 
ATOM      8  C   UNL     1      68.174  40.870  18.926  1.00  0.00     0.123 A 
ATOM      9  C   UNL     1      69.438  40.411  18.540  1.00  0.00     0.094 A 
ATOM     10  C   UNL     1      70.423  40.160  19.499  1.00  0.00     0.146 A 
ATOM     11  O   UNL     1      71.612  39.722  19.104  1.00  0.00    -0.451 OA
ENDROOT
BRANCH   1  12
ATOM     12  C   UNL     1      73.887  38.959  19.386  1.00  0.00     0.063 A 
ATOM     13  C   UNL     1      76.290  39.195  19.084  1.00  0.00     0.047 A 
ATOM     14  C   UNL     1      75.079  39.678  19.587  1.00  0.00     0.020 A 
ATOM     15  C   UNL     1      76.331  37.987  18.384  1.00  0.00     0.119 A 
ATOM     16  C   UNL     1      75.152  37.257  18.191  1.00  0.00     0.093 A 
ATOM     17  C   UNL     1      73.931  37.734  18.691  1.00  0.00     0.130 A 
BRANCH  15  18
ATOM     18  O   UNL     1      77.546  37.521  17.890  1.00  0.00    -0.508 OA
ATOM     19  H   UNL     1      77.860  36.572  18.062  1.00  0.00     0.293 HD
ENDBRANCH  15  18
BRANCH  17  20
ATOM     20  O   UNL     1      72.763  36.999  18.485  1.00  0.00    -0.507 OA
ATOM     21  H   UNL     1      72.610  36.470  17.634  1.00  0.00     0.293 HD
ENDBRANCH  17  20
ENDBRANCH   1  12
BRANCH   2  22
ATOM     22  O   UNL     1      73.486  39.426  22.213  1.00  0.00    -0.502 OA
ATOM     23  H   UNL     1      74.372  39.037  21.913  1.00  0.00     0.293 HD
ENDBRANCH   2  22
BRANCH   6  24
ATOM     24  O   UNL     1      68.560  41.054  22.601  1.00  0.00    -0.507 OA
ATOM     25  H   UNL     1      69.276  41.067  23.317  1.00  0.00     0.293 HD
ENDBRANCH   6  24
BRANCH   8  26
ATOM     26  O   UNL     1      67.188  41.121  17.975  1.00  0.00    -0.508 OA
ATOM     27  H   UNL     1      66.491  41.843  18.113  1.00  0.00     0.293 HD
ENDBRANCH   8  26
TORSDOF 6
ENDMDL
MODEL 3
REMARK VINA RESULT:    -1.772      2.831      3.881
REMARK INTER + INTRA:          -1.543
REMARK INTER:                  -1.068
REMARK INTRA:                  -0.475
REMARK UNBOUND:                 0.592
REMARK SMILES O=c1c(O)c(-c2ccc(O)cc2O)oc2cc(O)cc(O)c12
REMARK SMILES IDX 5 1 3 2 2 3 1 4 22 5 20 6 19 7 17 8 16 9 15 10 14 11 6 12
REMARK SMILES IDX 8 13 7 14 9 15 11 16 12 17 10 18 13 20 4 22 21 24 18 26
REMARK H PARENT 10 19 13 21 4 23 21 25 18 27
REMARK Flexibility Score: inf
ROOT
ATOM      1  C   UNL     1      72.479  39.005  19.869  1.00  0.00     0.184 A 
ATOM      2  C   UNL     1      72.638  37.634  19.589  1.00  0.00     0.208 A 
ATOM      3  C   UNL     1      73.847  37.191  19.031  1.00  0.00     0.238 A 
ATOM      4  O   UNL     1      74.004  35.965  18.784  1.00  0.00    -0.285 OA
ATOM      5  C   UNL     1      74.866  38.123  18.748  1.00  0.00     0.111 A 
ATOM      6  C   UNL     1      76.113  37.761  18.182  1.00  0.00     0.134 A 
ATOM      7  C   UNL     1      77.073  38.749  17.922  1.00  0.00     0.093 A 
ATOM      8  C   UNL     1      76.814  40.090  18.217  1.00  0.00     0.123 A 
ATOM      9  C   UNL     1      75.585  40.454  18.777  1.00  0.00     0.094 A 
ATOM     10  C   UNL     1      74.614  39.484  19.044  1.00  0.00     0.146 A 
ATOM     11  O   UNL     1      73.458  39.857  19.579  1.00  0.00    -0.451 OA
ENDROOT
BRANCH   1  12
ATOM     12  C   UNL     1      71.237  39.539  20.476  1.00  0.00     0.063 A 
ATOM     13  C   UNL     1      69.799  39.845  22.415  1.00  0.00     0.047 A 
ATOM     14  C   UNL     1      70.956  39.318  21.836  1.00  0.00     0.020 A 
ATOM     15  C   UNL     1      68.913  40.607  21.649  1.00  0.00     0.119 A 
ATOM     16  C   UNL     1      69.190  40.844  20.298  1.00  0.00     0.093 A 
ATOM     17  C   UNL     1      70.349  40.318  19.707  1.00  0.00     0.130 A 
BRANCH  15  18
ATOM     18  O   UNL     1      67.764  41.125  22.241  1.00  0.00    -0.508 OA
ATOM     19  H   UNL     1      66.847  40.981  21.834  1.00  0.00     0.293 HD
ENDBRANCH  15  18
BRANCH  17  20
ATOM     20  O   UNL     1      70.609  40.556  18.357  1.00  0.00    -0.507 OA
ATOM     21  H   UNL     1      71.435  41.060  18.056  1.00  0.00     0.293 HD
ENDBRANCH  17  20
ENDBRANCH   1  12
BRANCH   2  22
ATOM     22  O   UNL     1      71.596  36.739  19.842  1.00  0.00    -0.502 OA
ATOM     23  H   UNL     1      70.754  36.713  19.280  1.00  0.00     0.293 HD
ENDBRANCH   2  22
BRANCH   6  24
ATOM     24  O   UNL     1      76.402  36.430  17.875  1.00  0.00    -0.507 OA
ATOM     25  H   UNL     1      75.980  35.662  18.384  1.00  0.00     0.293 HD
ENDBRANCH   6  24
BRANCH   8  26
ATOM     26  O   UNL     1      77.785  41.052  17.949  1.00  0.00    -0.508 OA
ATOM     27  H   UNL     1      78.247  41.102  17.049  1.00  0.00     0.293 HD
ENDBRANCH   8  26
TORSDOF 6
ENDMDL
