MODEL 1
REMARK VINA RESULT:    -5.376      0.000      0.000
REMARK INTER + INTRA:          -7.926
REMARK INTER:                  -7.418
REMARK INTRA:                  -0.508
REMARK UNBOUND:                -0.508
REMARK SMILES O=C([O-])[C@@H]1O[C@@H](Oc2cc3oc(-c4ccccc4)cc(=O)c3c(O)c2O)[C@@H](O)[C@@H](O)[C@@H]1O
REMARK SMILES IDX 7 1 6 2 4 3 31 4 5 5 29 6 27 7 2 8 1 9 3 10 32 11 30 13
REMARK SMILES IDX 28 15 8 17 25 18 9 19 23 20 10 21 22 22 11 23 20 24 12 25
REMARK SMILES IDX 19 26 21 27 26 28 24 30 13 32 14 33 18 34 15 35 17 36 16 37
REMARK H PARENT 32 12 30 14 28 16 26 29 24 31
REMARK Flexibility Score: inf
ROOT
ATOM      1  O   UNL     1      21.846  33.152  43.189  1.00  0.00    -0.458 OA
ENDROOT
BRANCH   1   2
ATOM      2  C   UNL     1      21.595  33.914  44.369  1.00  0.00     0.339 C 
ATOM      3  C   UNL     1      21.048  36.187  44.965  1.00  0.00     0.199 C 
ATOM      4  C   UNL     1      21.413  35.775  46.424  1.00  0.00     0.180 C 
ATOM      5  O   UNL     1      21.044  35.159  43.972  1.00  0.00    -0.328 OA
ATOM      6  C   UNL     1      22.616  34.796  46.510  1.00  0.00     0.181 C 
ATOM      7  C   UNL     1      22.902  34.084  45.169  1.00  0.00     0.214 C 
BRANCH   3   8
ATOM      8  C   UNL     1      19.730  36.902  44.931  1.00  0.00     0.073 C 
ATOM      9  O   UNL     1      19.665  38.125  45.234  1.00  0.00    -0.547 OA
ATOM     10  O   UNL     1      18.561  36.210  44.624  1.00  0.00    -0.547 OA
ENDBRANCH   3   8
BRANCH   4  11
ATOM     11  O   UNL     1      20.301  35.267  47.125  1.00  0.00    -0.387 OA
ATOM     12  H   UNL     1      20.620  34.889  47.982  1.00  0.00     0.211 HD
ENDBRANCH   4  11
BRANCH   6  13
ATOM     13  O   UNL     1      23.760  35.478  46.961  1.00  0.00    -0.387 OA
ATOM     14  H   UNL     1      23.472  36.397  47.201  1.00  0.00     0.211 HD
ENDBRANCH   6  13
BRANCH   7  15
ATOM     15  O   UNL     1      23.884  34.740  44.397  1.00  0.00    -0.384 OA
ATOM     16  H   UNL     1      23.714  35.718  44.436  1.00  0.00     0.211 HD
ENDBRANCH   7  15
ENDBRANCH   1   2
BRANCH   1  17
ATOM     17  C   UNL     1      21.418  33.405  41.869  1.00  0.00     0.172 A 
ATOM     18  C   UNL     1      22.121  33.030  40.693  1.00  0.00     0.201 A 
ATOM     19  C   UNL     1      20.194  34.054  41.742  1.00  0.00     0.098 A 
ATOM     20  C   UNL     1      21.592  33.336  39.419  1.00  0.00     0.176 A 
ATOM     21  C   UNL     1      19.660  34.367  40.494  1.00  0.00     0.146 A 
ATOM     22  C   UNL     1      20.373  34.067  39.310  1.00  0.00     0.111 A 
ATOM     23  O   UNL     1      18.467  34.948  40.443  1.00  0.00    -0.456 OA
ATOM     24  C   UNL     1      19.810  34.529  38.094  1.00  0.00     0.197 A 
ATOM     25  C   UNL     1      17.888  35.325  39.312  1.00  0.00     0.138 A 
ATOM     26  C   UNL     1      18.559  35.150  38.100  1.00  0.00     0.100 A 
ATOM     27  O   UNL     1      20.417  34.423  36.997  1.00  0.00    -0.289 OA
BRANCH  18  28
ATOM     28  O   UNL     1      23.321  32.319  40.779  1.00  0.00    -0.502 OA
ATOM     29  H   UNL     1      23.461  31.412  40.353  1.00  0.00     0.293 HD
ENDBRANCH  18  28
BRANCH  20  30
ATOM     30  O   UNL     1      22.287  32.856  38.306  1.00  0.00    -0.504 OA
ATOM     31  H   UNL     1      23.077  32.233  38.349  1.00  0.00     0.293 HD
ENDBRANCH  20  30
BRANCH  25  32
ATOM     32  C   UNL     1      16.526  35.893  39.363  1.00  0.00     0.017 A 
ATOM     33  C   UNL     1      15.580  35.317  40.229  1.00  0.00     0.012 A 
ATOM     34  C   UNL     1      16.176  37.024  38.606  1.00  0.00     0.012 A 
ATOM     35  C   UNL     1      14.306  35.872  40.346  1.00  0.00     0.001 A 
ATOM     36  C   UNL     1      14.898  37.579  38.731  1.00  0.00     0.001 A 
ATOM     37  C   UNL     1      13.964  37.003  39.597  1.00  0.00     0.000 A 
ENDBRANCH  25  32
ENDBRANCH   1  17
TORSDOF 9
ENDMDL
MODEL 2
REMARK VINA RESULT:    -5.228      2.018      3.284
REMARK INTER + INTRA:          -7.722
REMARK INTER:                  -6.513
REMARK INTRA:                  -1.209
REMARK UNBOUND:                -0.508
REMARK SMILES O=C([O-])[C@@H]1O[C@@H](Oc2cc3oc(-c4ccccc4)cc(=O)c3c(O)c2O)[C@@H](O)[C@@H](O)[C@@H]1O
REMARK SMILES IDX 7 1 6 2 4 3 31 4 5 5 29 6 27 7 2 8 1 9 3 10 32 11 30 13
REMARK SMILES IDX 28 15 8 17 25 18 9 19 23 20 10 21 22 22 11 23 20 24 12 25
REMARK SMILES IDX 19 26 21 27 26 28 24 30 13 32 14 33 18 34 15 35 17 36 16 37
REMARK H PARENT 32 12 30 14 28 16 26 29 24 31
REMARK Flexibility Score: inf
ROOT
ATOM      1  O   UNL     1      18.850  33.453  42.625  1.00  0.00    -0.458 OA
ENDROOT
BRANCH   1   2
ATOM      2  C   UNL     1      19.539  33.969  43.764  1.00  0.00     0.339 C 
ATOM      3  C   UNL     1      19.891  36.095  44.847  1.00  0.00     0.199 C 
ATOM      4  C   UNL     1      21.021  35.375  45.645  1.00  0.00     0.180 C 
ATOM      5  O   UNL     1      19.084  35.293  43.982  1.00  0.00    -0.328 OA
ATOM      6  C   UNL     1      21.817  34.342  44.801  1.00  0.00     0.181 C 
ATOM      7  C   UNL     1      21.061  33.908  43.525  1.00  0.00     0.214 C 
BRANCH   3   8
ATOM      8  C   UNL     1      18.997  36.865  45.774  1.00  0.00     0.073 C 
ATOM      9  O   UNL     1      19.123  38.115  45.882  1.00  0.00    -0.547 OA
ATOM     10  O   UNL     1      18.062  36.201  46.565  1.00  0.00    -0.547 OA
ENDBRANCH   3   8
BRANCH   4  11
ATOM     11  O   UNL     1      20.540  34.789  46.833  1.00  0.00    -0.387 OA
ATOM     12  H   UNL     1      19.713  35.262  47.100  1.00  0.00     0.211 HD
ENDBRANCH   4  11
BRANCH   6  13
ATOM     13  O   UNL     1      23.082  34.861  44.473  1.00  0.00    -0.387 OA
ATOM     14  H   UNL     1      23.016  35.217  43.548  1.00  0.00     0.211 HD
ENDBRANCH   6  13
BRANCH   7  15
ATOM     15  O   UNL     1      21.424  34.659  42.388  1.00  0.00    -0.384 OA
ATOM     16  H   UNL     1      20.881  34.347  41.617  1.00  0.00     0.211 HD
ENDBRANCH   7  15
ENDBRANCH   1   2
BRANCH   1  17
ATOM     17  C   UNL     1      18.256  34.161  41.559  1.00  0.00     0.172 A 
ATOM     18  C   UNL     1      18.820  34.321  40.265  1.00  0.00     0.201 A 
ATOM     19  C   UNL     1      17.006  34.715  41.821  1.00  0.00     0.098 A 
ATOM     20  C   UNL     1      18.130  35.052  39.273  1.00  0.00     0.176 A 
ATOM     21  C   UNL     1      16.314  35.441  40.855  1.00  0.00     0.146 A 
ATOM     22  C   UNL     1      16.885  35.674  39.582  1.00  0.00     0.111 A 
ATOM     23  O   UNL     1      15.107  35.906  41.156  1.00  0.00    -0.456 OA
ATOM     24  C   UNL     1      16.164  36.524  38.707  1.00  0.00     0.197 A 
ATOM     25  C   UNL     1      14.382  36.643  40.327  1.00  0.00     0.138 A 
ATOM     26  C   UNL     1      14.904  36.999  39.082  1.00  0.00     0.100 A 
ATOM     27  O   UNL     1      16.634  36.894  37.600  1.00  0.00    -0.289 OA
BRANCH  18  28
ATOM     28  O   UNL     1      20.042  33.725  39.945  1.00  0.00    -0.502 OA
ATOM     29  H   UNL     1      20.927  34.214  39.984  1.00  0.00     0.293 HD
ENDBRANCH  18  28
BRANCH  20  30
ATOM     30  O   UNL     1      18.697  35.091  37.996  1.00  0.00    -0.504 OA
ATOM     31  H   UNL     1      19.687  35.103  37.809  1.00  0.00     0.293 HD
ENDBRANCH  20  30
BRANCH  25  32
ATOM     32  C   UNL     1      13.020  37.043  40.734  1.00  0.00     0.017 A 
ATOM     33  C   UNL     1      12.678  37.008  42.096  1.00  0.00     0.012 A 
ATOM     34  C   UNL     1      12.083  37.506  39.795  1.00  0.00     0.012 A 
ATOM     35  C   UNL     1      11.421  37.441  42.516  1.00  0.00     0.001 A 
ATOM     36  C   UNL     1      10.824  37.943  40.222  1.00  0.00     0.001 A 
ATOM     37  C   UNL     1      10.493  37.909  41.580  1.00  0.00     0.000 A 
ENDBRANCH  25  32
ENDBRANCH   1  17
TORSDOF 9
ENDMDL
MODEL 3
REMARK VINA RESULT:    -5.105      2.506      5.201
REMARK INTER + INTRA:          -7.552
REMARK INTER:                  -6.358
REMARK INTRA:                  -1.194
REMARK UNBOUND:                -0.508
REMARK SMILES O=C([O-])[C@@H]1O[C@@H](Oc2cc3oc(-c4ccccc4)cc(=O)c3c(O)c2O)[C@@H](O)[C@@H](O)[C@@H]1O
REMARK SMILES IDX 7 1 6 2 4 3 31 4 5 5 29 6 27 7 2 8 1 9 3 10 32 11 30 13
REMARK SMILES IDX 28 15 8 17 25 18 9 19 23 20 10 21 22 22 11 23 20 24 12 25
REMARK SMILES IDX 19 26 21 27 26 28 24 30 13 32 14 33 18 34 15 35 17 36 16 37
REMARK H PARENT 32 12 30 14 28 16 26 29 24 31
REMARK Flexibility Score: inf
ROOT
ATOM      1  O   UNL     1      21.207  33.104  42.892  1.00  0.00    -0.458 OA
ENDROOT
BRANCH   1   2
ATOM      2  C   UNL     1      21.208  33.825  44.124  1.00  0.00     0.339 C 
ATOM      3  C   UNL     1      20.831  36.081  44.891  1.00  0.00     0.199 C 
ATOM      4  C   UNL     1      21.469  35.612  46.234  1.00  0.00     0.180 C 
ATOM      5  O   UNL     1      20.612  35.089  43.885  1.00  0.00    -0.328 OA
ATOM      6  C   UNL     1      22.648  34.618  46.048  1.00  0.00     0.181 C 
ATOM      7  C   UNL     1      22.650  33.952  44.654  1.00  0.00     0.214 C 
BRANCH   3   8
ATOM      8  C   UNL     1      19.544  36.811  45.143  1.00  0.00     0.073 C 
ATOM      9  O   UNL     1      19.535  38.070  45.219  1.00  0.00    -0.547 OA
ATOM     10  O   UNL     1      18.363  36.104  45.355  1.00  0.00    -0.547 OA
ENDBRANCH   3   8
BRANCH   4  11
ATOM     11  O   UNL     1      20.509  35.092  47.125  1.00  0.00    -0.387 OA
ATOM     12  H   UNL     1      19.917  35.831  47.411  1.00  0.00     0.211 HD
ENDBRANCH   4  11
BRANCH   6  13
ATOM     13  O   UNL     1      23.870  35.270  46.286  1.00  0.00    -0.387 OA
ATOM     14  H   UNL     1      24.390  34.692  46.903  1.00  0.00     0.211 HD
ENDBRANCH   6  13
BRANCH   7  15
ATOM     15  O   UNL     1      23.472  34.624  43.725  1.00  0.00    -0.384 OA
ATOM     16  H   UNL     1      22.949  35.367  43.322  1.00  0.00     0.211 HD
ENDBRANCH   7  15
ENDBRANCH   1   2
BRANCH   1  17
ATOM     17  C   UNL     1      20.860  33.560  41.604  1.00  0.00     0.172 A 
ATOM     18  C   UNL     1      19.571  34.011  41.213  1.00  0.00     0.201 A 
ATOM     19  C   UNL     1      21.892  33.583  40.670  1.00  0.00     0.098 A 
ATOM     20  C   UNL     1      19.341  34.449  39.889  1.00  0.00     0.176 A 
ATOM     21  C   UNL     1      21.682  34.008  39.361  1.00  0.00     0.146 A 
ATOM     22  C   UNL     1      20.392  34.395  38.928  1.00  0.00     0.111 A 
ATOM     23  O   UNL     1      22.719  34.046  38.533  1.00  0.00    -0.456 OA
ATOM     24  C   UNL     1      20.248  34.697  37.550  1.00  0.00     0.197 A 
ATOM     25  C   UNL     1      22.621  34.394  37.257  1.00  0.00     0.138 A 
ATOM     26  C   UNL     1      21.371  34.705  36.720  1.00  0.00     0.100 A 
ATOM     27  O   UNL     1      19.124  34.935  37.035  1.00  0.00    -0.289 OA
BRANCH  18  28
ATOM     28  O   UNL     1      18.526  34.065  42.139  1.00  0.00    -0.502 OA
ATOM     29  H   UNL     1      17.552  33.981  41.882  1.00  0.00     0.293 HD
ENDBRANCH  18  28
BRANCH  20  30
ATOM     30  O   UNL     1      18.076  34.967  39.597  1.00  0.00    -0.504 OA
ATOM     31  H   UNL     1      17.207  34.574  39.923  1.00  0.00     0.293 HD
ENDBRANCH  20  30
BRANCH  25  32
ATOM     32  C   UNL     1      23.851  34.476  36.444  1.00  0.00     0.017 A 
ATOM     33  C   UNL     1      24.007  35.550  35.551  1.00  0.00     0.012 A 
ATOM     34  C   UNL     1      24.885  33.535  36.586  1.00  0.00     0.012 A 
ATOM     35  C   UNL     1      25.185  35.688  34.818  1.00  0.00     0.001 A 
ATOM     36  C   UNL     1      26.067  33.681  35.851  1.00  0.00     0.001 A 
ATOM     37  C   UNL     1      26.216  34.754  34.967  1.00  0.00     0.000 A 
ENDBRANCH  25  32
ENDBRANCH   1  17
TORSDOF 9
ENDMDL
MODEL 4
REMARK VINA RESULT:    -5.015      2.402      8.662
REMARK INTER + INTRA:          -7.428
REMARK INTER:                  -6.164
REMARK INTRA:                  -1.265
REMARK UNBOUND:                -0.508
REMARK SMILES O=C([O-])[C@@H]1O[C@@H](Oc2cc3oc(-c4ccccc4)cc(=O)c3c(O)c2O)[C@@H](O)[C@@H](O)[C@@H]1O
REMARK SMILES IDX 7 1 6 2 4 3 31 4 5 5 29 6 27 7 2 8 1 9 3 10 32 11 30 13
REMARK SMILES IDX 28 15 8 17 25 18 9 19 23 20 10 21 22 22 11 23 20 24 12 25
REMARK SMILES IDX 19 26 21 27 26 28 24 30 13 32 14 33 18 34 15 35 17 36 16 37
REMARK H PARENT 32 12 30 14 28 16 26 29 24 31
REMARK Flexibility Score: inf
ROOT
ATOM      1  O   UNL     1      18.088  34.220  41.080  1.00  0.00    -0.458 OA
ENDROOT
BRANCH   1   2
ATOM      2  C   UNL     1      17.556  35.122  40.110  1.00  0.00     0.339 C 
ATOM      3  C   UNL     1      15.398  35.813  39.284  1.00  0.00     0.199 C 
ATOM      4  C   UNL     1      16.182  36.469  38.107  1.00  0.00     0.180 C 
ATOM      5  O   UNL     1      16.163  35.239  40.346  1.00  0.00    -0.328 OA
ATOM      6  C   UNL     1      17.408  35.638  37.638  1.00  0.00     0.181 C 
ATOM      7  C   UNL     1      17.866  34.605  38.691  1.00  0.00     0.214 C 
BRANCH   3   8
ATOM      8  C   UNL     1      14.407  36.779  39.865  1.00  0.00     0.073 C 
ATOM      9  O   UNL     1      14.001  36.634  41.050  1.00  0.00    -0.547 OA
ATOM     10  O   UNL     1      13.884  37.806  39.083  1.00  0.00    -0.547 OA
ENDBRANCH   3   8
BRANCH   4  11
ATOM     11  O   UNL     1      16.556  37.797  38.395  1.00  0.00    -0.387 OA
ATOM     12  H   UNL     1      17.294  38.051  37.787  1.00  0.00     0.211 HD
ENDBRANCH   4  11
BRANCH   6  13
ATOM     13  O   UNL     1      17.119  35.003  36.416  1.00  0.00    -0.387 OA
ATOM     14  H   UNL     1      16.825  35.712  35.786  1.00  0.00     0.211 HD
ENDBRANCH   6  13
BRANCH   7  15
ATOM     15  O   UNL     1      17.306  33.326  38.487  1.00  0.00    -0.384 OA
ATOM     16  H   UNL     1      16.628  33.391  37.764  1.00  0.00     0.211 HD
ENDBRANCH   7  15
ENDBRANCH   1   2
BRANCH   1  17
ATOM     17  C   UNL     1      18.521  34.493  42.394  1.00  0.00     0.172 A 
ATOM     18  C   UNL     1      17.681  34.895  43.467  1.00  0.00     0.201 A 
ATOM     19  C   UNL     1      19.881  34.323  42.633  1.00  0.00     0.098 A 
ATOM     20  C   UNL     1      18.229  35.140  44.747  1.00  0.00     0.176 A 
ATOM     21  C   UNL     1      20.437  34.564  43.886  1.00  0.00     0.146 A 
ATOM     22  C   UNL     1      19.635  35.032  44.953  1.00  0.00     0.111 A 
ATOM     23  O   UNL     1      21.735  34.340  44.057  1.00  0.00    -0.456 OA
ATOM     24  C   UNL     1      20.306  35.365  46.156  1.00  0.00     0.197 A 
ATOM     25  C   UNL     1      22.372  34.576  45.196  1.00  0.00     0.138 A 
ATOM     26  C   UNL     1      21.677  35.124  46.276  1.00  0.00     0.100 A 
ATOM     27  O   UNL     1      19.709  35.902  47.125  1.00  0.00    -0.289 OA
BRANCH  18  28
ATOM     28  O   UNL     1      16.301  35.013  43.284  1.00  0.00    -0.502 OA
ATOM     29  H   UNL     1      15.864  35.060  42.372  1.00  0.00     0.293 HD
ENDBRANCH  18  28
BRANCH  20  30
ATOM     30  O   UNL     1      17.335  35.440  45.778  1.00  0.00    -0.504 OA
ATOM     31  H   UNL     1      16.919  36.345  45.931  1.00  0.00     0.293 HD
ENDBRANCH  20  30
BRANCH  25  32
ATOM     32  C   UNL     1      23.801  34.220  45.301  1.00  0.00     0.017 A 
ATOM     33  C   UNL     1      24.444  34.340  46.545  1.00  0.00     0.012 A 
ATOM     34  C   UNL     1      24.512  33.715  44.198  1.00  0.00     0.012 A 
ATOM     35  C   UNL     1      25.774  33.949  46.688  1.00  0.00     0.001 A 
ATOM     36  C   UNL     1      25.846  33.321  44.349  1.00  0.00     0.001 A 
ATOM     37  C   UNL     1      26.476  33.440  45.591  1.00  0.00     0.000 A 
ENDBRANCH  25  32
ENDBRANCH   1  17
TORSDOF 9
ENDMDL
MODEL 5
REMARK VINA RESULT:    -4.972      2.057      3.680
REMARK INTER + INTRA:          -7.370
REMARK INTER:                  -6.299
REMARK INTRA:                  -1.070
REMARK UNBOUND:                -0.508
REMARK SMILES O=C([O-])[C@@H]1O[C@@H](Oc2cc3oc(-c4ccccc4)cc(=O)c3c(O)c2O)[C@@H](O)[C@@H](O)[C@@H]1O
REMARK SMILES IDX 7 1 6 2 4 3 31 4 5 5 29 6 27 7 2 8 1 9 3 10 32 11 30 13
REMARK SMILES IDX 28 15 8 17 25 18 9 19 23 20 10 21 22 22 11 23 20 24 12 25
REMARK SMILES IDX 19 26 21 27 26 28 24 30 13 32 14 33 18 34 15 35 17 36 16 37
REMARK H PARENT 32 12 30 14 28 16 26 29 24 31
REMARK Flexibility Score: inf
ROOT
ATOM      1  O   UNL     1      19.126  33.924  43.553  1.00  0.00    -0.458 OA
ENDROOT
BRANCH   1   2
ATOM      2  C   UNL     1      20.232  34.467  44.274  1.00  0.00     0.339 C 
ATOM      3  C   UNL     1      21.444  34.028  46.312  1.00  0.00     0.199 C 
ATOM      4  C   UNL     1      22.071  35.441  46.113  1.00  0.00     0.180 C 
ATOM      5  O   UNL     1      20.598  33.530  45.273  1.00  0.00    -0.328 OA
ATOM      6  C   UNL     1      21.075  36.488  45.542  1.00  0.00     0.181 C 
ATOM      7  C   UNL     1      19.846  35.835  44.871  1.00  0.00     0.214 C 
BRANCH   3   8
ATOM      8  C   UNL     1      22.511  33.012  46.600  1.00  0.00     0.073 C 
ATOM      9  O   UNL     1      23.600  33.369  47.125  1.00  0.00    -0.547 OA
ATOM     10  O   UNL     1      22.331  31.679  46.237  1.00  0.00    -0.547 OA
ENDBRANCH   3   8
BRANCH   4  11
ATOM     11  O   UNL     1      23.249  35.395  45.340  1.00  0.00    -0.387 OA
ATOM     12  H   UNL     1      23.454  34.447  45.143  1.00  0.00     0.211 HD
ENDBRANCH   4  11
BRANCH   6  13
ATOM     13  O   UNL     1      20.671  37.372  46.558  1.00  0.00    -0.387 OA
ATOM     14  H   UNL     1      21.445  37.964  46.749  1.00  0.00     0.211 HD
ENDBRANCH   6  13
BRANCH   7  15
ATOM     15  O   UNL     1      18.744  35.712  45.742  1.00  0.00    -0.384 OA
ATOM     16  H   UNL     1      18.868  36.344  46.499  1.00  0.00     0.211 HD
ENDBRANCH   7  15
ENDBRANCH   1   2
BRANCH   1  17
ATOM     17  C   UNL     1      18.575  34.357  42.329  1.00  0.00     0.172 A 
ATOM     18  C   UNL     1      19.224  34.290  41.068  1.00  0.00     0.201 A 
ATOM     19  C   UNL     1      17.279  34.862  42.392  1.00  0.00     0.098 A 
ATOM     20  C   UNL     1      18.570  34.754  39.904  1.00  0.00     0.176 A 
ATOM     21  C   UNL     1      16.621  35.325  41.256  1.00  0.00     0.146 A 
ATOM     22  C   UNL     1      17.272  35.335  40.000  1.00  0.00     0.111 A 
ATOM     23  O   UNL     1      15.370  35.754  41.378  1.00  0.00    -0.456 OA
ATOM     24  C   UNL     1      16.571  35.936  38.924  1.00  0.00     0.197 A 
ATOM     25  C   UNL     1      14.669  36.254  40.371  1.00  0.00     0.138 A 
ATOM     26  C   UNL     1      15.263  36.386  39.114  1.00  0.00     0.100 A 
ATOM     27  O   UNL     1      17.102  36.106  37.796  1.00  0.00    -0.289 OA
BRANCH  18  28
ATOM     28  O   UNL     1      20.499  33.730  40.954  1.00  0.00    -0.502 OA
ATOM     29  H   UNL     1      20.771  32.870  41.412  1.00  0.00     0.293 HD
ENDBRANCH  18  28
BRANCH  20  30
ATOM     30  O   UNL     1      19.229  34.573  38.685  1.00  0.00    -0.504 OA
ATOM     31  H   UNL     1      19.768  33.757  38.441  1.00  0.00     0.293 HD
ENDBRANCH  20  30
BRANCH  25  32
ATOM     32  C   UNL     1      13.260  36.630  40.600  1.00  0.00     0.017 A 
ATOM     33  C   UNL     1      12.835  36.915  41.909  1.00  0.00     0.012 A 
ATOM     34  C   UNL     1      12.354  36.759  39.534  1.00  0.00     0.012 A 
ATOM     35  C   UNL     1      11.527  37.335  42.147  1.00  0.00     0.001 A 
ATOM     36  C   UNL     1      11.043  37.185  39.778  1.00  0.00     0.001 A 
ATOM     37  C   UNL     1      10.631  37.471  41.083  1.00  0.00     0.000 A 
ENDBRANCH  25  32
ENDBRANCH   1  17
TORSDOF 9
ENDMDL
MODEL 6
REMARK VINA RESULT:    -4.972      2.209      8.819
REMARK INTER + INTRA:          -7.369
REMARK INTER:                  -6.038
REMARK INTRA:                  -1.331
REMARK UNBOUND:                -0.508
REMARK SMILES O=C([O-])[C@@H]1O[C@@H](Oc2cc3oc(-c4ccccc4)cc(=O)c3c(O)c2O)[C@@H](O)[C@@H](O)[C@@H]1O
REMARK SMILES IDX 7 1 6 2 4 3 31 4 5 5 29 6 27 7 2 8 1 9 3 10 32 11 30 13
REMARK SMILES IDX 28 15 8 17 25 18 9 19 23 20 10 21 22 22 11 23 20 24 12 25
REMARK SMILES IDX 19 26 21 27 26 28 24 30 13 32 14 33 18 34 15 35 17 36 16 37
REMARK H PARENT 32 12 30 14 28 16 26 29 24 31
REMARK Flexibility Score: inf
ROOT
ATOM      1  O   UNL     1      19.041  33.229  42.185  1.00  0.00    -0.458 OA
ENDROOT
BRANCH   1   2
ATOM      2  C   UNL     1      19.229  33.275  40.771  1.00  0.00     0.339 C 
ATOM      3  C   UNL     1      20.686  34.354  39.181  1.00  0.00     0.199 C 
ATOM      4  C   UNL     1      19.660  33.897  38.099  1.00  0.00     0.180 C 
ATOM      5  O   UNL     1      20.475  33.903  40.520  1.00  0.00    -0.328 OA
ATOM      6  C   UNL     1      18.183  33.968  38.574  1.00  0.00     0.181 C 
ATOM      7  C   UNL     1      18.055  34.026  40.113  1.00  0.00     0.214 C 
BRANCH   3   8
ATOM      8  C   UNL     1      22.085  34.007  38.764  1.00  0.00     0.073 C 
ATOM      9  O   UNL     1      22.501  34.325  37.617  1.00  0.00    -0.547 OA
ATOM     10  O   UNL     1      22.913  33.279  39.615  1.00  0.00    -0.547 OA
ENDBRANCH   3   8
BRANCH   4  11
ATOM     11  O   UNL     1      19.963  32.618  37.589  1.00  0.00    -0.387 OA
ATOM     12  H   UNL     1      20.402  32.094  38.304  1.00  0.00     0.211 HD
ENDBRANCH   4  11
BRANCH   6  13
ATOM     13  O   UNL     1      17.540  35.070  37.983  1.00  0.00    -0.387 OA
ATOM     14  H   UNL     1      16.796  34.709  37.434  1.00  0.00     0.211 HD
ENDBRANCH   6  13
BRANCH   7  15
ATOM     15  O   UNL     1      17.957  35.343  40.607  1.00  0.00    -0.384 OA
ATOM     16  H   UNL     1      17.855  35.962  39.837  1.00  0.00     0.211 HD
ENDBRANCH   7  15
ENDBRANCH   1   2
BRANCH   1  17
ATOM     17  C   UNL     1      19.706  33.967  43.187  1.00  0.00     0.172 A 
ATOM     18  C   UNL     1      19.218  35.158  43.788  1.00  0.00     0.201 A 
ATOM     19  C   UNL     1      20.923  33.446  43.617  1.00  0.00     0.098 A 
ATOM     20  C   UNL     1      19.974  35.812  44.787  1.00  0.00     0.176 A 
ATOM     21  C   UNL     1      21.681  34.080  44.598  1.00  0.00     0.146 A 
ATOM     22  C   UNL     1      21.252  35.304  45.161  1.00  0.00     0.111 A 
ATOM     23  O   UNL     1      22.812  33.507  44.993  1.00  0.00    -0.456 OA
ATOM     24  C   UNL     1      22.144  35.937  46.062  1.00  0.00     0.197 A 
ATOM     25  C   UNL     1      23.629  34.046  45.887  1.00  0.00     0.138 A 
ATOM     26  C   UNL     1      23.330  35.297  46.431  1.00  0.00     0.100 A 
ATOM     27  O   UNL     1      21.917  37.084  46.529  1.00  0.00    -0.289 OA
BRANCH  18  28
ATOM     28  O   UNL     1      17.971  35.675  43.430  1.00  0.00    -0.502 OA
ATOM     29  H   UNL     1      17.102  35.372  43.850  1.00  0.00     0.293 HD
ENDBRANCH  18  28
BRANCH  20  30
ATOM     30  O   UNL     1      19.394  36.925  45.402  1.00  0.00    -0.504 OA
ATOM     31  H   UNL     1      18.407  37.033  45.578  1.00  0.00     0.293 HD
ENDBRANCH  20  30
BRANCH  25  32
ATOM     32  C   UNL     1      24.822  33.287  46.311  1.00  0.00     0.017 A 
ATOM     33  C   UNL     1      24.805  31.885  46.224  1.00  0.00     0.012 A 
ATOM     34  C   UNL     1      25.987  33.940  46.749  1.00  0.00     0.012 A 
ATOM     35  C   UNL     1      25.940  31.146  46.556  1.00  0.00     0.001 A 
ATOM     36  C   UNL     1      27.125  33.194  47.077  1.00  0.00     0.001 A 
ATOM     37  C   UNL     1      27.100  31.800  46.982  1.00  0.00     0.000 A 
ENDBRANCH  25  32
ENDBRANCH   1  17
TORSDOF 9
ENDMDL
MODEL 7
REMARK VINA RESULT:    -4.958      1.146      1.618
REMARK INTER + INTRA:          -7.351
REMARK INTER:                  -6.592
REMARK INTRA:                  -0.758
REMARK UNBOUND:                -0.508
REMARK SMILES O=C([O-])[C@@H]1O[C@@H](Oc2cc3oc(-c4ccccc4)cc(=O)c3c(O)c2O)[C@@H](O)[C@@H](O)[C@@H]1O
REMARK SMILES IDX 7 1 6 2 4 3 31 4 5 5 29 6 27 7 2 8 1 9 3 10 32 11 30 13
REMARK SMILES IDX 28 15 8 17 25 18 9 19 23 20 10 21 22 22 11 23 20 24 12 25
REMARK SMILES IDX 19 26 21 27 26 28 24 30 13 32 14 33 18 34 15 35 17 36 16 37
REMARK H PARENT 32 12 30 14 28 16 26 29 24 31
REMARK Flexibility Score: inf
ROOT
ATOM      1  O   UNL     1      21.347  33.477  42.651  1.00  0.00    -0.458 OA
ENDROOT
BRANCH   1   2
ATOM      2  C   UNL     1      21.299  33.975  43.987  1.00  0.00     0.339 C 
ATOM      3  C   UNL     1      21.026  36.090  45.115  1.00  0.00     0.199 C 
ATOM      4  C   UNL     1      21.515  35.344  46.394  1.00  0.00     0.180 C 
ATOM      5  O   UNL     1      20.820  35.308  43.936  1.00  0.00    -0.328 OA
ATOM      6  C   UNL     1      22.629  34.297  46.116  1.00  0.00     0.181 C 
ATOM      7  C   UNL     1      22.698  33.883  44.629  1.00  0.00     0.214 C 
BRANCH   3   8
ATOM      8  C   UNL     1      19.781  36.875  45.403  1.00  0.00     0.073 C 
ATOM      9  O   UNL     1      19.843  38.125  45.561  1.00  0.00    -0.547 OA
ATOM     10  O   UNL     1      18.559  36.226  45.559  1.00  0.00    -0.547 OA
ENDBRANCH   3   8
BRANCH   4  11
ATOM     11  O   UNL     1      20.448  34.765  47.110  1.00  0.00    -0.387 OA
ATOM     12  H   UNL     1      20.812  34.043  47.680  1.00  0.00     0.211 HD
ENDBRANCH   4  11
BRANCH   6  13
ATOM     13  O   UNL     1      23.872  34.791  46.550  1.00  0.00    -0.387 OA
ATOM     14  H   UNL     1      24.325  35.169  45.752  1.00  0.00     0.211 HD
ENDBRANCH   6  13
BRANCH   7  15
ATOM     15  O   UNL     1      23.641  34.630  43.893  1.00  0.00    -0.384 OA
ATOM     16  H   UNL     1      24.334  34.967  44.520  1.00  0.00     0.211 HD
ENDBRANCH   7  15
ENDBRANCH   1   2
BRANCH   1  17
ATOM     17  C   UNL     1      20.559  33.852  41.542  1.00  0.00     0.172 A 
ATOM     18  C   UNL     1      20.973  33.796  40.185  1.00  0.00     0.201 A 
ATOM     19  C   UNL     1      19.268  34.282  41.833  1.00  0.00     0.098 A 
ATOM     20  C   UNL     1      20.094  34.196  39.154  1.00  0.00     0.176 A 
ATOM     21  C   UNL     1      18.390  34.683  40.831  1.00  0.00     0.146 A 
ATOM     22  C   UNL     1      18.802  34.704  39.478  1.00  0.00     0.111 A 
ATOM     23  O   UNL     1      17.158  35.042  41.173  1.00  0.00    -0.456 OA
ATOM     24  C   UNL     1      17.883  35.241  38.541  1.00  0.00     0.197 A 
ATOM     25  C   UNL     1      16.257  35.480  40.304  1.00  0.00     0.138 A 
ATOM     26  C   UNL     1      16.605  35.619  38.959  1.00  0.00     0.100 A 
ATOM     27  O   UNL     1      18.191  35.418  37.333  1.00  0.00    -0.289 OA
BRANCH  18  28
ATOM     28  O   UNL     1      22.239  33.308  39.848  1.00  0.00    -0.502 OA
ATOM     29  H   UNL     1      22.395  32.629  39.114  1.00  0.00     0.293 HD
ENDBRANCH  18  28
BRANCH  20  30
ATOM     30  O   UNL     1      20.531  34.028  37.838  1.00  0.00    -0.504 OA
ATOM     31  H   UNL     1      21.483  33.831  37.571  1.00  0.00     0.293 HD
ENDBRANCH  20  30
BRANCH  25  32
ATOM     32  C   UNL     1      14.892  35.779  40.782  1.00  0.00     0.017 A 
ATOM     33  C   UNL     1      14.530  35.405  42.087  1.00  0.00     0.012 A 
ATOM     34  C   UNL     1      13.972  36.473  39.978  1.00  0.00     0.012 A 
ATOM     35  C   UNL     1      13.270  35.732  42.587  1.00  0.00     0.001 A 
ATOM     36  C   UNL     1      12.710  36.802  40.486  1.00  0.00     0.001 A 
ATOM     37  C   UNL     1      12.360  36.431  41.787  1.00  0.00     0.000 A 
ENDBRANCH  25  32
ENDBRANCH   1  17
TORSDOF 9
ENDMDL
MODEL 8
REMARK VINA RESULT:    -4.835      1.900      3.534
REMARK INTER + INTRA:          -7.181
REMARK INTER:                  -6.167
REMARK INTRA:                  -1.014
REMARK UNBOUND:                -0.508
REMARK SMILES O=C([O-])[C@@H]1O[C@@H](Oc2cc3oc(-c4ccccc4)cc(=O)c3c(O)c2O)[C@@H](O)[C@@H](O)[C@@H]1O
REMARK SMILES IDX 7 1 6 2 4 3 31 4 5 5 29 6 27 7 2 8 1 9 3 10 32 11 30 13
REMARK SMILES IDX 28 15 8 17 25 18 9 19 23 20 10 21 22 22 11 23 20 24 12 25
REMARK SMILES IDX 19 26 21 27 26 28 24 30 13 32 14 33 18 34 15 35 17 36 16 37
REMARK H PARENT 32 12 30 14 28 16 26 29 24 31
REMARK Flexibility Score: inf
ROOT
ATOM      1  O   UNL     1      19.731  33.748  42.498  1.00  0.00    -0.458 OA
ENDROOT
BRANCH   1   2
ATOM      2  C   UNL     1      20.289  34.464  43.599  1.00  0.00     0.339 C 
ATOM      3  C   UNL     1      22.003  34.155  45.268  1.00  0.00     0.199 C 
ATOM      4  C   UNL     1      21.360  35.376  45.994  1.00  0.00     0.180 C 
ATOM      5  O   UNL     1      21.485  33.806  43.982  1.00  0.00    -0.328 OA
ATOM      6  C   UNL     1      19.811  35.412  45.896  1.00  0.00     0.181 C 
ATOM      7  C   UNL     1      19.266  34.530  44.751  1.00  0.00     0.214 C 
BRANCH   3   8
ATOM      8  C   UNL     1      23.490  34.323  45.165  1.00  0.00     0.073 C 
ATOM      9  O   UNL     1      24.138  34.826  46.122  1.00  0.00    -0.547 OA
ATOM     10  O   UNL     1      24.158  33.981  43.992  1.00  0.00    -0.547 OA
ENDBRANCH   3   8
BRANCH   4  11
ATOM     11  O   UNL     1      21.919  36.599  45.569  1.00  0.00    -0.387 OA
ATOM     12  H   UNL     1      21.480  36.864  44.723  1.00  0.00     0.211 HD
ENDBRANCH   4  11
BRANCH   6  13
ATOM     13  O   UNL     1      19.242  35.033  47.125  1.00  0.00    -0.387 OA
ATOM     14  H   UNL     1      18.796  34.159  46.978  1.00  0.00     0.211 HD
ENDBRANCH   6  13
BRANCH   7  15
ATOM     15  O   UNL     1      18.904  33.235  45.178  1.00  0.00    -0.384 OA
ATOM     16  H   UNL     1      17.914  33.189  45.240  1.00  0.00     0.211 HD
ENDBRANCH   7  15
ENDBRANCH   1   2
BRANCH   1  17
ATOM     17  C   UNL     1      19.036  34.253  41.380  1.00  0.00     0.172 A 
ATOM     18  C   UNL     1      19.521  34.254  40.044  1.00  0.00     0.201 A 
ATOM     19  C   UNL     1      17.765  34.761  41.633  1.00  0.00     0.098 A 
ATOM     20  C   UNL     1      18.731  34.788  39.000  1.00  0.00     0.176 A 
ATOM     21  C   UNL     1      16.976  35.293  40.618  1.00  0.00     0.146 A 
ATOM     22  C   UNL     1      17.464  35.371  39.292  1.00  0.00     0.111 A 
ATOM     23  O   UNL     1      15.756  35.722  40.921  1.00  0.00    -0.456 OA
ATOM     24  C   UNL     1      16.641  36.037  38.349  1.00  0.00     0.197 A 
ATOM     25  C   UNL     1      14.941  36.283  40.040  1.00  0.00     0.138 A 
ATOM     26  C   UNL     1      15.373  36.483  38.727  1.00  0.00     0.100 A 
ATOM     27  O   UNL     1      17.028  36.268  37.174  1.00  0.00    -0.289 OA
BRANCH  18  28
ATOM     28  O   UNL     1      20.764  33.694  39.739  1.00  0.00    -0.502 OA
ATOM     29  H   UNL     1      21.538  33.672  40.390  1.00  0.00     0.293 HD
ENDBRANCH  18  28
BRANCH  20  30
ATOM     30  O   UNL     1      19.229  34.673  37.700  1.00  0.00    -0.504 OA
ATOM     31  H   UNL     1      19.828  33.929  37.379  1.00  0.00     0.293 HD
ENDBRANCH  20  30
BRANCH  25  32
ATOM     32  C   UNL     1      13.577  36.654  40.467  1.00  0.00     0.017 A 
ATOM     33  C   UNL     1      12.640  37.043  39.494  1.00  0.00     0.012 A 
ATOM     34  C   UNL     1      13.185  36.575  41.814  1.00  0.00     0.012 A 
ATOM     35  C   UNL     1      11.327  37.336  39.860  1.00  0.00     0.001 A 
ATOM     36  C   UNL     1      11.864  36.866  42.175  1.00  0.00     0.001 A 
ATOM     37  C   UNL     1      10.938  37.248  41.200  1.00  0.00     0.000 A 
ENDBRANCH  25  32
ENDBRANCH   1  17
TORSDOF 9
ENDMDL
MODEL 9
REMARK VINA RESULT:    -4.827      2.444      4.514
REMARK INTER + INTRA:          -7.170
REMARK INTER:                  -5.928
REMARK INTRA:                  -1.242
REMARK UNBOUND:                -0.508
REMARK SMILES O=C([O-])[C@@H]1O[C@@H](Oc2cc3oc(-c4ccccc4)cc(=O)c3c(O)c2O)[C@@H](O)[C@@H](O)[C@@H]1O
REMARK SMILES IDX 7 1 6 2 4 3 31 4 5 5 29 6 27 7 2 8 1 9 3 10 32 11 30 13
REMARK SMILES IDX 28 15 8 17 25 18 9 19 23 20 10 21 22 22 11 23 20 24 12 25
REMARK SMILES IDX 19 26 21 27 26 28 24 30 13 32 14 33 18 34 15 35 17 36 16 37
REMARK H PARENT 32 12 30 14 28 16 26 29 24 31
REMARK Flexibility Score: inf
ROOT
ATOM      1  O   UNL     1      18.562  33.490  42.652  1.00  0.00    -0.458 OA
ENDROOT
BRANCH   1   2
ATOM      2  C   UNL     1      19.359  33.942  43.747  1.00  0.00     0.339 C 
ATOM      3  C   UNL     1      19.832  36.008  44.899  1.00  0.00     0.199 C 
ATOM      4  C   UNL     1      21.023  35.241  45.551  1.00  0.00     0.180 C 
ATOM      5  O   UNL     1      18.940  35.257  44.073  1.00  0.00    -0.328 OA
ATOM      6  C   UNL     1      21.726  34.248  44.586  1.00  0.00     0.181 C 
ATOM      7  C   UNL     1      20.851  33.884  43.365  1.00  0.00     0.214 C 
BRANCH   3   8
ATOM      8  C   UNL     1      19.035  36.734  45.942  1.00  0.00     0.073 C 
ATOM      9  O   UNL     1      18.214  36.106  46.663  1.00  0.00    -0.547 OA
ATOM     10  O   UNL     1      19.152  38.115  46.083  1.00  0.00    -0.547 OA
ENDBRANCH   3   8
BRANCH   4  11
ATOM     11  O   UNL     1      20.647  34.598  46.747  1.00  0.00    -0.387 OA
ATOM     12  H   UNL     1      21.468  34.387  47.258  1.00  0.00     0.211 HD
ENDBRANCH   4  11
BRANCH   6  13
ATOM     13  O   UNL     1      22.961  34.775  44.168  1.00  0.00    -0.387 OA
ATOM     14  H   UNL     1      23.648  34.084  44.357  1.00  0.00     0.211 HD
ENDBRANCH   6  13
BRANCH   7  15
ATOM     15  O   UNL     1      21.116  34.691  42.239  1.00  0.00    -0.384 OA
ATOM     16  H   UNL     1      20.309  35.237  42.046  1.00  0.00     0.211 HD
ENDBRANCH   7  15
ENDBRANCH   1   2
BRANCH   1  17
ATOM     17  C   UNL     1      17.534  34.173  41.969  1.00  0.00     0.172 A 
ATOM     18  C   UNL     1      16.271  34.517  42.520  1.00  0.00     0.201 A 
ATOM     19  C   UNL     1      17.821  34.549  40.660  1.00  0.00     0.098 A 
ATOM     20  C   UNL     1      15.317  35.206  41.738  1.00  0.00     0.176 A 
ATOM     21  C   UNL     1      16.891  35.225  39.875  1.00  0.00     0.146 A 
ATOM     22  C   UNL     1      15.601  35.517  40.377  1.00  0.00     0.111 A 
ATOM     23  O   UNL     1      17.245  35.592  38.649  1.00  0.00    -0.456 OA
ATOM     24  C   UNL     1      14.682  36.098  39.468  1.00  0.00     0.197 A 
ATOM     25  C   UNL     1      16.424  36.202  37.805  1.00  0.00     0.138 A 
ATOM     26  C   UNL     1      15.103  36.450  38.184  1.00  0.00     0.100 A 
ATOM     27  O   UNL     1      13.475  36.288  39.772  1.00  0.00    -0.289 OA
BRANCH  18  28
ATOM     28  O   UNL     1      15.971  34.215  43.851  1.00  0.00    -0.502 OA
ATOM     29  H   UNL     1      16.643  34.288  44.602  1.00  0.00     0.293 HD
ENDBRANCH  18  28
BRANCH  20  30
ATOM     30  O   UNL     1      14.133  35.595  42.370  1.00  0.00    -0.504 OA
ATOM     31  H   UNL     1      13.662  36.473  42.215  1.00  0.00     0.293 HD
ENDBRANCH  20  30
BRANCH  25  32
ATOM     32  C   UNL     1      16.943  36.636  36.493  1.00  0.00     0.017 A 
ATOM     33  C   UNL     1      17.920  35.853  35.854  1.00  0.00     0.012 A 
ATOM     34  C   UNL     1      16.443  37.781  35.850  1.00  0.00     0.012 A 
ATOM     35  C   UNL     1      18.381  36.202  34.586  1.00  0.00     0.001 A 
ATOM     36  C   UNL     1      16.907  38.125  34.575  1.00  0.00     0.001 A 
ATOM     37  C   UNL     1      17.876  37.338  33.945  1.00  0.00     0.000 A 
ENDBRANCH  25  32
ENDBRANCH   1  17
TORSDOF 9
ENDMDL
