MODEL 1
REMARK VINA RESULT:    -6.388      0.000      0.000
REMARK INTER + INTRA:          -8.019
REMARK INTER:                  -7.696
REMARK INTRA:                  -0.324
REMARK UNBOUND:                -0.324
REMARK SMILES O=c1c(O)c(-c2ccc(O)c(O)c2)oc2cc(O)cc(O)c12
REMARK SMILES IDX 5 1 3 2 2 3 1 4 22 5 20 6 19 7 17 8 16 9 15 10 14 11 6 12
REMARK SMILES IDX 7 13 8 14 9 15 13 16 11 17 10 18 12 20 4 22 21 24 18 26
REMARK H PARENT 10 19 12 21 4 23 21 25 18 27
REMARK Flexibility Score: inf
ROOT
ATOM      1  C   UNL     1      54.054  11.266  90.194  1.00  0.00     0.180 A 
ATOM      2  C   UNL     1      54.705  12.424  90.654  1.00  0.00     0.208 A 
ATOM      3  C   UNL     1      54.668  13.585  89.866  1.00  0.00     0.238 A 
ATOM      4  O   UNL     1      55.206  14.635  90.308  1.00  0.00    -0.285 OA
ATOM      5  C   UNL     1      53.995  13.570  88.620  1.00  0.00     0.111 A 
ATOM      6  C   UNL     1      53.928  14.677  87.721  1.00  0.00     0.134 A 
ATOM      7  C   UNL     1      53.125  14.590  86.577  1.00  0.00     0.093 A 
ATOM      8  C   UNL     1      52.439  13.413  86.266  1.00  0.00     0.123 A 
ATOM      9  C   UNL     1      52.546  12.308  87.107  1.00  0.00     0.094 A 
ATOM     10  C   UNL     1      53.310  12.376  88.275  1.00  0.00     0.146 A 
ATOM     11  O   UNL     1      53.377  11.303  89.053  1.00  0.00    -0.452 OA
ENDROOT
BRANCH   1  12
ATOM     12  C   UNL     1      54.071   9.998  90.956  1.00  0.00     0.025 A 
ATOM     13  C   UNL     1      55.034   9.005  90.706  1.00  0.00     0.016 A 
ATOM     14  C   UNL     1      55.015   7.805  91.421  1.00  0.00     0.051 A 
ATOM     15  C   UNL     1      54.027   7.574  92.388  1.00  0.00     0.157 A 
ATOM     16  C   UNL     1      53.071   9.752  91.913  1.00  0.00     0.062 A 
ATOM     17  C   UNL     1      53.052   8.549  92.632  1.00  0.00     0.158 A 
BRANCH  15  18
ATOM     18  O   UNL     1      54.007   6.380  93.106  1.00  0.00    -0.504 OA
ATOM     19  H   UNL     1      53.158   6.038  93.542  1.00  0.00     0.293 HD
ENDBRANCH  15  18
BRANCH  17  20
ATOM     20  O   UNL     1      52.066   8.314  93.589  1.00  0.00    -0.504 OA
ATOM     21  H   UNL     1      51.522   7.460  93.591  1.00  0.00     0.293 HD
ENDBRANCH  17  20
ENDBRANCH   1  12
BRANCH   2  22
ATOM     22  O   UNL     1      55.345  12.424  91.897  1.00  0.00    -0.502 OA
ATOM     23  H   UNL     1      55.612  13.278  92.372  1.00  0.00     0.293 HD
ENDBRANCH   2  22
BRANCH   6  24
ATOM     24  O   UNL     1      54.648  15.864  87.891  1.00  0.00    -0.507 OA
ATOM     25  H   UNL     1      54.366  16.628  88.485  1.00  0.00     0.293 HD
ENDBRANCH   6  24
BRANCH   8  26
ATOM     26  O   UNL     1      51.656  13.330  85.118  1.00  0.00    -0.508 OA
ATOM     27  H   UNL     1      52.067  13.160  84.207  1.00  0.00     0.293 HD
ENDBRANCH   8  26
TORSDOF 6
ENDMDL
MODEL 2
REMARK VINA RESULT:    -6.285      1.359      3.323
REMARK INTER + INTRA:          -7.895
REMARK INTER:                  -7.651
REMARK INTRA:                  -0.244
REMARK UNBOUND:                -0.324
REMARK SMILES O=c1c(O)c(-c2ccc(O)c(O)c2)oc2cc(O)cc(O)c12
REMARK SMILES IDX 5 1 3 2 2 3 1 4 22 5 20 6 19 7 17 8 16 9 15 10 14 11 6 12
REMARK SMILES IDX 7 13 8 14 9 15 13 16 11 17 10 18 12 20 4 22 21 24 18 26
REMARK H PARENT 10 19 12 21 4 23 21 25 18 27
REMARK Flexibility Score: inf
ROOT
ATOM      1  C   UNL     1      52.851  10.495  89.366  1.00  0.00     0.180 A 
ATOM      2  C   UNL     1      52.159  10.212  88.176  1.00  0.00     0.208 A 
ATOM      3  C   UNL     1      52.047  11.215  87.199  1.00  0.00     0.238 A 
ATOM      4  O   UNL     1      51.473  10.939  86.112  1.00  0.00    -0.285 OA
ATOM      5  C   UNL     1      52.612  12.492  87.432  1.00  0.00     0.111 A 
ATOM      6  C   UNL     1      52.524  13.594  86.529  1.00  0.00     0.134 A 
ATOM      7  C   UNL     1      53.233  14.770  86.804  1.00  0.00     0.093 A 
ATOM      8  C   UNL     1      53.974  14.906  87.981  1.00  0.00     0.123 A 
ATOM      9  C   UNL     1      54.017  13.857  88.896  1.00  0.00     0.094 A 
ATOM     10  C   UNL     1      53.350  12.658  88.632  1.00  0.00     0.146 A 
ATOM     11  O   UNL     1      53.426  11.680  89.527  1.00  0.00    -0.452 OA
ENDROOT
BRANCH   1  12
ATOM     12  C   UNL     1      52.989   9.498  90.452  1.00  0.00     0.025 A 
ATOM     13  C   UNL     1      51.889   9.115  91.239  1.00  0.00     0.016 A 
ATOM     14  C   UNL     1      52.049   8.190  92.275  1.00  0.00     0.051 A 
ATOM     15  C   UNL     1      53.310   7.645  92.547  1.00  0.00     0.157 A 
ATOM     16  C   UNL     1      54.255   8.963  90.742  1.00  0.00     0.062 A 
ATOM     17  C   UNL     1      54.416   8.034  91.781  1.00  0.00     0.158 A 
BRANCH  15  18
ATOM     18  O   UNL     1      53.473   6.720  93.577  1.00  0.00    -0.504 OA
ATOM     19  H   UNL     1      52.787   5.995  93.752  1.00  0.00     0.293 HD
ENDBRANCH  15  18
BRANCH  17  20
ATOM     20  O   UNL     1      55.672   7.495  92.058  1.00  0.00    -0.504 OA
ATOM     21  H   UNL     1      56.499   7.795  91.555  1.00  0.00     0.293 HD
ENDBRANCH  17  20
ENDBRANCH   1  12
BRANCH   2  22
ATOM     22  O   UNL     1      51.626   8.938  87.957  1.00  0.00    -0.502 OA
ATOM     23  H   UNL     1      52.148   8.202  87.496  1.00  0.00     0.293 HD
ENDBRANCH   2  22
BRANCH   6  24
ATOM     24  O   UNL     1      51.738  13.594  85.373  1.00  0.00    -0.507 OA
ATOM     25  H   UNL     1      51.837  14.245  84.610  1.00  0.00     0.293 HD
ENDBRANCH   6  24
BRANCH   8  26
ATOM     26  O   UNL     1      54.663  16.085  88.254  1.00  0.00    -0.508 OA
ATOM     27  H   UNL     1      54.282  16.790  88.876  1.00  0.00     0.293 HD
ENDBRANCH   8  26
TORSDOF 6
ENDMDL
MODEL 3
REMARK VINA RESULT:    -6.273      1.178      2.894
REMARK INTER + INTRA:          -7.880
REMARK INTER:                  -7.557
REMARK INTRA:                  -0.324
REMARK UNBOUND:                -0.324
REMARK SMILES O=c1c(O)c(-c2ccc(O)c(O)c2)oc2cc(O)cc(O)c12
REMARK SMILES IDX 5 1 3 2 2 3 1 4 22 5 20 6 19 7 17 8 16 9 15 10 14 11 6 12
REMARK SMILES IDX 7 13 8 14 9 15 13 16 11 17 10 18 12 20 4 22 21 24 18 26
REMARK H PARENT 10 19 12 21 4 23 21 25 18 27
REMARK Flexibility Score: inf
ROOT
ATOM      1  C   UNL     1      53.418  10.754  89.388  1.00  0.00     0.180 A 
ATOM      2  C   UNL     1      52.660  10.434  88.249  1.00  0.00     0.208 A 
ATOM      3  C   UNL     1      52.374  11.443  87.316  1.00  0.00     0.238 A 
ATOM      4  O   UNL     1      51.741  11.139  86.270  1.00  0.00    -0.285 OA
ATOM      5  C   UNL     1      52.834  12.763  87.542  1.00  0.00     0.111 A 
ATOM      6  C   UNL     1      52.568  13.873  86.684  1.00  0.00     0.134 A 
ATOM      7  C   UNL     1      53.183  15.105  86.938  1.00  0.00     0.093 A 
ATOM      8  C   UNL     1      54.002  15.284  88.056  1.00  0.00     0.123 A 
ATOM      9  C   UNL     1      54.220  14.223  88.932  1.00  0.00     0.094 A 
ATOM     10  C   UNL     1      53.649  12.972  88.684  1.00  0.00     0.146 A 
ATOM     11  O   UNL     1      53.891  11.985  89.539  1.00  0.00    -0.452 OA
ENDROOT
BRANCH   1  12
ATOM     12  C   UNL     1      53.739   9.750  90.428  1.00  0.00     0.025 A 
ATOM     13  C   UNL     1      54.895   8.953  90.344  1.00  0.00     0.016 A 
ATOM     14  C   UNL     1      55.164   7.994  91.325  1.00  0.00     0.051 A 
ATOM     15  C   UNL     1      54.279   7.810  92.395  1.00  0.00     0.157 A 
ATOM     16  C   UNL     1      52.846   9.546  91.492  1.00  0.00     0.062 A 
ATOM     17  C   UNL     1      53.117   8.585  92.477  1.00  0.00     0.158 A 
BRANCH  15  18
ATOM     18  O   UNL     1      54.547   6.857  93.376  1.00  0.00    -0.504 OA
ATOM     19  H   UNL     1      55.189   6.091  93.210  1.00  0.00     0.293 HD
ENDBRANCH  15  18
BRANCH  17  20
ATOM     20  O   UNL     1      52.233   8.395  93.539  1.00  0.00    -0.504 OA
ATOM     21  H   UNL     1      52.425   8.769  94.461  1.00  0.00     0.293 HD
ENDBRANCH  17  20
ENDBRANCH   1  12
BRANCH   2  22
ATOM     22  O   UNL     1      52.234   9.120  88.033  1.00  0.00    -0.502 OA
ATOM     23  H   UNL     1      51.771   8.831  87.180  1.00  0.00     0.293 HD
ENDBRANCH   2  22
BRANCH   6  24
ATOM     24  O   UNL     1      51.693  13.824  85.595  1.00  0.00    -0.507 OA
ATOM     25  H   UNL     1      51.977  13.740  84.631  1.00  0.00     0.293 HD
ENDBRANCH   6  24
BRANCH   8  26
ATOM     26  O   UNL     1      54.597  16.517  88.309  1.00  0.00    -0.508 OA
ATOM     27  H   UNL     1      54.327  17.083  89.107  1.00  0.00     0.293 HD
ENDBRANCH   8  26
TORSDOF 6
ENDMDL
MODEL 4
REMARK VINA RESULT:    -6.159      0.808      1.406
REMARK INTER + INTRA:          -7.742
REMARK INTER:                  -7.612
REMARK INTRA:                  -0.130
REMARK UNBOUND:                -0.324
REMARK SMILES O=c1c(O)c(-c2ccc(O)c(O)c2)oc2cc(O)cc(O)c12
REMARK SMILES IDX 5 1 3 2 2 3 1 4 22 5 20 6 19 7 17 8 16 9 15 10 14 11 6 12
REMARK SMILES IDX 7 13 8 14 9 15 13 16 11 17 10 18 12 20 4 22 21 24 18 26
REMARK H PARENT 10 19 12 21 4 23 21 25 18 27
REMARK Flexibility Score: inf
ROOT
ATOM      1  C   UNL     1      53.602  11.182  90.088  1.00  0.00     0.180 A 
ATOM      2  C   UNL     1      54.213  12.289  90.702  1.00  0.00     0.208 A 
ATOM      3  C   UNL     1      54.312  13.495  89.989  1.00  0.00     0.238 A 
ATOM      4  O   UNL     1      54.811  14.499  90.563  1.00  0.00    -0.285 OA
ATOM      5  C   UNL     1      53.814  13.574  88.665  1.00  0.00     0.111 A 
ATOM      6  C   UNL     1      53.898  14.733  87.836  1.00  0.00     0.134 A 
ATOM      7  C   UNL     1      53.255  14.738  86.591  1.00  0.00     0.093 A 
ATOM      8  C   UNL     1      52.589  13.604  86.120  1.00  0.00     0.123 A 
ATOM      9  C   UNL     1      52.553  12.449  86.897  1.00  0.00     0.094 A 
ATOM     10  C   UNL     1      53.153  12.425  88.159  1.00  0.00     0.146 A 
ATOM     11  O   UNL     1      53.087  11.307  88.871  1.00  0.00    -0.452 OA
ENDROOT
BRANCH   1  12
ATOM     12  C   UNL     1      53.483   9.872  90.767  1.00  0.00     0.025 A 
ATOM     13  C   UNL     1      52.228   9.323  91.085  1.00  0.00     0.016 A 
ATOM     14  C   UNL     1      52.141   8.096  91.748  1.00  0.00     0.051 A 
ATOM     15  C   UNL     1      53.304   7.406  92.113  1.00  0.00     0.157 A 
ATOM     16  C   UNL     1      54.646   9.185  91.153  1.00  0.00     0.062 A 
ATOM     17  C   UNL     1      54.559   7.953  91.817  1.00  0.00     0.158 A 
BRANCH  15  18
ATOM     18  O   UNL     1      53.221   6.181  92.772  1.00  0.00    -0.504 OA
ATOM     19  H   UNL     1      52.501   5.505  92.545  1.00  0.00     0.293 HD
ENDBRANCH  15  18
BRANCH  17  20
ATOM     20  O   UNL     1      55.715   7.268  92.188  1.00  0.00    -0.504 OA
ATOM     21  H   UNL     1      56.502   7.747  92.611  1.00  0.00     0.293 HD
ENDBRANCH  17  20
ENDBRANCH   1  12
BRANCH   2  22
ATOM     22  O   UNL     1      54.678  12.197  92.017  1.00  0.00    -0.502 OA
ATOM     23  H   UNL     1      54.632  11.338  92.551  1.00  0.00     0.293 HD
ENDBRANCH   2  22
BRANCH   6  24
ATOM     24  O   UNL     1      54.617  15.883  88.173  1.00  0.00    -0.507 OA
ATOM     25  H   UNL     1      54.573  16.756  87.671  1.00  0.00     0.293 HD
ENDBRANCH   6  24
BRANCH   8  26
ATOM     26  O   UNL     1      51.966  13.613  84.874  1.00  0.00    -0.508 OA
ATOM     27  H   UNL     1      51.404  12.831  84.556  1.00  0.00     0.293 HD
ENDBRANCH   8  26
TORSDOF 6
ENDMDL
MODEL 5
REMARK VINA RESULT:    -6.144      2.155      6.871
REMARK INTER + INTRA:          -7.725
REMARK INTER:                  -7.637
REMARK INTRA:                  -0.088
REMARK UNBOUND:                -0.324
REMARK SMILES O=c1c(O)c(-c2ccc(O)c(O)c2)oc2cc(O)cc(O)c12
REMARK SMILES IDX 5 1 3 2 2 3 1 4 22 5 20 6 19 7 17 8 16 9 15 10 14 11 6 12
REMARK SMILES IDX 7 13 8 14 9 15 13 16 11 17 10 18 12 20 4 22 21 24 18 26
REMARK H PARENT 10 19 12 21 4 23 21 25 18 27
REMARK Flexibility Score: inf
ROOT
ATOM      1  C   UNL     1      53.110  12.281  88.156  1.00  0.00     0.180 A 
ATOM      2  C   UNL     1      54.132  12.354  89.118  1.00  0.00     0.208 A 
ATOM      3  C   UNL     1      54.290  11.294  90.025  1.00  0.00     0.238 A 
ATOM      4  O   UNL     1      55.242  11.339  90.849  1.00  0.00    -0.285 OA
ATOM      5  C   UNL     1      53.414  10.183  89.970  1.00  0.00     0.111 A 
ATOM      6  C   UNL     1      53.458   9.071  90.865  1.00  0.00     0.134 A 
ATOM      7  C   UNL     1      52.626   7.967  90.636  1.00  0.00     0.093 A 
ATOM      8  C   UNL     1      51.709   7.963  89.582  1.00  0.00     0.123 A 
ATOM      9  C   UNL     1      51.618   9.068  88.739  1.00  0.00     0.094 A 
ATOM     10  C   UNL     1      52.460  10.169  88.921  1.00  0.00     0.146 A 
ATOM     11  O   UNL     1      52.347  11.197  88.088  1.00  0.00    -0.452 OA
ENDROOT
BRANCH   1  12
ATOM     12  C   UNL     1      52.866  13.369  87.183  1.00  0.00     0.025 A 
ATOM     13  C   UNL     1      52.961  13.149  85.798  1.00  0.00     0.016 A 
ATOM     14  C   UNL     1      52.750  14.197  84.898  1.00  0.00     0.051 A 
ATOM     15  C   UNL     1      52.453  15.483  85.369  1.00  0.00     0.157 A 
ATOM     16  C   UNL     1      52.587  14.665  87.649  1.00  0.00     0.062 A 
ATOM     17  C   UNL     1      52.375  15.718  86.747  1.00  0.00     0.158 A 
BRANCH  15  18
ATOM     18  O   UNL     1      52.240  16.531  84.476  1.00  0.00    -0.504 OA
ATOM     19  H   UNL     1      51.462  16.523  83.825  1.00  0.00     0.293 HD
ENDBRANCH  15  18
BRANCH  17  20
ATOM     20  O   UNL     1      52.086  16.999  87.214  1.00  0.00    -0.504 OA
ATOM     21  H   UNL     1      52.175  17.813  86.617  1.00  0.00     0.293 HD
ENDBRANCH  17  20
ENDBRANCH   1  12
BRANCH   2  22
ATOM     22  O   UNL     1      55.000  13.450  89.141  1.00  0.00    -0.502 OA
ATOM     23  H   UNL     1      54.696  14.379  89.405  1.00  0.00     0.293 HD
ENDBRANCH   2  22
BRANCH   6  24
ATOM     24  O   UNL     1      54.271   9.016  92.001  1.00  0.00    -0.507 OA
ATOM     25  H   UNL     1      54.187   9.625  92.799  1.00  0.00     0.293 HD
ENDBRANCH   6  24
BRANCH   8  26
ATOM     26  O   UNL     1      50.875   6.868  89.372  1.00  0.00    -0.508 OA
ATOM     27  H   UNL     1      50.035   6.941  88.807  1.00  0.00     0.293 HD
ENDBRANCH   8  26
TORSDOF 6
ENDMDL
MODEL 6
REMARK VINA RESULT:    -6.038      1.686      2.976
REMARK INTER + INTRA:          -7.597
REMARK INTER:                  -7.355
REMARK INTRA:                  -0.242
REMARK UNBOUND:                -0.324
REMARK SMILES O=c1c(O)c(-c2ccc(O)c(O)c2)oc2cc(O)cc(O)c12
REMARK SMILES IDX 5 1 3 2 2 3 1 4 22 5 20 6 19 7 17 8 16 9 15 10 14 11 6 12
REMARK SMILES IDX 7 13 8 14 9 15 13 16 11 17 10 18 12 20 4 22 21 24 18 26
REMARK H PARENT 10 19 12 21 4 23 21 25 18 27
REMARK Flexibility Score: inf
ROOT
ATOM      1  C   UNL     1      53.295  11.736  89.075  1.00  0.00     0.180 A 
ATOM      2  C   UNL     1      53.312  11.520  87.686  1.00  0.00     0.208 A 
ATOM      3  C   UNL     1      53.052  12.600  86.826  1.00  0.00     0.238 A 
ATOM      4  O   UNL     1      53.122  12.413  85.583  1.00  0.00    -0.285 OA
ATOM      5  C   UNL     1      52.763  13.876  87.366  1.00  0.00     0.111 A 
ATOM      6  C   UNL     1      52.445  15.031  86.588  1.00  0.00     0.134 A 
ATOM      7  C   UNL     1      52.305  16.273  87.222  1.00  0.00     0.093 A 
ATOM      8  C   UNL     1      52.406  16.388  88.611  1.00  0.00     0.123 A 
ATOM      9  C   UNL     1      52.657  15.256  89.383  1.00  0.00     0.094 A 
ATOM     10  C   UNL     1      52.838  14.010  88.776  1.00  0.00     0.146 A 
ATOM     11  O   UNL     1      53.085  12.959  89.548  1.00  0.00    -0.452 OA
ENDROOT
BRANCH   1  12
ATOM     12  C   UNL     1      53.534  10.644  90.045  1.00  0.00     0.025 A 
ATOM     13  C   UNL     1      54.818  10.103  90.237  1.00  0.00     0.016 A 
ATOM     14  C   UNL     1      55.015   9.055  91.140  1.00  0.00     0.051 A 
ATOM     15  C   UNL     1      53.933   8.524  91.854  1.00  0.00     0.157 A 
ATOM     16  C   UNL     1      52.450  10.094  90.749  1.00  0.00     0.062 A 
ATOM     17  C   UNL     1      52.648   9.043  91.656  1.00  0.00     0.158 A 
BRANCH  15  18
ATOM     18  O   UNL     1      54.127   7.481  92.758  1.00  0.00    -0.504 OA
ATOM     19  H   UNL     1      54.596   6.624  92.486  1.00  0.00     0.293 HD
ENDBRANCH  15  18
BRANCH  17  20
ATOM     20  O   UNL     1      51.571   8.508  92.363  1.00  0.00    -0.504 OA
ATOM     21  H   UNL     1      51.004   9.081  92.977  1.00  0.00     0.293 HD
ENDBRANCH  17  20
ENDBRANCH   1  12
BRANCH   2  22
ATOM     22  O   UNL     1      53.621  10.257  87.174  1.00  0.00    -0.502 OA
ATOM     23  H   UNL     1      53.088   9.429  87.411  1.00  0.00     0.293 HD
ENDBRANCH   2  22
BRANCH   6  24
ATOM     24  O   UNL     1      52.231  15.007  85.207  1.00  0.00    -0.507 OA
ATOM     25  H   UNL     1      52.845  15.420  84.523  1.00  0.00     0.293 HD
ENDBRANCH   6  24
BRANCH   8  26
ATOM     26  O   UNL     1      52.249  17.623  89.234  1.00  0.00    -0.508 OA
ATOM     27  H   UNL     1      51.399  18.166  89.130  1.00  0.00     0.293 HD
ENDBRANCH   8  26
TORSDOF 6
ENDMDL
MODEL 7
REMARK VINA RESULT:    -6.022      1.634      7.138
REMARK INTER + INTRA:          -7.578
REMARK INTER:                  -7.388
REMARK INTRA:                  -0.190
REMARK UNBOUND:                -0.324
REMARK SMILES O=c1c(O)c(-c2ccc(O)c(O)c2)oc2cc(O)cc(O)c12
REMARK SMILES IDX 5 1 3 2 2 3 1 4 22 5 20 6 19 7 17 8 16 9 15 10 14 11 6 12
REMARK SMILES IDX 7 13 8 14 9 15 13 16 11 17 10 18 12 20 4 22 21 24 18 26
REMARK H PARENT 10 19 12 21 4 23 21 25 18 27
REMARK Flexibility Score: inf
ROOT
ATOM      1  C   UNL     1      53.080  11.281  89.041  1.00  0.00     0.180 A 
ATOM      2  C   UNL     1      53.713  10.079  88.678  1.00  0.00     0.208 A 
ATOM      3  C   UNL     1      53.831   9.056  89.633  1.00  0.00     0.238 A 
ATOM      4  O   UNL     1      54.349   7.962  89.286  1.00  0.00    -0.285 OA
ATOM      5  C   UNL     1      53.332   9.254  90.943  1.00  0.00     0.111 A 
ATOM      6  C   UNL     1      53.434   8.302  92.002  1.00  0.00     0.134 A 
ATOM      7  C   UNL     1      52.789   8.552  93.220  1.00  0.00     0.093 A 
ATOM      8  C   UNL     1      52.101   9.749  93.438  1.00  0.00     0.123 A 
ATOM      9  C   UNL     1      52.047  10.709  92.431  1.00  0.00     0.094 A 
ATOM     10  C   UNL     1      52.649  10.473  91.192  1.00  0.00     0.146 A 
ATOM     11  O   UNL     1      52.565  11.411  90.256  1.00  0.00    -0.452 OA
ENDROOT
BRANCH   1  12
ATOM     12  C   UNL     1      52.940  12.412  88.097  1.00  0.00     0.025 A 
ATOM     13  C   UNL     1      52.112  12.323  86.964  1.00  0.00     0.016 A 
ATOM     14  C   UNL     1      52.014  13.396  86.074  1.00  0.00     0.051 A 
ATOM     15  C   UNL     1      52.750  14.567  86.295  1.00  0.00     0.157 A 
ATOM     16  C   UNL     1      53.690  13.582  88.303  1.00  0.00     0.062 A 
ATOM     17  C   UNL     1      53.591  14.659  87.410  1.00  0.00     0.158 A 
BRANCH  15  18
ATOM     18  O   UNL     1      52.653  15.640  85.411  1.00  0.00    -0.504 OA
ATOM     19  H   UNL     1      53.475  16.137  85.088  1.00  0.00     0.293 HD
ENDBRANCH  15  18
BRANCH  17  20
ATOM     20  O   UNL     1      54.328  15.823  87.625  1.00  0.00    -0.504 OA
ATOM     21  H   UNL     1      55.341  15.811  87.658  1.00  0.00     0.293 HD
ENDBRANCH  17  20
ENDBRANCH   1  12
BRANCH   2  22
ATOM     22  O   UNL     1      54.179   9.895  87.372  1.00  0.00    -0.502 OA
ATOM     23  H   UNL     1      53.961  10.538  86.621  1.00  0.00     0.293 HD
ENDBRANCH   2  22
BRANCH   6  24
ATOM     24  O   UNL     1      54.174   7.119  91.918  1.00  0.00    -0.507 OA
ATOM     25  H   UNL     1      55.146   7.066  91.657  1.00  0.00     0.293 HD
ENDBRANCH   6  24
BRANCH   8  26
ATOM     26  O   UNL     1      51.476   9.996  94.657  1.00  0.00    -0.508 OA
ATOM     27  H   UNL     1      51.362   9.266  95.352  1.00  0.00     0.293 HD
ENDBRANCH   8  26
TORSDOF 6
ENDMDL
MODEL 8
REMARK VINA RESULT:    -5.911      2.093      7.322
REMARK INTER + INTRA:          -7.444
REMARK INTER:                  -7.162
REMARK INTRA:                  -0.282
REMARK UNBOUND:                -0.324
REMARK SMILES O=c1c(O)c(-c2ccc(O)c(O)c2)oc2cc(O)cc(O)c12
REMARK SMILES IDX 5 1 3 2 2 3 1 4 22 5 20 6 19 7 17 8 16 9 15 10 14 11 6 12
REMARK SMILES IDX 7 13 8 14 9 15 13 16 11 17 10 18 12 20 4 22 21 24 18 26
REMARK H PARENT 10 19 12 21 4 23 21 25 18 27
REMARK Flexibility Score: inf
ROOT
ATOM      1  C   UNL     1      52.865  10.631  90.433  1.00  0.00     0.180 A 
ATOM      2  C   UNL     1      52.772   9.487  89.622  1.00  0.00     0.208 A 
ATOM      3  C   UNL     1      52.389   8.269  90.206  1.00  0.00     0.238 A 
ATOM      4  O   UNL     1      52.254   7.259  89.465  1.00  0.00    -0.285 OA
ATOM      5  C   UNL     1      52.121   8.206  91.595  1.00  0.00     0.111 A 
ATOM      6  C   UNL     1      51.764   7.016  92.298  1.00  0.00     0.134 A 
ATOM      7  C   UNL     1      51.395   7.096  93.647  1.00  0.00     0.093 A 
ATOM      8  C   UNL     1      51.432   8.313  94.333  1.00  0.00     0.123 A 
ATOM      9  C   UNL     1      51.835   9.469  93.670  1.00  0.00     0.094 A 
ATOM     10  C   UNL     1      52.175   9.427  92.315  1.00  0.00     0.146 A 
ATOM     11  O   UNL     1      52.544  10.554  91.719  1.00  0.00    -0.452 OA
ENDROOT
BRANCH   1  12
ATOM     12  C   UNL     1      53.286  11.945  89.896  1.00  0.00     0.025 A 
ATOM     13  C   UNL     1      52.402  12.751  89.157  1.00  0.00     0.016 A 
ATOM     14  C   UNL     1      52.829  13.977  88.639  1.00  0.00     0.051 A 
ATOM     15  C   UNL     1      54.147  14.408  88.839  1.00  0.00     0.157 A 
ATOM     16  C   UNL     1      54.612  12.373  90.076  1.00  0.00     0.062 A 
ATOM     17  C   UNL     1      55.040  13.604  89.556  1.00  0.00     0.158 A 
BRANCH  15  18
ATOM     18  O   UNL     1      54.576  15.631  88.325  1.00  0.00    -0.504 OA
ATOM     19  H   UNL     1      55.389  15.698  87.725  1.00  0.00     0.293 HD
ENDBRANCH  15  18
BRANCH  17  20
ATOM     20  O   UNL     1      56.354  14.031  89.749  1.00  0.00    -0.504 OA
ATOM     21  H   UNL     1      56.702  14.882  89.321  1.00  0.00     0.293 HD
ENDBRANCH  17  20
ENDBRANCH   1  12
BRANCH   2  22
ATOM     22  O   UNL     1      53.020   9.575  88.249  1.00  0.00    -0.502 OA
ATOM     23  H   UNL     1      52.412  10.082  87.618  1.00  0.00     0.293 HD
ENDBRANCH   2  22
BRANCH   6  24
ATOM     24  O   UNL     1      51.786   5.738  91.731  1.00  0.00    -0.507 OA
ATOM     25  H   UNL     1      51.006   5.305  91.261  1.00  0.00     0.293 HD
ENDBRANCH   6  24
BRANCH   8  26
ATOM     26  O   UNL     1      51.077   8.380  95.678  1.00  0.00    -0.508 OA
ATOM     27  H   UNL     1      51.739   8.156  96.413  1.00  0.00     0.293 HD
ENDBRANCH   8  26
TORSDOF 6
ENDMDL
MODEL 9
REMARK VINA RESULT:    -5.897      2.163      6.939
REMARK INTER + INTRA:          -7.428
REMARK INTER:                  -7.234
REMARK INTRA:                  -0.194
REMARK UNBOUND:                -0.324
REMARK SMILES O=c1c(O)c(-c2ccc(O)c(O)c2)oc2cc(O)cc(O)c12
REMARK SMILES IDX 5 1 3 2 2 3 1 4 22 5 20 6 19 7 17 8 16 9 15 10 14 11 6 12
REMARK SMILES IDX 7 13 8 14 9 15 13 16 11 17 10 18 12 20 4 22 21 24 18 26
REMARK H PARENT 10 19 12 21 4 23 21 25 18 27
REMARK Flexibility Score: inf
ROOT
ATOM      1  C   UNL     1      52.818  11.065  91.307  1.00  0.00     0.180 A 
ATOM      2  C   UNL     1      52.654  11.270  92.688  1.00  0.00     0.208 A 
ATOM      3  C   UNL     1      52.183  10.213  93.483  1.00  0.00     0.238 A 
ATOM      4  O   UNL     1      52.090  10.385  94.727  1.00  0.00    -0.285 OA
ATOM      5  C   UNL     1      51.866   8.969  92.885  1.00  0.00     0.111 A 
ATOM      6  C   UNL     1      51.344   7.841  93.588  1.00  0.00     0.134 A 
ATOM      7  C   UNL     1      51.190   6.621  92.918  1.00  0.00     0.093 A 
ATOM      8  C   UNL     1      51.479   6.505  91.556  1.00  0.00     0.123 A 
ATOM      9  C   UNL     1      51.933   7.616  90.849  1.00  0.00     0.094 A 
ATOM     10  C   UNL     1      52.131   8.837  91.498  1.00  0.00     0.146 A 
ATOM     11  O   UNL     1      52.575   9.868  90.787  1.00  0.00    -0.452 OA
ENDROOT
BRANCH   1  12
ATOM     12  C   UNL     1      53.286  12.138  90.402  1.00  0.00     0.025 A 
ATOM     13  C   UNL     1      52.441  12.692  89.424  1.00  0.00     0.016 A 
ATOM     14  C   UNL     1      52.912  13.687  88.564  1.00  0.00     0.051 A 
ATOM     15  C   UNL     1      54.236  14.135  88.659  1.00  0.00     0.157 A 
ATOM     16  C   UNL     1      54.618  12.577  90.479  1.00  0.00     0.062 A 
ATOM     17  C   UNL     1      55.091  13.576  89.617  1.00  0.00     0.158 A 
BRANCH  15  18
ATOM     18  O   UNL     1      54.708  15.129  87.805  1.00  0.00    -0.504 OA
ATOM     19  H   UNL     1      54.667  15.026  86.797  1.00  0.00     0.293 HD
ENDBRANCH  15  18
BRANCH  17  20
ATOM     20  O   UNL     1      56.411  14.018  89.705  1.00  0.00    -0.504 OA
ATOM     21  H   UNL     1      57.149  13.416  90.051  1.00  0.00     0.293 HD
ENDBRANCH  17  20
ENDBRANCH   1  12
BRANCH   2  22
ATOM     22  O   UNL     1      52.994  12.499  93.262  1.00  0.00    -0.502 OA
ATOM     23  H   UNL     1      52.311  13.227  93.432  1.00  0.00     0.293 HD
ENDBRANCH   2  22
BRANCH   6  24
ATOM     24  O   UNL     1      50.937   7.876  94.925  1.00  0.00    -0.507 OA
ATOM     25  H   UNL     1      50.078   7.481  95.275  1.00  0.00     0.293 HD
ENDBRANCH   6  24
BRANCH   8  26
ATOM     26  O   UNL     1      51.309   5.292  90.895  1.00  0.00    -0.508 OA
ATOM     27  H   UNL     1      50.477   5.098  90.348  1.00  0.00     0.293 HD
ENDBRANCH   8  26
TORSDOF 6
ENDMDL
