MODEL 1
REMARK VINA RESULT:    -7.564      0.000      0.000
REMARK INTER + INTRA:          -8.104
REMARK INTER:                  -8.227
REMARK INTRA:                   0.123
REMARK UNBOUND:                 0.123
REMARK SMILES C[C@@H]1[C@@H](C)CC[C@]2(C(=O)[O-])CC[C@]3(C)C(=CC[C@H]4[C@]5(C)CC[C@H](O)C(C)(C)[C@@H]5CC[C@]43C)[C@@H]12
REMARK SMILES IDX 7 1 6 2 11 3 33 4 5 5 12 6 15 7 2 8 3 9 13 10 16 11 1 12
REMARK SMILES IDX 4 13 14 14 31 15 17 16 18 17 30 18 32 19 19 20 29 21 28 22
REMARK SMILES IDX 21 23 20 24 25 25 22 26 23 27 26 28 27 29 8 30 9 31 10 32
REMARK SMILES IDX 24 33
REMARK H PARENT 24 34
REMARK Flexibility Score: inf
ROOT
ATOM      1  C   UNL     1     -27.910 111.444  21.262  1.00  0.00     0.017 C 
ATOM      2  C   UNL     1     -28.715 110.111  21.435  1.00  0.00     0.014 C 
ATOM      3  C   UNL     1     -27.832 111.824  19.749  1.00  0.00     0.014 C 
ATOM      4  C   UNL     1     -26.429 111.284  21.739  1.00  0.00     0.030 C 
ATOM      5  C   UNL     1     -27.849 108.902  21.805  1.00  0.00     0.004 C 
ATOM      6  C   UNL     1     -26.961 113.084  19.462  1.00  0.00     0.013 C 
ATOM      7  C   UNL     1     -25.706 112.625  21.547  1.00  0.00    -0.063 C 
ATOM      8  C   UNL     1     -26.282 110.545  23.105  1.00  0.00    -0.003 C 
ATOM      9  C   UNL     1     -26.996 109.144  23.074  1.00  0.00    -0.011 C 
ATOM     10  C   UNL     1     -25.514 113.083  20.092  1.00  0.00    -0.006 C 
ATOM     11  C   UNL     1     -25.660 113.490  22.569  1.00  0.00    -0.027 C 
ATOM     12  C   UNL     1     -24.795 110.364  23.474  1.00  0.00     0.008 C 
ATOM     13  C   UNL     1     -27.830 108.924  24.349  1.00  0.00     0.008 C 
ATOM     14  C   UNL     1     -24.650 112.006  19.351  1.00  0.00     0.017 C 
ATOM     15  C   UNL     1     -24.803 114.541  19.958  1.00  0.00    -0.020 C 
ATOM     16  C   UNL     1     -25.243 114.914  22.457  1.00  0.00     0.032 C 
ATOM     17  C   UNL     1     -25.353 115.563  21.039  1.00  0.00     0.006 C 
ATOM     18  C   UNL     1     -23.268 114.449  20.194  1.00  0.00     0.008 C 
ATOM     19  C   UNL     1     -25.056 115.048  18.497  1.00  0.00     0.012 C 
ATOM     20  C   UNL     1     -24.686 117.034  21.063  1.00  0.00    -0.025 C 
ATOM     21  C   UNL     1     -22.535 115.799  20.145  1.00  0.00     0.005 C 
ATOM     22  C   UNL     1     -23.097 116.945  21.046  1.00  0.00     0.003 C 
ATOM     23  C   UNL     1     -25.230 117.941  19.906  1.00  0.00     0.010 C 
ATOM     24  C   UNL     1     -25.175 117.744  22.379  1.00  0.00     0.012 C 
ATOM     25  C   UNL     1     -22.335 118.333  20.795  1.00  0.00    -0.006 C 
ATOM     26  C   UNL     1     -24.521 119.298  19.758  1.00  0.00     0.033 C 
ATOM     27  C   UNL     1     -22.989 119.178  19.646  1.00  0.00     0.120 C 
ATOM     28  C   UNL     1     -22.313 119.189  22.097  1.00  0.00     0.014 C 
ATOM     29  C   UNL     1     -20.830 118.114  20.452  1.00  0.00     0.014 C 
ENDROOT
BRANCH   1  30
ATOM     30  C   UNL     1     -28.662 112.536  22.031  1.00  0.00     0.048 C 
ATOM     31  O   UNL     1     -28.925 113.643  21.485  1.00  0.00    -0.550 OA
ATOM     32  O   UNL     1     -29.195 112.282  23.286  1.00  0.00    -0.550 OA
ENDBRANCH   1  30
BRANCH  27  33
ATOM     33  O   UNL     1     -22.608 118.744  18.363  1.00  0.00    -0.393 OA
ATOM     34  H   UNL     1     -21.822 119.263  18.072  1.00  0.00     0.210 HD
ENDBRANCH  27  33
TORSDOF 2
ENDMDL
MODEL 2
REMARK VINA RESULT:    -7.459      2.273      7.866
REMARK INTER + INTRA:          -7.991
REMARK INTER:                  -8.016
REMARK INTRA:                   0.025
REMARK UNBOUND:                 0.123
REMARK SMILES C[C@@H]1[C@@H](C)CC[C@]2(C(=O)[O-])CC[C@]3(C)C(=CC[C@H]4[C@]5(C)CC[C@H](O)C(C)(C)[C@@H]5CC[C@]43C)[C@@H]12
REMARK SMILES IDX 7 1 6 2 11 3 33 4 5 5 12 6 15 7 2 8 3 9 13 10 16 11 1 12
REMARK SMILES IDX 4 13 14 14 31 15 17 16 18 17 30 18 32 19 19 20 29 21 28 22
REMARK SMILES IDX 21 23 20 24 25 25 22 26 23 27 26 28 27 29 8 30 9 31 10 32
REMARK SMILES IDX 24 33
REMARK H PARENT 24 34
REMARK Flexibility Score: inf
ROOT
ATOM      1  C   UNL     1     -22.319 116.179  22.781  1.00  0.00     0.017 C 
ATOM      2  C   UNL     1     -21.228 117.295  22.931  1.00  0.00     0.014 C 
ATOM      3  C   UNL     1     -21.720 114.795  23.186  1.00  0.00     0.014 C 
ATOM      4  C   UNL     1     -22.782 116.027  21.295  1.00  0.00     0.030 C 
ATOM      5  C   UNL     1     -20.692 117.825  21.597  1.00  0.00     0.004 C 
ATOM      6  C   UNL     1     -22.698 113.600  22.973  1.00  0.00     0.013 C 
ATOM      7  C   UNL     1     -23.850 114.926  21.227  1.00  0.00    -0.063 C 
ATOM      8  C   UNL     1     -23.060 117.384  20.579  1.00  0.00    -0.003 C 
ATOM      9  C   UNL     1     -21.814 118.339  20.663  1.00  0.00    -0.011 C 
ATOM     10  C   UNL     1     -23.369 113.501  21.548  1.00  0.00    -0.006 C 
ATOM     11  C   UNL     1     -25.142 115.268  21.313  1.00  0.00    -0.027 C 
ATOM     12  C   UNL     1     -23.443 117.156  19.102  1.00  0.00     0.008 C 
ATOM     13  C   UNL     1     -22.240 119.767  21.047  1.00  0.00     0.008 C 
ATOM     14  C   UNL     1     -22.266 113.111  20.505  1.00  0.00     0.017 C 
ATOM     15  C   UNL     1     -24.561 112.392  21.525  1.00  0.00    -0.020 C 
ATOM     16  C   UNL     1     -26.261 114.312  21.533  1.00  0.00     0.032 C 
ATOM     17  C   UNL     1     -25.888 112.945  22.193  1.00  0.00     0.006 C 
ATOM     18  C   UNL     1     -24.942 111.999  20.068  1.00  0.00     0.008 C 
ATOM     19  C   UNL     1     -24.024 111.119  22.264  1.00  0.00     0.012 C 
ATOM     20  C   UNL     1     -27.176 111.968  22.179  1.00  0.00    -0.025 C 
ATOM     21  C   UNL     1     -26.105 111.000  19.964  1.00  0.00     0.005 C 
ATOM     22  C   UNL     1     -27.418 111.357  20.730  1.00  0.00     0.003 C 
ATOM     23  C   UNL     1     -27.072 110.850  23.273  1.00  0.00     0.010 C 
ATOM     24  C   UNL     1     -28.416 112.830  22.619  1.00  0.00     0.012 C 
ATOM     25  C   UNL     1     -28.496 110.172  20.658  1.00  0.00    -0.006 C 
ATOM     26  C   UNL     1     -28.176 109.781  23.214  1.00  0.00     0.033 C 
ATOM     27  C   UNL     1     -28.326 109.134  21.824  1.00  0.00     0.120 C 
ATOM     28  C   UNL     1     -29.945 110.744  20.703  1.00  0.00     0.014 C 
ATOM     29  C   UNL     1     -28.425 109.406  19.302  1.00  0.00     0.014 C 
ENDROOT
BRANCH   1  30
ATOM     30  C   UNL     1     -23.472 116.538  23.724  1.00  0.00     0.048 C 
ATOM     31  O   UNL     1     -23.760 115.794  24.702  1.00  0.00    -0.550 OA
ATOM     32  O   UNL     1     -24.131 117.754  23.611  1.00  0.00    -0.550 OA
ENDBRANCH   1  30
BRANCH  27  33
ATOM     33  O   UNL     1     -27.297 108.205  21.584  1.00  0.00    -0.393 OA
ATOM     34  H   UNL     1     -27.636 107.299  21.777  1.00  0.00     0.210 HD
ENDBRANCH  27  33
TORSDOF 2
ENDMDL
MODEL 3
REMARK VINA RESULT:    -7.363      1.735      7.865
REMARK INTER + INTRA:          -7.886
REMARK INTER:                  -7.915
REMARK INTRA:                   0.029
REMARK UNBOUND:                 0.123
REMARK SMILES C[C@@H]1[C@@H](C)CC[C@]2(C(=O)[O-])CC[C@]3(C)C(=CC[C@H]4[C@]5(C)CC[C@H](O)C(C)(C)[C@@H]5CC[C@]43C)[C@@H]12
REMARK SMILES IDX 7 1 6 2 11 3 33 4 5 5 12 6 15 7 2 8 3 9 13 10 16 11 1 12
REMARK SMILES IDX 4 13 14 14 31 15 17 16 18 17 30 18 32 19 19 20 29 21 28 22
REMARK SMILES IDX 21 23 20 24 25 25 22 26 23 27 26 28 27 29 8 30 9 31 10 32
REMARK SMILES IDX 24 33
REMARK H PARENT 24 34
REMARK Flexibility Score: inf
ROOT
ATOM      1  C   UNL     1     -23.329 117.686  20.497  1.00  0.00     0.017 C 
ATOM      2  C   UNL     1     -22.375 118.861  20.089  1.00  0.00     0.014 C 
ATOM      3  C   UNL     1     -23.139 117.352  22.011  1.00  0.00     0.014 C 
ATOM      4  C   UNL     1     -22.985 116.373  19.722  1.00  0.00     0.030 C 
ATOM      5  C   UNL     1     -21.193 118.428  19.215  1.00  0.00     0.004 C 
ATOM      6  C   UNL     1     -23.972 116.125  22.493  1.00  0.00     0.013 C 
ATOM      7  C   UNL     1     -23.960 115.273  20.168  1.00  0.00    -0.063 C 
ATOM      8  C   UNL     1     -22.744 116.585  18.196  1.00  0.00    -0.003 C 
ATOM      9  C   UNL     1     -21.637 117.672  17.939  1.00  0.00    -0.011 C 
ATOM     10  C   UNL     1     -23.832 114.812  21.629  1.00  0.00    -0.006 C 
ATOM     11  C   UNL     1     -25.082 115.077  19.464  1.00  0.00    -0.027 C 
ATOM     12  C   UNL     1     -22.343 115.261  17.514  1.00  0.00     0.008 C 
ATOM     13  C   UNL     1     -22.076 118.656  16.840  1.00  0.00     0.008 C 
ATOM     14  C   UNL     1     -22.390 114.233  21.834  1.00  0.00     0.017 C 
ATOM     15  C   UNL     1     -24.936 113.695  22.057  1.00  0.00    -0.020 C 
ATOM     16  C   UNL     1     -26.235 114.251  19.916  1.00  0.00     0.032 C 
ATOM     17  C   UNL     1     -26.367 114.026  21.458  1.00  0.00     0.006 C 
ATOM     18  C   UNL     1     -24.558 112.286  21.517  1.00  0.00     0.008 C 
ATOM     19  C   UNL     1     -24.959 113.643  23.623  1.00  0.00     0.012 C 
ATOM     20  C   UNL     1     -27.547 112.962  21.751  1.00  0.00    -0.025 C 
ATOM     21  C   UNL     1     -25.587 111.188  21.829  1.00  0.00     0.005 C 
ATOM     22  C   UNL     1     -27.072 111.475  21.438  1.00  0.00     0.003 C 
ATOM     23  C   UNL     1     -28.108 113.099  23.208  1.00  0.00     0.010 C 
ATOM     24  C   UNL     1     -28.760 113.349  20.827  1.00  0.00     0.012 C 
ATOM     25  C   UNL     1     -28.060 110.319  21.945  1.00  0.00    -0.006 C 
ATOM     26  C   UNL     1     -29.116 112.013  23.620  1.00  0.00     0.033 C 
ATOM     27  C   UNL     1     -28.594 110.580  23.397  1.00  0.00     0.120 C 
ATOM     28  C   UNL     1     -29.276 110.176  20.981  1.00  0.00     0.014 C 
ATOM     29  C   UNL     1     -27.377 108.919  21.914  1.00  0.00     0.014 C 
ENDROOT
BRANCH   1  30
ATOM     30  C   UNL     1     -24.766 118.158  20.250  1.00  0.00     0.048 C 
ATOM     31  O   UNL     1     -25.589 118.245  21.203  1.00  0.00    -0.550 OA
ATOM     32  O   UNL     1     -25.153 118.635  19.006  1.00  0.00    -0.550 OA
ENDBRANCH   1  30
BRANCH  27  33
ATOM     33  O   UNL     1     -27.670 110.218  24.394  1.00  0.00    -0.393 OA
ATOM     34  H   UNL     1     -28.160 109.832  25.158  1.00  0.00     0.210 HD
ENDBRANCH  27  33
TORSDOF 2
ENDMDL
MODEL 4
REMARK VINA RESULT:    -7.221      8.639     11.854
REMARK INTER + INTRA:          -7.731
REMARK INTER:                  -7.757
REMARK INTRA:                   0.026
REMARK UNBOUND:                 0.123
REMARK SMILES C[C@@H]1[C@@H](C)CC[C@]2(C(=O)[O-])CC[C@]3(C)C(=CC[C@H]4[C@]5(C)CC[C@H](O)C(C)(C)[C@@H]5CC[C@]43C)[C@@H]12
REMARK SMILES IDX 7 1 6 2 11 3 33 4 5 5 12 6 15 7 2 8 3 9 13 10 16 11 1 12
REMARK SMILES IDX 4 13 14 14 31 15 17 16 18 17 30 18 32 19 19 20 29 21 28 22
REMARK SMILES IDX 21 23 20 24 25 25 22 26 23 27 26 28 27 29 8 30 9 31 10 32
REMARK SMILES IDX 24 33
REMARK H PARENT 24 34
REMARK Flexibility Score: inf
ROOT
ATOM      1  C   UNL     1     -20.219 113.912  11.954  1.00  0.00     0.017 C 
ATOM      2  C   UNL     1     -18.681 114.059  12.213  1.00  0.00     0.014 C 
ATOM      3  C   UNL     1     -20.485 113.742  10.423  1.00  0.00     0.014 C 
ATOM      4  C   UNL     1     -20.998 115.198  12.382  1.00  0.00     0.030 C 
ATOM      5  C   UNL     1     -18.247 115.476  12.603  1.00  0.00     0.004 C 
ATOM      6  C   UNL     1     -21.997 113.691  10.050  1.00  0.00     0.013 C 
ATOM      7  C   UNL     1     -22.492 114.979  12.106  1.00  0.00    -0.063 C 
ATOM      8  C   UNL     1     -20.570 115.761  13.773  1.00  0.00    -0.003 C 
ATOM      9  C   UNL     1     -19.020 116.022  13.829  1.00  0.00    -0.011 C 
ATOM     10  C   UNL     1     -22.892 114.856  10.626  1.00  0.00    -0.006 C 
ATOM     11  C   UNL     1     -23.272 114.505  13.086  1.00  0.00    -0.027 C 
ATOM     12  C   UNL     1     -21.329 117.064  14.095  1.00  0.00     0.008 C 
ATOM     13  C   UNL     1     -18.420 115.487  15.142  1.00  0.00     0.008 C 
ATOM     14  C   UNL     1     -22.500 116.189   9.901  1.00  0.00     0.017 C 
ATOM     15  C   UNL     1     -24.477 114.558  10.403  1.00  0.00    -0.020 C 
ATOM     16  C   UNL     1     -24.656 113.992  12.898  1.00  0.00     0.032 C 
ATOM     17  C   UNL     1     -25.030 113.511  11.458  1.00  0.00     0.006 C 
ATOM     18  C   UNL     1     -25.328 115.847  10.587  1.00  0.00     0.008 C 
ATOM     19  C   UNL     1     -24.650 114.048   8.932  1.00  0.00     0.012 C 
ATOM     20  C   UNL     1     -26.609 113.171  11.394  1.00  0.00    -0.025 C 
ATOM     21  C   UNL     1     -26.844 115.631  10.453  1.00  0.00     0.005 C 
ATOM     22  C   UNL     1     -27.480 114.501  11.323  1.00  0.00     0.003 C 
ATOM     23  C   UNL     1     -26.947 112.190  10.219  1.00  0.00     0.010 C 
ATOM     24  C   UNL     1     -26.962 112.360  12.694  1.00  0.00     0.012 C 
ATOM     25  C   UNL     1     -29.032 114.285  10.984  1.00  0.00    -0.006 C 
ATOM     26  C   UNL     1     -28.448 111.951   9.986  1.00  0.00     0.033 C 
ATOM     27  C   UNL     1     -29.257 113.253   9.824  1.00  0.00     0.120 C 
ATOM     28  C   UNL     1     -29.806 113.798  12.246  1.00  0.00     0.014 C 
ATOM     29  C   UNL     1     -29.732 115.623  10.596  1.00  0.00     0.014 C 
ENDROOT
BRANCH   1  30
ATOM     30  C   UNL     1     -20.691 112.659  12.701  1.00  0.00     0.048 C 
ATOM     31  O   UNL     1     -21.117 111.654  12.068  1.00  0.00    -0.550 OA
ATOM     32  O   UNL     1     -20.528 112.548  14.073  1.00  0.00    -0.550 OA
ENDBRANCH   1  30
BRANCH  27  33
ATOM     33  O   UNL     1     -29.062 113.812   8.548  1.00  0.00    -0.393 OA
ATOM     34  H   UNL     1     -29.902 113.737   8.036  1.00  0.00     0.210 HD
ENDBRANCH  27  33
TORSDOF 2
ENDMDL
MODEL 5
REMARK VINA RESULT:    -7.130      1.995      3.545
REMARK INTER + INTRA:          -7.632
REMARK INTER:                  -7.675
REMARK INTRA:                   0.043
REMARK UNBOUND:                 0.123
REMARK SMILES C[C@@H]1[C@@H](C)CC[C@]2(C(=O)[O-])CC[C@]3(C)C(=CC[C@H]4[C@]5(C)CC[C@H](O)C(C)(C)[C@@H]5CC[C@]43C)[C@@H]12
REMARK SMILES IDX 7 1 6 2 11 3 33 4 5 5 12 6 15 7 2 8 3 9 13 10 16 11 1 12
REMARK SMILES IDX 4 13 14 14 31 15 17 16 18 17 30 18 32 19 19 20 29 21 28 22
REMARK SMILES IDX 21 23 20 24 25 25 22 26 23 27 26 28 27 29 8 30 9 31 10 32
REMARK SMILES IDX 24 33
REMARK H PARENT 24 34
REMARK Flexibility Score: inf
ROOT
ATOM      1  C   UNL     1     -25.503 110.824  22.774  1.00  0.00     0.017 C 
ATOM      2  C   UNL     1     -26.242 109.560  23.335  1.00  0.00     0.014 C 
ATOM      3  C   UNL     1     -24.140 111.011  23.512  1.00  0.00     0.014 C 
ATOM      4  C   UNL     1     -26.319 112.130  23.043  1.00  0.00     0.030 C 
ATOM      5  C   UNL     1     -27.458 109.887  24.208  1.00  0.00     0.004 C 
ATOM      6  C   UNL     1     -23.373 112.303  23.096  1.00  0.00     0.013 C 
ATOM      7  C   UNL     1     -25.540 113.320  22.463  1.00  0.00    -0.063 C 
ATOM      8  C   UNL     1     -27.839 112.004  22.719  1.00  0.00    -0.003 C 
ATOM      9  C   UNL     1     -28.486 110.794  23.488  1.00  0.00    -0.011 C 
ATOM     10  C   UNL     1     -24.201 113.645  23.145  1.00  0.00    -0.006 C 
ATOM     11  C   UNL     1     -25.810 113.727  21.215  1.00  0.00    -0.027 C 
ATOM     12  C   UNL     1     -28.586 113.306  23.075  1.00  0.00     0.008 C 
ATOM     13  C   UNL     1     -29.390 109.969  22.554  1.00  0.00     0.008 C 
ATOM     14  C   UNL     1     -24.490 113.997  24.645  1.00  0.00     0.017 C 
ATOM     15  C   UNL     1     -23.394 114.871  22.442  1.00  0.00    -0.020 C 
ATOM     16  C   UNL     1     -24.970 114.670  20.429  1.00  0.00     0.032 C 
ATOM     17  C   UNL     1     -23.472 114.794  20.860  1.00  0.00     0.006 C 
ATOM     18  C   UNL     1     -23.998 116.250  22.837  1.00  0.00     0.008 C 
ATOM     19  C   UNL     1     -21.914 114.807  22.955  1.00  0.00     0.012 C 
ATOM     20  C   UNL     1     -22.767 115.989  20.032  1.00  0.00    -0.025 C 
ATOM     21  C   UNL     1     -23.325 117.455  22.161  1.00  0.00     0.005 C 
ATOM     22  C   UNL     1     -23.189 117.412  20.606  1.00  0.00     0.003 C 
ATOM     23  C   UNL     1     -21.209 115.822  19.979  1.00  0.00     0.010 C 
ATOM     24  C   UNL     1     -23.226 115.850  18.535  1.00  0.00     0.012 C 
ATOM     25  C   UNL     1     -22.346 118.655  20.043  1.00  0.00    -0.006 C 
ATOM     26  C   UNL     1     -20.451 117.005  19.355  1.00  0.00     0.033 C 
ATOM     27  C   UNL     1     -20.805 118.363  19.993  1.00  0.00     0.120 C 
ATOM     28  C   UNL     1     -22.830 119.043  18.613  1.00  0.00     0.014 C 
ATOM     29  C   UNL     1     -22.577 119.942  20.890  1.00  0.00     0.014 C 
ENDROOT
BRANCH   1  30
ATOM     30  C   UNL     1     -25.253 110.581  21.281  1.00  0.00     0.048 C 
ATOM     31  O   UNL     1     -24.080 110.589  20.816  1.00  0.00    -0.550 OA
ATOM     32  O   UNL     1     -26.289 110.207  20.439  1.00  0.00    -0.550 OA
ENDBRANCH   1  30
BRANCH  27  33
ATOM     33  O   UNL     1     -20.179 118.512  21.244  1.00  0.00    -0.393 OA
ATOM     34  H   UNL     1     -20.873 118.595  21.940  1.00  0.00     0.210 HD
ENDBRANCH  27  33
TORSDOF 2
ENDMDL
MODEL 6
REMARK VINA RESULT:    -7.051     10.972     12.994
REMARK INTER + INTRA:          -7.546
REMARK INTER:                  -7.572
REMARK INTRA:                   0.025
REMARK UNBOUND:                 0.123
REMARK SMILES C[C@@H]1[C@@H](C)CC[C@]2(C(=O)[O-])CC[C@]3(C)C(=CC[C@H]4[C@]5(C)CC[C@H](O)C(C)(C)[C@@H]5CC[C@]43C)[C@@H]12
REMARK SMILES IDX 7 1 6 2 11 3 33 4 5 5 12 6 15 7 2 8 3 9 13 10 16 11 1 12
REMARK SMILES IDX 4 13 14 14 31 15 17 16 18 17 30 18 32 19 19 20 29 21 28 22
REMARK SMILES IDX 21 23 20 24 25 25 22 26 23 27 26 28 27 29 8 30 9 31 10 32
REMARK SMILES IDX 24 33
REMARK H PARENT 24 34
REMARK Flexibility Score: inf
ROOT
ATOM      1  C   UNL     1     -14.421 117.552  24.591  1.00  0.00     0.017 C 
ATOM      2  C   UNL     1     -14.205 116.335  25.555  1.00  0.00     0.014 C 
ATOM      3  C   UNL     1     -15.934 117.676  24.225  1.00  0.00     0.014 C 
ATOM      4  C   UNL     1     -13.669 117.348  23.235  1.00  0.00     0.030 C 
ATOM      5  C   UNL     1     -13.516 115.134  24.899  1.00  0.00     0.004 C 
ATOM      6  C   UNL     1     -16.240 118.797  23.186  1.00  0.00     0.013 C 
ATOM      7  C   UNL     1     -13.920 118.576  22.348  1.00  0.00    -0.063 C 
ATOM      8  C   UNL     1     -12.207 116.829  23.396  1.00  0.00    -0.003 C 
ATOM      9  C   UNL     1     -12.162 115.506  24.244  1.00  0.00    -0.011 C 
ATOM     10  C   UNL     1     -15.367 118.777  21.871  1.00  0.00    -0.006 C 
ATOM     11  C   UNL     1     -13.042 119.588  22.376  1.00  0.00    -0.027 C 
ATOM     12  C   UNL     1     -11.555 116.588  22.019  1.00  0.00     0.008 C 
ATOM     13  C   UNL     1     -11.040 115.563  25.296  1.00  0.00     0.008 C 
ATOM     14  C   UNL     1     -15.779 117.527  21.020  1.00  0.00     0.017 C 
ATOM     15  C   UNL     1     -15.581 120.131  20.993  1.00  0.00    -0.020 C 
ATOM     16  C   UNL     1     -13.281 120.936  21.793  1.00  0.00     0.032 C 
ATOM     17  C   UNL     1     -14.775 121.355  21.598  1.00  0.00     0.006 C 
ATOM     18  C   UNL     1     -15.063 119.951  19.537  1.00  0.00     0.008 C 
ATOM     19  C   UNL     1     -17.121 120.415  20.945  1.00  0.00     0.012 C 
ATOM     20  C   UNL     1     -14.844 122.751  20.786  1.00  0.00    -0.025 C 
ATOM     21  C   UNL     1     -15.174 121.211  18.662  1.00  0.00     0.005 C 
ATOM     22  C   UNL     1     -14.563 122.528  19.235  1.00  0.00     0.003 C 
ATOM     23  C   UNL     1     -16.198 123.501  21.031  1.00  0.00     0.010 C 
ATOM     24  C   UNL     1     -13.753 123.701  21.404  1.00  0.00     0.012 C 
ATOM     25  C   UNL     1     -14.871 123.790  18.296  1.00  0.00    -0.006 C 
ATOM     26  C   UNL     1     -16.411 124.753  20.163  1.00  0.00     0.033 C 
ATOM     27  C   UNL     1     -16.228 124.491  18.656  1.00  0.00     0.120 C 
ATOM     28  C   UNL     1     -13.723 124.840  18.394  1.00  0.00     0.014 C 
ATOM     29  C   UNL     1     -14.904 123.396  16.788  1.00  0.00     0.014 C 
ENDROOT
BRANCH   1  30
ATOM     30  C   UNL     1     -13.965 118.811  25.336  1.00  0.00     0.048 C 
ATOM     31  O   UNL     1     -14.800 119.693  25.681  1.00  0.00    -0.550 OA
ATOM     32  O   UNL     1     -12.655 118.944  25.771  1.00  0.00    -0.550 OA
ENDBRANCH   1  30
BRANCH  27  33
ATOM     33  O   UNL     1     -17.347 123.826  18.119  1.00  0.00    -0.393 OA
ATOM     34  H   UNL     1     -17.035 123.157  17.465  1.00  0.00     0.210 HD
ENDBRANCH  27  33
TORSDOF 2
ENDMDL
MODEL 7
REMARK VINA RESULT:    -7.042      3.809      6.318
REMARK INTER + INTRA:          -7.537
REMARK INTER:                  -7.583
REMARK INTRA:                   0.047
REMARK UNBOUND:                 0.123
REMARK SMILES C[C@@H]1[C@@H](C)CC[C@]2(C(=O)[O-])CC[C@]3(C)C(=CC[C@H]4[C@]5(C)CC[C@H](O)C(C)(C)[C@@H]5CC[C@]43C)[C@@H]12
REMARK SMILES IDX 7 1 6 2 11 3 33 4 5 5 12 6 15 7 2 8 3 9 13 10 16 11 1 12
REMARK SMILES IDX 4 13 14 14 31 15 17 16 18 17 30 18 32 19 19 20 29 21 28 22
REMARK SMILES IDX 21 23 20 24 25 25 22 26 23 27 26 28 27 29 8 30 9 31 10 32
REMARK SMILES IDX 24 33
REMARK H PARENT 24 34
REMARK Flexibility Score: inf
ROOT
ATOM      1  C   UNL     1     -22.151 116.613  23.791  1.00  0.00     0.017 C 
ATOM      2  C   UNL     1     -21.846 116.446  25.319  1.00  0.00     0.014 C 
ATOM      3  C   UNL     1     -22.352 118.124  23.452  1.00  0.00     0.014 C 
ATOM      4  C   UNL     1     -23.487 115.905  23.393  1.00  0.00     0.030 C 
ATOM      5  C   UNL     1     -23.003 115.842  26.123  1.00  0.00     0.004 C 
ATOM      6  C   UNL     1     -22.762 118.388  21.972  1.00  0.00     0.013 C 
ATOM      7  C   UNL     1     -23.716 116.105  21.887  1.00  0.00    -0.063 C 
ATOM      8  C   UNL     1     -23.645 114.472  23.988  1.00  0.00    -0.003 C 
ATOM      9  C   UNL     1     -23.484 114.485  25.553  1.00  0.00    -0.011 C 
ATOM     10  C   UNL     1     -23.985 117.549  21.433  1.00  0.00    -0.006 C 
ATOM     11  C   UNL     1     -23.279 115.169  21.034  1.00  0.00    -0.027 C 
ATOM     12  C   UNL     1     -25.013 113.868  23.611  1.00  0.00     0.008 C 
ATOM     13  C   UNL     1     -22.572 113.337  26.021  1.00  0.00     0.008 C 
ATOM     14  C   UNL     1     -25.286 118.052  22.148  1.00  0.00     0.017 C 
ATOM     15  C   UNL     1     -24.152 117.703  19.822  1.00  0.00    -0.020 C 
ATOM     16  C   UNL     1     -23.184 115.343  19.560  1.00  0.00     0.032 C 
ATOM     17  C   UNL     1     -23.100 116.814  19.036  1.00  0.00     0.006 C 
ATOM     18  C   UNL     1     -25.556 117.231  19.348  1.00  0.00     0.008 C 
ATOM     19  C   UNL     1     -23.994 119.225  19.483  1.00  0.00     0.012 C 
ATOM     20  C   UNL     1     -23.195 116.821  17.423  1.00  0.00    -0.025 C 
ATOM     21  C   UNL     1     -25.766 117.289  17.826  1.00  0.00     0.005 C 
ATOM     22  C   UNL     1     -24.692 116.589  16.934  1.00  0.00     0.003 C 
ATOM     23  C   UNL     1     -22.577 118.124  16.807  1.00  0.00     0.010 C 
ATOM     24  C   UNL     1     -22.269 115.663  16.898  1.00  0.00     0.012 C 
ATOM     25  C   UNL     1     -24.950 116.845  15.373  1.00  0.00    -0.006 C 
ATOM     26  C   UNL     1     -22.780 118.284  15.291  1.00  0.00     0.033 C 
ATOM     27  C   UNL     1     -24.252 118.151  14.854  1.00  0.00     0.120 C 
ATOM     28  C   UNL     1     -24.445 115.636  14.528  1.00  0.00     0.014 C 
ATOM     29  C   UNL     1     -26.472 116.936  15.044  1.00  0.00     0.014 C 
ENDROOT
BRANCH   1  30
ATOM     30  C   UNL     1     -20.943 116.068  23.021  1.00  0.00     0.048 C 
ATOM     31  O   UNL     1     -20.152 116.850  22.427  1.00  0.00    -0.550 OA
ATOM     32  O   UNL     1     -20.612 114.722  23.080  1.00  0.00    -0.550 OA
ENDBRANCH   1  30
BRANCH  27  33
ATOM     33  O   UNL     1     -24.976 119.318  15.159  1.00  0.00    -0.393 OA
ATOM     34  H   UNL     1     -24.926 119.479  16.131  1.00  0.00     0.210 HD
ENDBRANCH  27  33
TORSDOF 2
ENDMDL
MODEL 8
REMARK VINA RESULT:    -6.997      7.606     11.331
REMARK INTER + INTRA:          -7.488
REMARK INTER:                  -7.513
REMARK INTRA:                   0.025
REMARK UNBOUND:                 0.123
REMARK SMILES C[C@@H]1[C@@H](C)CC[C@]2(C(=O)[O-])CC[C@]3(C)C(=CC[C@H]4[C@]5(C)CC[C@H](O)C(C)(C)[C@@H]5CC[C@]43C)[C@@H]12
REMARK SMILES IDX 7 1 6 2 11 3 33 4 5 5 12 6 15 7 2 8 3 9 13 10 16 11 1 12
REMARK SMILES IDX 4 13 14 14 31 15 17 16 18 17 30 18 32 19 19 20 29 21 28 22
REMARK SMILES IDX 21 23 20 24 25 25 22 26 23 27 26 28 27 29 8 30 9 31 10 32
REMARK SMILES IDX 24 33
REMARK H PARENT 24 34
REMARK Flexibility Score: inf
ROOT
ATOM      1  C   UNL     1     -21.185 115.160   9.383  1.00  0.00     0.017 C 
ATOM      2  C   UNL     1     -21.099 115.529   7.862  1.00  0.00     0.014 C 
ATOM      3  C   UNL     1     -20.102 114.090   9.731  1.00  0.00     0.014 C 
ATOM      4  C   UNL     1     -22.560 114.506   9.736  1.00  0.00     0.030 C 
ATOM      5  C   UNL     1     -22.254 114.977   7.020  1.00  0.00     0.004 C 
ATOM      6  C   UNL     1     -20.172 113.580  11.202  1.00  0.00     0.013 C 
ATOM      7  C   UNL     1     -22.574 114.179  11.236  1.00  0.00    -0.063 C 
ATOM      8  C   UNL     1     -23.788 115.246   9.122  1.00  0.00    -0.003 C 
ATOM      9  C   UNL     1     -23.643 115.394   7.563  1.00  0.00    -0.011 C 
ATOM     10  C   UNL     1     -21.589 113.093  11.697  1.00  0.00    -0.006 C 
ATOM     11  C   UNL     1     -23.084 115.075  12.092  1.00  0.00    -0.027 C 
ATOM     12  C   UNL     1     -25.099 114.505   9.455  1.00  0.00     0.008 C 
ATOM     13  C   UNL     1     -24.007 116.818   7.108  1.00  0.00     0.008 C 
ATOM     14  C   UNL     1     -21.946 111.761  10.952  1.00  0.00     0.017 C 
ATOM     15  C   UNL     1     -21.605 112.840  13.305  1.00  0.00    -0.020 C 
ATOM     16  C   UNL     1     -22.925 115.023  13.570  1.00  0.00     0.032 C 
ATOM     17  C   UNL     1     -21.709 114.202  14.111  1.00  0.00     0.006 C 
ATOM     18  C   UNL     1     -22.835 111.990  13.735  1.00  0.00     0.008 C 
ATOM     19  C   UNL     1     -20.299 112.051  13.664  1.00  0.00     0.012 C 
ATOM     20  C   UNL     1     -21.800 114.095  15.721  1.00  0.00    -0.025 C 
ATOM     21  C   UNL     1     -22.951 111.762  15.251  1.00  0.00     0.005 C 
ATOM     22  C   UNL     1     -22.893 113.026  16.165  1.00  0.00     0.003 C 
ATOM     23  C   UNL     1     -20.402 113.802  16.367  1.00  0.00     0.010 C 
ATOM     24  C   UNL     1     -22.187 115.521  16.259  1.00  0.00     0.012 C 
ATOM     25  C   UNL     1     -22.880 112.641  17.721  1.00  0.00    -0.006 C 
ATOM     26  C   UNL     1     -20.433 113.519  17.878  1.00  0.00     0.033 C 
ATOM     27  C   UNL     1     -21.429 112.412  18.272  1.00  0.00     0.120 C 
ATOM     28  C   UNL     1     -23.568 113.754  18.567  1.00  0.00     0.014 C 
ATOM     29  C   UNL     1     -23.725 111.362  18.008  1.00  0.00     0.014 C 
ENDROOT
BRANCH   1  30
ATOM     30  C   UNL     1     -20.919 116.442  10.180  1.00  0.00     0.048 C 
ATOM     31  O   UNL     1     -19.895 116.546  10.910  1.00  0.00    -0.550 OA
ATOM     32  O   UNL     1     -21.716 117.564  10.007  1.00  0.00    -0.550 OA
ENDBRANCH   1  30
BRANCH  27  33
ATOM     33  O   UNL     1     -20.919 111.138  17.959  1.00  0.00    -0.393 OA
ATOM     34  H   UNL     1     -21.617 110.622  17.491  1.00  0.00     0.210 HD
ENDBRANCH  27  33
TORSDOF 2
ENDMDL
MODEL 9
REMARK VINA RESULT:    -6.971      5.911     10.716
REMARK INTER + INTRA:          -7.459
REMARK INTER:                  -7.503
REMARK INTRA:                   0.044
REMARK UNBOUND:                 0.123
REMARK SMILES C[C@@H]1[C@@H](C)CC[C@]2(C(=O)[O-])CC[C@]3(C)C(=CC[C@H]4[C@]5(C)CC[C@H](O)C(C)(C)[C@@H]5CC[C@]43C)[C@@H]12
REMARK SMILES IDX 7 1 6 2 11 3 33 4 5 5 12 6 15 7 2 8 3 9 13 10 16 11 1 12
REMARK SMILES IDX 4 13 14 14 31 15 17 16 18 17 30 18 32 19 19 20 29 21 28 22
REMARK SMILES IDX 21 23 20 24 25 25 22 26 23 27 26 28 27 29 8 30 9 31 10 32
REMARK SMILES IDX 24 33
REMARK H PARENT 24 34
REMARK Flexibility Score: inf
ROOT
ATOM      1  C   UNL     1     -13.843 115.426  21.829  1.00  0.00     0.017 C 
ATOM      2  C   UNL     1     -12.326 115.081  22.023  1.00  0.00     0.014 C 
ATOM      3  C   UNL     1     -14.207 115.378  20.310  1.00  0.00     0.014 C 
ATOM      4  C   UNL     1     -14.164 116.882  22.300  1.00  0.00     0.030 C 
ATOM      5  C   UNL     1     -11.458 116.284  22.404  1.00  0.00     0.004 C 
ATOM      6  C   UNL     1     -15.673 115.808  20.002  1.00  0.00     0.013 C 
ATOM      7  C   UNL     1     -15.661 117.145  22.086  1.00  0.00    -0.063 C 
ATOM      8  C   UNL     1     -13.528 117.255  23.674  1.00  0.00    -0.003 C 
ATOM      9  C   UNL     1     -11.973 117.019  23.666  1.00  0.00    -0.011 C 
ATOM     10  C   UNL     1     -16.137 117.182  20.624  1.00  0.00    -0.006 C 
ATOM     11  C   UNL     1     -16.511 116.917  23.096  1.00  0.00    -0.027 C 
ATOM     12  C   UNL     1     -13.830 118.724  24.038  1.00  0.00     0.008 C 
ATOM     13  C   UNL     1     -11.519 116.297  24.947  1.00  0.00     0.008 C 
ATOM     14  C   UNL     1     -15.376 118.341  19.893  1.00  0.00     0.017 C 
ATOM     15  C   UNL     1     -17.742 117.397  20.468  1.00  0.00    -0.020 C 
ATOM     16  C   UNL     1     -17.992 116.865  22.964  1.00  0.00     0.032 C 
ATOM     17  C   UNL     1     -18.554 116.554  21.538  1.00  0.00     0.006 C 
ATOM     18  C   UNL     1     -18.141 118.883  20.697  1.00  0.00     0.008 C 
ATOM     19  C   UNL     1     -18.123 116.996  19.002  1.00  0.00     0.012 C 
ATOM     20  C   UNL     1     -20.161 116.725  21.539  1.00  0.00    -0.025 C 
ATOM     21  C   UNL     1     -19.653 119.154  20.626  1.00  0.00     0.005 C 
ATOM     22  C   UNL     1     -20.576 118.261  21.515  1.00  0.00     0.003 C 
ATOM     23  C   UNL     1     -20.833 115.921  20.373  1.00  0.00     0.010 C 
ATOM     24  C   UNL     1     -20.699 116.038  22.848  1.00  0.00     0.012 C 
ATOM     25  C   UNL     1     -22.130 118.546  21.242  1.00  0.00    -0.006 C 
ATOM     26  C   UNL     1     -22.342 116.166  20.204  1.00  0.00     0.033 C 
ATOM     27  C   UNL     1     -22.710 117.658  20.085  1.00  0.00     0.120 C 
ATOM     28  C   UNL     1     -22.968 118.299  22.533  1.00  0.00     0.014 C 
ATOM     29  C   UNL     1     -22.391 120.043  20.894  1.00  0.00     0.014 C 
ENDROOT
BRANCH   1  30
ATOM     30  C   UNL     1     -14.653 114.368  22.587  1.00  0.00     0.048 C 
ATOM     31  O   UNL     1     -15.499 113.652  21.985  1.00  0.00    -0.550 OA
ATOM     32  O   UNL     1     -14.374 114.077  23.914  1.00  0.00    -0.550 OA
ENDBRANCH   1  30
BRANCH  27  33
ATOM     33  O   UNL     1     -22.400 118.155  18.806  1.00  0.00    -0.393 OA
ATOM     34  H   UNL     1     -21.440 118.380  18.776  1.00  0.00     0.210 HD
ENDBRANCH  27  33
TORSDOF 2
ENDMDL
