MODEL 1
REMARK VINA RESULT:    -3.997      0.000      0.000
REMARK INTER + INTRA:          -5.525
REMARK INTER:                  -6.100
REMARK INTRA:                   0.575
REMARK UNBOUND:                 0.575
REMARK SMILES CC1=CCC[C@@H](C)C(=O)C[C@@H](C(C)C)C(=O)C1
REMARK SMILES IDX 8 1 9 2 6 3 7 4 5 5 4 6 3 7 2 8 1 9 10 11 11 12 15 13 16 14
REMARK SMILES IDX 17 15 12 17 13 18 14 19
REMARK H PARENT
REMARK Flexibility Score: 70.00
ROOT
ATOM      1  C   UNL     1      -7.994  -0.386   7.103  1.00  0.00     0.136 C 
ATOM      2  O   UNL     1      -9.083   0.125   7.323  1.00  0.00    -0.299 OA
ENDROOT
BRANCH   1   3
ATOM      3  C   UNL     1      -7.932  -1.513   6.085  1.00  0.00     0.053 C 
ATOM      4  C   UNL     1      -9.181  -1.617   5.193  1.00  0.00     0.016 C 
BRANCH   3   5
ATOM      5  C   UNL     1      -7.524  -2.856   6.731  1.00  0.00     0.015 C 
BRANCH   5   6
ATOM      6  C   UNL     1      -6.063  -3.266   6.466  1.00  0.00     0.028 C 
BRANCH   6   7
ATOM      7  C   UNL     1      -5.389  -3.860   7.678  1.00  0.00    -0.028 C 
ATOM      8  C   UNL     1      -4.858  -3.153   8.707  1.00  0.00    -0.070 CG0
ATOM      9  C   UNL     1      -4.301  -3.928   9.875  1.00  0.00     0.039 C 
ATOM     10  G   UNL     1      -4.765  -1.631   8.727  1.00  0.00     0.000 G0
ENDBRANCH   6   7
ENDBRANCH   5   6
ENDBRANCH   3   5
ENDBRANCH   1   3
BRANCH   1  11
ATOM     11  C   UNL     1      -6.796   0.125   7.882  1.00  0.00     0.087 C 
BRANCH  11  12
ATOM     12  C   UNL     1      -6.875  -0.245   9.390  1.00  0.00     0.066 C 
BRANCH  12  13
ATOM     13  C   UNL     1      -5.607  -0.985   9.789  1.00  0.00     0.140 C 
ATOM     14  O   UNL     1      -5.270  -1.030  10.965  1.00  0.00    -0.299 OA
BRANCH  13  15
ATOM     15  C   UNL     1      -4.748  -1.641   8.737  1.00  0.00     0.106 CG0
ATOM     16  G   UNL     1      -4.857  -3.161   8.718  1.00  0.00     0.000 G0
ENDBRANCH  13  15
ENDBRANCH  12  13
BRANCH  12  17
ATOM     17  C   UNL     1      -8.152  -1.073   9.758  1.00  0.00    -0.006 C 
ATOM     18  C   UNL     1      -9.133  -0.284  10.646  1.00  0.00     0.008 C 
ATOM     19  C   UNL     1      -7.773  -2.379  10.487  1.00  0.00     0.008 C 
ENDBRANCH  12  17
ENDBRANCH  11  12
ENDBRANCH   1  11
TORSDOF 1
ENDMDL
MODEL 2
REMARK VINA RESULT:    -3.394      1.663      3.786
REMARK INTER + INTRA:          -4.605
REMARK INTER:                  -5.462
REMARK INTRA:                   0.858
REMARK UNBOUND:                 0.575
REMARK SMILES CC1=CCC[C@@H](C)C(=O)C[C@@H](C(C)C)C(=O)C1
REMARK SMILES IDX 8 1 9 2 6 3 7 4 5 5 4 6 3 7 2 8 1 9 10 11 11 12 15 13 16 14
REMARK SMILES IDX 17 15 12 17 13 18 14 19
REMARK H PARENT
REMARK Flexibility Score: 70.00
ROOT
ATOM      1  C   UNL     1      -7.593  -1.035   6.749  1.00  0.00     0.136 C 
ATOM      2  O   UNL     1      -7.018   0.039   6.856  1.00  0.00    -0.299 OA
ENDROOT
BRANCH   1   3
ATOM      3  C   UNL     1      -9.108  -1.043   6.867  1.00  0.00     0.053 C 
ATOM      4  C   UNL     1      -9.840  -1.031   5.515  1.00  0.00     0.016 C 
BRANCH   3   5
ATOM      5  C   UNL     1      -9.619   0.033   7.852  1.00  0.00     0.015 C 
BRANCH   5   6
ATOM      6  C   UNL     1      -9.598  -0.403   9.330  1.00  0.00     0.028 C 
BRANCH   6   7
ATOM      7  C   UNL     1      -8.400   0.122  10.081  1.00  0.00    -0.028 C 
ATOM      8  C   UNL     1      -7.295  -0.599  10.399  1.00  0.00    -0.070 CG0
ATOM      9  C   UNL     1      -6.160   0.124  11.081  1.00  0.00     0.039 C 
ATOM     10  G   UNL     1      -7.158  -2.094  10.138  1.00  0.00     0.000 G0
ENDBRANCH   6   7
ENDBRANCH   5   6
ENDBRANCH   3   5
ENDBRANCH   1   3
BRANCH   1  11
ATOM     11  C   UNL     1      -6.749  -2.277   6.533  1.00  0.00     0.087 C 
BRANCH  11  12
ATOM     12  C   UNL     1      -6.729  -3.198   7.786  1.00  0.00     0.066 C 
BRANCH  12  13
ATOM     13  C   UNL     1      -6.215  -2.406   8.979  1.00  0.00     0.140 C 
ATOM     14  O   UNL     1      -5.047  -2.040   9.013  1.00  0.00    -0.299 OA
BRANCH  13  15
ATOM     15  C   UNL     1      -7.133  -2.094  10.135  1.00  0.00     0.106 CG0
ATOM     16  G   UNL     1      -7.307  -0.601  10.391  1.00  0.00     0.000 G0
ENDBRANCH  13  15
ENDBRANCH  12  13
BRANCH  12  17
ATOM     17  C   UNL     1      -5.898  -4.509   7.578  1.00  0.00    -0.006 C 
ATOM     18  C   UNL     1      -4.488  -4.421   8.194  1.00  0.00     0.008 C 
ATOM     19  C   UNL     1      -5.757  -4.841   6.078  1.00  0.00     0.008 C 
ENDBRANCH  12  17
ENDBRANCH  11  12
ENDBRANCH   1  11
TORSDOF 1
ENDMDL
MODEL 3
REMARK VINA RESULT:    -3.261      1.504      2.407
REMARK INTER + INTRA:          -4.402
REMARK INTER:                  -4.886
REMARK INTRA:                   0.484
REMARK UNBOUND:                 0.575
REMARK SMILES CC1=CCC[C@@H](C)C(=O)C[C@@H](C(C)C)C(=O)C1
REMARK SMILES IDX 8 1 9 2 6 3 7 4 5 5 4 6 3 7 2 8 1 9 10 11 11 12 15 13 16 14
REMARK SMILES IDX 17 15 12 17 13 18 14 19
REMARK H PARENT
REMARK Flexibility Score: 70.00
ROOT
ATOM      1  C   UNL     1      -7.084  -2.898   6.742  1.00  0.00     0.136 C 
ATOM      2  O   UNL     1      -7.753  -2.508   5.796  1.00  0.00    -0.299 OA
ENDROOT
BRANCH   1   3
ATOM      3  C   UNL     1      -6.007  -3.936   6.470  1.00  0.00     0.053 C 
ATOM      4  C   UNL     1      -6.351  -4.906   5.327  1.00  0.00     0.016 C 
BRANCH   3   5
ATOM      5  C   UNL     1      -5.548  -4.649   7.762  1.00  0.00     0.015 C 
BRANCH   5   6
ATOM      6  C   UNL     1      -4.097  -4.334   8.175  1.00  0.00     0.028 C 
BRANCH   6   7
ATOM      7  C   UNL     1      -3.991  -3.778   9.574  1.00  0.00    -0.028 C 
ATOM      8  C   UNL     1      -4.239  -2.493   9.929  1.00  0.00    -0.070 CG0
ATOM      9  C   UNL     1      -4.161  -2.144  11.395  1.00  0.00     0.039 C 
ATOM     10  G   UNL     1      -4.555  -1.386   8.929  1.00  0.00     0.000 G0
ENDBRANCH   6   7
ENDBRANCH   5   6
ENDBRANCH   3   5
ENDBRANCH   1   3
BRANCH   1  11
ATOM     11  C   UNL     1      -7.396  -2.337   8.117  1.00  0.00     0.087 C 
BRANCH  11  12
ATOM     12  C   UNL     1      -7.030  -0.830   8.233  1.00  0.00     0.066 C 
BRANCH  12  13
ATOM     13  C   UNL     1      -5.872  -0.672   9.206  1.00  0.00     0.140 C 
ATOM     14  O   UNL     1      -5.992   0.047  10.189  1.00  0.00    -0.299 OA
BRANCH  13  15
ATOM     15  C   UNL     1      -4.563  -1.376   8.949  1.00  0.00     0.106 CG0
ATOM     16  G   UNL     1      -4.257  -2.484   9.951  1.00  0.00     0.000 G0
ENDBRANCH  13  15
ENDBRANCH  12  13
BRANCH  12  17
ATOM     17  C   UNL     1      -8.241   0.072   8.645  1.00  0.00    -0.006 C 
ATOM     18  C   UNL     1      -8.881  -0.368   9.976  1.00  0.00     0.008 C 
ATOM     19  C   UNL     1      -9.331   0.066   7.553  1.00  0.00     0.008 C 
ENDBRANCH  12  17
ENDBRANCH  11  12
ENDBRANCH   1  11
TORSDOF 1
ENDMDL
MODEL 4
REMARK VINA RESULT:    -3.197      1.766      4.120
REMARK INTER + INTRA:          -4.304
REMARK INTER:                  -5.757
REMARK INTRA:                   1.453
REMARK UNBOUND:                 0.575
REMARK SMILES CC1=CCC[C@@H](C)C(=O)C[C@@H](C(C)C)C(=O)C1
REMARK SMILES IDX 8 1 9 2 6 3 7 4 5 5 4 6 3 7 2 8 1 9 10 11 11 12 15 13 16 14
REMARK SMILES IDX 17 15 12 17 13 18 14 19
REMARK H PARENT
REMARK Flexibility Score: 70.00
ROOT
ATOM      1  C   UNL     1      -6.456  -3.518   9.839  1.00  0.00     0.136 C 
ATOM      2  O   UNL     1      -6.203  -3.754  11.012  1.00  0.00    -0.299 OA
ENDROOT
BRANCH   1   3
ATOM      3  C   UNL     1      -5.467  -4.000   8.790  1.00  0.00     0.053 C 
ATOM      4  C   UNL     1      -4.135  -3.232   8.789  1.00  0.00     0.016 C 
BRANCH   3   5
ATOM      5  C   UNL     1      -6.114  -4.110   7.391  1.00  0.00     0.015 C 
BRANCH   5   6
ATOM      6  C   UNL     1      -6.202  -2.774   6.629  1.00  0.00     0.028 C 
BRANCH   6   7
ATOM      7  C   UNL     1      -7.599  -2.458   6.154  1.00  0.00    -0.028 C 
ATOM      8  C   UNL     1      -8.294  -1.333   6.455  1.00  0.00    -0.070 CG0
ATOM      9  C   UNL     1      -9.650  -1.156   5.817  1.00  0.00     0.039 C 
ATOM     10  G   UNL     1      -7.797  -0.266   7.424  1.00  0.00     0.000 G0
ENDBRANCH   6   7
ENDBRANCH   5   6
ENDBRANCH   3   5
ENDBRANCH   1   3
BRANCH   1  11
ATOM     11  C   UNL     1      -7.720  -2.740   9.524  1.00  0.00     0.087 C 
BRANCH  11  12
ATOM     12  C   UNL     1      -7.583  -1.231   9.875  1.00  0.00     0.066 C 
BRANCH  12  13
ATOM     13  C   UNL     1      -8.334  -0.408   8.840  1.00  0.00     0.140 C 
ATOM     14  O   UNL     1      -9.396   0.124   9.134  1.00  0.00    -0.299 OA
BRANCH  13  15
ATOM     15  C   UNL     1      -7.788  -0.268   7.440  1.00  0.00     0.106 CG0
ATOM     16  G   UNL     1      -8.308  -1.324   6.472  1.00  0.00     0.000 G0
ENDBRANCH  13  15
ENDBRANCH  12  13
BRANCH  12  17
ATOM     17  C   UNL     1      -6.096  -0.758  10.003  1.00  0.00    -0.006 C 
ATOM     18  C   UNL     1      -5.844   0.059  11.285  1.00  0.00     0.008 C 
ATOM     19  C   UNL     1      -5.682   0.098   8.789  1.00  0.00     0.008 C 
ENDBRANCH  12  17
ENDBRANCH  11  12
ENDBRANCH   1  11
TORSDOF 1
ENDMDL
MODEL 5
REMARK VINA RESULT:    -3.142      1.915      3.781
REMARK INTER + INTRA:          -4.220
REMARK INTER:                  -4.782
REMARK INTRA:                   0.562
REMARK UNBOUND:                 0.575
REMARK SMILES CC1=CCC[C@@H](C)C(=O)C[C@@H](C(C)C)C(=O)C1
REMARK SMILES IDX 8 1 9 2 6 3 7 4 5 5 4 6 3 7 2 8 1 9 10 11 11 12 15 13 16 14
REMARK SMILES IDX 17 15 12 17 13 18 14 19
REMARK H PARENT
REMARK Flexibility Score: 70.00
ROOT
ATOM      1  C   UNL     1      -6.578  -2.674   6.794  1.00  0.00     0.136 C 
ATOM      2  O   UNL     1      -6.277  -3.698   6.196  1.00  0.00    -0.299 OA
ENDROOT
BRANCH   1   3
ATOM      3  C   UNL     1      -7.917  -2.032   6.470  1.00  0.00     0.053 C 
ATOM      4  C   UNL     1      -8.510  -2.472   5.120  1.00  0.00     0.016 C 
BRANCH   3   5
ATOM      5  C   UNL     1      -7.885  -0.498   6.656  1.00  0.00     0.015 C 
BRANCH   5   6
ATOM      6  C   UNL     1      -9.229   0.113   7.097  1.00  0.00     0.028 C 
BRANCH   6   7
ATOM      7  C   UNL     1      -9.489  -0.041   8.575  1.00  0.00    -0.028 C 
ATOM      8  C   UNL     1      -8.544   0.005   9.547  1.00  0.00    -0.070 CG0
ATOM      9  C   UNL     1      -9.009  -0.085  10.980  1.00  0.00     0.039 C 
ATOM     10  G   UNL     1      -7.049   0.108   9.268  1.00  0.00     0.000 G0
ENDBRANCH   6   7
ENDBRANCH   5   6
ENDBRANCH   3   5
ENDBRANCH   1   3
BRANCH   1  11
ATOM     11  C   UNL     1      -5.583  -2.111   7.791  1.00  0.00     0.087 C 
BRANCH  11  12
ATOM     12  C   UNL     1      -6.040  -2.324   9.261  1.00  0.00     0.066 C 
BRANCH  12  13
ATOM     13  C   UNL     1      -6.201  -0.970   9.935  1.00  0.00     0.140 C 
ATOM     14  O   UNL     1      -5.670  -0.758  11.018  1.00  0.00    -0.299 OA
BRANCH  13  15
ATOM     15  C   UNL     1      -7.036   0.106   9.287  1.00  0.00     0.106 CG0
ATOM     16  G   UNL     1      -8.532  -0.043   9.542  1.00  0.00     0.000 G0
ENDBRANCH  13  15
ENDBRANCH  12  13
BRANCH  12  17
ATOM     17  C   UNL     1      -5.081  -3.252  10.079  1.00  0.00    -0.006 C 
ATOM     18  C   UNL     1      -3.967  -3.867   9.209  1.00  0.00     0.008 C 
ATOM     19  C   UNL     1      -5.862  -4.398  10.754  1.00  0.00     0.008 C 
ENDBRANCH  12  17
ENDBRANCH  11  12
ENDBRANCH   1  11
TORSDOF 1
ENDMDL
MODEL 6
REMARK VINA RESULT:    -2.757      1.829      3.938
REMARK INTER + INTRA:          -3.632
REMARK INTER:                  -4.235
REMARK INTRA:                   0.604
REMARK UNBOUND:                 0.575
REMARK SMILES CC1=CCC[C@@H](C)C(=O)C[C@@H](C(C)C)C(=O)C1
REMARK SMILES IDX 8 1 9 2 6 3 7 4 5 5 4 6 3 7 2 8 1 9 10 11 11 12 15 13 16 14
REMARK SMILES IDX 17 15 12 17 13 18 14 19
REMARK H PARENT
REMARK Flexibility Score: 70.00
ROOT
ATOM      1  C   UNL     1      -6.253  -3.443  10.544  1.00  0.00     0.136 C 
ATOM      2  O   UNL     1      -7.171  -3.827  11.256  1.00  0.00    -0.299 OA
ENDROOT
BRANCH   1   3
ATOM      3  C   UNL     1      -5.106  -4.406  10.285  1.00  0.00     0.053 C 
ATOM      4  C   UNL     1      -4.919  -5.464  11.386  1.00  0.00     0.016 C 
BRANCH   3   5
ATOM      5  C   UNL     1      -3.800  -3.666   9.916  1.00  0.00     0.015 C 
BRANCH   5   6
ATOM      6  C   UNL     1      -3.372  -3.839   8.446  1.00  0.00     0.028 C 
BRANCH   6   7
ATOM      7  C   UNL     1      -4.443  -4.470   7.591  1.00  0.00    -0.028 C 
ATOM      8  C   UNL     1      -5.482  -3.811   7.020  1.00  0.00    -0.070 CG0
ATOM      9  C   UNL     1      -6.407  -4.601   6.127  1.00  0.00     0.039 C 
ATOM     10  G   UNL     1      -5.779  -2.335   7.260  1.00  0.00     0.000 G0
ENDBRANCH   6   7
ENDBRANCH   5   6
ENDBRANCH   3   5
ENDBRANCH   1   3
BRANCH   1  11
ATOM     11  C   UNL     1      -6.317  -2.028   9.999  1.00  0.00     0.087 C 
BRANCH  11  12
ATOM     12  C   UNL     1      -7.577  -1.796   9.118  1.00  0.00     0.066 C 
BRANCH  12  13
ATOM     13  C   UNL     1      -7.224  -2.059   7.662  1.00  0.00     0.140 C 
ATOM     14  O   UNL     1      -8.105  -2.083   6.813  1.00  0.00    -0.299 OA
BRANCH  13  15
ATOM     15  C   UNL     1      -5.792  -2.319   7.264  1.00  0.00     0.106 CG0
ATOM     16  G   UNL     1      -5.479  -3.793   7.035  1.00  0.00     0.000 G0
ENDBRANCH  13  15
ENDBRANCH  12  13
BRANCH  12  17
ATOM     17  C   UNL     1      -8.204  -0.373   9.298  1.00  0.00    -0.006 C 
ATOM     18  C   UNL     1      -8.143   0.120  10.757  1.00  0.00     0.008 C 
ATOM     19  C   UNL     1      -9.676  -0.354   8.837  1.00  0.00     0.008 C 
ENDBRANCH  12  17
ENDBRANCH  11  12
ENDBRANCH   1  11
TORSDOF 1
ENDMDL
MODEL 7
REMARK VINA RESULT:    -2.429      1.758      3.736
REMARK INTER + INTRA:          -3.132
REMARK INTER:                  -4.441
REMARK INTRA:                   1.308
REMARK UNBOUND:                 0.575
REMARK SMILES CC1=CCC[C@@H](C)C(=O)C[C@@H](C(C)C)C(=O)C1
REMARK SMILES IDX 8 1 9 2 6 3 7 4 5 5 4 6 3 7 2 8 1 9 10 11 11 12 15 13 16 14
REMARK SMILES IDX 17 15 12 17 13 18 14 19
REMARK H PARENT
REMARK Flexibility Score: 70.00
ROOT
ATOM      1  C   UNL     1      -6.474  -3.406   7.660  1.00  0.00     0.136 C 
ATOM      2  O   UNL     1      -5.800  -3.607   6.659  1.00  0.00    -0.299 OA
ENDROOT
BRANCH   1   3
ATOM      3  C   UNL     1      -6.019  -4.045   8.962  1.00  0.00     0.053 C 
ATOM      4  C   UNL     1      -6.833  -3.606  10.190  1.00  0.00     0.016 C 
BRANCH   3   5
ATOM      5  C   UNL     1      -4.491  -3.926   9.163  1.00  0.00     0.015 C 
BRANCH   5   6
ATOM      6  C   UNL     1      -3.960  -2.480   9.124  1.00  0.00     0.028 C 
BRANCH   6   7
ATOM      7  C   UNL     1      -4.480  -1.632  10.258  1.00  0.00    -0.028 C 
ATOM      8  C   UNL     1      -5.284  -0.547  10.123  1.00  0.00    -0.070 CG0
ATOM      9  C   UNL     1      -5.771   0.124  11.384  1.00  0.00     0.039 C 
ATOM     10  G   UNL     1      -5.686   0.043   8.777  1.00  0.00     0.000 G0
ENDBRANCH   6   7
ENDBRANCH   5   6
ENDBRANCH   3   5
ENDBRANCH   1   3
BRANCH   1  11
ATOM     11  C   UNL     1      -7.726  -2.560   7.519  1.00  0.00     0.087 C 
BRANCH  11  12
ATOM     12  C   UNL     1      -7.400  -1.090   7.130  1.00  0.00     0.066 C 
BRANCH  12  13
ATOM     13  C   UNL     1      -7.120  -0.291   8.393  1.00  0.00     0.140 C 
ATOM     14  O   UNL     1      -8.049   0.100   9.089  1.00  0.00    -0.299 OA
BRANCH  13  15
ATOM     15  C   UNL     1      -5.702   0.047   8.779  1.00  0.00     0.106 CG0
ATOM     16  G   UNL     1      -5.279  -0.530  10.125  1.00  0.00     0.000 G0
ENDBRANCH  13  15
ENDBRANCH  12  13
BRANCH  12  17
ATOM     17  C   UNL     1      -8.520  -0.415   6.270  1.00  0.00    -0.006 C 
ATOM     18  C   UNL     1      -9.745  -0.003   7.110  1.00  0.00     0.008 C 
ATOM     19  C   UNL     1      -8.994  -1.355   5.143  1.00  0.00     0.008 C 
ENDBRANCH  12  17
ENDBRANCH  11  12
ENDBRANCH   1  11
TORSDOF 1
ENDMDL
MODEL 8
REMARK VINA RESULT:    -2.355     20.795     21.665
REMARK INTER + INTRA:          -3.019
REMARK INTER:                  -3.513
REMARK INTRA:                   0.494
REMARK UNBOUND:                 0.575
REMARK SMILES CC1=CCC[C@@H](C)C(=O)C[C@@H](C(C)C)C(=O)C1
REMARK SMILES IDX 8 1 9 2 6 3 7 4 5 5 4 6 3 7 2 8 1 9 10 11 11 12 15 13 16 14
REMARK SMILES IDX 17 15 12 17 13 18 14 19
REMARK H PARENT
REMARK Flexibility Score: 70.00
ROOT
ATOM      1  C   UNL     1     -20.127 -17.831  16.118  1.00  0.00     0.136 C 
ATOM      2  O   UNL     1     -21.164 -18.213  16.641  1.00  0.00    -0.299 OA
ENDROOT
BRANCH   1   3
ATOM      3  C   UNL     1     -18.815 -18.367  16.669  1.00  0.00     0.053 C 
ATOM      4  C   UNL     1     -17.840 -17.272  17.133  1.00  0.00     0.016 C 
BRANCH   3   5
ATOM      5  C   UNL     1     -18.170 -19.405  15.724  1.00  0.00     0.015 C 
BRANCH   5   6
ATOM      6  C   UNL     1     -17.079 -18.826  14.802  1.00  0.00     0.028 C 
BRANCH   6   7
ATOM      7  C   UNL     1     -17.179 -19.332  13.384  1.00  0.00    -0.028 C 
ATOM      8  C   UNL     1     -17.910 -18.759  12.395  1.00  0.00    -0.070 CG0
ATOM      9  C   UNL     1     -17.817 -19.363  11.016  1.00  0.00     0.039 C 
ATOM     10  G   UNL     1     -18.839 -17.570  12.613  1.00  0.00     0.000 G0
ENDBRANCH   6   7
ENDBRANCH   5   6
ENDBRANCH   3   5
ENDBRANCH   1   3
BRANCH   1  11
ATOM     11  C   UNL     1     -20.227 -16.832  14.981  1.00  0.00     0.087 C 
BRANCH  11  12
ATOM     12  C   UNL     1     -21.152 -17.337  13.837  1.00  0.00     0.066 C 
BRANCH  12  13
ATOM     13  C   UNL     1     -20.296 -17.910  12.719  1.00  0.00     0.140 C 
ATOM     14  O   UNL     1     -20.788 -18.681  11.905  1.00  0.00    -0.299 OA
BRANCH  13  15
ATOM     15  C   UNL     1     -18.833 -17.553  12.624  1.00  0.00     0.106 CG0
ATOM     16  G   UNL     1     -17.926 -18.753  12.378  1.00  0.00     0.000 G0
ENDBRANCH  13  15
ENDBRANCH  12  13
BRANCH  12  17
ATOM     17  C   UNL     1     -22.125 -16.235  13.297  1.00  0.00    -0.006 C 
ATOM     18  C   UNL     1     -21.817 -15.836  11.840  1.00  0.00     0.008 C 
ATOM     19  C   UNL     1     -22.066 -14.967  14.173  1.00  0.00     0.008 C 
ENDBRANCH  12  17
ENDBRANCH  11  12
ENDBRANCH   1  11
TORSDOF 1
ENDMDL
MODEL 9
REMARK VINA RESULT:    -2.341     20.790     21.877
REMARK INTER + INTRA:          -2.997
REMARK INTER:                  -3.133
REMARK INTRA:                   0.135
REMARK UNBOUND:                 0.575
REMARK SMILES CC1=CCC[C@@H](C)C(=O)C[C@@H](C(C)C)C(=O)C1
REMARK SMILES IDX 8 1 9 2 6 3 7 4 5 5 4 6 3 7 2 8 1 9 10 11 11 12 15 13 16 14
REMARK SMILES IDX 17 15 12 17 13 18 14 19
REMARK H PARENT
REMARK Flexibility Score: 70.00
ROOT
ATOM      1  C   UNL     1     -18.238 -17.937  15.098  1.00  0.00     0.136 C 
ATOM      2  O   UNL     1     -17.481 -17.272  15.792  1.00  0.00    -0.299 OA
ENDROOT
BRANCH   1   3
ATOM      3  C   UNL     1     -18.067 -19.447  15.110  1.00  0.00     0.053 C 
ATOM      4  C   UNL     1     -17.361 -19.985  16.365  1.00  0.00     0.016 C 
BRANCH   3   5
ATOM      5  C   UNL     1     -17.458 -19.972  13.790  1.00  0.00     0.015 C 
BRANCH   5   6
ATOM      6  C   UNL     1     -17.299 -18.898  12.697  1.00  0.00     0.028 C 
BRANCH   6   7
ATOM      7  C   UNL     1     -17.937 -19.292  11.387  1.00  0.00    -0.028 C 
ATOM      8  C   UNL     1     -19.058 -18.738  10.862  1.00  0.00    -0.070 CG0
ATOM      9  C   UNL     1     -19.497 -19.207   9.497  1.00  0.00     0.039 C 
ATOM     10  G   UNL     1     -19.908 -17.702  11.588  1.00  0.00     0.000 G0
ENDBRANCH   6   7
ENDBRANCH   5   6
ENDBRANCH   3   5
ENDBRANCH   1   3
BRANCH   1  11
ATOM     11  C   UNL     1     -19.269 -17.203  14.260  1.00  0.00     0.087 C 
BRANCH  11  12
ATOM     12  C   UNL     1     -20.585 -18.015  14.106  1.00  0.00     0.066 C 
BRANCH  12  13
ATOM     13  C   UNL     1     -20.850 -18.261  12.629  1.00  0.00     0.140 C 
ATOM     14  O   UNL     1     -21.808 -18.941  12.283  1.00  0.00    -0.299 OA
BRANCH  13  15
ATOM     15  C   UNL     1     -19.919 -17.693  11.586  1.00  0.00     0.106 CG0
ATOM     16  G   UNL     1     -19.083 -18.749  10.872  1.00  0.00     0.000 G0
ENDBRANCH  13  15
ENDBRANCH  12  13
BRANCH  12  17
ATOM     17  C   UNL     1     -21.816 -17.336  14.795  1.00  0.00    -0.006 C 
ATOM     18  C   UNL     1     -21.754 -15.797  14.733  1.00  0.00     0.008 C 
ATOM     19  C   UNL     1     -21.927 -17.761  16.273  1.00  0.00     0.008 C 
ENDBRANCH  12  17
ENDBRANCH  11  12
ENDBRANCH   1  11
TORSDOF 1
ENDMDL
