MODEL 1
REMARK VINA RESULT:    -6.087      0.000      0.000
REMARK INTER + INTRA:         -10.352
REMARK INTER:                  -8.399
REMARK INTRA:                  -1.953
REMARK UNBOUND:                -1.953
REMARK SMILES C=C(CC[C@H](C(=O)[O-])[C@H]1CC[C@@]2(C)C3=C(CC[C@@]12C)[C@]1(C)CC[C@H](O)C(C)(C)[C@H]1CC3)C(C)C
REMARK SMILES IDX 4 1 5 2 6 3 7 4 8 5 9 6 10 7 18 8 11 9 12 10 17 11 19 12
REMARK SMILES IDX 13 13 14 14 16 15 15 16 31 17 20 18 30 19 29 20 22 21 21 22
REMARK SMILES IDX 26 23 23 24 24 25 27 26 28 27 25 28 3 30 2 31 1 32 32 33
REMARK SMILES IDX 33 34 34 35
REMARK H PARENT 25 29
REMARK Flexibility Score: inf
ROOT
ATOM      1  C   UNL     1     130.184 146.004 119.854  1.00  0.00     0.014 C 
ENDROOT
BRANCH   1   2
ATOM      2  C   UNL     1     130.849 146.283 121.226  1.00  0.00     0.039 C 
BRANCH   2   3
ATOM      3  C   UNL     1     132.309 146.579 120.972  1.00  0.00     0.045 C 
ATOM      4  O   UNL     1     132.821 146.416 119.833  1.00  0.00    -0.550 OA
ATOM      5  O   UNL     1     133.082 147.125 121.992  1.00  0.00    -0.550 OA
ENDBRANCH   2   3
BRANCH   2   6
ATOM      6  C   UNL     1     130.555 145.164 122.290  1.00  0.00     0.004 C 
ATOM      7  C   UNL     1     131.725 144.250 122.638  1.00  0.00     0.006 C 
ATOM      8  C   UNL     1     129.825 145.518 123.631  1.00  0.00    -0.020 C 
ATOM      9  C   UNL     1     131.349 143.541 123.935  1.00  0.00     0.012 C 
ATOM     10  C   UNL     1     130.058 144.207 124.509  1.00  0.00    -0.006 C 
ATOM     11  C   UNL     1     130.373 146.788 124.363  1.00  0.00     0.012 C 
ATOM     12  C   UNL     1     128.326 145.820 123.334  1.00  0.00     0.012 C 
ATOM     13  C   UNL     1     128.895 143.181 124.320  1.00  0.00     0.017 C 
ATOM     14  C   UNL     1     130.307 144.517 126.015  1.00  0.00    -0.064 C 
ATOM     15  C   UNL     1     131.580 146.497 125.245  1.00  0.00     0.032 C 
ATOM     16  C   UNL     1     131.162 145.538 126.347  1.00  0.00    -0.064 C 
ATOM     17  C   UNL     1     129.786 143.543 127.072  1.00  0.00     0.032 C 
ATOM     18  C   UNL     1     131.544 145.875 127.806  1.00  0.00    -0.008 C 
ATOM     19  C   UNL     1     129.989 143.983 128.519  1.00  0.00     0.009 C 
ATOM     20  C   UNL     1     131.382 144.600 128.705  1.00  0.00     0.007 C 
ATOM     21  C   UNL     1     133.044 146.342 127.861  1.00  0.00     0.014 C 
ATOM     22  C   UNL     1     130.605 147.041 128.227  1.00  0.00     0.016 C 
ATOM     23  C   UNL     1     131.835 144.751 130.221  1.00  0.00    -0.006 C 
ATOM     24  C   UNL     1     133.826 145.936 129.127  1.00  0.00     0.033 C 
ATOM     25  C   UNL     1     132.931 145.867 130.369  1.00  0.00     0.120 C 
ATOM     26  C   UNL     1     132.413 143.381 130.688  1.00  0.00     0.014 C 
ATOM     27  C   UNL     1     130.656 145.087 131.175  1.00  0.00     0.014 C 
BRANCH  25  28
ATOM     28  O   UNL     1     133.723 145.645 131.510  1.00  0.00    -0.393 OA
ATOM     29  H   UNL     1     134.663 145.546 131.201  1.00  0.00     0.210 HD
ENDBRANCH  25  28
ENDBRANCH   2   6
ENDBRANCH   1   2
BRANCH   1  30
ATOM     30  C   UNL     1     130.158 144.516 119.454  1.00  0.00     0.031 C 
BRANCH  30  31
ATOM     31  C   UNL     1     128.733 144.001 119.376  1.00  0.00    -0.075 C 
ATOM     32  C   UNL     1     127.840 144.660 118.618  1.00  0.00     0.008 C 
BRANCH  31  33
ATOM     33  C   UNL     1     128.329 142.710 120.076  1.00  0.00     0.008 C 
ATOM     34  C   UNL     1     129.556 141.997 120.660  1.00  0.00     0.012 C 
ATOM     35  C   UNL     1     127.273 142.968 121.160  1.00  0.00     0.012 C 
ENDBRANCH  31  33
ENDBRANCH  30  31
ENDBRANCH   1  30
TORSDOF 7
ENDMDL
MODEL 2
REMARK VINA RESULT:    -6.022      7.461     11.190
REMARK INTER + INTRA:         -10.264
REMARK INTER:                  -9.433
REMARK INTRA:                  -0.830
REMARK UNBOUND:                -1.953
REMARK SMILES C=C(CC[C@H](C(=O)[O-])[C@H]1CC[C@@]2(C)C3=C(CC[C@@]12C)[C@]1(C)CC[C@H](O)C(C)(C)[C@H]1CC3)C(C)C
REMARK SMILES IDX 4 1 5 2 6 3 7 4 8 5 9 6 10 7 18 8 11 9 12 10 17 11 19 12
REMARK SMILES IDX 13 13 14 14 16 15 15 16 31 17 20 18 30 19 29 20 22 21 21 22
REMARK SMILES IDX 26 23 23 24 24 25 27 26 28 27 25 28 3 30 2 31 1 32 32 33
REMARK SMILES IDX 33 34 34 35
REMARK H PARENT 25 29
REMARK Flexibility Score: inf
ROOT
ATOM      1  C   UNL     1     128.541 141.529 120.499  1.00  0.00     0.014 C 
ENDROOT
BRANCH   1   2
ATOM      2  C   UNL     1     128.398 140.144 121.180  1.00  0.00     0.039 C 
BRANCH   2   3
ATOM      3  C   UNL     1     128.817 140.300 122.623  1.00  0.00     0.045 C 
ATOM      4  O   UNL     1     128.666 139.363 123.452  1.00  0.00    -0.550 OA
ATOM      5  O   UNL     1     129.461 141.466 123.025  1.00  0.00    -0.550 OA
ENDBRANCH   2   3
BRANCH   2   6
ATOM      6  C   UNL     1     129.110 138.992 120.384  1.00  0.00     0.004 C 
ATOM      7  C   UNL     1     130.435 138.503 120.959  1.00  0.00     0.006 C 
ATOM      8  C   UNL     1     128.304 137.725 119.931  1.00  0.00    -0.020 C 
ATOM      9  C   UNL     1     130.728 137.163 120.294  1.00  0.00     0.012 C 
ATOM     10  C   UNL     1     129.460 136.715 119.498  1.00  0.00    -0.006 C 
ATOM     11  C   UNL     1     127.393 137.095 121.036  1.00  0.00     0.012 C 
ATOM     12  C   UNL     1     127.343 138.119 118.769  1.00  0.00     0.012 C 
ATOM     13  C   UNL     1     129.802 136.857 117.981  1.00  0.00     0.017 C 
ATOM     14  C   UNL     1     129.152 135.237 119.879  1.00  0.00    -0.064 C 
ATOM     15  C   UNL     1     128.140 136.135 121.952  1.00  0.00     0.032 C 
ATOM     16  C   UNL     1     128.649 134.966 121.126  1.00  0.00    -0.064 C 
ATOM     17  C   UNL     1     129.629 134.115 118.955  1.00  0.00     0.032 C 
ATOM     18  C   UNL     1     128.388 133.531 121.635  1.00  0.00    -0.008 C 
ATOM     19  C   UNL     1     129.193 132.710 119.358  1.00  0.00     0.009 C 
ATOM     20  C   UNL     1     129.318 132.521 120.877  1.00  0.00     0.007 C 
ATOM     21  C   UNL     1     128.709 133.453 123.173  1.00  0.00     0.014 C 
ATOM     22  C   UNL     1     126.875 133.267 121.391  1.00  0.00     0.016 C 
ATOM     23  C   UNL     1     129.246 131.007 121.358  1.00  0.00    -0.006 C 
ATOM     24  C   UNL     1     129.306 132.119 123.665  1.00  0.00     0.033 C 
ATOM     25  C   UNL     1     128.798 130.918 122.860  1.00  0.00     0.120 C 
ATOM     26  C   UNL     1     130.665 130.385 121.195  1.00  0.00     0.014 C 
ATOM     27  C   UNL     1     128.278 130.145 120.501  1.00  0.00     0.014 C 
BRANCH  25  28
ATOM     28  O   UNL     1     129.254 129.726 123.451  1.00  0.00    -0.393 OA
ATOM     29  H   UNL     1     128.725 128.981 123.058  1.00  0.00     0.210 HD
ENDBRANCH  25  28
ENDBRANCH   2   6
ENDBRANCH   1   2
BRANCH   1  30
ATOM     30  C   UNL     1     127.250 142.371 120.500  1.00  0.00     0.031 C 
BRANCH  30  31
ATOM     31  C   UNL     1     127.541 143.810 120.118  1.00  0.00    -0.075 C 
ATOM     32  C   UNL     1     127.994 144.079 118.882  1.00  0.00     0.008 C 
BRANCH  31  33
ATOM     33  C   UNL     1     127.251 144.950 121.086  1.00  0.00     0.008 C 
ATOM     34  C   UNL     1     128.256 144.952 122.245  1.00  0.00     0.012 C 
ATOM     35  C   UNL     1     127.236 146.306 120.366  1.00  0.00     0.012 C 
ENDBRANCH  31  33
ENDBRANCH  30  31
ENDBRANCH   1  30
TORSDOF 7
ENDMDL
MODEL 3
REMARK VINA RESULT:    -5.971      2.446      9.442
REMARK INTER + INTRA:         -10.193
REMARK INTER:                  -8.201
REMARK INTRA:                  -1.992
REMARK UNBOUND:                -1.953
REMARK SMILES C=C(CC[C@H](C(=O)[O-])[C@H]1CC[C@@]2(C)C3=C(CC[C@@]12C)[C@]1(C)CC[C@H](O)C(C)(C)[C@H]1CC3)C(C)C
REMARK SMILES IDX 4 1 5 2 6 3 7 4 8 5 9 6 10 7 18 8 11 9 12 10 17 11 19 12
REMARK SMILES IDX 13 13 14 14 16 15 15 16 31 17 20 18 30 19 29 20 22 21 21 22
REMARK SMILES IDX 26 23 23 24 24 25 27 26 28 27 25 28 3 30 2 31 1 32 32 33
REMARK SMILES IDX 33 34 34 35
REMARK H PARENT 25 29
REMARK Flexibility Score: inf
ROOT
ATOM      1  C   UNL     1     131.827 145.191 133.940  1.00  0.00     0.014 C 
ENDROOT
BRANCH   1   2
ATOM      2  C   UNL     1     132.023 145.371 132.413  1.00  0.00     0.039 C 
BRANCH   2   3
ATOM      3  C   UNL     1     133.111 146.399 132.210  1.00  0.00     0.045 C 
ATOM      4  O   UNL     1     133.510 147.123 133.161  1.00  0.00    -0.550 OA
ATOM      5  O   UNL     1     133.746 146.489 130.976  1.00  0.00    -0.550 OA
ENDBRANCH   2   3
BRANCH   2   6
ATOM      6  C   UNL     1     130.677 145.644 131.648  1.00  0.00     0.004 C 
ATOM      7  C   UNL     1     130.488 147.059 131.113  1.00  0.00     0.006 C 
ATOM      8  C   UNL     1     130.182 144.655 130.536  1.00  0.00    -0.020 C 
ATOM      9  C   UNL     1     129.357 146.989 130.094  1.00  0.00     0.012 C 
ATOM     10  C   UNL     1     129.022 145.486 129.825  1.00  0.00    -0.006 C 
ATOM     11  C   UNL     1     131.277 144.224 129.504  1.00  0.00     0.012 C 
ATOM     12  C   UNL     1     129.694 143.335 131.205  1.00  0.00     0.012 C 
ATOM     13  C   UNL     1     127.634 145.205 130.483  1.00  0.00     0.017 C 
ATOM     14  C   UNL     1     128.976 145.273 128.283  1.00  0.00    -0.064 C 
ATOM     15  C   UNL     1     131.450 145.219 128.365  1.00  0.00     0.032 C 
ATOM     16  C   UNL     1     130.152 145.293 127.577  1.00  0.00    -0.064 C 
ATOM     17  C   UNL     1     127.624 145.282 127.570  1.00  0.00     0.032 C 
ATOM     18  C   UNL     1     130.213 145.176 126.038  1.00  0.00    -0.008 C 
ATOM     19  C   UNL     1     127.672 144.965 126.078  1.00  0.00     0.009 C 
ATOM     20  C   UNL     1     128.862 145.671 125.415  1.00  0.00     0.007 C 
ATOM     21  C   UNL     1     131.380 146.077 125.489  1.00  0.00     0.014 C 
ATOM     22  C   UNL     1     130.509 143.679 125.741  1.00  0.00     0.016 C 
ATOM     23  C   UNL     1     128.798 145.713 123.827  1.00  0.00    -0.006 C 
ATOM     24  C   UNL     1     131.123 146.746 124.124  1.00  0.00     0.033 C 
ATOM     25  C   UNL     1     130.232 145.894 123.213  1.00  0.00     0.120 C 
ATOM     26  C   UNL     1     127.894 146.914 123.414  1.00  0.00     0.014 C 
ATOM     27  C   UNL     1     128.155 144.438 123.213  1.00  0.00     0.014 C 
BRANCH  25  28
ATOM     28  O   UNL     1     130.163 146.481 121.936  1.00  0.00    -0.393 OA
ATOM     29  H   UNL     1     130.117 147.466 122.067  1.00  0.00     0.210 HD
ENDBRANCH  25  28
ENDBRANCH   2   6
ENDBRANCH   1   2
BRANCH   1  30
ATOM     30  C   UNL     1     130.602 145.930 134.511  1.00  0.00     0.031 C 
BRANCH  30  31
ATOM     31  C   UNL     1     129.451 144.970 134.747  1.00  0.00    -0.075 C 
ATOM     32  C   UNL     1     129.674 143.841 135.442  1.00  0.00     0.008 C 
BRANCH  31  33
ATOM     33  C   UNL     1     128.042 145.308 134.277  1.00  0.00     0.008 C 
ATOM     34  C   UNL     1     127.001 144.883 135.320  1.00  0.00     0.012 C 
ATOM     35  C   UNL     1     127.908 146.800 133.939  1.00  0.00     0.012 C 
ENDBRANCH  31  33
ENDBRANCH  30  31
ENDBRANCH   1  30
TORSDOF 7
ENDMDL
MODEL 4
REMARK VINA RESULT:    -5.820      3.849      8.118
REMARK INTER + INTRA:          -9.985
REMARK INTER:                  -8.997
REMARK INTRA:                  -0.988
REMARK UNBOUND:                -1.953
REMARK SMILES C=C(CC[C@H](C(=O)[O-])[C@H]1CC[C@@]2(C)C3=C(CC[C@@]12C)[C@]1(C)CC[C@H](O)C(C)(C)[C@H]1CC3)C(C)C
REMARK SMILES IDX 4 1 5 2 6 3 7 4 8 5 9 6 10 7 18 8 11 9 12 10 17 11 19 12
REMARK SMILES IDX 13 13 14 14 16 15 15 16 31 17 20 18 30 19 29 20 22 21 21 22
REMARK SMILES IDX 26 23 23 24 24 25 27 26 28 27 25 28 3 30 2 31 1 32 32 33
REMARK SMILES IDX 33 34 34 35
REMARK H PARENT 25 29
REMARK Flexibility Score: inf
ROOT
ATOM      1  C   UNL     1     132.942 145.211 121.906  1.00  0.00     0.014 C 
ENDROOT
BRANCH   1   2
ATOM      2  C   UNL     1     131.663 146.036 122.201  1.00  0.00     0.039 C 
BRANCH   2   3
ATOM      3  C   UNL     1     131.566 146.206 123.699  1.00  0.00     0.045 C 
ATOM      4  O   UNL     1     132.342 145.593 124.478  1.00  0.00    -0.550 OA
ATOM      5  O   UNL     1     130.661 147.123 124.225  1.00  0.00    -0.550 OA
ENDBRANCH   2   3
BRANCH   2   6
ATOM      6  C   UNL     1     130.383 145.459 121.495  1.00  0.00     0.004 C 
ATOM      7  C   UNL     1     130.517 145.163 120.006  1.00  0.00     0.006 C 
ATOM      8  C   UNL     1     129.595 144.266 122.139  1.00  0.00    -0.020 C 
ATOM      9  C   UNL     1     129.344 144.262 119.636  1.00  0.00     0.012 C 
ATOM     10  C   UNL     1     128.634 143.805 120.951  1.00  0.00    -0.006 C 
ATOM     11  C   UNL     1     130.486 143.077 122.631  1.00  0.00     0.012 C 
ATOM     12  C   UNL     1     128.837 144.773 123.402  1.00  0.00     0.012 C 
ATOM     13  C   UNL     1     127.262 144.548 121.008  1.00  0.00     0.017 C 
ATOM     14  C   UNL     1     128.445 142.261 120.883  1.00  0.00    -0.064 C 
ATOM     15  C   UNL     1     130.830 142.088 121.526  1.00  0.00     0.032 C 
ATOM     16  C   UNL     1     129.546 141.453 121.019  1.00  0.00    -0.064 C 
ATOM     17  C   UNL     1     127.096 141.695 120.439  1.00  0.00     0.032 C 
ATOM     18  C   UNL     1     129.484 139.916 120.884  1.00  0.00    -0.008 C 
ATOM     19  C   UNL     1     126.976 140.175 120.501  1.00  0.00     0.009 C 
ATOM     20  C   UNL     1     128.262 139.510 119.990  1.00  0.00     0.007 C 
ATOM     21  C   UNL     1     130.801 139.395 120.201  1.00  0.00     0.014 C 
ATOM     22  C   UNL     1     129.384 139.370 122.337  1.00  0.00     0.016 C 
ATOM     23  C   UNL     1     128.115 137.961 119.665  1.00  0.00    -0.006 C 
ATOM     24  C   UNL     1     130.637 138.178 119.270  1.00  0.00     0.033 C 
ATOM     25  C   UNL     1     129.510 137.243 119.723  1.00  0.00     0.120 C 
ATOM     26  C   UNL     1     127.512 137.825 118.235  1.00  0.00     0.014 C 
ATOM     27  C   UNL     1     127.142 137.229 120.633  1.00  0.00     0.014 C 
BRANCH  25  28
ATOM     28  O   UNL     1     129.511 136.081 118.929  1.00  0.00    -0.393 OA
ATOM     29  H   UNL     1     129.628 135.306 119.541  1.00  0.00     0.210 HD
ENDBRANCH  25  28
ENDBRANCH   2   6
ENDBRANCH   1   2
BRANCH   1  30
ATOM     30  C   UNL     1     134.032 145.987 121.141  1.00  0.00     0.031 C 
BRANCH  30  31
ATOM     31  C   UNL     1     134.264 145.384 119.768  1.00  0.00    -0.075 C 
ATOM     32  C   UNL     1     134.402 146.201 118.711  1.00  0.00     0.008 C 
BRANCH  31  33
ATOM     33  C   UNL     1     134.418 143.879 119.591  1.00  0.00     0.008 C 
ATOM     34  C   UNL     1     133.278 143.309 118.738  1.00  0.00     0.012 C 
ATOM     35  C   UNL     1     135.787 143.523 118.992  1.00  0.00     0.012 C 
ENDBRANCH  31  33
ENDBRANCH  30  31
ENDBRANCH   1  30
TORSDOF 7
ENDMDL
MODEL 5
REMARK VINA RESULT:    -5.736      5.184      9.276
REMARK INTER + INTRA:          -9.868
REMARK INTER:                  -8.655
REMARK INTRA:                  -1.213
REMARK UNBOUND:                -1.953
REMARK SMILES C=C(CC[C@H](C(=O)[O-])[C@H]1CC[C@@]2(C)C3=C(CC[C@@]12C)[C@]1(C)CC[C@H](O)C(C)(C)[C@H]1CC3)C(C)C
REMARK SMILES IDX 4 1 5 2 6 3 7 4 8 5 9 6 10 7 18 8 11 9 12 10 17 11 19 12
REMARK SMILES IDX 13 13 14 14 16 15 15 16 31 17 20 18 30 19 29 20 22 21 21 22
REMARK SMILES IDX 26 23 23 24 24 25 27 26 28 27 25 28 3 30 2 31 1 32 32 33
REMARK SMILES IDX 33 34 34 35
REMARK H PARENT 25 29
REMARK Flexibility Score: inf
ROOT
ATOM      1  C   UNL     1     138.848 144.552 121.252  1.00  0.00     0.014 C 
ENDROOT
BRANCH   1   2
ATOM      2  C   UNL     1     137.522 143.771 121.063  1.00  0.00     0.039 C 
BRANCH   2   3
ATOM      3  C   UNL     1     137.875 142.387 120.571  1.00  0.00     0.045 C 
ATOM      4  O   UNL     1     138.810 142.205 119.746  1.00  0.00    -0.550 OA
ATOM      5  O   UNL     1     137.215 141.284 121.103  1.00  0.00    -0.550 OA
ENDBRANCH   2   3
BRANCH   2   6
ATOM      6  C   UNL     1     136.466 144.552 120.201  1.00  0.00     0.004 C 
ATOM      7  C   UNL     1     135.910 143.809 118.992  1.00  0.00     0.006 C 
ATOM      8  C   UNL     1     135.264 145.284 120.892  1.00  0.00    -0.020 C 
ATOM      9  C   UNL     1     134.653 144.559 118.563  1.00  0.00     0.012 C 
ATOM     10  C   UNL     1     134.306 145.615 119.661  1.00  0.00    -0.006 C 
ATOM     11  C   UNL     1     134.514 144.439 121.975  1.00  0.00     0.012 C 
ATOM     12  C   UNL     1     135.792 146.546 121.637  1.00  0.00     0.012 C 
ATOM     13  C   UNL     1     134.619 147.020 119.055  1.00  0.00     0.017 C 
ATOM     14  C   UNL     1     132.795 145.467 120.007  1.00  0.00    -0.064 C 
ATOM     15  C   UNL     1     133.452 143.520 121.388  1.00  0.00     0.032 C 
ATOM     16  C   UNL     1     132.383 144.369 120.719  1.00  0.00    -0.064 C 
ATOM     17  C   UNL     1     131.785 146.411 119.354  1.00  0.00     0.032 C 
ATOM     18  C   UNL     1     130.900 144.082 121.043  1.00  0.00    -0.008 C 
ATOM     19  C   UNL     1     130.344 146.256 119.831  1.00  0.00     0.009 C 
ATOM     20  C   UNL     1     129.981 144.771 119.977  1.00  0.00     0.007 C 
ATOM     21  C   UNL     1     130.645 142.531 121.000  1.00  0.00     0.014 C 
ATOM     22  C   UNL     1     130.673 144.621 122.484  1.00  0.00     0.016 C 
ATOM     23  C   UNL     1     128.422 144.487 120.107  1.00  0.00    -0.006 C 
ATOM     24  C   UNL     1     129.261 142.095 120.479  1.00  0.00     0.033 C 
ATOM     25  C   UNL     1     128.163 143.109 120.815  1.00  0.00     0.120 C 
ATOM     26  C   UNL     1     127.817 144.463 118.672  1.00  0.00     0.014 C 
ATOM     27  C   UNL     1     127.669 145.596 120.893  1.00  0.00     0.014 C 
BRANCH  25  28
ATOM     28  O   UNL     1     126.908 142.586 120.452  1.00  0.00    -0.393 OA
ATOM     29  H   UNL     1     126.556 143.151 119.713  1.00  0.00     0.210 HD
ENDBRANCH  25  28
ENDBRANCH   2   6
ENDBRANCH   1   2
BRANCH   1  30
ATOM     30  C   UNL     1     139.076 145.670 120.216  1.00  0.00     0.031 C 
BRANCH  30  31
ATOM     31  C   UNL     1     140.554 145.835 119.914  1.00  0.00    -0.075 C 
ATOM     32  C   UNL     1     140.959 146.897 119.197  1.00  0.00     0.008 C 
BRANCH  31  33
ATOM     33  C   UNL     1     141.581 144.862 120.478  1.00  0.00     0.008 C 
ATOM     34  C   UNL     1     141.898 143.754 119.466  1.00  0.00     0.012 C 
ATOM     35  C   UNL     1     142.859 145.590 120.918  1.00  0.00     0.012 C 
ENDBRANCH  31  33
ENDBRANCH  30  31
ENDBRANCH   1  30
TORSDOF 7
ENDMDL
MODEL 6
REMARK VINA RESULT:    -5.690      5.191      8.867
REMARK INTER + INTRA:          -9.805
REMARK INTER:                  -8.891
REMARK INTRA:                  -0.914
REMARK UNBOUND:                -1.953
REMARK SMILES C=C(CC[C@H](C(=O)[O-])[C@H]1CC[C@@]2(C)C3=C(CC[C@@]12C)[C@]1(C)CC[C@H](O)C(C)(C)[C@H]1CC3)C(C)C
REMARK SMILES IDX 4 1 5 2 6 3 7 4 8 5 9 6 10 7 18 8 11 9 12 10 17 11 19 12
REMARK SMILES IDX 13 13 14 14 16 15 15 16 31 17 20 18 30 19 29 20 22 21 21 22
REMARK SMILES IDX 26 23 23 24 24 25 27 26 28 27 25 28 3 30 2 31 1 32 32 33
REMARK SMILES IDX 33 34 34 35
REMARK H PARENT 25 29
REMARK Flexibility Score: inf
ROOT
ATOM      1  C   UNL     1     138.851 146.667 121.096  1.00  0.00     0.014 C 
ENDROOT
BRANCH   1   2
ATOM      2  C   UNL     1     137.479 146.284 121.707  1.00  0.00     0.039 C 
BRANCH   2   3
ATOM      3  C   UNL     1     137.715 145.888 123.146  1.00  0.00     0.045 C 
ATOM      4  O   UNL     1     136.754 145.686 123.934  1.00  0.00    -0.550 OA
ATOM      5  O   UNL     1     139.015 145.656 123.586  1.00  0.00    -0.550 OA
ENDBRANCH   2   3
BRANCH   2   6
ATOM      6  C   UNL     1     136.687 145.243 120.835  1.00  0.00     0.004 C 
ATOM      7  C   UNL     1     136.561 143.841 121.420  1.00  0.00     0.006 C 
ATOM      8  C   UNL     1     135.293 145.620 120.223  1.00  0.00    -0.020 C 
ATOM      9  C   UNL     1     135.450 143.145 120.640  1.00  0.00     0.012 C 
ATOM     10  C   UNL     1     134.730 144.206 119.746  1.00  0.00    -0.006 C 
ATOM     11  C   UNL     1     134.303 146.312 121.217  1.00  0.00     0.012 C 
ATOM     12  C   UNL     1     135.503 146.639 119.063  1.00  0.00     0.012 C 
ATOM     13  C   UNL     1     135.131 143.901 118.268  1.00  0.00     0.017 C 
ATOM     14  C   UNL     1     133.196 144.056 119.965  1.00  0.00    -0.064 C 
ATOM     15  C   UNL     1     133.519 145.322 122.068  1.00  0.00     0.032 C 
ATOM     16  C   UNL     1     132.653 144.470 121.155  1.00  0.00    -0.064 C 
ATOM     17  C   UNL     1     132.376 143.247 118.958  1.00  0.00     0.032 C 
ATOM     18  C   UNL     1     131.160 144.290 121.507  1.00  0.00    -0.008 C 
ATOM     19  C   UNL     1     130.870 143.241 119.200  1.00  0.00     0.009 C 
ATOM     20  C   UNL     1     130.564 143.087 120.697  1.00  0.00     0.007 C 
ATOM     21  C   UNL     1     131.016 143.982 123.043  1.00  0.00     0.014 C 
ATOM     22  C   UNL     1     130.482 145.648 121.169  1.00  0.00     0.016 C 
ATOM     23  C   UNL     1     129.057 142.701 121.022  1.00  0.00    -0.006 C 
ATOM     24  C   UNL     1     129.879 143.015 123.428  1.00  0.00     0.033 C 
ATOM     25  C   UNL     1     128.675 143.123 122.486  1.00  0.00     0.120 C 
ATOM     26  C   UNL     1     128.911 141.158 120.864  1.00  0.00     0.014 C 
ATOM     27  C   UNL     1     128.041 143.350 120.041  1.00  0.00     0.014 C 
BRANCH  25  28
ATOM     28  O   UNL     1     127.619 142.334 122.978  1.00  0.00    -0.393 OA
ATOM     29  H   UNL     1     126.879 142.952 123.224  1.00  0.00     0.210 HD
ENDBRANCH  25  28
ENDBRANCH   2   6
ENDBRANCH   1   2
BRANCH   1  30
ATOM     30  C   UNL     1     139.433 145.611 120.136  1.00  0.00     0.031 C 
BRANCH  30  31
ATOM     31  C   UNL     1     140.852 145.966 119.736  1.00  0.00    -0.075 C 
ATOM     32  C   UNL     1     141.076 147.110 119.067  1.00  0.00     0.008 C 
BRANCH  31  33
ATOM     33  C   UNL     1     142.025 145.086 120.152  1.00  0.00     0.008 C 
ATOM     34  C   UNL     1     141.932 143.705 119.492  1.00  0.00     0.012 C 
ATOM     35  C   UNL     1     143.369 145.759 119.837  1.00  0.00     0.012 C 
ENDBRANCH  31  33
ENDBRANCH  30  31
ENDBRANCH   1  30
TORSDOF 7
ENDMDL
MODEL 7
REMARK VINA RESULT:    -5.661      2.094      3.950
REMARK INTER + INTRA:          -9.765
REMARK INTER:                  -8.159
REMARK INTRA:                  -1.606
REMARK UNBOUND:                -1.953
REMARK SMILES C=C(CC[C@H](C(=O)[O-])[C@H]1CC[C@@]2(C)C3=C(CC[C@@]12C)[C@]1(C)CC[C@H](O)C(C)(C)[C@H]1CC3)C(C)C
REMARK SMILES IDX 4 1 5 2 6 3 7 4 8 5 9 6 10 7 18 8 11 9 12 10 17 11 19 12
REMARK SMILES IDX 13 13 14 14 16 15 15 16 31 17 20 18 30 19 29 20 22 21 21 22
REMARK SMILES IDX 26 23 23 24 24 25 27 26 28 27 25 28 3 30 2 31 1 32 32 33
REMARK SMILES IDX 33 34 34 35
REMARK H PARENT 25 29
REMARK Flexibility Score: inf
ROOT
ATOM      1  C   UNL     1     129.866 143.097 119.787  1.00  0.00     0.014 C 
ENDROOT
BRANCH   1   2
ATOM      2  C   UNL     1     131.209 143.777 119.418  1.00  0.00     0.039 C 
BRANCH   2   3
ATOM      3  C   UNL     1     132.169 142.689 118.997  1.00  0.00     0.045 C 
ATOM      4  O   UNL     1     132.007 141.496 119.365  1.00  0.00    -0.550 OA
ATOM      5  O   UNL     1     133.201 142.993 118.114  1.00  0.00    -0.550 OA
ENDBRANCH   2   3
BRANCH   2   6
ATOM      6  C   UNL     1     131.731 144.752 120.535  1.00  0.00     0.004 C 
ATOM      7  C   UNL     1     130.845 145.954 120.840  1.00  0.00     0.006 C 
ATOM      8  C   UNL     1     132.238 144.186 121.907  1.00  0.00    -0.020 C 
ATOM      9  C   UNL     1     131.315 146.509 122.180  1.00  0.00     0.012 C 
ATOM     10  C   UNL     1     132.324 145.497 122.812  1.00  0.00    -0.006 C 
ATOM     11  C   UNL     1     131.305 143.114 122.561  1.00  0.00     0.012 C 
ATOM     12  C   UNL     1     133.608 143.476 121.694  1.00  0.00     0.012 C 
ATOM     13  C   UNL     1     133.738 146.154 122.730  1.00  0.00     0.017 C 
ATOM     14  C   UNL     1     131.894 145.249 124.288  1.00  0.00    -0.064 C 
ATOM     15  C   UNL     1     130.171 143.722 123.375  1.00  0.00     0.032 C 
ATOM     16  C   UNL     1     130.765 144.508 124.532  1.00  0.00    -0.064 C 
ATOM     17  C   UNL     1     132.593 146.021 125.407  1.00  0.00     0.032 C 
ATOM     18  C   UNL     1     130.204 144.272 125.952  1.00  0.00    -0.008 C 
ATOM     19  C   UNL     1     132.175 145.636 126.823  1.00  0.00     0.009 C 
ATOM     20  C   UNL     1     130.655 145.436 126.901  1.00  0.00     0.007 C 
ATOM     21  C   UNL     1     128.632 144.249 125.898  1.00  0.00     0.014 C 
ATOM     22  C   UNL     1     130.744 142.883 126.393  1.00  0.00     0.016 C 
ATOM     23  C   UNL     1     130.074 145.399 128.380  1.00  0.00    -0.006 C 
ATOM     24  C   UNL     1     127.911 144.841 127.125  1.00  0.00     0.033 C 
ATOM     25  C   UNL     1     128.701 144.637 128.422  1.00  0.00     0.120 C 
ATOM     26  C   UNL     1     129.874 146.869 128.855  1.00  0.00     0.014 C 
ATOM     27  C   UNL     1     131.042 144.729 129.395  1.00  0.00     0.014 C 
BRANCH  25  28
ATOM     28  O   UNL     1     127.926 145.058 129.519  1.00  0.00    -0.393 OA
ATOM     29  H   UNL     1     127.072 144.549 129.488  1.00  0.00     0.210 HD
ENDBRANCH  25  28
ENDBRANCH   2   6
ENDBRANCH   1   2
BRANCH   1  30
ATOM     30  C   UNL     1     128.616 143.894 119.363  1.00  0.00     0.031 C 
BRANCH  30  31
ATOM     31  C   UNL     1     127.601 143.950 120.488  1.00  0.00    -0.075 C 
ATOM     32  C   UNL     1     127.315 142.825 121.167  1.00  0.00     0.008 C 
BRANCH  31  33
ATOM     33  C   UNL     1     126.968 145.271 120.906  1.00  0.00     0.008 C 
ATOM     34  C   UNL     1     127.453 145.694 122.298  1.00  0.00     0.012 C 
ATOM     35  C   UNL     1     127.235 146.372 119.870  1.00  0.00     0.012 C 
ENDBRANCH  31  33
ENDBRANCH  30  31
ENDBRANCH   1  30
TORSDOF 7
ENDMDL
MODEL 8
REMARK VINA RESULT:    -5.598      1.975      2.797
REMARK INTER + INTRA:          -9.679
REMARK INTER:                  -7.608
REMARK INTRA:                  -2.070
REMARK UNBOUND:                -1.953
REMARK SMILES C=C(CC[C@H](C(=O)[O-])[C@H]1CC[C@@]2(C)C3=C(CC[C@@]12C)[C@]1(C)CC[C@H](O)C(C)(C)[C@H]1CC3)C(C)C
REMARK SMILES IDX 4 1 5 2 6 3 7 4 8 5 9 6 10 7 18 8 11 9 12 10 17 11 19 12
REMARK SMILES IDX 13 13 14 14 16 15 15 16 31 17 20 18 30 19 29 20 22 21 21 22
REMARK SMILES IDX 26 23 23 24 24 25 27 26 28 27 25 28 3 30 2 31 1 32 32 33
REMARK SMILES IDX 33 34 34 35
REMARK H PARENT 25 29
REMARK Flexibility Score: inf
ROOT
ATOM      1  C   UNL     1     131.118 144.431 121.433  1.00  0.00     0.014 C 
ENDROOT
BRANCH   1   2
ATOM      2  C   UNL     1     131.412 144.716 122.928  1.00  0.00     0.039 C 
BRANCH   2   3
ATOM      3  C   UNL     1     132.614 143.890 123.322  1.00  0.00     0.045 C 
ATOM      4  O   UNL     1     133.367 144.242 124.268  1.00  0.00    -0.550 OA
ATOM      5  O   UNL     1     132.846 142.674 122.687  1.00  0.00    -0.550 OA
ENDBRANCH   2   3
BRANCH   2   6
ATOM      6  C   UNL     1     130.145 144.555 123.844  1.00  0.00     0.004 C 
ATOM      7  C   UNL     1     129.992 143.208 124.542  1.00  0.00     0.006 C 
ATOM      8  C   UNL     1     129.777 145.665 124.889  1.00  0.00    -0.020 C 
ATOM      9  C   UNL     1     128.969 143.410 125.654  1.00  0.00     0.012 C 
ATOM     10  C   UNL     1     128.682 144.939 125.794  1.00  0.00    -0.006 C 
ATOM     11  C   UNL     1     130.974 146.175 125.758  1.00  0.00     0.012 C 
ATOM     12  C   UNL     1     129.242 146.919 124.136  1.00  0.00     0.012 C 
ATOM     13  C   UNL     1     127.239 145.183 125.249  1.00  0.00     0.017 C 
ATOM     14  C   UNL     1     128.793 145.312 127.302  1.00  0.00    -0.064 C 
ATOM     15  C   UNL     1     131.247 145.299 126.974  1.00  0.00     0.032 C 
ATOM     16  C   UNL     1     130.034 145.338 127.888  1.00  0.00    -0.064 C 
ATOM     17  C   UNL     1     127.519 145.409 128.141  1.00  0.00     0.032 C 
ATOM     18  C   UNL     1     130.249 145.612 129.393  1.00  0.00    -0.008 C 
ATOM     19  C   UNL     1     127.719 145.878 129.579  1.00  0.00     0.009 C 
ATOM     20  C   UNL     1     128.961 145.217 130.194  1.00  0.00     0.007 C 
ATOM     21  C   UNL     1     131.453 144.747 129.917  1.00  0.00     0.014 C 
ATOM     22  C   UNL     1     130.593 147.125 129.499  1.00  0.00     0.016 C 
ATOM     23  C   UNL     1     129.054 145.341 131.776  1.00  0.00    -0.006 C 
ATOM     24  C   UNL     1     131.325 144.229 131.363  1.00  0.00     0.033 C 
ATOM     25  C   UNL     1     130.540 145.191 132.261  1.00  0.00     0.120 C 
ATOM     26  C   UNL     1     128.181 144.212 132.399  1.00  0.00     0.014 C 
ATOM     27  C   UNL     1     128.493 146.688 132.311  1.00  0.00     0.014 C 
BRANCH  25  28
ATOM     28  O   UNL     1     130.591 144.742 133.594  1.00  0.00    -0.393 OA
ATOM     29  H   UNL     1     131.130 143.906 133.602  1.00  0.00     0.210 HD
ENDBRANCH  25  28
ENDBRANCH   2   6
ENDBRANCH   1   2
BRANCH   1  30
ATOM     30  C   UNL     1     130.007 145.310 120.828  1.00  0.00     0.031 C 
BRANCH  30  31
ATOM     31  C   UNL     1     128.927 144.457 120.190  1.00  0.00    -0.075 C 
ATOM     32  C   UNL     1     129.205 143.792 119.056  1.00  0.00     0.008 C 
BRANCH  31  33
ATOM     33  C   UNL     1     127.569 144.285 120.859  1.00  0.00     0.008 C 
ATOM     34  C   UNL     1     127.556 143.040 121.756  1.00  0.00     0.012 C 
ATOM     35  C   UNL     1     127.172 145.539 121.650  1.00  0.00     0.012 C 
ENDBRANCH  31  33
ENDBRANCH  30  31
ENDBRANCH   1  30
TORSDOF 7
ENDMDL
MODEL 9
REMARK VINA RESULT:    -5.597      4.787      8.799
REMARK INTER + INTRA:          -9.676
REMARK INTER:                  -7.942
REMARK INTRA:                  -1.734
REMARK UNBOUND:                -1.953
REMARK SMILES C=C(CC[C@H](C(=O)[O-])[C@H]1CC[C@@]2(C)C3=C(CC[C@@]12C)[C@]1(C)CC[C@H](O)C(C)(C)[C@H]1CC3)C(C)C
REMARK SMILES IDX 4 1 5 2 6 3 7 4 8 5 9 6 10 7 18 8 11 9 12 10 17 11 19 12
REMARK SMILES IDX 13 13 14 14 16 15 15 16 31 17 20 18 30 19 29 20 22 21 21 22
REMARK SMILES IDX 26 23 23 24 24 25 27 26 28 27 25 28 3 30 2 31 1 32 32 33
REMARK SMILES IDX 33 34 34 35
REMARK H PARENT 25 29
REMARK Flexibility Score: inf
ROOT
ATOM      1  C   UNL     1     130.292 146.182 121.863  1.00  0.00     0.014 C 
ENDROOT
BRANCH   1   2
ATOM      2  C   UNL     1     129.495 144.872 121.639  1.00  0.00     0.039 C 
BRANCH   2   3
ATOM      3  C   UNL     1     128.397 144.823 122.676  1.00  0.00     0.045 C 
ATOM      4  O   UNL     1     127.316 144.215 122.455  1.00  0.00    -0.550 OA
ATOM      5  O   UNL     1     128.616 145.384 123.930  1.00  0.00    -0.550 OA
ENDBRANCH   2   3
BRANCH   2   6
ATOM      6  C   UNL     1     130.414 143.599 121.561  1.00  0.00     0.004 C 
ATOM      7  C   UNL     1     130.567 142.805 122.853  1.00  0.00     0.006 C 
ATOM      8  C   UNL     1     130.237 142.564 120.396  1.00  0.00    -0.020 C 
ATOM      9  C   UNL     1     131.136 141.445 122.461  1.00  0.00     0.012 C 
ATOM     10  C   UNL     1     131.096 141.320 120.904  1.00  0.00    -0.006 C 
ATOM     11  C   UNL     1     128.757 142.144 120.109  1.00  0.00     0.012 C 
ATOM     12  C   UNL     1     130.759 143.192 119.069  1.00  0.00     0.012 C 
ATOM     13  C   UNL     1     132.573 141.406 120.403  1.00  0.00     0.017 C 
ATOM     14  C   UNL     1     130.452 139.948 120.549  1.00  0.00    -0.064 C 
ATOM     15  C   UNL     1     128.268 141.020 121.012  1.00  0.00     0.032 C 
ATOM     16  C   UNL     1     129.104 139.779 120.747  1.00  0.00    -0.064 C 
ATOM     17  C   UNL     1     131.358 138.763 120.215  1.00  0.00     0.032 C 
ATOM     18  C   UNL     1     128.380 138.435 120.508  1.00  0.00    -0.008 C 
ATOM     19  C   UNL     1     130.635 137.491 119.782  1.00  0.00     0.009 C 
ATOM     20  C   UNL     1     129.396 137.251 120.656  1.00  0.00     0.007 C 
ATOM     21  C   UNL     1     127.240 138.257 121.576  1.00  0.00     0.014 C 
ATOM     22  C   UNL     1     127.766 138.537 119.083  1.00  0.00     0.016 C 
ATOM     23  C   UNL     1     128.787 135.787 120.542  1.00  0.00    -0.006 C 
ATOM     24  C   UNL     1     126.990 136.812 122.053  1.00  0.00     0.033 C 
ATOM     25  C   UNL     1     127.272 135.778 120.958  1.00  0.00     0.120 C 
ATOM     26  C   UNL     1     129.598 134.853 121.489  1.00  0.00     0.014 C 
ATOM     27  C   UNL     1     128.910 135.190 119.112  1.00  0.00     0.014 C 
BRANCH  25  28
ATOM     28  O   UNL     1     126.880 134.501 121.401  1.00  0.00    -0.393 OA
ATOM     29  H   UNL     1     125.960 134.340 121.060  1.00  0.00     0.210 HD
ENDBRANCH  25  28
ENDBRANCH   2   6
ENDBRANCH   1   2
BRANCH   1  30
ATOM     30  C   UNL     1     131.821 146.017 121.764  1.00  0.00     0.031 C 
BRANCH  30  31
ATOM     31  C   UNL     1     132.326 146.451 120.402  1.00  0.00    -0.075 C 
ATOM     32  C   UNL     1     131.499 147.122 119.582  1.00  0.00     0.008 C 
BRANCH  31  33
ATOM     33  C   UNL     1     133.772 146.207 119.989  1.00  0.00     0.008 C 
ATOM     34  C   UNL     1     134.717 146.364 121.188  1.00  0.00     0.012 C 
ATOM     35  C   UNL     1     133.942 144.832 119.329  1.00  0.00     0.012 C 
ENDBRANCH  31  33
ENDBRANCH  30  31
ENDBRANCH   1  30
TORSDOF 7
ENDMDL
