MODEL 1
REMARK VINA RESULT:    39.639      0.000      0.000
REMARK INTER + INTRA:          63.206
REMARK INTER:                  58.178
REMARK INTRA:                   5.028
REMARK UNBOUND:                 5.028
REMARK SMILES Cc1cc2c(C(C)C)c(O)c(O)c(C=O)c2c(O)c1-c1c(C)cc2c(C(C)C)c(O)c(O)c(C=O)c2c1O
REMARK SMILES IDX 1 1 2 2 3 3 4 4 16 5 13 6 11 7 9 8 5 9 17 10 19 11 20 12
REMARK SMILES IDX 37 13 21 14 36 15 23 16 22 17 24 18 33 19 25 20 31 21 29 22
REMARK SMILES IDX 38 23 34 25 35 26 26 27 27 28 28 29 32 30 30 32 18 34 6 36
REMARK SMILES IDX 7 37 8 38 14 39 15 40 10 41 12 43
REMARK H PARENT 38 24 32 31 30 33 18 35 10 42 12 44
REMARK Flexibility Score: inf
ROOT
ATOM      1  C   UNL     1      10.045 -30.879  12.505  1.00  0.00     0.045 C 
ATOM      2  C   UNL     1       9.506 -31.122  13.893  1.00  0.00    -0.039 A 
ATOM      3  C   UNL     1       8.484 -32.058  14.038  1.00  0.00     0.013 A 
ATOM      4  C   UNL     1       7.947 -32.387  15.302  1.00  0.00    -0.006 A 
ATOM      5  C   UNL     1       8.511 -31.793  16.467  1.00  0.00     0.039 A 
ATOM      6  C   UNL     1       8.067 -32.246  17.749  1.00  0.00     0.072 A 
ATOM      7  C   UNL     1       7.190 -33.341  17.844  1.00  0.00     0.169 A 
ATOM      8  C   UNL     1       6.652 -33.915  16.685  1.00  0.00     0.162 A 
ATOM      9  C   UNL     1       6.889 -33.337  15.421  1.00  0.00     0.008 A 
ATOM     10  C   UNL     1       9.525 -30.801  16.316  1.00  0.00     0.132 A 
ATOM     11  C   UNL     1      10.013 -30.466  15.032  1.00  0.00     0.031 A 
ENDROOT
BRANCH  11  12
ATOM     12  C   UNL     1      11.087 -29.454  14.899  1.00  0.00     0.031 A 
ATOM     13  C   UNL     1      12.247 -29.750  14.147  1.00  0.00     0.132 A 
ATOM     14  C   UNL     1      10.935 -28.187  15.485  1.00  0.00    -0.039 A 
ATOM     15  C   UNL     1      13.272 -28.768  13.995  1.00  0.00     0.039 A 
ATOM     16  C   UNL     1      11.975 -27.259  15.397  1.00  0.00     0.013 A 
ATOM     17  C   UNL     1       9.675 -27.820  16.224  1.00  0.00     0.045 C 
ATOM     18  C   UNL     1      13.187 -27.557  14.743  1.00  0.00    -0.006 A 
ATOM     19  C   UNL     1      14.407 -28.975  13.156  1.00  0.00     0.072 A 
ATOM     20  C   UNL     1      14.309 -26.683  14.822  1.00  0.00     0.008 A 
ATOM     21  C   UNL     1      15.412 -27.993  13.080  1.00  0.00     0.169 A 
ATOM     22  C   UNL     1      15.363 -26.860  13.891  1.00  0.00     0.162 A 
BRANCH  13  23
ATOM     23  O   UNL     1      12.391 -31.018  13.588  1.00  0.00    -0.507 OA
ATOM     24  H   UNL     1      12.306 -31.207  12.601  1.00  0.00     0.293 HD
ENDBRANCH  13  23
BRANCH  19  25
ATOM     25  C   UNL     1      14.541 -30.177  12.310  1.00  0.00     0.264 C 
ATOM     26  O   UNL     1      13.603 -31.019  12.247  1.00  0.00    -0.298 OA
ENDBRANCH  19  25
BRANCH  20  27
ATOM     27  C   UNL     1      14.479 -25.623  15.930  1.00  0.00     0.017 C 
ATOM     28  C   UNL     1      14.891 -24.225  15.433  1.00  0.00     0.012 C 
ATOM     29  C   UNL     1      15.352 -26.122  17.090  1.00  0.00     0.012 C 
ENDBRANCH  20  27
BRANCH  21  30
ATOM     30  O   UNL     1      16.487 -28.109  12.189  1.00  0.00    -0.504 OA
ATOM     31  H   UNL     1      17.210 -28.818  12.284  1.00  0.00     0.293 HD
ENDBRANCH  21  30
BRANCH  22  32
ATOM     32  O   UNL     1      16.379 -25.915  13.721  1.00  0.00    -0.504 OA
ATOM     33  H   UNL     1      16.699 -25.286  14.441  1.00  0.00     0.293 HD
ENDBRANCH  22  32
ENDBRANCH  11  12
BRANCH  10  34
ATOM     34  O   UNL     1      10.065 -30.164  17.435  1.00  0.00    -0.507 OA
ATOM     35  H   UNL     1      10.838 -29.509  17.398  1.00  0.00     0.293 HD
ENDBRANCH  10  34
BRANCH   9  36
ATOM     36  C   UNL     1       6.041 -33.759  14.214  1.00  0.00     0.017 C 
ATOM     37  C   UNL     1       5.875 -32.601  13.219  1.00  0.00     0.012 C 
ATOM     38  C   UNL     1       6.571 -35.030  13.518  1.00  0.00     0.012 C 
ENDBRANCH   9  36
BRANCH   6  39
ATOM     39  C   UNL     1       8.460 -31.593  19.014  1.00  0.00     0.264 C 
ATOM     40  O   UNL     1       7.794 -30.627  19.477  1.00  0.00    -0.298 OA
ENDBRANCH   6  39
BRANCH   8  41
ATOM     41  O   UNL     1       5.875 -35.076  16.767  1.00  0.00    -0.504 OA
ATOM     42  H   UNL     1       5.425 -35.495  15.965  1.00  0.00     0.293 HD
ENDBRANCH   8  41
BRANCH   7  43
ATOM     43  O   UNL     1       6.830 -33.809  19.113  1.00  0.00    -0.504 OA
ATOM     44  H   UNL     1       6.383 -33.232  19.808  1.00  0.00     0.293 HD
ENDBRANCH   7  43
TORSDOF 11
ENDMDL
