MODEL 1
REMARK VINA RESULT:    -4.898      0.000      0.000
REMARK INTER + INTRA:          -5.204
REMARK INTER:                  -5.184
REMARK INTRA:                  -0.020
REMARK UNBOUND:                -0.020
REMARK SMILES O=C([O-])c1cccnc1
REMARK SMILES IDX 4 1 5 2 9 3 6 4 8 5 7 6 2 7 1 8 3 9
REMARK H PARENT
REMARK Flexibility Score: inf
ROOT
ATOM      1  C   UNL     1      29.104  57.233  -6.912  1.00  0.00     0.016 A 
ATOM      2  C   UNL     1      28.468  56.293  -7.739  1.00  0.00     0.013 A 
ATOM      3  C   UNL     1      29.274  58.542  -7.397  1.00  0.00     0.120 A 
ATOM      4  C   UNL     1      28.021  56.664  -9.008  1.00  0.00     0.021 A 
ATOM      5  N   UNL     1      28.830  58.877  -8.637  1.00  0.00    -0.264 NA
ATOM      6  C   UNL     1      28.213  57.975  -9.445  1.00  0.00     0.111 A 
ENDROOT
BRANCH   1   7
ATOM      7  C   UNL     1      29.585  56.860  -5.564  1.00  0.00     0.073 C 
ATOM      8  O   UNL     1      28.846  56.210  -4.779  1.00  0.00    -0.545 OA
ATOM      9  O   UNL     1      30.860  57.223  -5.146  1.00  0.00    -0.545 OA
ENDBRANCH   1   7
TORSDOF 1
ENDMDL
MODEL 2
REMARK VINA RESULT:    -4.841      2.653      3.599
REMARK INTER + INTRA:          -5.143
REMARK INTER:                  -5.122
REMARK INTRA:                  -0.022
REMARK UNBOUND:                -0.020
REMARK SMILES O=C([O-])c1cccnc1
REMARK SMILES IDX 4 1 5 2 9 3 6 4 8 5 7 6 2 7 1 8 3 9
REMARK H PARENT
REMARK Flexibility Score: inf
ROOT
ATOM      1  C   UNL     1      29.095  57.621  -7.274  1.00  0.00     0.016 A 
ATOM      2  C   UNL     1      28.841  56.587  -6.356  1.00  0.00     0.013 A 
ATOM      3  C   UNL     1      30.008  58.626  -6.910  1.00  0.00     0.120 A 
ATOM      4  C   UNL     1      29.486  56.574  -5.119  1.00  0.00     0.021 A 
ATOM      5  N   UNL     1      30.622  58.590  -5.698  1.00  0.00    -0.264 NA
ATOM      6  C   UNL     1      30.383  57.595  -4.804  1.00  0.00     0.111 A 
ENDROOT
BRANCH   1   7
ATOM      7  C   UNL     1      28.423  57.653  -8.591  1.00  0.00     0.073 C 
ATOM      8  O   UNL     1      28.112  56.583  -9.177  1.00  0.00    -0.545 OA
ATOM      9  O   UNL     1      28.125  58.867  -9.200  1.00  0.00    -0.545 OA
ENDBRANCH   1   7
TORSDOF 1
ENDMDL
MODEL 3
REMARK VINA RESULT:    -4.663      1.453      2.029
REMARK INTER + INTRA:          -4.955
REMARK INTER:                  -4.931
REMARK INTRA:                  -0.024
REMARK UNBOUND:                -0.020
REMARK SMILES O=C([O-])c1cccnc1
REMARK SMILES IDX 4 1 5 2 9 3 6 4 8 5 7 6 2 7 1 8 3 9
REMARK H PARENT
REMARK Flexibility Score: inf
ROOT
ATOM      1  C   UNL     1      29.893  57.889  -6.044  1.00  0.00     0.016 A 
ATOM      2  C   UNL     1      29.331  56.625  -5.797  1.00  0.00     0.013 A 
ATOM      3  C   UNL     1      29.610  58.517  -7.270  1.00  0.00     0.120 A 
ATOM      4  C   UNL     1      28.515  56.021  -6.754  1.00  0.00     0.021 A 
ATOM      5  N   UNL     1      28.812  57.906  -8.186  1.00  0.00    -0.264 NA
ATOM      6  C   UNL     1      28.264  56.684  -7.956  1.00  0.00     0.111 A 
ENDROOT
BRANCH   1   7
ATOM      7  C   UNL     1      30.761  58.546  -5.043  1.00  0.00     0.073 C 
ATOM      8  O   UNL     1      30.963  58.010  -3.922  1.00  0.00    -0.545 OA
ATOM      9  O   UNL     1      31.364  59.766  -5.327  1.00  0.00    -0.545 OA
ENDBRANCH   1   7
TORSDOF 1
ENDMDL
MODEL 4
REMARK VINA RESULT:    -4.500      3.192      3.894
REMARK INTER + INTRA:          -4.783
REMARK INTER:                  -4.765
REMARK INTRA:                  -0.018
REMARK UNBOUND:                -0.020
REMARK SMILES O=C([O-])c1cccnc1
REMARK SMILES IDX 4 1 5 2 9 3 6 4 8 5 7 6 2 7 1 8 3 9
REMARK H PARENT
REMARK Flexibility Score: inf
ROOT
ATOM      1  C   UNL     1      28.558  58.138  -8.662  1.00  0.00     0.016 A 
ATOM      2  C   UNL     1      28.125  56.810  -8.509  1.00  0.00     0.013 A 
ATOM      3  C   UNL     1      29.295  58.724  -7.618  1.00  0.00     0.120 A 
ATOM      4  C   UNL     1      28.426  56.104  -7.343  1.00  0.00     0.021 A 
ATOM      5  N   UNL     1      29.573  58.014  -6.492  1.00  0.00    -0.264 NA
ATOM      6  C   UNL     1      29.159  56.730  -6.335  1.00  0.00     0.111 A 
ENDROOT
BRANCH   1   7
ATOM      7  C   UNL     1      28.250  58.903  -9.889  1.00  0.00     0.073 C 
ATOM      8  O   UNL     1      28.645  58.495 -11.013  1.00  0.00    -0.545 OA
ATOM      9  O   UNL     1      27.519  60.084  -9.818  1.00  0.00    -0.545 OA
ENDBRANCH   1   7
TORSDOF 1
ENDMDL
MODEL 5
REMARK VINA RESULT:    -4.284     18.347     18.999
REMARK INTER + INTRA:          -4.554
REMARK INTER:                  -4.532
REMARK INTRA:                  -0.023
REMARK UNBOUND:                -0.020
REMARK SMILES O=C([O-])c1cccnc1
REMARK SMILES IDX 4 1 5 2 9 3 6 4 8 5 7 6 2 7 1 8 3 9
REMARK H PARENT
REMARK Flexibility Score: inf
ROOT
ATOM      1  C   UNL     1      39.057  65.243   7.007  1.00  0.00     0.016 A 
ATOM      2  C   UNL     1      37.814  65.866   7.210  1.00  0.00     0.013 A 
ATOM      3  C   UNL     1      39.705  65.435   5.775  1.00  0.00     0.120 A 
ATOM      4  C   UNL     1      37.250  66.651   6.204  1.00  0.00     0.021 A 
ATOM      5  N   UNL     1      39.134  66.204   4.810  1.00  0.00    -0.264 NA
ATOM      6  C   UNL     1      37.932  66.810   4.997  1.00  0.00     0.111 A 
ENDROOT
BRANCH   1   7
ATOM      7  C   UNL     1      39.671  64.408   8.061  1.00  0.00     0.073 C 
ATOM      8  O   UNL     1      38.961  63.889   8.962  1.00  0.00    -0.545 OA
ATOM      9  O   UNL     1      41.044  64.183   8.071  1.00  0.00    -0.545 OA
ENDBRANCH   1   7
TORSDOF 1
ENDMDL
MODEL 6
REMARK VINA RESULT:    -4.265     18.431     19.279
REMARK INTER + INTRA:          -4.534
REMARK INTER:                  -4.510
REMARK INTRA:                  -0.024
REMARK UNBOUND:                -0.020
REMARK SMILES O=C([O-])c1cccnc1
REMARK SMILES IDX 4 1 5 2 9 3 6 4 8 5 7 6 2 7 1 8 3 9
REMARK H PARENT
REMARK Flexibility Score: inf
ROOT
ATOM      1  C   UNL     1      39.063  65.367   6.579  1.00  0.00     0.016 A 
ATOM      2  C   UNL     1      38.978  64.803   7.863  1.00  0.00     0.013 A 
ATOM      3  C   UNL     1      40.228  65.140   5.826  1.00  0.00     0.120 A 
ATOM      4  C   UNL     1      40.034  64.040   8.364  1.00  0.00     0.021 A 
ATOM      5  N   UNL     1      41.242  64.394   6.338  1.00  0.00    -0.264 NA
ATOM      6  C   UNL     1      41.170  63.845   7.579  1.00  0.00     0.111 A 
ENDROOT
BRANCH   1   7
ATOM      7  C   UNL     1      37.955  66.178   6.029  1.00  0.00     0.073 C 
ATOM      8  O   UNL     1      36.931  66.417   6.722  1.00  0.00    -0.545 OA
ATOM      9  O   UNL     1      38.030  66.688   4.737  1.00  0.00    -0.545 OA
ENDBRANCH   1   7
TORSDOF 1
ENDMDL
MODEL 7
REMARK VINA RESULT:    -4.226     18.536     19.303
REMARK INTER + INTRA:          -4.493
REMARK INTER:                  -4.469
REMARK INTRA:                  -0.024
REMARK UNBOUND:                -0.020
REMARK SMILES O=C([O-])c1cccnc1
REMARK SMILES IDX 4 1 5 2 9 3 6 4 8 5 7 6 2 7 1 8 3 9
REMARK H PARENT
REMARK Flexibility Score: inf
ROOT
ATOM      1  C   UNL     1      39.053  65.405   6.571  1.00  0.00     0.016 A 
ATOM      2  C   UNL     1      40.214  65.158   5.819  1.00  0.00     0.013 A 
ATOM      3  C   UNL     1      38.972  64.871   7.869  1.00  0.00     0.120 A 
ATOM      4  C   UNL     1      41.252  64.399   6.361  1.00  0.00     0.021 A 
ATOM      5  N   UNL     1      39.998  64.134   8.373  1.00  0.00    -0.264 NA
ATOM      6  C   UNL     1      41.124  63.890   7.654  1.00  0.00     0.111 A 
ENDROOT
BRANCH   1   7
ATOM      7  C   UNL     1      37.942  66.207   6.015  1.00  0.00     0.073 C 
ATOM      8  O   UNL     1      36.899  66.411   6.691  1.00  0.00    -0.545 OA
ATOM      9  O   UNL     1      38.034  66.747   4.737  1.00  0.00    -0.545 OA
ENDBRANCH   1   7
TORSDOF 1
ENDMDL
MODEL 8
REMARK VINA RESULT:    -3.881     19.091     19.572
REMARK INTER + INTRA:          -4.127
REMARK INTER:                  -4.107
REMARK INTRA:                  -0.020
REMARK UNBOUND:                -0.020
REMARK SMILES O=C([O-])c1cccnc1
REMARK SMILES IDX 4 1 5 2 9 3 6 4 8 5 7 6 2 7 1 8 3 9
REMARK H PARENT
REMARK Flexibility Score: inf
ROOT
ATOM      1  C   UNL     1      40.405  62.517   7.791  1.00  0.00     0.016 A 
ATOM      2  C   UNL     1      39.615  63.279   8.668  1.00  0.00     0.013 A 
ATOM      3  C   UNL     1      40.713  63.058   6.530  1.00  0.00     0.120 A 
ATOM      4  C   UNL     1      39.155  64.539   8.283  1.00  0.00     0.021 A 
ATOM      5  N   UNL     1      40.251  64.288   6.179  1.00  0.00    -0.264 NA
ATOM      6  C   UNL     1      39.487  65.032   7.020  1.00  0.00     0.111 A 
ENDROOT
BRANCH   1   7
ATOM      7  C   UNL     1      40.903  61.180   8.180  1.00  0.00     0.073 C 
ATOM      8  O   UNL     1      40.146  60.360   8.762  1.00  0.00    -0.545 OA
ATOM      9  O   UNL     1      42.216  60.811   7.908  1.00  0.00    -0.545 OA
ENDBRANCH   1   7
TORSDOF 1
ENDMDL
MODEL 9
REMARK VINA RESULT:    -3.827     19.258     19.587
REMARK INTER + INTRA:          -4.070
REMARK INTER:                  -4.047
REMARK INTRA:                  -0.023
REMARK UNBOUND:                -0.020
REMARK SMILES O=C([O-])c1cccnc1
REMARK SMILES IDX 4 1 5 2 9 3 6 4 8 5 7 6 2 7 1 8 3 9
REMARK H PARENT
REMARK Flexibility Score: inf
ROOT
ATOM      1  C   UNL     1      40.044  63.556   7.389  1.00  0.00     0.016 A 
ATOM      2  C   UNL     1      39.727  62.610   8.379  1.00  0.00     0.013 A 
ATOM      3  C   UNL     1      41.102  63.271   6.509  1.00  0.00     0.120 A 
ATOM      4  C   UNL     1      40.454  61.423   8.473  1.00  0.00     0.021 A 
ATOM      5  N   UNL     1      41.796  62.107   6.623  1.00  0.00    -0.264 NA
ATOM      6  C   UNL     1      41.497  61.187   7.576  1.00  0.00     0.111 A 
ENDROOT
BRANCH   1   7
ATOM      7  C   UNL     1      39.285  64.820   7.273  1.00  0.00     0.073 C 
ATOM      8  O   UNL     1      38.678  65.296   8.268  1.00  0.00    -0.545 OA
ATOM      9  O   UNL     1      39.231  65.499   6.061  1.00  0.00    -0.545 OA
ENDBRANCH   1   7
TORSDOF 1
ENDMDL
