MODEL 1
REMARK VINA RESULT:     2.897      0.000      0.000
REMARK INTER + INTRA:           4.670
REMARK INTER:                   4.083
REMARK INTRA:                   0.587
REMARK UNBOUND:                 0.587
REMARK SMILES CC1=CCC(=C(C)C)C(=O)CC(C)=CCC1
REMARK SMILES IDX 12 1 14 2 13 3 15 4 16 5 2 6 1 7 3 8 11 10 9 11 10 12 5 13
REMARK SMILES IDX 6 14 7 15 8 16 4 17
REMARK H PARENT
REMARK Flexibility Score: 60.00
ROOT
ATOM      1  C   UNL     1      -2.650  11.497   8.167  1.00  0.00    -0.070 C 
ATOM      2  C   UNL     1      -2.304  11.514   6.848  1.00  0.00    -0.027 C 
ATOM      3  C   UNL     1      -1.992  10.443   9.026  1.00  0.00     0.039 C 
ENDROOT
BRANCH   2   4
ATOM      4  C   UNL     1      -2.708  12.445   5.710  1.00  0.00     0.032 C 
BRANCH   4   5
ATOM      5  C   UNL     1      -2.633  13.954   5.975  1.00  0.00     0.034 C 
BRANCH   5   6
ATOM      6  C   UNL     1      -3.813  14.830   5.533  1.00  0.00    -0.077 C 
ATOM      7  C   UNL     1      -3.631  15.545   4.211  1.00  0.00     0.039 C 
ATOM      8  C   UNL     1      -5.035  14.991   6.124  1.00  0.00    -0.023 CG0
ATOM      9  G   UNL     1      -5.606  14.400   7.399  1.00  0.00     0.000 G0
ENDBRANCH   5   6
ENDBRANCH   4   5
ENDBRANCH   2   4
BRANCH   1  10
ATOM     10  C   UNL     1      -3.635  12.423   8.863  1.00  0.00     0.111 C 
BRANCH  10  11
ATOM     11  C   UNL     1      -5.048  12.146   8.450  1.00  0.00     0.163 C 
ATOM     12  O   UNL     1      -5.724  11.309   9.108  1.00  0.00    -0.294 OA
BRANCH  11  13
ATOM     13  C   UNL     1      -5.663  12.874   7.310  1.00  0.00    -0.002 C 
ATOM     14  C   UNL     1      -6.247  12.209   6.272  1.00  0.00    -0.069 C 
ATOM     15  C   UNL     1      -6.968  12.945   5.164  1.00  0.00     0.039 C 
ATOM     16  C   UNL     1      -6.183  10.702   6.174  1.00  0.00     0.039 C 
BRANCH  13  17
ATOM     17  C   UNL     1      -5.618  14.386   7.384  1.00  0.00     0.066 CG0
ATOM     18  G   UNL     1      -5.048  15.000   6.120  1.00  0.00     0.000 G0
ENDBRANCH  13  17
ENDBRANCH  11  13
ENDBRANCH  10  11
ENDBRANCH   1  10
TORSDOF 0
ENDMDL
MODEL 2
REMARK VINA RESULT:     3.393      1.945      4.376
REMARK INTER + INTRA:           5.369
REMARK INTER:                   4.898
REMARK INTRA:                   0.471
REMARK UNBOUND:                 0.587
REMARK SMILES CC1=CCC(=C(C)C)C(=O)CC(C)=CCC1
REMARK SMILES IDX 12 1 14 2 13 3 15 4 16 5 2 6 1 7 3 8 11 10 9 11 10 12 5 13
REMARK SMILES IDX 6 14 7 15 8 16 4 17
REMARK H PARENT
REMARK Flexibility Score: 60.00
ROOT
ATOM      1  C   UNL     1      -5.939  13.340   8.212  1.00  0.00    -0.070 C 
ATOM      2  C   UNL     1      -5.500  12.427   9.125  1.00  0.00    -0.027 C 
ATOM      3  C   UNL     1      -6.565  14.600   8.764  1.00  0.00     0.039 C 
ENDROOT
BRANCH   2   4
ATOM      4  C   UNL     1      -4.780  11.093   8.953  1.00  0.00     0.032 C 
BRANCH   4   5
ATOM      5  C   UNL     1      -3.250  11.128   8.847  1.00  0.00     0.034 C 
BRANCH   5   6
ATOM      6  C   UNL     1      -2.619  11.210   7.449  1.00  0.00    -0.077 C 
ATOM      7  C   UNL     1      -2.197   9.886   6.851  1.00  0.00     0.039 C 
ATOM      8  C   UNL     1      -2.461  12.298   6.639  1.00  0.00    -0.023 CG0
ATOM      9  G   UNL     1      -2.814  13.757   6.856  1.00  0.00     0.000 G0
ENDBRANCH   5   6
ENDBRANCH   4   5
ENDBRANCH   2   4
BRANCH   1  10
ATOM     10  C   UNL     1      -5.872  13.222   6.698  1.00  0.00     0.111 C 
BRANCH  10  11
ATOM     11  C   UNL     1      -5.163  14.387   6.078  1.00  0.00     0.163 C 
ATOM     12  O   UNL     1      -5.805  15.452   5.869  1.00  0.00    -0.294 OA
BRANCH  11  13
ATOM     13  C   UNL     1      -3.716  14.310   5.751  1.00  0.00    -0.002 C 
ATOM     14  C   UNL     1      -3.235  14.726   4.544  1.00  0.00    -0.069 C 
ATOM     15  C   UNL     1      -1.752  14.749   4.247  1.00  0.00     0.039 C 
ATOM     16  C   UNL     1      -4.168  15.167   3.440  1.00  0.00     0.039 C 
BRANCH  13  17
ATOM     17  C   UNL     1      -2.816  13.763   6.840  1.00  0.00     0.066 CG0
ATOM     18  G   UNL     1      -2.467  12.306   6.610  1.00  0.00     0.000 G0
ENDBRANCH  13  17
ENDBRANCH  11  13
ENDBRANCH  10  11
ENDBRANCH   1  10
TORSDOF 0
ENDMDL
MODEL 3
REMARK VINA RESULT:     3.457      1.625      3.450
REMARK INTER + INTRA:           5.459
REMARK INTER:                   5.183
REMARK INTRA:                   0.276
REMARK UNBOUND:                 0.587
REMARK SMILES CC1=CCC(=C(C)C)C(=O)CC(C)=CCC1
REMARK SMILES IDX 12 1 14 2 13 3 15 4 16 5 2 6 1 7 3 8 11 10 9 11 10 12 5 13
REMARK SMILES IDX 6 14 7 15 8 16 4 17
REMARK H PARENT
REMARK Flexibility Score: 60.00
ROOT
ATOM      1  C   UNL     1      -2.878  10.879   8.085  1.00  0.00    -0.070 C 
ATOM      2  C   UNL     1      -4.076  10.922   8.735  1.00  0.00    -0.027 C 
ATOM      3  C   UNL     1      -1.792  10.043   8.722  1.00  0.00     0.039 C 
ENDROOT
BRANCH   2   4
ATOM      4  C   UNL     1      -5.395  11.598   8.376  1.00  0.00     0.032 C 
BRANCH   4   5
ATOM      5  C   UNL     1      -5.751  12.888   9.125  1.00  0.00     0.034 C 
BRANCH   5   6
ATOM      6  C   UNL     1      -6.021  14.156   8.303  1.00  0.00    -0.077 C 
ATOM      7  C   UNL     1      -6.630  15.310   9.071  1.00  0.00     0.039 C 
ATOM      8  C   UNL     1      -5.714  14.417   6.997  1.00  0.00    -0.023 CG0
ATOM      9  G   UNL     1      -5.054  13.552   5.941  1.00  0.00     0.000 G0
ENDBRANCH   5   6
ENDBRANCH   4   5
ENDBRANCH   2   4
BRANCH   1  10
ATOM     10  C   UNL     1      -2.516  11.589   6.790  1.00  0.00     0.111 C 
BRANCH  10  11
ATOM     11  C   UNL     1      -2.772  13.063   6.872  1.00  0.00     0.163 C 
ATOM     12  O   UNL     1      -2.254  13.721   7.814  1.00  0.00    -0.294 OA
BRANCH  11  13
ATOM     13  C   UNL     1      -3.589  13.751   5.839  1.00  0.00    -0.002 C 
ATOM     14  C   UNL     1      -3.011  14.493   4.851  1.00  0.00    -0.069 C 
ATOM     15  C   UNL     1      -3.830  15.106   3.737  1.00  0.00     0.039 C 
ATOM     16  C   UNL     1      -1.521  14.750   4.836  1.00  0.00     0.039 C 
BRANCH  13  17
ATOM     17  C   UNL     1      -5.088  13.562   5.941  1.00  0.00     0.066 CG0
ATOM     18  G   UNL     1      -5.701  14.450   7.006  1.00  0.00     0.000 G0
ENDBRANCH  13  17
ENDBRANCH  11  13
ENDBRANCH  10  11
ENDBRANCH   1  10
TORSDOF 0
ENDMDL
MODEL 4
REMARK VINA RESULT:     4.068      1.710      3.791
REMARK INTER + INTRA:           6.320
REMARK INTER:                   5.347
REMARK INTRA:                   0.973
REMARK UNBOUND:                 0.587
REMARK SMILES CC1=CCC(=C(C)C)C(=O)CC(C)=CCC1
REMARK SMILES IDX 12 1 14 2 13 3 15 4 16 5 2 6 1 7 3 8 11 10 9 11 10 12 5 13
REMARK SMILES IDX 6 14 7 15 8 16 4 17
REMARK H PARENT
REMARK Flexibility Score: 60.00
ROOT
ATOM      1  C   UNL     1      -4.540  14.965   5.990  1.00  0.00    -0.070 C 
ATOM      2  C   UNL     1      -3.602  14.138   5.446  1.00  0.00    -0.027 C 
ATOM      3  C   UNL     1      -5.330  15.820   5.026  1.00  0.00     0.039 C 
ENDROOT
BRANCH   2   4
ATOM      4  C   UNL     1      -2.671  13.111   6.082  1.00  0.00     0.032 C 
BRANCH   4   5
ATOM      5  C   UNL     1      -2.607  13.072   7.613  1.00  0.00     0.034 C 
BRANCH   5   6
ATOM      6  C   UNL     1      -2.946  11.754   8.323  1.00  0.00    -0.077 C 
ATOM      7  C   UNL     1      -1.808  10.761   8.423  1.00  0.00     0.039 C 
ATOM      8  C   UNL     1      -4.103  11.385   8.948  1.00  0.00    -0.023 CG0
ATOM      9  G   UNL     1      -5.419  12.121   9.115  1.00  0.00     0.000 G0
ENDBRANCH   5   6
ENDBRANCH   4   5
ENDBRANCH   2   4
BRANCH   1  10
ATOM     10  C   UNL     1      -4.870  15.124   7.466  1.00  0.00     0.111 C 
BRANCH  10  11
ATOM     11  C   UNL     1      -6.017  14.254   7.878  1.00  0.00     0.163 C 
ATOM     12  O   UNL     1      -7.102  14.797   8.222  1.00  0.00    -0.294 OA
BRANCH  11  13
ATOM     13  C   UNL     1      -5.900  12.773   7.845  1.00  0.00    -0.002 C 
ATOM     14  C   UNL     1      -6.196  12.060   6.721  1.00  0.00    -0.069 C 
ATOM     15  C   UNL     1      -5.976  10.565   6.649  1.00  0.00     0.039 C 
ATOM     16  C   UNL     1      -6.779  12.732   5.498  1.00  0.00     0.039 C 
BRANCH  13  17
ATOM     17  C   UNL     1      -5.414  12.117   9.120  1.00  0.00     0.066 CG0
ATOM     18  G   UNL     1      -4.102  11.384   8.918  1.00  0.00     0.000 G0
ENDBRANCH  13  17
ENDBRANCH  11  13
ENDBRANCH  10  11
ENDBRANCH   1  10
TORSDOF 0
ENDMDL
MODEL 5
REMARK VINA RESULT:     4.293      1.807      3.975
REMARK INTER + INTRA:           6.637
REMARK INTER:                   5.669
REMARK INTRA:                   0.968
REMARK UNBOUND:                 0.587
REMARK SMILES CC1=CCC(=C(C)C)C(=O)CC(C)=CCC1
REMARK SMILES IDX 12 1 14 2 13 3 15 4 16 5 2 6 1 7 3 8 11 10 9 11 10 12 5 13
REMARK SMILES IDX 6 14 7 15 8 16 4 17
REMARK H PARENT
REMARK Flexibility Score: 60.00
ROOT
ATOM      1  C   UNL     1      -3.246  13.630   5.919  1.00  0.00    -0.070 C 
ATOM      2  C   UNL     1      -2.274  13.965   6.814  1.00  0.00    -0.027 C 
ATOM      3  C   UNL     1      -3.528  14.629   4.820  1.00  0.00     0.039 C 
ENDROOT
BRANCH   2   4
ATOM      4  C   UNL     1      -1.686  13.205   7.998  1.00  0.00     0.032 C 
BRANCH   4   5
ATOM      5  C   UNL     1      -2.650  12.789   9.116  1.00  0.00     0.034 C 
BRANCH   5   6
ATOM      6  C   UNL     1      -3.415  11.467   8.963  1.00  0.00    -0.077 C 
ATOM      7  C   UNL     1      -2.567  10.216   9.035  1.00  0.00     0.039 C 
ATOM      8  C   UNL     1      -4.761  11.260   8.854  1.00  0.00    -0.023 CG0
ATOM      9  G   UNL     1      -5.917  12.241   8.813  1.00  0.00     0.000 G0
ENDBRANCH   5   6
ENDBRANCH   4   5
ENDBRANCH   2   4
BRANCH   1  10
ATOM     10  C   UNL     1      -4.082  12.360   5.912  1.00  0.00     0.111 C 
BRANCH  10  11
ATOM     11  C   UNL     1      -5.495  12.620   6.335  1.00  0.00     0.163 C 
ATOM     12  O   UNL     1      -6.435  12.284   5.564  1.00  0.00    -0.294 OA
BRANCH  11  13
ATOM     13  C   UNL     1      -5.794  13.226   7.658  1.00  0.00    -0.002 C 
ATOM     14  C   UNL     1      -5.992  14.568   7.799  1.00  0.00    -0.069 C 
ATOM     15  C   UNL     1      -6.402  15.175   9.123  1.00  0.00     0.039 C 
ATOM     16  C   UNL     1      -5.793  15.515   6.637  1.00  0.00     0.039 C 
BRANCH  13  17
ATOM     17  C   UNL     1      -5.883  12.264   8.824  1.00  0.00     0.066 CG0
ATOM     18  G   UNL     1      -4.738  11.270   8.829  1.00  0.00     0.000 G0
ENDBRANCH  13  17
ENDBRANCH  11  13
ENDBRANCH  10  11
ENDBRANCH   1  10
TORSDOF 0
ENDMDL
MODEL 6
REMARK VINA RESULT:     5.471      1.388      3.658
REMARK INTER + INTRA:           8.296
REMARK INTER:                   7.000
REMARK INTRA:                   1.296
REMARK UNBOUND:                 0.587
REMARK SMILES CC1=CCC(=C(C)C)C(=O)CC(C)=CCC1
REMARK SMILES IDX 12 1 14 2 13 3 15 4 16 5 2 6 1 7 3 8 11 10 9 11 10 12 5 13
REMARK SMILES IDX 6 14 7 15 8 16 4 17
REMARK H PARENT
REMARK Flexibility Score: 60.00
ROOT
ATOM      1  C   UNL     1      -6.351  13.095   6.008  1.00  0.00    -0.070 C 
ATOM      2  C   UNL     1      -6.302  14.161   5.159  1.00  0.00    -0.027 C 
ATOM      3  C   UNL     1      -6.882  11.800   5.439  1.00  0.00     0.039 C 
ENDROOT
BRANCH   2   4
ATOM      4  C   UNL     1      -5.787  15.583   5.353  1.00  0.00     0.032 C 
BRANCH   4   5
ATOM      5  C   UNL     1      -4.284  15.759   5.607  1.00  0.00     0.034 C 
BRANCH   5   6
ATOM      6  C   UNL     1      -3.354  14.571   5.322  1.00  0.00    -0.077 C 
ATOM      7  C   UNL     1      -2.871  14.455   3.892  1.00  0.00     0.039 C 
ATOM      8  C   UNL     1      -2.838  13.654   6.193  1.00  0.00    -0.023 CG0
ATOM      9  G   UNL     1      -3.032  13.485   7.687  1.00  0.00     0.000 G0
ENDBRANCH   5   6
ENDBRANCH   4   5
ENDBRANCH   2   4
BRANCH   1  10
ATOM     10  C   UNL     1      -5.935  13.074   7.470  1.00  0.00     0.111 C 
BRANCH  10  11
ATOM     11  C   UNL     1      -5.022  11.925   7.774  1.00  0.00     0.163 C 
ATOM     12  O   UNL     1      -5.483  10.752   7.734  1.00  0.00    -0.294 OA
BRANCH  11  13
ATOM     13  C   UNL     1      -3.586  12.154   8.077  1.00  0.00    -0.002 C 
ATOM     14  C   UNL     1      -2.816  11.188   8.654  1.00  0.00    -0.069 C 
ATOM     15  C   UNL     1      -1.330  11.379   8.865  1.00  0.00     0.039 C 
ATOM     16  C   UNL     1      -3.420   9.885   9.125  1.00  0.00     0.039 C 
BRANCH  13  17
ATOM     17  C   UNL     1      -3.033  13.510   7.689  1.00  0.00     0.066 CG0
ATOM     18  G   UNL     1      -2.838  13.637   6.191  1.00  0.00     0.000 G0
ENDBRANCH  13  17
ENDBRANCH  11  13
ENDBRANCH  10  11
ENDBRANCH   1  10
TORSDOF 0
ENDMDL
