MODEL 1
REMARK VINA RESULT:    -5.290      0.000      0.000
REMARK INTER + INTRA:          -6.181
REMARK INTER:                  -5.909
REMARK INTRA:                  -0.272
REMARK UNBOUND:                -0.272
REMARK SMILES CC(=O)c1ccc(O)cc1O
REMARK SMILES IDX 4 1 10 2 9 3 7 4 6 5 5 6 2 7 1 8 3 9 11 10 8 12
REMARK H PARENT 11 11 8 13
REMARK Flexibility Score: inf
ROOT
ATOM      1  C   UNL     1      31.777   6.480 106.888  1.00  0.00     0.059 A 
ATOM      2  C   UNL     1      32.341   7.713 107.294  1.00  0.00     0.130 A 
ATOM      3  C   UNL     1      32.038   8.890 106.593  1.00  0.00     0.093 A 
ATOM      4  C   UNL     1      31.182   8.857 105.487  1.00  0.00     0.119 A 
ATOM      5  C   UNL     1      30.625   7.645 105.079  1.00  0.00     0.047 A 
ATOM      6  C   UNL     1      30.917   6.467 105.771  1.00  0.00     0.019 A 
ENDROOT
BRANCH   1   7
ATOM      7  C   UNL     1      32.073   5.214 107.621  1.00  0.00     0.163 C 
ATOM      8  C   UNL     1      32.832   4.091 106.980  1.00  0.00     0.093 C 
ATOM      9  O   UNL     1      31.659   5.054 108.801  1.00  0.00    -0.294 OA
ENDBRANCH   1   7
BRANCH   2  10
ATOM     10  O   UNL     1      33.211   7.774 108.384  1.00  0.00    -0.507 OA
ATOM     11  H   UNL     1      33.140   8.504 109.083  1.00  0.00     0.293 HD
ENDBRANCH   2  10
BRANCH   4  12
ATOM     12  O   UNL     1      30.879  10.023 104.787  1.00  0.00    -0.508 OA
ATOM     13  H   UNL     1      31.210  10.174 103.841  1.00  0.00     0.293 HD
ENDBRANCH   4  12
TORSDOF 3
ENDMDL
MODEL 2
REMARK VINA RESULT:    -4.935      1.118      2.072
REMARK INTER + INTRA:          -5.784
REMARK INTER:                  -5.685
REMARK INTRA:                  -0.099
REMARK UNBOUND:                -0.272
REMARK SMILES CC(=O)c1ccc(O)cc1O
REMARK SMILES IDX 4 1 10 2 9 3 7 4 6 5 5 6 2 7 1 8 3 9 11 10 8 12
REMARK H PARENT 11 11 8 13
REMARK Flexibility Score: inf
ROOT
ATOM      1  C   UNL     1      31.862   6.402 106.972  1.00  0.00     0.059 A 
ATOM      2  C   UNL     1      31.076   6.309 105.797  1.00  0.00     0.130 A 
ATOM      3  C   UNL     1      30.722   7.470 105.095  1.00  0.00     0.093 A 
ATOM      4  C   UNL     1      31.135   8.728 105.545  1.00  0.00     0.119 A 
ATOM      5  C   UNL     1      31.906   8.828 106.703  1.00  0.00     0.047 A 
ATOM      6  C   UNL     1      32.268   7.679 107.411  1.00  0.00     0.019 A 
ENDROOT
BRANCH   1   7
ATOM      7  C   UNL     1      32.262   5.184 107.734  1.00  0.00     0.163 C 
ATOM      8  C   UNL     1      33.346   4.270 107.247  1.00  0.00     0.093 C 
ATOM      9  O   UNL     1      31.666   4.882 108.803  1.00  0.00    -0.294 OA
ENDBRANCH   1   7
BRANCH   2  10
ATOM     10  O   UNL     1      30.636   5.069 105.332  1.00  0.00    -0.507 OA
ATOM     11  H   UNL     1      30.195   4.395 105.947  1.00  0.00     0.293 HD
ENDBRANCH   2  10
BRANCH   4  12
ATOM     12  O   UNL     1      30.784   9.883 104.850  1.00  0.00    -0.508 OA
ATOM     13  H   UNL     1      31.385  10.273 104.134  1.00  0.00     0.293 HD
ENDBRANCH   4  12
TORSDOF 3
ENDMDL
MODEL 3
REMARK VINA RESULT:    -4.853      1.669      4.275
REMARK INTER + INTRA:          -5.693
REMARK INTER:                  -5.493
REMARK INTRA:                  -0.200
REMARK UNBOUND:                -0.272
REMARK SMILES CC(=O)c1ccc(O)cc1O
REMARK SMILES IDX 4 1 10 2 9 3 7 4 6 5 5 6 2 7 1 8 3 9 11 10 8 12
REMARK H PARENT 11 11 8 13
REMARK Flexibility Score: inf
ROOT
ATOM      1  C   UNL     1      31.417   7.428 106.246  1.00  0.00     0.059 A 
ATOM      2  C   UNL     1      31.376   6.085 106.693  1.00  0.00     0.130 A 
ATOM      3  C   UNL     1      32.116   5.698 107.821  1.00  0.00     0.093 A 
ATOM      4  C   UNL     1      32.899   6.629 108.511  1.00  0.00     0.119 A 
ATOM      5  C   UNL     1      32.947   7.952 108.074  1.00  0.00     0.047 A 
ATOM      6  C   UNL     1      32.214   8.351 106.954  1.00  0.00     0.019 A 
ENDROOT
BRANCH   1   7
ATOM      7  C   UNL     1      30.634   7.870 105.056  1.00  0.00     0.163 C 
ATOM      8  C   UNL     1      30.249   9.306 104.853  1.00  0.00     0.093 C 
ATOM      9  O   UNL     1      30.250   7.027 104.201  1.00  0.00    -0.294 OA
ENDBRANCH   1   7
BRANCH   2  10
ATOM     10  O   UNL     1      30.615   5.131 106.016  1.00  0.00    -0.507 OA
ATOM     11  H   UNL     1      30.294   4.285 106.471  1.00  0.00     0.293 HD
ENDBRANCH   2  10
BRANCH   4  12
ATOM     12  O   UNL     1      33.636   6.247 109.631  1.00  0.00    -0.508 OA
ATOM     13  H   UNL     1      33.883   6.913 110.353  1.00  0.00     0.293 HD
ENDBRANCH   4  12
TORSDOF 3
ENDMDL
MODEL 4
REMARK VINA RESULT:    -4.803      1.437      4.512
REMARK INTER + INTRA:          -5.637
REMARK INTER:                  -5.330
REMARK INTRA:                  -0.307
REMARK UNBOUND:                -0.272
REMARK SMILES CC(=O)c1ccc(O)cc1O
REMARK SMILES IDX 4 1 10 2 9 3 7 4 6 5 5 6 2 7 1 8 3 9 11 10 8 12
REMARK H PARENT 11 11 8 13
REMARK Flexibility Score: inf
ROOT
ATOM      1  C   UNL     1      31.707   8.235 106.227  1.00  0.00     0.059 A 
ATOM      2  C   UNL     1      30.974   7.160 105.667  1.00  0.00     0.130 A 
ATOM      3  C   UNL     1      30.995   5.899 106.282  1.00  0.00     0.093 A 
ATOM      4  C   UNL     1      31.738   5.689 107.448  1.00  0.00     0.119 A 
ATOM      5  C   UNL     1      32.465   6.742 108.003  1.00  0.00     0.047 A 
ATOM      6  C   UNL     1      32.451   8.003 107.402  1.00  0.00     0.019 A 
ENDROOT
BRANCH   1   7
ATOM      7  C   UNL     1      31.696   9.588 105.601  1.00  0.00     0.163 C 
ATOM      8  C   UNL     1      32.964  10.338 105.320  1.00  0.00     0.093 C 
ATOM      9  O   UNL     1      30.601  10.146 105.318  1.00  0.00    -0.294 OA
ENDBRANCH   1   7
BRANCH   2  10
ATOM     10  O   UNL     1      30.236   7.336 104.496  1.00  0.00    -0.507 OA
ATOM     11  H   UNL     1      29.557   8.082 104.401  1.00  0.00     0.293 HD
ENDBRANCH   2  10
BRANCH   4  12
ATOM     12  O   UNL     1      31.762   4.438 108.062  1.00  0.00    -0.508 OA
ATOM     13  H   UNL     1      32.059   3.609 107.561  1.00  0.00     0.293 HD
ENDBRANCH   4  12
TORSDOF 3
ENDMDL
MODEL 5
REMARK VINA RESULT:    -4.780      1.577      2.811
REMARK INTER + INTRA:          -5.611
REMARK INTER:                  -5.317
REMARK INTRA:                  -0.294
REMARK UNBOUND:                -0.272
REMARK SMILES CC(=O)c1ccc(O)cc1O
REMARK SMILES IDX 4 1 10 2 9 3 7 4 6 5 5 6 2 7 1 8 3 9 11 10 8 12
REMARK H PARENT 11 11 8 13
REMARK Flexibility Score: inf
ROOT
ATOM      1  C   UNL     1      31.919   7.628 107.211  1.00  0.00     0.059 A 
ATOM      2  C   UNL     1      31.515   6.296 106.944  1.00  0.00     0.130 A 
ATOM      3  C   UNL     1      30.821   5.996 105.762  1.00  0.00     0.093 A 
ATOM      4  C   UNL     1      30.519   7.003 104.840  1.00  0.00     0.119 A 
ATOM      5  C   UNL     1      30.909   8.316 105.098  1.00  0.00     0.047 A 
ATOM      6  C   UNL     1      31.602   8.629 106.270  1.00  0.00     0.019 A 
ENDROOT
BRANCH   1   7
ATOM      7  C   UNL     1      32.666   7.975 108.454  1.00  0.00     0.163 C 
ATOM      8  C   UNL     1      34.074   8.487 108.411  1.00  0.00     0.093 C 
ATOM      9  O   UNL     1      32.127   7.813 109.583  1.00  0.00    -0.294 OA
ENDBRANCH   1   7
BRANCH   2  10
ATOM     10  O   UNL     1      31.790   5.274 107.853  1.00  0.00    -0.507 OA
ATOM     11  H   UNL     1      32.235   4.410 107.565  1.00  0.00     0.293 HD
ENDBRANCH   2  10
BRANCH   4  12
ATOM     12  O   UNL     1      29.829   6.708 103.666  1.00  0.00    -0.508 OA
ATOM     13  H   UNL     1      29.282   5.860 103.572  1.00  0.00     0.293 HD
ENDBRANCH   4  12
TORSDOF 3
ENDMDL
MODEL 6
REMARK VINA RESULT:    -4.729      1.180      4.055
REMARK INTER + INTRA:          -5.554
REMARK INTER:                  -5.250
REMARK INTRA:                  -0.304
REMARK UNBOUND:                -0.272
REMARK SMILES CC(=O)c1ccc(O)cc1O
REMARK SMILES IDX 4 1 10 2 9 3 7 4 6 5 5 6 2 7 1 8 3 9 11 10 8 12
REMARK H PARENT 11 11 8 13
REMARK Flexibility Score: inf
ROOT
ATOM      1  C   UNL     1      31.823   8.057 106.288  1.00  0.00     0.059 A 
ATOM      2  C   UNL     1      32.656   7.694 107.375  1.00  0.00     0.130 A 
ATOM      3  C   UNL     1      32.600   6.393 107.898  1.00  0.00     0.093 A 
ATOM      4  C   UNL     1      31.725   5.447 107.357  1.00  0.00     0.119 A 
ATOM      5  C   UNL     1      30.900   5.798 106.289  1.00  0.00     0.047 A 
ATOM      6  C   UNL     1      30.946   7.089 105.758  1.00  0.00     0.019 A 
ENDROOT
BRANCH   1   7
ATOM      7  C   UNL     1      31.867   9.430 105.705  1.00  0.00     0.163 C 
ATOM      8  C   UNL     1      30.616  10.183 105.365  1.00  0.00     0.093 C 
ATOM      9  O   UNL     1      32.976   9.977 105.456  1.00  0.00    -0.294 OA
ENDBRANCH   1   7
BRANCH   2  10
ATOM     10  O   UNL     1      33.528   8.622 107.945  1.00  0.00    -0.507 OA
ATOM     11  H   UNL     1      33.349   9.034 108.853  1.00  0.00     0.293 HD
ENDBRANCH   2  10
BRANCH   4  12
ATOM     12  O   UNL     1      31.667   4.154 107.875  1.00  0.00    -0.508 OA
ATOM     13  H   UNL     1      32.499   3.677 108.200  1.00  0.00     0.293 HD
ENDBRANCH   4  12
TORSDOF 3
ENDMDL
MODEL 7
REMARK VINA RESULT:    -4.685      2.048      3.023
REMARK INTER + INTRA:          -5.505
REMARK INTER:                  -5.255
REMARK INTRA:                  -0.250
REMARK UNBOUND:                -0.272
REMARK SMILES CC(=O)c1ccc(O)cc1O
REMARK SMILES IDX 4 1 10 2 9 3 7 4 6 5 5 6 2 7 1 8 3 9 11 10 8 12
REMARK H PARENT 11 11 8 13
REMARK Flexibility Score: inf
ROOT
ATOM      1  C   UNL     1      32.721   8.157 107.387  1.00  0.00     0.059 A 
ATOM      2  C   UNL     1      32.053   8.710 106.267  1.00  0.00     0.130 A 
ATOM      3  C   UNL     1      32.693   9.674 105.473  1.00  0.00     0.093 A 
ATOM      4  C   UNL     1      33.989  10.100 105.779  1.00  0.00     0.119 A 
ATOM      5  C   UNL     1      34.652   9.562 106.882  1.00  0.00     0.047 A 
ATOM      6  C   UNL     1      34.027   8.600 107.680  1.00  0.00     0.019 A 
ENDROOT
BRANCH   1   7
ATOM      7  C   UNL     1      32.069   7.124 108.243  1.00  0.00     0.163 C 
ATOM      8  C   UNL     1      32.470   5.680 108.180  1.00  0.00     0.093 C 
ATOM      9  O   UNL     1      31.135   7.447 109.025  1.00  0.00    -0.294 OA
ENDBRANCH   1   7
BRANCH   2  10
ATOM     10  O   UNL     1      30.753   8.316 105.947  1.00  0.00    -0.507 OA
ATOM     11  H   UNL     1      30.041   8.988 105.687  1.00  0.00     0.293 HD
ENDBRANCH   2  10
BRANCH   4  12
ATOM     12  O   UNL     1      34.628  11.057 104.993  1.00  0.00    -0.508 OA
ATOM     13  H   UNL     1      35.239  10.793 104.230  1.00  0.00     0.293 HD
ENDBRANCH   4  12
TORSDOF 3
ENDMDL
MODEL 8
REMARK VINA RESULT:    -4.634      1.689      3.951
REMARK INTER + INTRA:          -5.448
REMARK INTER:                  -5.145
REMARK INTRA:                  -0.303
REMARK UNBOUND:                -0.272
REMARK SMILES CC(=O)c1ccc(O)cc1O
REMARK SMILES IDX 4 1 10 2 9 3 7 4 6 5 5 6 2 7 1 8 3 9 11 10 8 12
REMARK H PARENT 11 11 8 13
REMARK Flexibility Score: inf
ROOT
ATOM      1  C   UNL     1      31.728   7.891 106.513  1.00  0.00     0.059 A 
ATOM      2  C   UNL     1      32.911   8.601 106.834  1.00  0.00     0.130 A 
ATOM      3  C   UNL     1      33.654   8.250 107.971  1.00  0.00     0.093 A 
ATOM      4  C   UNL     1      33.235   7.203 108.799  1.00  0.00     0.119 A 
ATOM      5  C   UNL     1      32.070   6.502 108.491  1.00  0.00     0.047 A 
ATOM      6  C   UNL     1      31.322   6.840 107.360  1.00  0.00     0.019 A 
ENDROOT
BRANCH   1   7
ATOM      7  C   UNL     1      30.923   8.235 105.305  1.00  0.00     0.163 C 
ATOM      8  C   UNL     1      30.423   7.181 104.364  1.00  0.00     0.093 C 
ATOM      9  O   UNL     1      30.671   9.441 105.035  1.00  0.00    -0.294 OA
ENDBRANCH   1   7
BRANCH   2  10
ATOM     10  O   UNL     1      33.345   9.660 106.036  1.00  0.00    -0.507 OA
ATOM     11  H   UNL     1      33.033  10.610 106.195  1.00  0.00     0.293 HD
ENDBRANCH   2  10
BRANCH   4  12
ATOM     12  O   UNL     1      33.970   6.852 109.929  1.00  0.00    -0.508 OA
ATOM     13  H   UNL     1      33.515   6.586 110.795  1.00  0.00     0.293 HD
ENDBRANCH   4  12
TORSDOF 3
ENDMDL
MODEL 9
REMARK VINA RESULT:    -4.564      2.786      4.697
REMARK INTER + INTRA:          -5.370
REMARK INTER:                  -5.065
REMARK INTRA:                  -0.305
REMARK UNBOUND:                -0.272
REMARK SMILES CC(=O)c1ccc(O)cc1O
REMARK SMILES IDX 4 1 10 2 9 3 7 4 6 5 5 6 2 7 1 8 3 9 11 10 8 12
REMARK H PARENT 11 11 8 13
REMARK Flexibility Score: inf
ROOT
ATOM      1  C   UNL     1      34.221   9.445 106.851  1.00  0.00     0.059 A 
ATOM      2  C   UNL     1      33.236   9.610 105.847  1.00  0.00     0.130 A 
ATOM      3  C   UNL     1      32.051   8.861 105.896  1.00  0.00     0.093 A 
ATOM      4  C   UNL     1      31.832   7.943 106.929  1.00  0.00     0.119 A 
ATOM      5  C   UNL     1      32.800   7.773 107.918  1.00  0.00     0.047 A 
ATOM      6  C   UNL     1      33.983   8.514 107.883  1.00  0.00     0.019 A 
ENDROOT
BRANCH   1   7
ATOM      7  C   UNL     1      35.486  10.235 106.830  1.00  0.00     0.163 C 
ATOM      8  C   UNL     1      35.872  11.136 107.965  1.00  0.00     0.093 C 
ATOM      9  O   UNL     1      36.250  10.181 105.829  1.00  0.00    -0.294 OA
ENDBRANCH   1   7
BRANCH   2  10
ATOM     10  O   UNL     1      33.433  10.507 104.796  1.00  0.00    -0.507 OA
ATOM     11  H   UNL     1      32.813  11.293 104.643  1.00  0.00     0.293 HD
ENDBRANCH   2  10
BRANCH   4  12
ATOM     12  O   UNL     1      30.657   7.196 106.980  1.00  0.00    -0.508 OA
ATOM     13  H   UNL     1      30.504   6.408 106.362  1.00  0.00     0.293 HD
ENDBRANCH   4  12
TORSDOF 3
ENDMDL
