MODEL 1
REMARK VINA RESULT:    -7.609      0.000      0.000
REMARK INTER + INTRA:          -9.035
REMARK INTER:                  -8.721
REMARK INTRA:                  -0.314
REMARK UNBOUND:                -0.314
REMARK SMILES O=C1C[C@@H](c2ccc(O)cc2)Oc2cc(O)cc(O)c21
REMARK SMILES IDX 3 1 4 2 12 3 13 4 14 5 15 6 17 7 18 8 20 9 2 10 1 11 5 12
REMARK SMILES IDX 6 13 11 14 7 15 10 16 8 17 9 18 19 20 16 22
REMARK H PARENT 9 19 19 21 16 23
REMARK Flexibility Score: inf
ROOT
ATOM      1  C   UNL     1      -5.637   5.767   4.767  1.00  0.00     0.131 C 
ATOM      2  C   UNL     1      -6.296   5.519   6.131  1.00  0.00     0.211 C 
ATOM      3  O   UNL     1      -5.586   6.206   7.166  1.00  0.00    -0.484 OA
ATOM      4  C   UNL     1      -5.054   7.491   6.992  1.00  0.00     0.138 A 
ATOM      5  C   UNL     1      -4.625   8.205   8.114  1.00  0.00     0.093 A 
ATOM      6  C   UNL     1      -4.105   9.491   7.976  1.00  0.00     0.123 A 
ATOM      7  C   UNL     1      -3.985  10.059   6.703  1.00  0.00     0.093 A 
ATOM      8  C   UNL     1      -4.371   9.347   5.560  1.00  0.00     0.133 A 
ATOM      9  C   UNL     1      -4.946   8.056   5.702  1.00  0.00     0.102 A 
ATOM     10  C   UNL     1      -5.455   7.243   4.571  1.00  0.00     0.174 C 
ATOM     11  O   UNL     1      -5.786   7.765   3.474  1.00  0.00    -0.294 OA
ENDROOT
BRANCH   2  12
ATOM     12  C   UNL     1      -6.352   4.042   6.437  1.00  0.00    -0.007 A 
ATOM     13  C   UNL     1      -7.157   3.190   5.662  1.00  0.00     0.011 A 
ATOM     14  C   UNL     1      -5.561   3.492   7.460  1.00  0.00     0.011 A 
ATOM     15  C   UNL     1      -7.187   1.817   5.922  1.00  0.00     0.046 A 
ATOM     16  C   UNL     1      -5.592   2.119   7.718  1.00  0.00     0.046 A 
ATOM     17  C   UNL     1      -6.406   1.278   6.953  1.00  0.00     0.115 A 
BRANCH  17  18
ATOM     18  O   UNL     1      -6.429  -0.089   7.222  1.00  0.00    -0.508 OA
ATOM     19  H   UNL     1      -6.368  -0.442   8.171  1.00  0.00     0.293 HD
ENDBRANCH  17  18
ENDBRANCH   2  12
BRANCH   8  20
ATOM     20  O   UNL     1      -4.133   9.945   4.321  1.00  0.00    -0.507 OA
ATOM     21  H   UNL     1      -4.848  10.385   3.759  1.00  0.00     0.293 HD
ENDBRANCH   8  20
BRANCH   6  22
ATOM     22  O   UNL     1      -3.702  10.195   9.109  1.00  0.00    -0.508 OA
ATOM     23  H   UNL     1      -3.633  11.206   9.107  1.00  0.00     0.293 HD
ENDBRANCH   6  22
TORSDOF 4
ENDMDL
MODEL 2
REMARK VINA RESULT:    -7.513      9.472     11.525
REMARK INTER + INTRA:          -8.925
REMARK INTER:                  -8.640
REMARK INTRA:                  -0.285
REMARK UNBOUND:                -0.314
REMARK SMILES O=C1C[C@@H](c2ccc(O)cc2)Oc2cc(O)cc(O)c21
REMARK SMILES IDX 3 1 4 2 12 3 13 4 14 5 15 6 17 7 18 8 20 9 2 10 1 11 5 12
REMARK SMILES IDX 6 13 11 14 7 15 10 16 8 17 9 18 19 20 16 22
REMARK H PARENT 9 19 19 21 16 23
REMARK Flexibility Score: inf
ROOT
ATOM      1  C   UNL     1     -13.132   6.429   8.813  1.00  0.00     0.131 C 
ATOM      2  C   UNL     1     -13.429   7.880   9.216  1.00  0.00     0.211 C 
ATOM      3  O   UNL     1     -14.814   8.040   9.538  1.00  0.00    -0.484 OA
ATOM      4  C   UNL     1     -15.543   7.070  10.240  1.00  0.00     0.138 A 
ATOM      5  C   UNL     1     -16.796   7.407  10.757  1.00  0.00     0.093 A 
ATOM      6  C   UNL     1     -17.540   6.470  11.473  1.00  0.00     0.123 A 
ATOM      7  C   UNL     1     -17.040   5.175  11.650  1.00  0.00     0.093 A 
ATOM      8  C   UNL     1     -15.804   4.803  11.106  1.00  0.00     0.133 A 
ATOM      9  C   UNL     1     -15.023   5.769  10.418  1.00  0.00     0.102 A 
ATOM     10  C   UNL     1     -13.673   5.506   9.864  1.00  0.00     0.174 C 
ATOM     11  O   UNL     1     -12.951   4.566  10.291  1.00  0.00    -0.294 OA
ENDROOT
BRANCH   2  12
ATOM     12  C   UNL     1     -13.043   8.831   8.110  1.00  0.00    -0.007 A 
ATOM     13  C   UNL     1     -12.292   9.984   8.399  1.00  0.00     0.011 A 
ATOM     14  C   UNL     1     -13.379   8.551   6.775  1.00  0.00     0.011 A 
ATOM     15  C   UNL     1     -11.905  10.851   7.373  1.00  0.00     0.046 A 
ATOM     16  C   UNL     1     -12.992   9.420   5.750  1.00  0.00     0.046 A 
ATOM     17  C   UNL     1     -12.257  10.572   6.045  1.00  0.00     0.115 A 
BRANCH  17  18
ATOM     18  O   UNL     1     -11.879  11.429   5.014  1.00  0.00    -0.508 OA
ATOM     19  H   UNL     1     -11.079  11.228   4.425  1.00  0.00     0.293 HD
ENDBRANCH  17  18
ENDBRANCH   2  12
BRANCH   8  20
ATOM     20  O   UNL     1     -15.418   3.468  11.245  1.00  0.00    -0.507 OA
ATOM     21  H   UNL     1     -15.966   2.685  10.918  1.00  0.00     0.293 HD
ENDBRANCH   8  20
BRANCH   6  22
ATOM     22  O   UNL     1     -18.778   6.832  11.999  1.00  0.00    -0.508 OA
ATOM     23  H   UNL     1     -19.583   6.983  11.402  1.00  0.00     0.293 HD
ENDBRANCH   6  22
TORSDOF 4
ENDMDL
MODEL 3
REMARK VINA RESULT:    -7.351      8.054     10.726
REMARK INTER + INTRA:          -8.739
REMARK INTER:                  -8.419
REMARK INTRA:                  -0.320
REMARK UNBOUND:                -0.314
REMARK SMILES O=C1C[C@@H](c2ccc(O)cc2)Oc2cc(O)cc(O)c21
REMARK SMILES IDX 3 1 4 2 12 3 13 4 14 5 15 6 17 7 18 8 20 9 2 10 1 11 5 12
REMARK SMILES IDX 6 13 11 14 7 15 10 16 8 17 9 18 19 20 16 22
REMARK H PARENT 9 19 19 21 16 23
REMARK Flexibility Score: inf
ROOT
ATOM      1  C   UNL     1     -12.554   8.348   9.591  1.00  0.00     0.131 C 
ATOM      2  C   UNL     1     -13.389   8.652   8.339  1.00  0.00     0.211 C 
ATOM      3  O   UNL     1     -13.663   7.450   7.612  1.00  0.00    -0.484 OA
ATOM      4  C   UNL     1     -13.968   6.237   8.246  1.00  0.00     0.138 A 
ATOM      5  C   UNL     1     -14.492   5.189   7.486  1.00  0.00     0.093 A 
ATOM      6  C   UNL     1     -14.820   3.975   8.089  1.00  0.00     0.123 A 
ATOM      7  C   UNL     1     -14.595   3.797   9.458  1.00  0.00     0.093 A 
ATOM      8  C   UNL     1     -14.033   4.820  10.232  1.00  0.00     0.133 A 
ATOM      9  C   UNL     1     -13.744   6.073   9.631  1.00  0.00     0.102 A 
ATOM     10  C   UNL     1     -13.215   7.247  10.367  1.00  0.00     0.174 C 
ATOM     11  O   UNL     1     -13.354   7.368  11.612  1.00  0.00    -0.294 OA
ENDROOT
BRANCH   2  12
ATOM     12  C   UNL     1     -12.678   9.642   7.450  1.00  0.00    -0.007 A 
ATOM     13  C   UNL     1     -11.915  10.679   8.014  1.00  0.00     0.011 A 
ATOM     14  C   UNL     1     -12.721   9.508   6.051  1.00  0.00     0.011 A 
ATOM     15  C   UNL     1     -11.229  11.578   7.193  1.00  0.00     0.046 A 
ATOM     16  C   UNL     1     -12.035  10.409   5.232  1.00  0.00     0.046 A 
ATOM     17  C   UNL     1     -11.289  11.447   5.799  1.00  0.00     0.115 A 
BRANCH  17  18
ATOM     18  O   UNL     1     -10.610  12.338   4.971  1.00  0.00    -0.508 OA
ATOM     19  H   UNL     1     -11.060  12.762   4.167  1.00  0.00     0.293 HD
ENDBRANCH  17  18
ENDBRANCH   2  12
BRANCH   8  20
ATOM     20  O   UNL     1     -13.753   4.532  11.570  1.00  0.00    -0.507 OA
ATOM     21  H   UNL     1     -14.030   3.680  12.034  1.00  0.00     0.293 HD
ENDBRANCH   8  20
BRANCH   6  22
ATOM     22  O   UNL     1     -15.361   2.949   7.318  1.00  0.00    -0.508 OA
ATOM     23  H   UNL     1     -16.092   3.126   6.639  1.00  0.00     0.293 HD
ENDBRANCH   6  22
TORSDOF 4
ENDMDL
MODEL 4
REMARK VINA RESULT:    -7.186      1.998      6.987
REMARK INTER + INTRA:          -8.550
REMARK INTER:                  -8.262
REMARK INTRA:                  -0.287
REMARK UNBOUND:                -0.314
REMARK SMILES O=C1C[C@@H](c2ccc(O)cc2)Oc2cc(O)cc(O)c21
REMARK SMILES IDX 3 1 4 2 12 3 13 4 14 5 15 6 17 7 18 8 20 9 2 10 1 11 5 12
REMARK SMILES IDX 6 13 11 14 7 15 10 16 8 17 9 18 19 20 16 22
REMARK H PARENT 9 19 19 21 16 23
REMARK Flexibility Score: inf
ROOT
ATOM      1  C   UNL     1      -6.306   6.043   7.087  1.00  0.00     0.131 C 
ATOM      2  C   UNL     1      -5.511   6.536   5.870  1.00  0.00     0.211 C 
ATOM      3  O   UNL     1      -4.503   5.585   5.509  1.00  0.00    -0.484 OA
ATOM      4  C   UNL     1      -4.720   4.201   5.552  1.00  0.00     0.138 A 
ATOM      5  C   UNL     1      -3.802   3.352   4.929  1.00  0.00     0.093 A 
ATOM      6  C   UNL     1      -3.997   1.972   4.942  1.00  0.00     0.123 A 
ATOM      7  C   UNL     1      -5.102   1.432   5.609  1.00  0.00     0.093 A 
ATOM      8  C   UNL     1      -6.013   2.261   6.275  1.00  0.00     0.133 A 
ATOM      9  C   UNL     1      -5.844   3.670   6.222  1.00  0.00     0.102 A 
ATOM     10  C   UNL     1      -6.783   4.645   6.829  1.00  0.00     0.174 C 
ATOM     11  O   UNL     1      -7.980   4.345   7.082  1.00  0.00    -0.294 OA
ENDROOT
BRANCH   2  12
ATOM     12  C   UNL     1      -4.879   7.876   6.151  1.00  0.00    -0.007 A 
ATOM     13  C   UNL     1      -4.419   8.184   7.443  1.00  0.00     0.011 A 
ATOM     14  C   UNL     1      -4.691   8.811   5.118  1.00  0.00     0.011 A 
ATOM     15  C   UNL     1      -3.804   9.413   7.700  1.00  0.00     0.046 A 
ATOM     16  C   UNL     1      -4.077  10.039   5.377  1.00  0.00     0.046 A 
ATOM     17  C   UNL     1      -3.634  10.345   6.667  1.00  0.00     0.115 A 
BRANCH  17  18
ATOM     18  O   UNL     1      -3.024  11.574   6.912  1.00  0.00    -0.508 OA
ATOM     19  H   UNL     1      -3.187  12.374   6.312  1.00  0.00     0.293 HD
ENDBRANCH  17  18
ENDBRANCH   2  12
BRANCH   8  20
ATOM     20  O   UNL     1      -7.037   1.642   6.996  1.00  0.00    -0.507 OA
ATOM     21  H   UNL     1      -7.369   0.706   6.815  1.00  0.00     0.293 HD
ENDBRANCH   8  20
BRANCH   6  22
ATOM     22  O   UNL     1      -3.082   1.142   4.296  1.00  0.00    -0.508 OA
ATOM     23  H   UNL     1      -2.472   1.494   3.568  1.00  0.00     0.293 HD
ENDBRANCH   6  22
TORSDOF 4
ENDMDL
MODEL 5
REMARK VINA RESULT:    -7.160      3.974      7.651
REMARK INTER + INTRA:          -8.520
REMARK INTER:                  -8.210
REMARK INTRA:                  -0.311
REMARK UNBOUND:                -0.314
REMARK SMILES O=C1C[C@@H](c2ccc(O)cc2)Oc2cc(O)cc(O)c21
REMARK SMILES IDX 3 1 4 2 12 3 13 4 14 5 15 6 17 7 18 8 20 9 2 10 1 11 5 12
REMARK SMILES IDX 6 13 11 14 7 15 10 16 8 17 9 18 19 20 16 22
REMARK H PARENT 9 19 19 21 16 23
REMARK Flexibility Score: inf
ROOT
ATOM      1  C   UNL     1      -5.773   9.438   3.081  1.00  0.00     0.131 C 
ATOM      2  C   UNL     1      -5.210  10.863   3.176  1.00  0.00     0.211 C 
ATOM      3  O   UNL     1      -4.985  11.226   4.542  1.00  0.00    -0.484 OA
ATOM      4  C   UNL     1      -4.477  10.326   5.489  1.00  0.00     0.138 A 
ATOM      5  C   UNL     1      -4.026  10.817   6.716  1.00  0.00     0.093 A 
ATOM      6  C   UNL     1      -3.502   9.949   7.674  1.00  0.00     0.123 A 
ATOM      7  C   UNL     1      -3.455   8.575   7.415  1.00  0.00     0.093 A 
ATOM      8  C   UNL     1      -3.939   8.056   6.208  1.00  0.00     0.133 A 
ATOM      9  C   UNL     1      -4.429   8.942   5.212  1.00  0.00     0.102 A 
ATOM     10  C   UNL     1      -4.899   8.510   3.873  1.00  0.00     0.174 C 
ATOM     11  O   UNL     1      -4.541   7.416   3.364  1.00  0.00    -0.294 OA
ENDROOT
BRANCH   2  12
ATOM     12  C   UNL     1      -6.146  11.851   2.526  1.00  0.00    -0.007 A 
ATOM     13  C   UNL     1      -6.239  11.923   1.126  1.00  0.00     0.011 A 
ATOM     14  C   UNL     1      -6.976  12.672   3.310  1.00  0.00     0.011 A 
ATOM     15  C   UNL     1      -7.128  12.816   0.521  1.00  0.00     0.046 A 
ATOM     16  C   UNL     1      -7.865  13.565   2.702  1.00  0.00     0.046 A 
ATOM     17  C   UNL     1      -7.942  13.641   1.309  1.00  0.00     0.115 A 
BRANCH  17  18
ATOM     18  O   UNL     1      -8.832  14.535   0.717  1.00  0.00    -0.508 OA
ATOM     19  H   UNL     1      -8.506  15.370   0.242  1.00  0.00     0.293 HD
ENDBRANCH  17  18
ENDBRANCH   2  12
BRANCH   8  20
ATOM     20  O   UNL     1      -3.945   6.666   6.063  1.00  0.00    -0.507 OA
ATOM     21  H   UNL     1      -3.338   6.043   6.575  1.00  0.00     0.293 HD
ENDBRANCH   8  20
BRANCH   6  22
ATOM     22  O   UNL     1      -3.037  10.461   8.883  1.00  0.00    -0.508 OA
ATOM     23  H   UNL     1      -2.059  10.403   9.141  1.00  0.00     0.293 HD
ENDBRANCH   6  22
TORSDOF 4
ENDMDL
MODEL 6
REMARK VINA RESULT:    -7.138      1.587      6.639
REMARK INTER + INTRA:          -8.495
REMARK INTER:                  -8.193
REMARK INTRA:                  -0.302
REMARK UNBOUND:                -0.314
REMARK SMILES O=C1C[C@@H](c2ccc(O)cc2)Oc2cc(O)cc(O)c21
REMARK SMILES IDX 3 1 4 2 12 3 13 4 14 5 15 6 17 7 18 8 20 9 2 10 1 11 5 12
REMARK SMILES IDX 6 13 11 14 7 15 10 16 8 17 9 18 19 20 16 22
REMARK H PARENT 9 19 19 21 16 23
REMARK Flexibility Score: inf
ROOT
ATOM      1  C   UNL     1      -6.304   6.075   4.747  1.00  0.00     0.131 C 
ATOM      2  C   UNL     1      -5.024   5.826   5.557  1.00  0.00     0.211 C 
ATOM      3  O   UNL     1      -5.201   4.722   6.452  1.00  0.00    -0.484 OA
ATOM      4  C   UNL     1      -5.909   3.566   6.095  1.00  0.00     0.138 A 
ATOM      5  C   UNL     1      -5.806   2.432   6.903  1.00  0.00     0.093 A 
ATOM      6  C   UNL     1      -6.486   1.262   6.568  1.00  0.00     0.123 A 
ATOM      7  C   UNL     1      -7.300   1.233   5.431  1.00  0.00     0.093 A 
ATOM      8  C   UNL     1      -7.451   2.371   4.628  1.00  0.00     0.133 A 
ATOM      9  C   UNL     1      -6.722   3.549   4.940  1.00  0.00     0.102 A 
ATOM     10  C   UNL     1      -6.749   4.786   4.122  1.00  0.00     0.174 C 
ATOM     11  O   UNL     1      -7.083   4.773   2.908  1.00  0.00    -0.294 OA
ENDROOT
BRANCH   2  12
ATOM     12  C   UNL     1      -4.633   7.060   6.331  1.00  0.00    -0.007 A 
ATOM     13  C   UNL     1      -3.717   7.976   5.786  1.00  0.00     0.011 A 
ATOM     14  C   UNL     1      -5.218   7.339   7.578  1.00  0.00     0.011 A 
ATOM     15  C   UNL     1      -3.375   9.136   6.486  1.00  0.00     0.046 A 
ATOM     16  C   UNL     1      -4.875   8.500   8.277  1.00  0.00     0.046 A 
ATOM     17  C   UNL     1      -3.953   9.400   7.736  1.00  0.00     0.115 A 
BRANCH  17  18
ATOM     18  O   UNL     1      -3.620  10.553   8.443  1.00  0.00    -0.508 OA
ATOM     19  H   UNL     1      -3.096  10.509   9.310  1.00  0.00     0.293 HD
ENDBRANCH  17  18
ENDBRANCH   2  12
BRANCH   8  20
ATOM     20  O   UNL     1      -8.354   2.291   3.565  1.00  0.00    -0.507 OA
ATOM     21  H   UNL     1      -8.769   3.095   3.115  1.00  0.00     0.293 HD
ENDBRANCH   8  20
BRANCH   6  22
ATOM     22  O   UNL     1      -6.353   0.134   7.375  1.00  0.00    -0.508 OA
ATOM     23  H   UNL     1      -5.893  -0.705   7.041  1.00  0.00     0.293 HD
ENDBRANCH   6  22
TORSDOF 4
ENDMDL
MODEL 7
REMARK VINA RESULT:    -7.110      1.915      7.057
REMARK INTER + INTRA:          -8.463
REMARK INTER:                  -8.147
REMARK INTRA:                  -0.316
REMARK UNBOUND:                -0.314
REMARK SMILES O=C1C[C@@H](c2ccc(O)cc2)Oc2cc(O)cc(O)c21
REMARK SMILES IDX 3 1 4 2 12 3 13 4 14 5 15 6 17 7 18 8 20 9 2 10 1 11 5 12
REMARK SMILES IDX 6 13 11 14 7 15 10 16 8 17 9 18 19 20 16 22
REMARK H PARENT 9 19 19 21 16 23
REMARK Flexibility Score: inf
ROOT
ATOM      1  C   UNL     1      -4.813   5.516   7.350  1.00  0.00     0.131 C 
ATOM      2  C   UNL     1      -5.649   6.599   6.654  1.00  0.00     0.211 C 
ATOM      3  O   UNL     1      -5.887   6.250   5.286  1.00  0.00    -0.484 OA
ATOM      4  C   UNL     1      -6.163   4.938   4.878  1.00  0.00     0.138 A 
ATOM      5  C   UNL     1      -6.654   4.719   3.590  1.00  0.00     0.093 A 
ATOM      6  C   UNL     1      -6.953   3.426   3.159  1.00  0.00     0.123 A 
ATOM      7  C   UNL     1      -6.730   2.341   4.012  1.00  0.00     0.093 A 
ATOM      8  C   UNL     1      -6.200   2.533   5.294  1.00  0.00     0.133 A 
ATOM      9  C   UNL     1      -5.941   3.852   5.753  1.00  0.00     0.102 A 
ATOM     10  C   UNL     1      -5.448   4.178   7.113  1.00  0.00     0.174 C 
ATOM     11  O   UNL     1      -5.596   3.386   8.081  1.00  0.00    -0.294 OA
ENDROOT
BRANCH   2  12
ATOM     12  C   UNL     1      -4.959   7.939   6.732  1.00  0.00    -0.007 A 
ATOM     13  C   UNL     1      -4.632   8.494   7.981  1.00  0.00     0.011 A 
ATOM     14  C   UNL     1      -4.586   8.622   5.561  1.00  0.00     0.011 A 
ATOM     15  C   UNL     1      -3.965   9.720   8.057  1.00  0.00     0.046 A 
ATOM     16  C   UNL     1      -3.919   9.848   5.640  1.00  0.00     0.046 A 
ATOM     17  C   UNL     1      -3.609  10.402   6.885  1.00  0.00     0.115 A 
BRANCH  17  18
ATOM     18  O   UNL     1      -2.945  11.624   6.949  1.00  0.00    -0.508 OA
ATOM     19  H   UNL     1      -2.214  11.865   6.289  1.00  0.00     0.293 HD
ENDBRANCH  17  18
ENDBRANCH   2  12
BRANCH   8  20
ATOM     20  O   UNL     1      -5.919   1.393   6.050  1.00  0.00    -0.507 OA
ATOM     21  H   UNL     1      -5.434   0.583   5.692  1.00  0.00     0.293 HD
ENDBRANCH   8  20
BRANCH   6  22
ATOM     22  O   UNL     1      -7.462   3.230   1.877  1.00  0.00    -0.508 OA
ATOM     23  H   UNL     1      -8.453   3.320   1.682  1.00  0.00     0.293 HD
ENDBRANCH   6  22
TORSDOF 4
ENDMDL
MODEL 8
REMARK VINA RESULT:    -6.914      8.811     10.719
REMARK INTER + INTRA:          -8.239
REMARK INTER:                  -7.949
REMARK INTRA:                  -0.289
REMARK UNBOUND:                -0.314
REMARK SMILES O=C1C[C@@H](c2ccc(O)cc2)Oc2cc(O)cc(O)c21
REMARK SMILES IDX 3 1 4 2 12 3 13 4 14 5 15 6 17 7 18 8 20 9 2 10 1 11 5 12
REMARK SMILES IDX 6 13 11 14 7 15 10 16 8 17 9 18 19 20 16 22
REMARK H PARENT 9 19 19 21 16 23
REMARK Flexibility Score: inf
ROOT
ATOM      1  C   UNL     1     -14.663   8.763   9.788  1.00  0.00     0.131 C 
ATOM      2  C   UNL     1     -13.750   8.028   8.797  1.00  0.00     0.211 C 
ATOM      3  O   UNL     1     -12.700   7.346   9.490  1.00  0.00    -0.484 OA
ATOM      4  C   UNL     1     -12.904   6.684  10.708  1.00  0.00     0.138 A 
ATOM      5  C   UNL     1     -11.917   5.816  11.181  1.00  0.00     0.093 A 
ATOM      6  C   UNL     1     -12.096   5.131  12.382  1.00  0.00     0.123 A 
ATOM      7  C   UNL     1     -13.259   5.336  13.132  1.00  0.00     0.093 A 
ATOM      8  C   UNL     1     -14.244   6.232  12.698  1.00  0.00     0.133 A 
ATOM      9  C   UNL     1     -14.086   6.894  11.451  1.00  0.00     0.102 A 
ATOM     10  C   UNL     1     -15.095   7.807  10.861  1.00  0.00     0.174 C 
ATOM     11  O   UNL     1     -16.308   7.763  11.196  1.00  0.00    -0.294 OA
ENDROOT
BRANCH   2  12
ATOM     12  C   UNL     1     -13.167   8.991   7.793  1.00  0.00    -0.007 A 
ATOM     13  C   UNL     1     -12.372  10.067   8.224  1.00  0.00     0.011 A 
ATOM     14  C   UNL     1     -13.363   8.794   6.414  1.00  0.00     0.011 A 
ATOM     15  C   UNL     1     -11.804  10.943   7.294  1.00  0.00     0.046 A 
ATOM     16  C   UNL     1     -12.794   9.672   5.487  1.00  0.00     0.046 A 
ATOM     17  C   UNL     1     -12.016  10.748   5.923  1.00  0.00     0.115 A 
BRANCH  17  18
ATOM     18  O   UNL     1     -11.456  11.615   4.987  1.00  0.00    -0.508 OA
ATOM     19  H   UNL     1     -10.958  11.268   4.175  1.00  0.00     0.293 HD
ENDBRANCH  17  18
ENDBRANCH   2  12
BRANCH   8  20
ATOM     20  O   UNL     1     -15.330   6.453  13.547  1.00  0.00    -0.507 OA
ATOM     21  H   UNL     1     -15.270   6.954  14.422  1.00  0.00     0.293 HD
ENDBRANCH   8  20
BRANCH   6  22
ATOM     22  O   UNL     1     -11.109   4.254  12.826  1.00  0.00    -0.508 OA
ATOM     23  H   UNL     1     -10.601   3.659  12.182  1.00  0.00     0.293 HD
ENDBRANCH   6  22
TORSDOF 4
ENDMDL
MODEL 9
REMARK VINA RESULT:    -6.789      2.882      8.315
REMARK INTER + INTRA:          -8.095
REMARK INTER:                  -7.786
REMARK INTRA:                  -0.309
REMARK UNBOUND:                -0.314
REMARK SMILES O=C1C[C@@H](c2ccc(O)cc2)Oc2cc(O)cc(O)c21
REMARK SMILES IDX 3 1 4 2 12 3 13 4 14 5 15 6 17 7 18 8 20 9 2 10 1 11 5 12
REMARK SMILES IDX 6 13 11 14 7 15 10 16 8 17 9 18 19 20 16 22
REMARK H PARENT 9 19 19 21 16 23
REMARK Flexibility Score: inf
ROOT
ATOM      1  C   UNL     1      -7.902   1.726   5.785  1.00  0.00     0.131 C 
ATOM      2  C   UNL     1      -6.590   2.271   5.202  1.00  0.00     0.211 C 
ATOM      3  O   UNL     1      -5.564   1.275   5.258  1.00  0.00    -0.484 OA
ATOM      4  C   UNL     1      -5.810  -0.080   4.995  1.00  0.00     0.138 A 
ATOM      5  C   UNL     1      -4.727  -0.939   4.795  1.00  0.00     0.093 A 
ATOM      6  C   UNL     1      -4.939  -2.289   4.518  1.00  0.00     0.123 A 
ATOM      7  C   UNL     1      -6.243  -2.792   4.468  1.00  0.00     0.093 A 
ATOM      8  C   UNL     1      -7.343  -1.957   4.705  1.00  0.00     0.133 A 
ATOM      9  C   UNL     1      -7.132  -0.573   4.940  1.00  0.00     0.102 A 
ATOM     10  C   UNL     1      -8.223   0.414   5.133  1.00  0.00     0.174 C 
ATOM     11  O   UNL     1      -9.392   0.202   4.716  1.00  0.00    -0.294 OA
ENDROOT
BRANCH   2  12
ATOM     12  C   UNL     1      -6.150   3.508   5.943  1.00  0.00    -0.007 A 
ATOM     13  C   UNL     1      -4.802   3.906   5.918  1.00  0.00     0.011 A 
ATOM     14  C   UNL     1      -7.086   4.309   6.621  1.00  0.00     0.011 A 
ATOM     15  C   UNL     1      -4.396   5.070   6.577  1.00  0.00     0.046 A 
ATOM     16  C   UNL     1      -6.677   5.472   7.280  1.00  0.00     0.046 A 
ATOM     17  C   UNL     1      -5.333   5.855   7.262  1.00  0.00     0.115 A 
BRANCH  17  18
ATOM     18  O   UNL     1      -4.940   7.016   7.924  1.00  0.00    -0.508 OA
ATOM     19  H   UNL     1      -4.333   7.698   7.481  1.00  0.00     0.293 HD
ENDBRANCH  17  18
ENDBRANCH   2  12
BRANCH   8  20
ATOM     20  O   UNL     1      -8.606  -2.552   4.731  1.00  0.00    -0.507 OA
ATOM     21  H   UNL     1      -8.827  -3.429   4.280  1.00  0.00     0.293 HD
ENDBRANCH   8  20
BRANCH   6  22
ATOM     22  O   UNL     1      -3.846  -3.125   4.300  1.00  0.00    -0.508 OA
ATOM     23  H   UNL     1      -3.515  -3.761   5.016  1.00  0.00     0.293 HD
ENDBRANCH   6  22
TORSDOF 4
ENDMDL
