MODEL 1
REMARK VINA RESULT:    -3.231      0.000      0.000
REMARK INTER + INTRA:          -3.823
REMARK INTER:                  -3.798
REMARK INTRA:                  -0.025
REMARK UNBOUND:                -0.025
REMARK SMILES CCCCC(=O)[O-]
REMARK SMILES IDX 4 1 5 2 6 3 7 4 3 5 2 6 1 7
REMARK H PARENT
REMARK Flexibility Score: inf
ROOT
ATOM      1  C   UNL     1      13.582  35.536  57.006  1.00  0.00     0.053 C 
ENDROOT
BRANCH   1   2
ATOM      2  C   UNL     1      12.477  34.721  56.414  1.00  0.00     0.041 C 
ATOM      3  O   UNL     1      11.401  34.557  57.047  1.00  0.00    -0.550 OA
ATOM      4  O   UNL     1      12.615  34.183  55.140  1.00  0.00    -0.550 OA
ENDBRANCH   1   2
BRANCH   1   5
ATOM      5  C   UNL     1      13.013  36.730  57.778  1.00  0.00     0.006 C 
BRANCH   5   6
ATOM      6  C   UNL     1      13.620  38.047  57.280  1.00  0.00    -0.003 C 
ATOM      7  C   UNL     1      13.275  39.202  58.214  1.00  0.00     0.004 C 
ENDBRANCH   5   6
ENDBRANCH   1   5
TORSDOF 3
ENDMDL
MODEL 2
REMARK VINA RESULT:    -3.214      2.627      4.194
REMARK INTER + INTRA:          -3.803
REMARK INTER:                  -3.762
REMARK INTRA:                  -0.041
REMARK UNBOUND:                -0.025
REMARK SMILES CCCCC(=O)[O-]
REMARK SMILES IDX 4 1 5 2 6 3 7 4 3 5 2 6 1 7
REMARK H PARENT
REMARK Flexibility Score: inf
ROOT
ATOM      1  C   UNL     1      12.925  36.759  57.876  1.00  0.00     0.053 C 
ENDROOT
BRANCH   1   2
ATOM      2  C   UNL     1      13.518  38.060  57.439  1.00  0.00     0.041 C 
ATOM      3  O   UNL     1      14.041  38.168  56.299  1.00  0.00    -0.550 OA
ATOM      4  O   UNL     1      13.450  39.171  58.272  1.00  0.00    -0.550 OA
ENDBRANCH   1   2
BRANCH   1   5
ATOM      5  C   UNL     1      13.460  35.610  57.016  1.00  0.00     0.006 C 
BRANCH   5   6
ATOM      6  C   UNL     1      12.321  34.696  56.551  1.00  0.00    -0.003 C 
ATOM      7  C   UNL     1      12.623  34.090  55.184  1.00  0.00     0.004 C 
ENDBRANCH   5   6
ENDBRANCH   1   5
TORSDOF 3
ENDMDL
MODEL 3
REMARK VINA RESULT:    -3.141      8.639      9.998
REMARK INTER + INTRA:          -3.717
REMARK INTER:                  -3.669
REMARK INTRA:                  -0.048
REMARK UNBOUND:                -0.025
REMARK SMILES CCCCC(=O)[O-]
REMARK SMILES IDX 4 1 5 2 6 3 7 4 3 5 2 6 1 7
REMARK H PARENT
REMARK Flexibility Score: inf
ROOT
ATOM      1  C   UNL     1      16.514  26.463  54.392  1.00  0.00     0.053 C 
ENDROOT
BRANCH   1   2
ATOM      2  C   UNL     1      15.513  25.621  53.670  1.00  0.00     0.041 C 
ATOM      3  O   UNL     1      14.578  26.162  53.023  1.00  0.00    -0.550 OA
ATOM      4  O   UNL     1      15.639  24.237  53.668  1.00  0.00    -0.550 OA
ENDBRANCH   1   2
BRANCH   1   5
ATOM      5  C   UNL     1      15.810  27.444  55.335  1.00  0.00     0.006 C 
BRANCH   5   6
ATOM      6  C   UNL     1      16.095  28.895  54.931  1.00  0.00    -0.003 C 
ATOM      7  C   UNL     1      16.056  29.823  56.141  1.00  0.00     0.004 C 
ENDBRANCH   5   6
ENDBRANCH   1   5
TORSDOF 3
ENDMDL
MODEL 4
REMARK VINA RESULT:    -3.135     18.424     19.096
REMARK INTER + INTRA:          -3.710
REMARK INTER:                  -3.678
REMARK INTRA:                  -0.032
REMARK UNBOUND:                -0.025
REMARK SMILES CCCCC(=O)[O-]
REMARK SMILES IDX 4 1 5 2 6 3 7 4 3 5 2 6 1 7
REMARK H PARENT
REMARK Flexibility Score: inf
ROOT
ATOM      1  C   UNL     1      29.608  37.917  49.461  1.00  0.00     0.053 C 
ENDROOT
BRANCH   1   2
ATOM      2  C   UNL     1      29.790  38.902  50.571  1.00  0.00     0.041 C 
ATOM      3  O   UNL     1      28.932  38.990  51.488  1.00  0.00    -0.550 OA
ATOM      4  O   UNL     1      30.933  39.690  50.621  1.00  0.00    -0.550 OA
ENDBRANCH   1   2
BRANCH   1   5
ATOM      5  C   UNL     1      30.290  38.415  48.183  1.00  0.00     0.006 C 
BRANCH   5   6
ATOM      6  C   UNL     1      29.665  37.772  46.940  1.00  0.00    -0.003 C 
ATOM      7  C   UNL     1      29.140  36.373  47.248  1.00  0.00     0.004 C 
ENDBRANCH   5   6
ENDBRANCH   1   5
TORSDOF 3
ENDMDL
MODEL 5
REMARK VINA RESULT:    -3.134     18.305     18.981
REMARK INTER + INTRA:          -3.708
REMARK INTER:                  -3.623
REMARK INTRA:                  -0.086
REMARK UNBOUND:                -0.025
REMARK SMILES CCCCC(=O)[O-]
REMARK SMILES IDX 4 1 5 2 6 3 7 4 3 5 2 6 1 7
REMARK H PARENT
REMARK Flexibility Score: inf
ROOT
ATOM      1  C   UNL     1      30.333  37.761  49.351  1.00  0.00     0.053 C 
ENDROOT
BRANCH   1   2
ATOM      2  C   UNL     1      29.509  38.516  50.344  1.00  0.00     0.041 C 
ATOM      3  O   UNL     1      29.988  39.520  50.932  1.00  0.00    -0.550 OA
ATOM      4  O   UNL     1      28.193  38.140  50.585  1.00  0.00    -0.550 OA
ENDBRANCH   1   2
BRANCH   1   5
ATOM      5  C   UNL     1      30.486  38.567  48.057  1.00  0.00     0.006 C 
BRANCH   5   6
ATOM      6  C   UNL     1      29.639  37.964  46.930  1.00  0.00    -0.003 C 
ATOM      7  C   UNL     1      29.254  36.521  47.242  1.00  0.00     0.004 C 
ENDBRANCH   5   6
ENDBRANCH   1   5
TORSDOF 3
ENDMDL
MODEL 6
REMARK VINA RESULT:    -3.039     18.020     18.631
REMARK INTER + INTRA:          -3.596
REMARK INTER:                  -3.552
REMARK INTRA:                  -0.044
REMARK UNBOUND:                -0.025
REMARK SMILES CCCCC(=O)[O-]
REMARK SMILES IDX 4 1 5 2 6 3 7 4 3 5 2 6 1 7
REMARK H PARENT
REMARK Flexibility Score: inf
ROOT
ATOM      1  C   UNL     1      30.035  37.839  49.165  1.00  0.00     0.053 C 
ENDROOT
BRANCH   1   2
ATOM      2  C   UNL     1      29.618  37.613  47.747  1.00  0.00     0.041 C 
ATOM      3  O   UNL     1      29.830  38.496  46.875  1.00  0.00    -0.550 OA
ATOM      4  O   UNL     1      29.039  36.405  47.377  1.00  0.00    -0.550 OA
ENDBRANCH   1   2
BRANCH   1   5
ATOM      5  C   UNL     1      28.824  37.768  50.099  1.00  0.00     0.006 C 
BRANCH   5   6
ATOM      6  C   UNL     1      28.985  38.730  51.282  1.00  0.00    -0.003 C 
ATOM      7  C   UNL     1      30.292  39.509  51.185  1.00  0.00     0.004 C 
ENDBRANCH   5   6
ENDBRANCH   1   5
TORSDOF 3
ENDMDL
MODEL 7
REMARK VINA RESULT:    -3.012      8.422     10.335
REMARK INTER + INTRA:          -3.565
REMARK INTER:                  -3.475
REMARK INTRA:                  -0.089
REMARK UNBOUND:                -0.025
REMARK SMILES CCCCC(=O)[O-]
REMARK SMILES IDX 4 1 5 2 6 3 7 4 3 5 2 6 1 7
REMARK H PARENT
REMARK Flexibility Score: inf
ROOT
ATOM      1  C   UNL     1      16.029  27.252  55.276  1.00  0.00     0.053 C 
ENDROOT
BRANCH   1   2
ATOM      2  C   UNL     1      15.907  28.719  55.017  1.00  0.00     0.041 C 
ATOM      3  O   UNL     1      15.791  29.147  53.838  1.00  0.00    -0.550 OA
ATOM      4  O   UNL     1      15.872  29.613  56.080  1.00  0.00    -0.550 OA
ENDBRANCH   1   2
BRANCH   1   5
ATOM      5  C   UNL     1      15.296  26.453  54.193  1.00  0.00     0.006 C 
BRANCH   5   6
ATOM      6  C   UNL     1      16.153  25.280  53.701  1.00  0.00    -0.003 C 
ATOM      7  C   UNL     1      17.630  25.658  53.655  1.00  0.00     0.004 C 
ENDBRANCH   5   6
ENDBRANCH   1   5
TORSDOF 3
ENDMDL
MODEL 8
REMARK VINA RESULT:    -2.964     11.155     11.932
REMARK INTER + INTRA:          -3.509
REMARK INTER:                  -3.480
REMARK INTRA:                  -0.029
REMARK UNBOUND:                -0.025
REMARK SMILES CCCCC(=O)[O-]
REMARK SMILES IDX 4 1 5 2 6 3 7 4 3 5 2 6 1 7
REMARK H PARENT
REMARK Flexibility Score: inf
ROOT
ATOM      1  C   UNL     1      22.929  41.033  57.840  1.00  0.00     0.053 C 
ENDROOT
BRANCH   1   2
ATOM      2  C   UNL     1      21.896  41.951  58.410  1.00  0.00     0.041 C 
ATOM      3  O   UNL     1      20.696  41.581  58.494  1.00  0.00    -0.550 OA
ATOM      4  O   UNL     1      22.267  43.200  58.894  1.00  0.00    -0.550 OA
ENDBRANCH   1   2
BRANCH   1   5
ATOM      5  C   UNL     1      23.926  41.814  56.979  1.00  0.00     0.006 C 
BRANCH   5   6
ATOM      6  C   UNL     1      24.458  40.948  55.831  1.00  0.00    -0.003 C 
ATOM      7  C   UNL     1      24.660  39.503  56.279  1.00  0.00     0.004 C 
ENDBRANCH   5   6
ENDBRANCH   1   5
TORSDOF 3
ENDMDL
MODEL 9
REMARK VINA RESULT:    -2.870      9.608     11.176
REMARK INTER + INTRA:          -3.398
REMARK INTER:                  -3.321
REMARK INTRA:                  -0.076
REMARK UNBOUND:                -0.025
REMARK SMILES CCCCC(=O)[O-]
REMARK SMILES IDX 4 1 5 2 6 3 7 4 3 5 2 6 1 7
REMARK H PARENT
REMARK Flexibility Score: inf
ROOT
ATOM      1  C   UNL     1      15.789  24.883  53.594  1.00  0.00     0.053 C 
ENDROOT
BRANCH   1   2
ATOM      2  C   UNL     1      14.993  25.163  52.359  1.00  0.00     0.041 C 
ATOM      3  O   UNL     1      15.187  26.223  51.707  1.00  0.00    -0.550 OA
ATOM      4  O   UNL     1      14.071  24.231  51.899  1.00  0.00    -0.550 OA
ENDBRANCH   1   2
BRANCH   1   5
ATOM      5  C   UNL     1      16.526  26.143  54.055  1.00  0.00     0.006 C 
BRANCH   5   6
ATOM      6  C   UNL     1      15.736  26.873  55.149  1.00  0.00    -0.003 C 
ATOM      7  C   UNL     1      15.861  28.386  55.003  1.00  0.00     0.004 C 
ENDBRANCH   5   6
ENDBRANCH   1   5
TORSDOF 3
ENDMDL
