MODEL 1
REMARK VINA RESULT:    -3.804      0.000      0.000
REMARK INTER + INTRA:          -8.889
REMARK INTER:                  -7.140
REMARK INTRA:                  -1.749
REMARK UNBOUND:                -1.749
REMARK SMILES O=C([O-])CCCCCCCCCCCCCCC(=O)[O-]
REMARK SMILES IDX 10 1 9 2 8 3 7 4 6 5 5 6 4 7 2 8 1 9 3 10 11 11 12 12 13 13
REMARK SMILES IDX 14 14 15 15 16 16 17 17 18 18 19 19 20 20
REMARK H PARENT
REMARK Flexibility Score: inf
ROOT
ATOM      1  C   UNL     1      61.153  22.296  19.354  1.00  0.00     0.000 C 
ENDROOT
BRANCH   1   2
ATOM      2  C   UNL     1      60.702  21.347  20.479  1.00  0.00     0.000 C 
BRANCH   2   3
ATOM      3  C   UNL     1      60.283  22.096  21.755  1.00  0.00     0.000 C 
BRANCH   3   4
ATOM      4  C   UNL     1      60.478  21.254  23.028  1.00  0.00     0.000 C 
BRANCH   4   5
ATOM      5  C   UNL     1      59.160  20.985  23.776  1.00  0.00     0.000 C 
BRANCH   5   6
ATOM      6  C   UNL     1      57.970  21.860  23.342  1.00  0.00     0.006 C 
BRANCH   6   7
ATOM      7  C   UNL     1      56.674  21.060  23.154  1.00  0.00     0.053 C 
BRANCH   7   8
ATOM      8  C   UNL     1      55.506  21.983  23.014  1.00  0.00     0.041 C 
ATOM      9  O   UNL     1      55.656  23.122  22.498  1.00  0.00    -0.550 OA
ATOM     10  O   UNL     1      54.260  21.607  23.498  1.00  0.00    -0.550 OA
ENDBRANCH   7   8
ENDBRANCH   6   7
ENDBRANCH   5   6
ENDBRANCH   4   5
ENDBRANCH   3   4
ENDBRANCH   2   3
ENDBRANCH   1   2
BRANCH   1  11
ATOM     11  C   UNL     1      62.605  22.041  18.918  1.00  0.00     0.000 C 
BRANCH  11  12
ATOM     12  C   UNL     1      63.513  21.650  20.099  1.00  0.00     0.000 C 
BRANCH  12  13
ATOM     13  C   UNL     1      64.125  22.873  20.800  1.00  0.00     0.000 C 
BRANCH  13  14
ATOM     14  C   UNL     1      64.110  22.749  22.333  1.00  0.00     0.000 C 
BRANCH  14  15
ATOM     15  C   UNL     1      63.809  24.084  23.039  1.00  0.00     0.000 C 
BRANCH  15  16
ATOM     16  C   UNL     1      62.555  24.817  22.527  1.00  0.00     0.006 C 
BRANCH  16  17
ATOM     17  C   UNL     1      61.811  25.571  23.637  1.00  0.00     0.053 C 
BRANCH  17  18
ATOM     18  C   UNL     1      60.984  24.623  24.448  1.00  0.00     0.041 C 
ATOM     19  O   UNL     1      59.735  24.583  24.295  1.00  0.00    -0.550 OA
ATOM     20  O   UNL     1      61.598  23.749  25.336  1.00  0.00    -0.550 OA
ENDBRANCH  17  18
ENDBRANCH  16  17
ENDBRANCH  15  16
ENDBRANCH  14  15
ENDBRANCH  13  14
ENDBRANCH  12  13
ENDBRANCH  11  12
ENDBRANCH   1  11
TORSDOF 15
ENDMDL
MODEL 2
REMARK VINA RESULT:    -3.767      2.066      5.872
REMARK INTER + INTRA:          -8.820
REMARK INTER:                  -7.093
REMARK INTRA:                  -1.727
REMARK UNBOUND:                -1.749
REMARK SMILES O=C([O-])CCCCCCCCCCCCCCC(=O)[O-]
REMARK SMILES IDX 10 1 9 2 8 3 7 4 6 5 5 6 4 7 2 8 1 9 3 10 11 11 12 12 13 13
REMARK SMILES IDX 14 14 15 15 16 16 17 17 18 18 19 19 20 20
REMARK H PARENT
REMARK Flexibility Score: inf
ROOT
ATOM      1  C   UNL     1      61.548  25.570  23.088  1.00  0.00     0.000 C 
ENDROOT
BRANCH   1   2
ATOM      2  C   UNL     1      62.947  25.309  23.674  1.00  0.00     0.000 C 
BRANCH   2   3
ATOM      3  C   UNL     1      64.018  25.110  22.589  1.00  0.00     0.000 C 
BRANCH   3   4
ATOM      4  C   UNL     1      63.836  23.797  21.809  1.00  0.00     0.000 C 
BRANCH   4   5
ATOM      5  C   UNL     1      63.506  22.600  22.719  1.00  0.00     0.000 C 
BRANCH   5   6
ATOM      6  C   UNL     1      62.633  21.508  22.073  1.00  0.00     0.006 C 
BRANCH   6   7
ATOM      7  C   UNL     1      62.857  21.379  20.561  1.00  0.00     0.053 C 
BRANCH   7   8
ATOM      8  C   UNL     1      61.651  21.847  19.812  1.00  0.00     0.041 C 
ATOM      9  O   UNL     1      61.779  22.425  18.701  1.00  0.00    -0.550 OA
ATOM     10  O   UNL     1      60.385  21.691  20.364  1.00  0.00    -0.550 OA
ENDBRANCH   7   8
ENDBRANCH   6   7
ENDBRANCH   5   6
ENDBRANCH   4   5
ENDBRANCH   3   4
ENDBRANCH   2   3
ENDBRANCH   1   2
BRANCH   1  11
ATOM     11  C   UNL     1      60.453  24.761  23.803  1.00  0.00     0.000 C 
BRANCH  11  12
ATOM     12  C   UNL     1      60.968  24.080  25.084  1.00  0.00     0.000 C 
BRANCH  12  13
ATOM     13  C   UNL     1      60.019  22.980  25.587  1.00  0.00     0.000 C 
BRANCH  13  14
ATOM     14  C   UNL     1      60.397  21.584  25.065  1.00  0.00     0.000 C 
BRANCH  14  15
ATOM     15  C   UNL     1      59.402  21.046  24.020  1.00  0.00     0.000 C 
BRANCH  15  16
ATOM     16  C   UNL     1      58.117  21.880  23.861  1.00  0.00     0.006 C 
BRANCH  16  17
ATOM     17  C   UNL     1      57.012  21.134  23.104  1.00  0.00     0.053 C 
BRANCH  17  18
ATOM     18  C   UNL     1      55.811  22.011  22.936  1.00  0.00     0.041 C 
ATOM     19  O   UNL     1      55.856  23.006  22.166  1.00  0.00    -0.550 OA
ATOM     20  O   UNL     1      54.627  21.702  23.593  1.00  0.00    -0.550 OA
ENDBRANCH  17  18
ENDBRANCH  16  17
ENDBRANCH  15  16
ENDBRANCH  14  15
ENDBRANCH  13  14
ENDBRANCH  12  13
ENDBRANCH  11  12
ENDBRANCH   1  11
TORSDOF 15
ENDMDL
MODEL 3
REMARK VINA RESULT:    -3.655      1.595      1.963
REMARK INTER + INTRA:          -8.609
REMARK INTER:                  -6.564
REMARK INTRA:                  -2.045
REMARK UNBOUND:                -1.749
REMARK SMILES O=C([O-])CCCCCCCCCCCCCCC(=O)[O-]
REMARK SMILES IDX 10 1 9 2 8 3 7 4 6 5 5 6 4 7 2 8 1 9 3 10 11 11 12 12 13 13
REMARK SMILES IDX 14 14 15 15 16 16 17 17 18 18 19 19 20 20
REMARK H PARENT
REMARK Flexibility Score: inf
ROOT
ATOM      1  C   UNL     1      61.922  22.618  20.366  1.00  0.00     0.000 C 
ENDROOT
BRANCH   1   2
ATOM      2  C   UNL     1      60.653  21.755  20.250  1.00  0.00     0.000 C 
BRANCH   2   3
ATOM      3  C   UNL     1      59.655  22.009  21.391  1.00  0.00     0.000 C 
BRANCH   3   4
ATOM      4  C   UNL     1      59.642  20.875  22.431  1.00  0.00     0.000 C 
BRANCH   4   5
ATOM      5  C   UNL     1      59.134  21.333  23.811  1.00  0.00     0.000 C 
BRANCH   5   6
ATOM      6  C   UNL     1      58.579  22.769  23.861  1.00  0.00     0.006 C 
BRANCH   6   7
ATOM      7  C   UNL     1      57.116  22.830  24.319  1.00  0.00     0.053 C 
BRANCH   7   8
ATOM      8  C   UNL     1      56.215  22.272  23.265  1.00  0.00     0.041 C 
ATOM      9  O   UNL     1      55.528  21.242  23.498  1.00  0.00    -0.550 OA
ATOM     10  O   UNL     1      56.169  22.858  22.006  1.00  0.00    -0.550 OA
ENDBRANCH   7   8
ENDBRANCH   6   7
ENDBRANCH   5   6
ENDBRANCH   4   5
ENDBRANCH   3   4
ENDBRANCH   2   3
ENDBRANCH   1   2
BRANCH   1  11
ATOM     11  C   UNL     1      63.205  21.815  20.095  1.00  0.00     0.000 C 
BRANCH  11  12
ATOM     12  C   UNL     1      63.901  21.365  21.392  1.00  0.00     0.000 C 
BRANCH  12  13
ATOM     13  C   UNL     1      63.651  22.332  22.560  1.00  0.00     0.000 C 
BRANCH  13  14
ATOM     14  C   UNL     1      62.917  21.665  23.737  1.00  0.00     0.000 C 
BRANCH  14  15
ATOM     15  C   UNL     1      62.987  22.493  25.032  1.00  0.00     0.000 C 
BRANCH  15  16
ATOM     16  C   UNL     1      61.916  23.593  25.156  1.00  0.00     0.006 C 
BRANCH  16  17
ATOM     17  C   UNL     1      62.510  25.007  25.156  1.00  0.00     0.053 C 
BRANCH  17  18
ATOM     18  C   UNL     1      62.440  25.602  23.785  1.00  0.00     0.041 C 
ATOM     19  O   UNL     1      61.487  25.310  23.016  1.00  0.00    -0.550 OA
ATOM     20  O   UNL     1      63.400  26.518  23.374  1.00  0.00    -0.550 OA
ENDBRANCH  17  18
ENDBRANCH  16  17
ENDBRANCH  15  16
ENDBRANCH  14  15
ENDBRANCH  13  14
ENDBRANCH  12  13
ENDBRANCH  11  12
ENDBRANCH   1  11
TORSDOF 15
ENDMDL
MODEL 4
REMARK VINA RESULT:    -3.577      1.441      2.448
REMARK INTER + INTRA:          -8.462
REMARK INTER:                  -7.049
REMARK INTRA:                  -1.413
REMARK UNBOUND:                -1.749
REMARK SMILES O=C([O-])CCCCCCCCCCCCCCC(=O)[O-]
REMARK SMILES IDX 10 1 9 2 8 3 7 4 6 5 5 6 4 7 2 8 1 9 3 10 11 11 12 12 13 13
REMARK SMILES IDX 14 14 15 15 16 16 17 17 18 18 19 19 20 20
REMARK H PARENT
REMARK Flexibility Score: inf
ROOT
ATOM      1  C   UNL     1      59.753  22.288  21.633  1.00  0.00     0.000 C 
ENDROOT
BRANCH   1   2
ATOM      2  C   UNL     1      60.566  22.603  22.901  1.00  0.00     0.000 C 
BRANCH   2   3
ATOM      3  C   UNL     1      60.499  24.087  23.296  1.00  0.00     0.000 C 
BRANCH   3   4
ATOM      4  C   UNL     1      59.745  24.317  24.617  1.00  0.00     0.000 C 
BRANCH   4   5
ATOM      5  C   UNL     1      58.979  23.069  25.094  1.00  0.00     0.000 C 
BRANCH   5   6
ATOM      6  C   UNL     1      57.481  23.045  24.737  1.00  0.00     0.006 C 
BRANCH   6   7
ATOM      7  C   UNL     1      57.142  22.019  23.647  1.00  0.00     0.053 C 
BRANCH   7   8
ATOM      8  C   UNL     1      55.777  22.277  23.093  1.00  0.00     0.041 C 
ATOM      9  O   UNL     1      55.630  23.025  22.091  1.00  0.00    -0.550 OA
ATOM     10  O   UNL     1      54.660  21.731  23.713  1.00  0.00    -0.550 OA
ENDBRANCH   7   8
ENDBRANCH   6   7
ENDBRANCH   5   6
ENDBRANCH   4   5
ENDBRANCH   3   4
ENDBRANCH   2   3
ENDBRANCH   1   2
BRANCH   1  11
ATOM     11  C   UNL     1      60.514  21.370  20.661  1.00  0.00     0.000 C 
BRANCH  11  12
ATOM     12  C   UNL     1      61.191  22.154  19.522  1.00  0.00     0.000 C 
BRANCH  12  13
ATOM     13  C   UNL     1      62.640  21.705  19.280  1.00  0.00     0.000 C 
BRANCH  13  14
ATOM     14  C   UNL     1      63.492  21.727  20.561  1.00  0.00     0.000 C 
BRANCH  14  15
ATOM     15  C   UNL     1      64.121  23.105  20.837  1.00  0.00     0.000 C 
BRANCH  15  16
ATOM     16  C   UNL     1      64.094  23.545  22.313  1.00  0.00     0.006 C 
BRANCH  16  17
ATOM     17  C   UNL     1      63.759  25.031  22.485  1.00  0.00     0.053 C 
BRANCH  17  18
ATOM     18  C   UNL     1      63.804  25.411  23.932  1.00  0.00     0.041 C 
ATOM     19  O   UNL     1      63.825  26.625  24.268  1.00  0.00    -0.550 OA
ATOM     20  O   UNL     1      63.773  24.426  24.911  1.00  0.00    -0.550 OA
ENDBRANCH  17  18
ENDBRANCH  16  17
ENDBRANCH  15  16
ENDBRANCH  14  15
ENDBRANCH  13  14
ENDBRANCH  12  13
ENDBRANCH  11  12
ENDBRANCH   1  11
TORSDOF 15
ENDMDL
MODEL 5
REMARK VINA RESULT:    -3.101      1.731      6.444
REMARK INTER + INTRA:          -7.568
REMARK INTER:                  -6.067
REMARK INTRA:                  -1.502
REMARK UNBOUND:                -1.749
REMARK SMILES O=C([O-])CCCCCCCCCCCCCCC(=O)[O-]
REMARK SMILES IDX 10 1 9 2 8 3 7 4 6 5 5 6 4 7 2 8 1 9 3 10 11 11 12 12 13 13
REMARK SMILES IDX 14 14 15 15 16 16 17 17 18 18 19 19 20 20
REMARK H PARENT
REMARK Flexibility Score: inf
ROOT
ATOM      1  C   UNL     1      59.957  22.813  21.631  1.00  0.00     0.000 C 
ENDROOT
BRANCH   1   2
ATOM      2  C   UNL     1      60.278  21.310  21.709  1.00  0.00     0.000 C 
BRANCH   2   3
ATOM      3  C   UNL     1      61.503  20.920  20.866  1.00  0.00     0.000 C 
BRANCH   3   4
ATOM      4  C   UNL     1      61.748  21.884  19.693  1.00  0.00     0.000 C 
BRANCH   4   5
ATOM      5  C   UNL     1      63.235  22.234  19.505  1.00  0.00     0.000 C 
BRANCH   5   6
ATOM      6  C   UNL     1      64.116  22.037  20.753  1.00  0.00     0.006 C 
BRANCH   6   7
ATOM      7  C   UNL     1      64.125  23.260  21.679  1.00  0.00     0.053 C 
BRANCH   7   8
ATOM      8  C   UNL     1      64.064  22.831  23.110  1.00  0.00     0.041 C 
ATOM      9  O   UNL     1      63.938  21.613  23.403  1.00  0.00    -0.550 OA
ATOM     10  O   UNL     1      64.097  23.781  24.124  1.00  0.00    -0.550 OA
ENDBRANCH   7   8
ENDBRANCH   6   7
ENDBRANCH   5   6
ENDBRANCH   4   5
ENDBRANCH   3   4
ENDBRANCH   2   3
ENDBRANCH   1   2
BRANCH   1  11
ATOM     11  C   UNL     1      60.834  23.651  22.576  1.00  0.00     0.000 C 
BRANCH  11  12
ATOM     12  C   UNL     1      60.035  24.235  23.755  1.00  0.00     0.000 C 
BRANCH  12  13
ATOM     13  C   UNL     1      60.134  23.368  25.020  1.00  0.00     0.000 C 
BRANCH  13  14
ATOM     14  C   UNL     1      58.807  22.673  25.369  1.00  0.00     0.000 C 
BRANCH  14  15
ATOM     15  C   UNL     1      57.725  22.871  24.293  1.00  0.00     0.000 C 
BRANCH  15  16
ATOM     16  C   UNL     1      56.986  21.587  23.873  1.00  0.00     0.006 C 
BRANCH  16  17
ATOM     17  C   UNL     1      55.960  21.827  22.759  1.00  0.00     0.053 C 
BRANCH  17  18
ATOM     18  C   UNL     1      54.579  21.908  23.331  1.00  0.00     0.041 C 
ATOM     19  O   UNL     1      54.253  22.878  24.065  1.00  0.00    -0.550 OA
ATOM     20  O   UNL     1      53.637  20.938  23.014  1.00  0.00    -0.550 OA
ENDBRANCH  17  18
ENDBRANCH  16  17
ENDBRANCH  15  16
ENDBRANCH  14  15
ENDBRANCH  13  14
ENDBRANCH  12  13
ENDBRANCH  11  12
ENDBRANCH   1  11
TORSDOF 15
ENDMDL
MODEL 6
REMARK VINA RESULT:    -3.003      2.696      4.352
REMARK INTER + INTRA:          -7.386
REMARK INTER:                  -5.978
REMARK INTRA:                  -1.408
REMARK UNBOUND:                -1.749
REMARK SMILES O=C([O-])CCCCCCCCCCCCCCC(=O)[O-]
REMARK SMILES IDX 10 1 9 2 8 3 7 4 6 5 5 6 4 7 2 8 1 9 3 10 11 11 12 12 13 13
REMARK SMILES IDX 14 14 15 15 16 16 17 17 18 18 19 19 20 20
REMARK H PARENT
REMARK Flexibility Score: inf
ROOT
ATOM      1  C   UNL     1      60.006  21.483  26.113  1.00  0.00     0.000 C 
ENDROOT
BRANCH   1   2
ATOM      2  C   UNL     1      59.247  22.552  25.307  1.00  0.00     0.000 C 
BRANCH   2   3
ATOM      3  C   UNL     1      60.113  23.200  24.215  1.00  0.00     0.000 C 
BRANCH   3   4
ATOM      4  C   UNL     1      59.561  22.960  22.799  1.00  0.00     0.000 C 
BRANCH   4   5
ATOM      5  C   UNL     1      59.532  21.470  22.412  1.00  0.00     0.000 C 
BRANCH   5   6
ATOM      6  C   UNL     1      58.152  20.929  21.996  1.00  0.00     0.006 C 
BRANCH   6   7
ATOM      7  C   UNL     1      57.145  20.902  23.154  1.00  0.00     0.053 C 
BRANCH   7   8
ATOM      8  C   UNL     1      56.023  21.854  22.893  1.00  0.00     0.041 C 
ATOM      9  O   UNL     1      56.240  22.943  22.297  1.00  0.00    -0.550 OA
ATOM     10  O   UNL     1      54.744  21.565  23.351  1.00  0.00    -0.550 OA
ENDBRANCH   7   8
ENDBRANCH   6   7
ENDBRANCH   5   6
ENDBRANCH   4   5
ENDBRANCH   3   4
ENDBRANCH   2   3
ENDBRANCH   1   2
BRANCH   1  11
ATOM     11  C   UNL     1      61.261  20.979  25.382  1.00  0.00     0.000 C 
BRANCH  11  12
ATOM     12  C   UNL     1      62.548  21.656  25.888  1.00  0.00     0.000 C 
BRANCH  12  13
ATOM     13  C   UNL     1      63.739  21.437  24.943  1.00  0.00     0.000 C 
BRANCH  13  14
ATOM     14  C   UNL     1      63.672  22.323  23.686  1.00  0.00     0.000 C 
BRANCH  14  15
ATOM     15  C   UNL     1      64.074  21.573  22.404  1.00  0.00     0.000 C 
BRANCH  15  16
ATOM     16  C   UNL     1      63.613  22.238  21.094  1.00  0.00     0.006 C 
BRANCH  16  17
ATOM     17  C   UNL     1      62.917  21.258  20.141  1.00  0.00     0.053 C 
BRANCH  17  18
ATOM     18  C   UNL     1      62.316  21.993  18.984  1.00  0.00     0.041 C 
ATOM     19  O   UNL     1      63.054  22.622  18.181  1.00  0.00    -0.550 OA
ATOM     20  O   UNL     1      60.945  21.944  18.765  1.00  0.00    -0.550 OA
ENDBRANCH  17  18
ENDBRANCH  16  17
ENDBRANCH  15  16
ENDBRANCH  14  15
ENDBRANCH  13  14
ENDBRANCH  12  13
ENDBRANCH  11  12
ENDBRANCH   1  11
TORSDOF 15
ENDMDL
MODEL 7
REMARK VINA RESULT:    -2.542      2.367      4.781
REMARK INTER + INTRA:          -6.520
REMARK INTER:                  -5.726
REMARK INTRA:                  -0.794
REMARK UNBOUND:                -1.749
REMARK SMILES O=C([O-])CCCCCCCCCCCCCCC(=O)[O-]
REMARK SMILES IDX 10 1 9 2 8 3 7 4 6 5 5 6 4 7 2 8 1 9 3 10 11 11 12 12 13 13
REMARK SMILES IDX 14 14 15 15 16 16 17 17 18 18 19 19 20 20
REMARK H PARENT
REMARK Flexibility Score: inf
ROOT
ATOM      1  C   UNL     1      59.328  20.910  23.749  1.00  0.00     0.000 C 
ENDROOT
BRANCH   1   2
ATOM      2  C   UNL     1      58.204  21.036  22.705  1.00  0.00     0.000 C 
BRANCH   2   3
ATOM      3  C   UNL     1      56.942  21.708  23.270  1.00  0.00     0.000 C 
BRANCH   3   4
ATOM      4  C   UNL     1      57.225  23.099  23.862  1.00  0.00     0.000 C 
BRANCH   4   5
ATOM      5  C   UNL     1      58.101  23.045  25.128  1.00  0.00     0.000 C 
BRANCH   5   6
ATOM      6  C   UNL     1      59.149  24.167  25.246  1.00  0.00     0.006 C 
BRANCH   6   7
ATOM      7  C   UNL     1      59.825  24.500  23.909  1.00  0.00     0.053 C 
BRANCH   7   8
ATOM      8  C   UNL     1      61.253  24.885  24.127  1.00  0.00     0.041 C 
ATOM      9  O   UNL     1      61.921  25.400  23.192  1.00  0.00    -0.550 OA
ATOM     10  O   UNL     1      61.864  24.629  25.348  1.00  0.00    -0.550 OA
ENDBRANCH   7   8
ENDBRANCH   6   7
ENDBRANCH   5   6
ENDBRANCH   4   5
ENDBRANCH   3   4
ENDBRANCH   2   3
ENDBRANCH   1   2
BRANCH   1  11
ATOM     11  C   UNL     1      60.727  20.952  23.112  1.00  0.00     0.000 C 
BRANCH  11  12
ATOM     12  C   UNL     1      61.852  20.915  24.162  1.00  0.00     0.000 C 
BRANCH  12  13
ATOM     13  C   UNL     1      63.251  20.913  23.526  1.00  0.00     0.000 C 
BRANCH  13  14
ATOM     14  C   UNL     1      63.707  22.315  23.087  1.00  0.00     0.000 C 
BRANCH  14  15
ATOM     15  C   UNL     1      64.103  22.377  21.601  1.00  0.00     0.000 C 
BRANCH  15  16
ATOM     16  C   UNL     1      63.607  21.194  20.749  1.00  0.00     0.006 C 
BRANCH  16  17
ATOM     17  C   UNL     1      62.800  21.639  19.523  1.00  0.00     0.053 C 
BRANCH  17  18
ATOM     18  C   UNL     1      61.481  22.208  19.945  1.00  0.00     0.041 C 
ATOM     19  O   UNL     1      61.437  23.265  20.629  1.00  0.00    -0.550 OA
ATOM     20  O   UNL     1      60.300  21.598  19.543  1.00  0.00    -0.550 OA
ENDBRANCH  17  18
ENDBRANCH  16  17
ENDBRANCH  15  16
ENDBRANCH  14  15
ENDBRANCH  13  14
ENDBRANCH  12  13
ENDBRANCH  11  12
ENDBRANCH   1  11
TORSDOF 15
ENDMDL
MODEL 8
REMARK VINA RESULT:    -2.407      2.694      5.019
REMARK INTER + INTRA:          -6.267
REMARK INTER:                  -4.941
REMARK INTRA:                  -1.326
REMARK UNBOUND:                -1.749
REMARK SMILES O=C([O-])CCCCCCCCCCCCCCC(=O)[O-]
REMARK SMILES IDX 10 1 9 2 8 3 7 4 6 5 5 6 4 7 2 8 1 9 3 10 11 11 12 12 13 13
REMARK SMILES IDX 14 14 15 15 16 16 17 17 18 18 19 19 20 20
REMARK H PARENT
REMARK Flexibility Score: inf
ROOT
ATOM      1  C   UNL     1      57.842  22.100  22.943  1.00  0.00     0.000 C 
ENDROOT
BRANCH   1   2
ATOM      2  C   UNL     1      57.933  23.150  24.065  1.00  0.00     0.000 C 
BRANCH   2   3
ATOM      3  C   UNL     1      58.410  22.553  25.399  1.00  0.00     0.000 C 
BRANCH   3   4
ATOM      4  C   UNL     1      59.593  23.328  26.006  1.00  0.00     0.000 C 
BRANCH   4   5
ATOM      5  C   UNL     1      60.577  23.849  24.943  1.00  0.00     0.000 C 
BRANCH   5   6
ATOM      6  C   UNL     1      61.554  24.934  25.432  1.00  0.00     0.006 C 
BRANCH   6   7
ATOM      7  C   UNL     1      62.656  25.251  24.413  1.00  0.00     0.053 C 
BRANCH   7   8
ATOM      8  C   UNL     1      62.057  25.649  23.102  1.00  0.00     0.041 C 
ATOM      9  O   UNL     1      62.632  25.346  22.024  1.00  0.00    -0.550 OA
ATOM     10  O   UNL     1      60.888  26.400  23.071  1.00  0.00    -0.550 OA
ENDBRANCH   7   8
ENDBRANCH   6   7
ENDBRANCH   5   6
ENDBRANCH   4   5
ENDBRANCH   3   4
ENDBRANCH   2   3
ENDBRANCH   1   2
BRANCH   1  11
ATOM     11  C   UNL     1      59.206  21.469  22.618  1.00  0.00     0.000 C 
BRANCH  11  12
ATOM     12  C   UNL     1      60.089  22.390  21.757  1.00  0.00     0.000 C 
BRANCH  12  13
ATOM     13  C   UNL     1      60.583  21.701  20.475  1.00  0.00     0.000 C 
BRANCH  13  14
ATOM     14  C   UNL     1      62.007  21.135  20.615  1.00  0.00     0.000 C 
BRANCH  14  15
ATOM     15  C   UNL     1      63.042  22.208  20.997  1.00  0.00     0.000 C 
BRANCH  15  16
ATOM     16  C   UNL     1      64.112  21.745  22.004  1.00  0.00     0.006 C 
BRANCH  16  17
ATOM     17  C   UNL     1      63.976  22.424  23.372  1.00  0.00     0.053 C 
BRANCH  17  18
ATOM     18  C   UNL     1      63.349  21.489  24.359  1.00  0.00     0.041 C 
ATOM     19  O   UNL     1      63.893  21.290  25.477  1.00  0.00    -0.550 OA
ATOM     20  O   UNL     1      62.139  20.875  24.063  1.00  0.00    -0.550 OA
ENDBRANCH  17  18
ENDBRANCH  16  17
ENDBRANCH  15  16
ENDBRANCH  14  15
ENDBRANCH  13  14
ENDBRANCH  12  13
ENDBRANCH  11  12
ENDBRANCH   1  11
TORSDOF 15
ENDMDL
MODEL 9
REMARK VINA RESULT:    -2.359      2.948      5.660
REMARK INTER + INTRA:          -6.177
REMARK INTER:                  -4.283
REMARK INTRA:                  -1.893
REMARK UNBOUND:                -1.749
REMARK SMILES O=C([O-])CCCCCCCCCCCCCCC(=O)[O-]
REMARK SMILES IDX 10 1 9 2 8 3 7 4 6 5 5 6 4 7 2 8 1 9 3 10 11 11 12 12 13 13
REMARK SMILES IDX 14 14 15 15 16 16 17 17 18 18 19 19 20 20
REMARK H PARENT
REMARK Flexibility Score: inf
ROOT
ATOM      1  C   UNL     1      57.521  22.339  22.687  1.00  0.00     0.000 C 
ENDROOT
BRANCH   1   2
ATOM      2  C   UNL     1      57.365  23.318  23.864  1.00  0.00     0.000 C 
BRANCH   2   3
ATOM      3  C   UNL     1      57.832  22.720  25.201  1.00  0.00     0.000 C 
BRANCH   3   4
ATOM      4  C   UNL     1      58.960  23.538  25.854  1.00  0.00     0.000 C 
BRANCH   4   5
ATOM      5  C   UNL     1      59.671  24.478  24.864  1.00  0.00     0.000 C 
BRANCH   5   6
ATOM      6  C   UNL     1      61.169  24.707  25.139  1.00  0.00     0.006 C 
BRANCH   6   7
ATOM      7  C   UNL     1      61.903  25.351  23.956  1.00  0.00     0.053 C 
BRANCH   7   8
ATOM      8  C   UNL     1      63.208  25.928  24.404  1.00  0.00     0.041 C 
ATOM      9  O   UNL     1      63.884  26.648  23.622  1.00  0.00    -0.550 OA
ATOM     10  O   UNL     1      63.704  25.631  25.667  1.00  0.00    -0.550 OA
ENDBRANCH   7   8
ENDBRANCH   6   7
ENDBRANCH   5   6
ENDBRANCH   4   5
ENDBRANCH   3   4
ENDBRANCH   2   3
ENDBRANCH   1   2
BRANCH   1  11
ATOM     11  C   UNL     1      58.931  22.376  22.076  1.00  0.00     0.000 C 
BRANCH  11  12
ATOM     12  C   UNL     1      59.694  21.053  22.277  1.00  0.00     0.000 C 
BRANCH  12  13
ATOM     13  C   UNL     1      60.192  20.876  23.720  1.00  0.00     0.000 C 
BRANCH  13  14
ATOM     14  C   UNL     1      61.547  21.560  23.970  1.00  0.00     0.000 C 
BRANCH  14  15
ATOM     15  C   UNL     1      62.663  21.031  23.052  1.00  0.00     0.000 C 
BRANCH  15  16
ATOM     16  C   UNL     1      63.734  22.069  22.671  1.00  0.00     0.006 C 
BRANCH  16  17
ATOM     17  C   UNL     1      63.933  22.192  21.155  1.00  0.00     0.053 C 
BRANCH  17  18
ATOM     18  C   UNL     1      62.611  22.306  20.463  1.00  0.00     0.041 C 
ATOM     19  O   UNL     1      61.964  23.386  20.508  1.00  0.00    -0.550 OA
ATOM     20  O   UNL     1      62.116  21.238  19.727  1.00  0.00    -0.550 OA
ENDBRANCH  17  18
ENDBRANCH  16  17
ENDBRANCH  15  16
ENDBRANCH  14  15
ENDBRANCH  13  14
ENDBRANCH  12  13
ENDBRANCH  11  12
ENDBRANCH   1  11
TORSDOF 15
ENDMDL
