MODEL 1
REMARK VINA RESULT:    -4.967      0.000      0.000
REMARK INTER + INTRA:          -5.431
REMARK INTER:                  -5.403
REMARK INTRA:                  -0.028
REMARK UNBOUND:                -0.028
REMARK SMILES O=C([O-])c1ccc(O)cc1
REMARK SMILES IDX 4 1 5 2 10 3 6 4 9 5 7 6 2 7 1 8 3 9 8 10
REMARK H PARENT 8 11
REMARK Flexibility Score: inf
ROOT
ATOM      1  C   UNL     1     104.283 107.048 231.516  1.00  0.00    -0.003 A 
ATOM      2  C   UNL     1     105.004 106.622 232.645  1.00  0.00     0.014 A 
ATOM      3  C   UNL     1     102.885 106.890 231.499  1.00  0.00     0.014 A 
ATOM      4  C   UNL     1     104.340 106.049 233.734  1.00  0.00     0.047 A 
ATOM      5  C   UNL     1     102.225 106.316 232.590  1.00  0.00     0.047 A 
ATOM      6  C   UNL     1     102.951 105.894 233.711  1.00  0.00     0.115 A 
ENDROOT
BRANCH   1   7
ATOM      7  C   UNL     1     104.988 107.655 230.364  1.00  0.00     0.071 C 
ATOM      8  O   UNL     1     105.445 108.826 230.436  1.00  0.00    -0.545 OA
ATOM      9  O   UNL     1     105.155 106.937 229.185  1.00  0.00    -0.545 OA
ENDBRANCH   1   7
BRANCH   6  10
ATOM     10  O   UNL     1     102.303 105.322 234.803  1.00  0.00    -0.508 OA
ATOM     11  H   UNL     1     102.277 105.783 235.705  1.00  0.00     0.293 HD
ENDBRANCH   6  10
TORSDOF 2
ENDMDL
MODEL 2
REMARK VINA RESULT:    -4.962      2.082      2.894
REMARK INTER + INTRA:          -5.425
REMARK INTER:                  -5.389
REMARK INTRA:                  -0.036
REMARK UNBOUND:                -0.028
REMARK SMILES O=C([O-])c1ccc(O)cc1
REMARK SMILES IDX 4 1 5 2 10 3 6 4 9 5 7 6 2 7 1 8 3 9 8 10
REMARK H PARENT 8 11
REMARK Flexibility Score: inf
ROOT
ATOM      1  C   UNL     1     103.655 106.158 232.887  1.00  0.00    -0.003 A 
ATOM      2  C   UNL     1     102.877 106.353 231.733  1.00  0.00     0.014 A 
ATOM      3  C   UNL     1     103.016 106.115 234.141  1.00  0.00     0.014 A 
ATOM      4  C   UNL     1     101.490 106.501 231.829  1.00  0.00     0.047 A 
ATOM      5  C   UNL     1     101.629 106.265 234.234  1.00  0.00     0.047 A 
ATOM      6  C   UNL     1     100.862 106.457 233.077  1.00  0.00     0.115 A 
ENDROOT
BRANCH   1   7
ATOM      7  C   UNL     1     105.123 106.002 232.783  1.00  0.00     0.071 C 
ATOM      8  O   UNL     1     105.842 105.994 233.817  1.00  0.00    -0.545 OA
ATOM      9  O   UNL     1     105.728 105.861 231.540  1.00  0.00    -0.545 OA
ENDBRANCH   1   7
BRANCH   6  10
ATOM     10  O   UNL     1      99.480 106.606 233.159  1.00  0.00    -0.508 OA
ATOM     11  H   UNL     1      98.857 105.810 233.102  1.00  0.00     0.293 HD
ENDBRANCH   6  10
TORSDOF 2
ENDMDL
MODEL 3
REMARK VINA RESULT:    -4.962      2.098      2.667
REMARK INTER + INTRA:          -5.424
REMARK INTER:                  -5.389
REMARK INTRA:                  -0.036
REMARK UNBOUND:                -0.028
REMARK SMILES O=C([O-])c1ccc(O)cc1
REMARK SMILES IDX 4 1 5 2 10 3 6 4 9 5 7 6 2 7 1 8 3 9 8 10
REMARK H PARENT 8 11
REMARK Flexibility Score: inf
ROOT
ATOM      1  C   UNL     1     103.656 106.137 232.861  1.00  0.00    -0.003 A 
ATOM      2  C   UNL     1     103.013 106.119 234.111  1.00  0.00     0.014 A 
ATOM      3  C   UNL     1     102.882 106.295 231.696  1.00  0.00     0.014 A 
ATOM      4  C   UNL     1     101.624 106.257 234.194  1.00  0.00     0.047 A 
ATOM      5  C   UNL     1     101.493 106.431 231.784  1.00  0.00     0.047 A 
ATOM      6  C   UNL     1     100.860 106.413 233.033  1.00  0.00     0.115 A 
ENDROOT
BRANCH   1   7
ATOM      7  C   UNL     1     105.127 105.991 232.774  1.00  0.00     0.071 C 
ATOM      8  O   UNL     1     105.837 106.032 233.813  1.00  0.00    -0.545 OA
ATOM      9  O   UNL     1     105.744 105.806 231.542  1.00  0.00    -0.545 OA
ENDBRANCH   1   7
BRANCH   6  10
ATOM     10  O   UNL     1      99.478 106.548 233.132  1.00  0.00    -0.508 OA
ATOM     11  H   UNL     1      98.915 105.879 233.643  1.00  0.00     0.293 HD
ENDBRANCH   6  10
TORSDOF 2
ENDMDL
MODEL 4
REMARK VINA RESULT:    -4.790      6.485      7.987
REMARK INTER + INTRA:          -5.237
REMARK INTER:                  -5.204
REMARK INTRA:                  -0.033
REMARK UNBOUND:                -0.028
REMARK SMILES O=C([O-])c1ccc(O)cc1
REMARK SMILES IDX 4 1 5 2 10 3 6 4 9 5 7 6 2 7 1 8 3 9 8 10
REMARK H PARENT 8 11
REMARK Flexibility Score: inf
ROOT
ATOM      1  C   UNL     1     109.356 103.807 230.378  1.00  0.00    -0.003 A 
ATOM      2  C   UNL     1     110.107 104.696 231.167  1.00  0.00     0.014 A 
ATOM      3  C   UNL     1     110.007 103.076 229.368  1.00  0.00     0.014 A 
ATOM      4  C   UNL     1     111.479 104.851 230.949  1.00  0.00     0.047 A 
ATOM      5  C   UNL     1     111.379 103.233 229.152  1.00  0.00     0.047 A 
ATOM      6  C   UNL     1     112.119 104.121 229.943  1.00  0.00     0.115 A 
ENDROOT
BRANCH   1   7
ATOM      7  C   UNL     1     107.903 103.645 230.611  1.00  0.00     0.071 C 
ATOM      8  O   UNL     1     107.344 102.533 230.419  1.00  0.00    -0.545 OA
ATOM      9  O   UNL     1     107.137 104.720 231.045  1.00  0.00    -0.545 OA
ENDBRANCH   1   7
BRANCH   6  10
ATOM     10  O   UNL     1     113.487 104.285 229.737  1.00  0.00    -0.508 OA
ATOM     11  H   UNL     1     113.865 104.483 228.818  1.00  0.00     0.293 HD
ENDBRANCH   6  10
TORSDOF 2
ENDMDL
MODEL 5
REMARK VINA RESULT:    -4.752      3.503      5.498
REMARK INTER + INTRA:          -5.196
REMARK INTER:                  -5.164
REMARK INTRA:                  -0.032
REMARK UNBOUND:                -0.028
REMARK SMILES O=C([O-])c1ccc(O)cc1
REMARK SMILES IDX 4 1 5 2 10 3 6 4 9 5 7 6 2 7 1 8 3 9 8 10
REMARK H PARENT 8 11
REMARK Flexibility Score: inf
ROOT
ATOM      1  C   UNL     1     104.505 105.814 229.090  1.00  0.00    -0.003 A 
ATOM      2  C   UNL     1     103.908 105.877 227.818  1.00  0.00     0.014 A 
ATOM      3  C   UNL     1     105.587 104.938 229.292  1.00  0.00     0.014 A 
ATOM      4  C   UNL     1     104.383 105.082 226.772  1.00  0.00     0.047 A 
ATOM      5  C   UNL     1     106.060 104.143 228.243  1.00  0.00     0.047 A 
ATOM      6  C   UNL     1     105.459 104.213 226.980  1.00  0.00     0.115 A 
ENDROOT
BRANCH   1   7
ATOM      7  C   UNL     1     104.000 106.657 230.196  1.00  0.00     0.071 C 
ATOM      8  O   UNL     1     103.930 106.202 231.369  1.00  0.00    -0.545 OA
ATOM      9  O   UNL     1     103.596 107.965 229.955  1.00  0.00    -0.545 OA
ENDBRANCH   1   7
BRANCH   6  10
ATOM     10  O   UNL     1     105.922 103.426 225.928  1.00  0.00    -0.508 OA
ATOM     11  H   UNL     1     106.158 103.829 225.029  1.00  0.00     0.293 HD
ENDBRANCH   6  10
TORSDOF 2
ENDMDL
MODEL 6
REMARK VINA RESULT:    -4.719      2.273      4.379
REMARK INTER + INTRA:          -5.161
REMARK INTER:                  -5.134
REMARK INTRA:                  -0.027
REMARK UNBOUND:                -0.028
REMARK SMILES O=C([O-])c1ccc(O)cc1
REMARK SMILES IDX 4 1 5 2 10 3 6 4 9 5 7 6 2 7 1 8 3 9 8 10
REMARK H PARENT 8 11
REMARK Flexibility Score: inf
ROOT
ATOM      1  C   UNL     1     104.516 105.871 230.651  1.00  0.00    -0.003 A 
ATOM      2  C   UNL     1     104.720 106.957 231.520  1.00  0.00     0.014 A 
ATOM      3  C   UNL     1     104.582 106.087 229.262  1.00  0.00     0.014 A 
ATOM      4  C   UNL     1     104.985 108.232 231.010  1.00  0.00     0.047 A 
ATOM      5  C   UNL     1     104.847 107.363 228.756  1.00  0.00     0.047 A 
ATOM      6  C   UNL     1     105.050 108.439 229.629  1.00  0.00     0.115 A 
ENDROOT
BRANCH   1   7
ATOM      7  C   UNL     1     104.235 104.522 231.192  1.00  0.00     0.071 C 
ATOM      8  O   UNL     1     105.173 103.710 231.409  1.00  0.00    -0.545 OA
ATOM      9  O   UNL     1     102.929 104.134 231.469  1.00  0.00    -0.545 OA
ENDBRANCH   1   7
BRANCH   6  10
ATOM     10  O   UNL     1     105.314 109.714 229.136  1.00  0.00    -0.508 OA
ATOM     11  H   UNL     1     106.085 109.887 228.501  1.00  0.00     0.293 HD
ENDBRANCH   6  10
TORSDOF 2
ENDMDL
MODEL 7
REMARK VINA RESULT:    -4.702      1.465      4.226
REMARK INTER + INTRA:          -5.142
REMARK INTER:                  -5.111
REMARK INTRA:                  -0.031
REMARK UNBOUND:                -0.028
REMARK SMILES O=C([O-])c1ccc(O)cc1
REMARK SMILES IDX 4 1 5 2 10 3 6 4 9 5 7 6 2 7 1 8 3 9 8 10
REMARK H PARENT 8 11
REMARK Flexibility Score: inf
ROOT
ATOM      1  C   UNL     1     102.488 106.723 232.180  1.00  0.00    -0.003 A 
ATOM      2  C   UNL     1     103.754 106.375 232.685  1.00  0.00     0.014 A 
ATOM      3  C   UNL     1     102.411 107.462 230.985  1.00  0.00     0.014 A 
ATOM      4  C   UNL     1     104.916 106.758 232.009  1.00  0.00     0.047 A 
ATOM      5  C   UNL     1     103.575 107.844 230.313  1.00  0.00     0.047 A 
ATOM      6  C   UNL     1     104.832 107.493 230.823  1.00  0.00     0.115 A 
ENDROOT
BRANCH   1   7
ATOM      7  C   UNL     1     101.259 106.316 232.896  1.00  0.00     0.071 C 
ATOM      8  O   UNL     1     100.277 105.842 232.267  1.00  0.00    -0.545 OA
ATOM      9  O   UNL     1     101.172 106.452 234.277  1.00  0.00    -0.545 OA
ENDBRANCH   1   7
BRANCH   6  10
ATOM     10  O   UNL     1     105.998 107.868 230.161  1.00  0.00    -0.508 OA
ATOM     11  H   UNL     1     105.991 108.572 229.433  1.00  0.00     0.293 HD
ENDBRANCH   6  10
TORSDOF 2
ENDMDL
MODEL 8
REMARK VINA RESULT:    -4.638      4.161      4.695
REMARK INTER + INTRA:          -5.072
REMARK INTER:                  -5.044
REMARK INTRA:                  -0.028
REMARK UNBOUND:                -0.028
REMARK SMILES O=C([O-])c1ccc(O)cc1
REMARK SMILES IDX 4 1 5 2 10 3 6 4 9 5 7 6 2 7 1 8 3 9 8 10
REMARK H PARENT 8 11
REMARK Flexibility Score: inf
ROOT
ATOM      1  C   UNL     1     102.651 104.067 229.333  1.00  0.00    -0.003 A 
ATOM      2  C   UNL     1     101.296 103.695 229.379  1.00  0.00     0.014 A 
ATOM      3  C   UNL     1     103.599 103.279 230.012  1.00  0.00     0.014 A 
ATOM      4  C   UNL     1     100.897 102.559 230.090  1.00  0.00     0.047 A 
ATOM      5  C   UNL     1     103.196 102.144 230.722  1.00  0.00     0.047 A 
ATOM      6  C   UNL     1     101.844 101.781 230.763  1.00  0.00     0.115 A 
ENDROOT
BRANCH   1   7
ATOM      7  C   UNL     1     103.071 105.270 228.580  1.00  0.00     0.071 C 
ATOM      8  O   UNL     1     103.467 106.300 229.186  1.00  0.00    -0.545 OA
ATOM      9  O   UNL     1     103.035 105.278 227.190  1.00  0.00    -0.545 OA
ENDBRANCH   1   7
BRANCH   6  10
ATOM     10  O   UNL     1     101.432 100.652 231.467  1.00  0.00    -0.508 OA
ATOM     11  H   UNL     1     100.773  99.992 231.072  1.00  0.00     0.293 HD
ENDBRANCH   6  10
TORSDOF 2
ENDMDL
MODEL 9
REMARK VINA RESULT:    -4.590      3.991      4.333
REMARK INTER + INTRA:          -5.021
REMARK INTER:                  -4.992
REMARK INTRA:                  -0.028
REMARK UNBOUND:                -0.028
REMARK SMILES O=C([O-])c1ccc(O)cc1
REMARK SMILES IDX 4 1 5 2 10 3 6 4 9 5 7 6 2 7 1 8 3 9 8 10
REMARK H PARENT 8 11
REMARK Flexibility Score: inf
ROOT
ATOM      1  C   UNL     1     103.025 104.275 229.165  1.00  0.00    -0.003 A 
ATOM      2  C   UNL     1     103.926 103.522 229.937  1.00  0.00     0.014 A 
ATOM      3  C   UNL     1     101.668 103.903 229.143  1.00  0.00     0.014 A 
ATOM      4  C   UNL     1     103.480 102.420 230.672  1.00  0.00     0.047 A 
ATOM      5  C   UNL     1     101.225 102.799 229.878  1.00  0.00     0.047 A 
ATOM      6  C   UNL     1     102.130 102.055 230.646  1.00  0.00     0.115 A 
ENDROOT
BRANCH   1   7
ATOM      7  C   UNL     1     103.499 105.442 228.387  1.00  0.00     0.071 C 
ATOM      8  O   UNL     1     103.462 105.432 227.128  1.00  0.00    -0.545 OA
ATOM      9  O   UNL     1     103.992 106.567 229.038  1.00  0.00    -0.545 OA
ENDBRANCH   1   7
BRANCH   6  10
ATOM     10  O   UNL     1     101.700 100.955 231.383  1.00  0.00    -0.508 OA
ATOM     11  H   UNL     1     102.205 100.634 232.200  1.00  0.00     0.293 HD
ENDBRANCH   6  10
TORSDOF 2
ENDMDL
