MODEL 1
REMARK VINA RESULT:    -3.364      0.000      0.000
REMARK INTER + INTRA:          -5.179
REMARK INTER:                  -5.133
REMARK INTRA:                  -0.046
REMARK UNBOUND:                -0.046
REMARK SMILES CC1=CCC[C@H](C)C(=O)C[C@H](C(C)C)C(=O)C1
REMARK SMILES IDX 8 1 9 2 6 3 7 4 5 5 4 6 3 7 2 8 1 9 10 11 11 12 15 13 16 14
REMARK SMILES IDX 17 15 12 17 13 18 14 19
REMARK H PARENT
REMARK Flexibility Score: 70.00
ROOT
ATOM      1  C   UNL     1     -15.043  26.346  19.201  1.00  0.00     0.136 C 
ATOM      2  O   UNL     1     -14.764  26.911  20.249  1.00  0.00    -0.299 OA
ENDROOT
BRANCH   1   3
ATOM      3  C   UNL     1     -15.002  24.825  19.142  1.00  0.00     0.053 C 
ATOM      4  C   UNL     1     -15.727  24.198  20.342  1.00  0.00     0.016 C 
BRANCH   3   5
ATOM      5  C   UNL     1     -15.552  24.263  17.807  1.00  0.00     0.015 C 
BRANCH   5   6
ATOM      6  C   UNL     1     -14.505  24.134  16.674  1.00  0.00     0.028 C 
BRANCH   6   7
ATOM      7  C   UNL     1     -15.009  24.683  15.362  1.00  0.00    -0.028 C 
ATOM      8  C   UNL     1     -14.542  25.800  14.753  1.00  0.00    -0.070 CG0
ATOM      9  C   UNL     1     -15.193  26.222  13.460  1.00  0.00     0.039 C 
ATOM     10  G   UNL     1     -13.376  26.621  15.284  1.00  0.00     0.000 G0
ENDBRANCH   6   7
ENDBRANCH   5   6
ENDBRANCH   3   5
ENDBRANCH   1   3
BRANCH   1  11
ATOM     11  C   UNL     1     -15.330  27.211  17.994  1.00  0.00     0.087 C 
BRANCH  11  12
ATOM     12  C   UNL     1     -14.135  28.045  17.450  1.00  0.00     0.066 C 
BRANCH  12  13
ATOM     13  C   UNL     1     -13.843  27.896  15.954  1.00  0.00     0.140 C 
ATOM     14  O   UNL     1     -14.017  28.878  15.245  1.00  0.00    -0.299 OA
BRANCH  13  15
ATOM     15  C   UNL     1     -13.375  26.622  15.278  1.00  0.00     0.106 CG0
ATOM     16  G   UNL     1     -14.554  25.819  14.746  1.00  0.00     0.000 G0
ENDBRANCH  13  15
ENDBRANCH  12  13
BRANCH  12  17
ATOM     17  C   UNL     1     -14.265  29.561  17.809  1.00  0.00    -0.006 C 
ATOM     18  C   UNL     1     -15.718  30.004  18.055  1.00  0.00     0.008 C 
ATOM     19  C   UNL     1     -13.373  29.973  18.992  1.00  0.00     0.008 C 
ENDBRANCH  12  17
ENDBRANCH  11  12
ENDBRANCH   1  11
TORSDOF 1
ENDMDL
MODEL 2
REMARK VINA RESULT:    -3.251      3.316      5.060
REMARK INTER + INTRA:          -5.007
REMARK INTER:                  -4.670
REMARK INTRA:                  -0.337
REMARK UNBOUND:                -0.046
REMARK SMILES CC1=CCC[C@H](C)C(=O)C[C@H](C(C)C)C(=O)C1
REMARK SMILES IDX 8 1 9 2 6 3 7 4 5 5 4 6 3 7 2 8 1 9 10 11 11 12 15 13 16 14
REMARK SMILES IDX 17 15 12 17 13 18 14 19
REMARK H PARENT
REMARK Flexibility Score: 70.00
ROOT
ATOM      1  C   UNL     1     -13.909  28.351  17.063  1.00  0.00     0.136 C 
ATOM      2  O   UNL     1     -14.241  27.238  16.682  1.00  0.00    -0.299 OA
ENDROOT
BRANCH   1   3
ATOM      3  C   UNL     1     -13.511  28.551  18.519  1.00  0.00     0.053 C 
ATOM      4  C   UNL     1     -13.050  29.993  18.781  1.00  0.00     0.016 C 
BRANCH   3   5
ATOM      5  C   UNL     1     -14.631  28.139  19.508  1.00  0.00     0.015 C 
BRANCH   5   6
ATOM      6  C   UNL     1     -15.657  29.252  19.828  1.00  0.00     0.028 C 
BRANCH   6   7
ATOM      7  C   UNL     1     -16.952  29.072  19.074  1.00  0.00    -0.028 C 
ATOM      8  C   UNL     1     -17.361  29.837  18.033  1.00  0.00    -0.070 CG0
ATOM      9  C   UNL     1     -18.707  29.537  17.423  1.00  0.00     0.039 C 
ATOM     10  G   UNL     1     -16.519  30.951  17.427  1.00  0.00     0.000 G0
ENDBRANCH   6   7
ENDBRANCH   5   6
ENDBRANCH   3   5
ENDBRANCH   1   3
BRANCH   1  11
ATOM     11  C   UNL     1     -14.000  29.489  16.070  1.00  0.00     0.087 C 
BRANCH  11  12
ATOM     12  C   UNL     1     -15.368  29.658  15.349  1.00  0.00     0.066 C 
BRANCH  12  13
ATOM     13  C   UNL     1     -16.302  30.724  15.930  1.00  0.00     0.140 C 
ATOM     14  O   UNL     1     -16.894  31.447  15.140  1.00  0.00    -0.299 OA
BRANCH  13  15
ATOM     15  C   UNL     1     -16.536  30.967  17.409  1.00  0.00     0.106 CG0
ATOM     16  G   UNL     1     -17.373  29.851  18.020  1.00  0.00     0.000 G0
ENDBRANCH  13  15
ENDBRANCH  12  13
BRANCH  12  17
ATOM     17  C   UNL     1     -15.196  29.896  13.812  1.00  0.00    -0.006 C 
ATOM     18  C   UNL     1     -13.724  29.987  13.373  1.00  0.00     0.008 C 
ATOM     19  C   UNL     1     -15.944  28.857  12.961  1.00  0.00     0.008 C 
ENDBRANCH  12  17
ENDBRANCH  11  12
ENDBRANCH   1  11
TORSDOF 1
ENDMDL
MODEL 3
REMARK VINA RESULT:    -3.198      2.989      5.406
REMARK INTER + INTRA:          -4.926
REMARK INTER:                  -4.663
REMARK INTRA:                  -0.263
REMARK UNBOUND:                -0.046
REMARK SMILES CC1=CCC[C@H](C)C(=O)C[C@H](C(C)C)C(=O)C1
REMARK SMILES IDX 8 1 9 2 6 3 7 4 5 5 4 6 3 7 2 8 1 9 10 11 11 12 15 13 16 14
REMARK SMILES IDX 17 15 12 17 13 18 14 19
REMARK H PARENT
REMARK Flexibility Score: 70.00
ROOT
ATOM      1  C   UNL     1     -14.504  27.861  18.098  1.00  0.00     0.136 C 
ATOM      2  O   UNL     1     -13.785  28.467  17.316  1.00  0.00    -0.299 OA
ENDROOT
BRANCH   1   3
ATOM      3  C   UNL     1     -14.578  28.322  19.548  1.00  0.00     0.053 C 
ATOM      4  C   UNL     1     -13.211  28.809  20.051  1.00  0.00     0.016 C 
BRANCH   3   5
ATOM      5  C   UNL     1     -15.669  29.399  19.777  1.00  0.00     0.015 C 
BRANCH   5   6
ATOM      6  C   UNL     1     -16.757  29.468  18.679  1.00  0.00     0.028 C 
BRANCH   6   7
ATOM      7  C   UNL     1     -18.122  29.091  19.201  1.00  0.00    -0.028 C 
ATOM      8  C   UNL     1     -18.867  28.050  18.754  1.00  0.00    -0.070 CG0
ATOM      9  C   UNL     1     -20.229  27.844  19.366  1.00  0.00     0.039 C 
ATOM     10  G   UNL     1     -18.383  27.062  17.701  1.00  0.00     0.000 G0
ENDBRANCH   6   7
ENDBRANCH   5   6
ENDBRANCH   3   5
ENDBRANCH   1   3
BRANCH   1  11
ATOM     11  C   UNL     1     -15.212  26.626  17.588  1.00  0.00     0.087 C 
BRANCH  11  12
ATOM     12  C   UNL     1     -16.122  25.889  18.612  1.00  0.00     0.066 C 
BRANCH  12  13
ATOM     13  C   UNL     1     -17.621  25.892  18.296  1.00  0.00     0.140 C 
ATOM     14  O   UNL     1     -18.250  24.869  18.533  1.00  0.00    -0.299 OA
BRANCH  13  15
ATOM     15  C   UNL     1     -18.384  27.056  17.694  1.00  0.00     0.106 CG0
ATOM     16  G   UNL     1     -18.854  28.019  18.776  1.00  0.00     0.000 G0
ENDBRANCH  13  15
ENDBRANCH  12  13
BRANCH  12  17
ATOM     17  C   UNL     1     -15.646  24.422  18.871  1.00  0.00    -0.006 C 
ATOM     18  C   UNL     1     -15.003  23.765  17.638  1.00  0.00     0.008 C 
ATOM     19  C   UNL     1     -14.713  24.304  20.087  1.00  0.00     0.008 C 
ENDBRANCH  12  17
ENDBRANCH  11  12
ENDBRANCH   1  11
TORSDOF 1
ENDMDL
MODEL 4
REMARK VINA RESULT:    -3.163      3.100      4.521
REMARK INTER + INTRA:          -4.874
REMARK INTER:                  -4.620
REMARK INTRA:                  -0.254
REMARK UNBOUND:                -0.046
REMARK SMILES CC1=CCC[C@H](C)C(=O)C[C@H](C(C)C)C(=O)C1
REMARK SMILES IDX 8 1 9 2 6 3 7 4 5 5 4 6 3 7 2 8 1 9 10 11 11 12 15 13 16 14
REMARK SMILES IDX 17 15 12 17 13 18 14 19
REMARK H PARENT
REMARK Flexibility Score: 70.00
ROOT
ATOM      1  C   UNL     1     -14.851  31.198  19.468  1.00  0.00     0.136 C 
ATOM      2  O   UNL     1     -14.444  32.350  19.508  1.00  0.00    -0.299 OA
ENDROOT
BRANCH   1   3
ATOM      3  C   UNL     1     -13.850  30.060  19.322  1.00  0.00     0.053 C 
ATOM      4  C   UNL     1     -14.157  28.915  20.300  1.00  0.00     0.016 C 
BRANCH   3   5
ATOM      5  C   UNL     1     -13.748  29.534  17.868  1.00  0.00     0.015 C 
BRANCH   5   6
ATOM      6  C   UNL     1     -13.903  28.002  17.718  1.00  0.00     0.028 C 
BRANCH   6   7
ATOM      7  C   UNL     1     -14.914  27.629  16.661  1.00  0.00    -0.028 C 
ATOM      8  C   UNL     1     -16.251  27.533  16.859  1.00  0.00    -0.070 CG0
ATOM      9  C   UNL     1     -17.108  27.108  15.694  1.00  0.00     0.039 C 
ATOM     10  G   UNL     1     -16.930  27.867  18.180  1.00  0.00     0.000 G0
ENDBRANCH   6   7
ENDBRANCH   5   6
ENDBRANCH   3   5
ENDBRANCH   1   3
BRANCH   1  11
ATOM     11  C   UNL     1     -16.348  30.982  19.477  1.00  0.00     0.087 C 
BRANCH  11  12
ATOM     12  C   UNL     1     -16.991  30.590  18.116  1.00  0.00     0.066 C 
BRANCH  12  13
ATOM     13  C   UNL     1     -17.673  29.219  18.071  1.00  0.00     0.140 C 
ATOM     14  O   UNL     1     -18.891  29.199  17.950  1.00  0.00    -0.299 OA
BRANCH  13  15
ATOM     15  C   UNL     1     -16.961  27.885  18.183  1.00  0.00     0.106 CG0
ATOM     16  G   UNL     1     -16.254  27.531  16.882  1.00  0.00     0.000 G0
ENDBRANCH  13  15
ENDBRANCH  12  13
BRANCH  12  17
ATOM     17  C   UNL     1     -17.981  31.684  17.597  1.00  0.00    -0.006 C 
ATOM     18  C   UNL     1     -18.350  32.725  18.667  1.00  0.00     0.008 C 
ATOM     19  C   UNL     1     -17.482  32.382  16.321  1.00  0.00     0.008 C 
ENDBRANCH  12  17
ENDBRANCH  11  12
ENDBRANCH   1  11
TORSDOF 1
ENDMDL
MODEL 5
REMARK VINA RESULT:    -3.096      4.285      6.732
REMARK INTER + INTRA:          -4.771
REMARK INTER:                  -4.380
REMARK INTRA:                  -0.391
REMARK UNBOUND:                -0.046
REMARK SMILES CC1=CCC[C@H](C)C(=O)C[C@H](C(C)C)C(=O)C1
REMARK SMILES IDX 8 1 9 2 6 3 7 4 5 5 4 6 3 7 2 8 1 9 10 11 11 12 15 13 16 14
REMARK SMILES IDX 17 15 12 17 13 18 14 19
REMARK H PARENT
REMARK Flexibility Score: 70.00
ROOT
ATOM      1  C   UNL     1     -18.342  29.664  19.555  1.00  0.00     0.136 C 
ATOM      2  O   UNL     1     -19.140  29.166  20.336  1.00  0.00    -0.299 OA
ENDROOT
BRANCH   1   3
ATOM      3  C   UNL     1     -18.717  29.784  18.084  1.00  0.00     0.053 C 
ATOM      4  C   UNL     1     -19.428  28.518  17.582  1.00  0.00     0.016 C 
BRANCH   3   5
ATOM      5  C   UNL     1     -19.561  31.049  17.784  1.00  0.00     0.015 C 
BRANCH   5   6
ATOM      6  C   UNL     1     -18.767  32.232  17.180  1.00  0.00     0.028 C 
BRANCH   6   7
ATOM      7  C   UNL     1     -18.468  33.303  18.200  1.00  0.00    -0.028 C 
ATOM      8  C   UNL     1     -17.232  33.623  18.655  1.00  0.00    -0.070 CG0
ATOM      9  C   UNL     1     -17.125  34.697  19.708  1.00  0.00     0.039 C 
ATOM     10  G   UNL     1     -15.953  32.985  18.132  1.00  0.00     0.000 G0
ENDBRANCH   6   7
ENDBRANCH   5   6
ENDBRANCH   3   5
ENDBRANCH   1   3
BRANCH   1  11
ATOM     11  C   UNL     1     -16.983  30.052  20.093  1.00  0.00     0.087 C 
BRANCH  11  12
ATOM     12  C   UNL     1     -15.913  30.440  19.033  1.00  0.00     0.066 C 
BRANCH  12  13
ATOM     13  C   UNL     1     -15.447  31.899  19.059  1.00  0.00     0.140 C 
ATOM     14  O   UNL     1     -14.627  32.214  19.911  1.00  0.00    -0.299 OA
BRANCH  13  15
ATOM     15  C   UNL     1     -15.935  32.989  18.125  1.00  0.00     0.106 CG0
ATOM     16  G   UNL     1     -17.231  33.606  18.635  1.00  0.00     0.000 G0
ENDBRANCH  13  15
ENDBRANCH  12  13
BRANCH  12  17
ATOM     17  C   UNL     1     -14.669  29.493  19.080  1.00  0.00    -0.006 C 
ATOM     18  C   UNL     1     -14.545  28.718  20.403  1.00  0.00     0.008 C 
ATOM     19  C   UNL     1     -14.612  28.525  17.886  1.00  0.00     0.008 C 
ENDBRANCH  12  17
ENDBRANCH  11  12
ENDBRANCH   1  11
TORSDOF 1
ENDMDL
MODEL 6
REMARK VINA RESULT:    -3.063      2.005      4.196
REMARK INTER + INTRA:          -4.720
REMARK INTER:                  -4.364
REMARK INTRA:                  -0.356
REMARK UNBOUND:                -0.046
REMARK SMILES CC1=CCC[C@H](C)C(=O)C[C@H](C(C)C)C(=O)C1
REMARK SMILES IDX 8 1 9 2 6 3 7 4 5 5 4 6 3 7 2 8 1 9 10 11 11 12 15 13 16 14
REMARK SMILES IDX 17 15 12 17 13 18 14 19
REMARK H PARENT
REMARK Flexibility Score: 70.00
ROOT
ATOM      1  C   UNL     1     -14.351  28.802  15.578  1.00  0.00     0.136 C 
ATOM      2  O   UNL     1     -13.519  28.588  14.708  1.00  0.00    -0.299 OA
ENDROOT
BRANCH   1   3
ATOM      3  C   UNL     1     -15.813  28.964  15.184  1.00  0.00     0.053 C 
ATOM      4  C   UNL     1     -16.082  30.356  14.592  1.00  0.00     0.016 C 
BRANCH   3   5
ATOM      5  C   UNL     1     -16.302  27.851  14.224  1.00  0.00     0.015 C 
BRANCH   5   6
ATOM      6  C   UNL     1     -16.237  26.417  14.804  1.00  0.00     0.028 C 
BRANCH   6   7
ATOM      7  C   UNL     1     -17.146  26.239  15.995  1.00  0.00    -0.028 C 
ATOM      8  C   UNL     1     -16.731  26.030  17.268  1.00  0.00    -0.070 CG0
ATOM      9  C   UNL     1     -17.784  25.834  18.330  1.00  0.00     0.039 C 
ATOM     10  G   UNL     1     -15.266  26.023  17.684  1.00  0.00     0.000 G0
ENDBRANCH   6   7
ENDBRANCH   5   6
ENDBRANCH   3   5
ENDBRANCH   1   3
BRANCH   1  11
ATOM     11  C   UNL     1     -13.855  28.979  16.996  1.00  0.00     0.087 C 
BRANCH  11  12
ATOM     12  C   UNL     1     -14.877  28.657  18.123  1.00  0.00     0.066 C 
BRANCH  12  13
ATOM     13  C   UNL     1     -14.921  27.198  18.587  1.00  0.00     0.140 C 
ATOM     14  O   UNL     1     -14.646  26.970  19.757  1.00  0.00    -0.299 OA
BRANCH  13  15
ATOM     15  C   UNL     1     -15.260  26.011  17.706  1.00  0.00     0.106 CG0
ATOM     16  G   UNL     1     -16.723  26.045  17.282  1.00  0.00     0.000 G0
ENDBRANCH  13  15
ENDBRANCH  12  13
BRANCH  12  17
ATOM     17  C   UNL     1     -14.700  29.594  19.362  1.00  0.00    -0.006 C 
ATOM     18  C   UNL     1     -13.456  30.494  19.269  1.00  0.00     0.008 C 
ATOM     19  C   UNL     1     -15.950  30.440  19.654  1.00  0.00     0.008 C 
ENDBRANCH  12  17
ENDBRANCH  11  12
ENDBRANCH   1  11
TORSDOF 1
ENDMDL
MODEL 7
REMARK VINA RESULT:    -3.058      2.896      4.936
REMARK INTER + INTRA:          -4.713
REMARK INTER:                  -4.763
REMARK INTRA:                   0.050
REMARK UNBOUND:                -0.046
REMARK SMILES CC1=CCC[C@H](C)C(=O)C[C@H](C(C)C)C(=O)C1
REMARK SMILES IDX 8 1 9 2 6 3 7 4 5 5 4 6 3 7 2 8 1 9 10 11 11 12 15 13 16 14
REMARK SMILES IDX 17 15 12 17 13 18 14 19
REMARK H PARENT
REMARK Flexibility Score: 70.00
ROOT
ATOM      1  C   UNL     1     -14.241  27.465  15.609  1.00  0.00     0.136 C 
ATOM      2  O   UNL     1     -15.136  26.651  15.435  1.00  0.00    -0.299 OA
ENDROOT
BRANCH   1   3
ATOM      3  C   UNL     1     -13.477  28.000  14.405  1.00  0.00     0.053 C 
ATOM      4  C   UNL     1     -13.701  27.121  13.165  1.00  0.00     0.016 C 
BRANCH   3   5
ATOM      5  C   UNL     1     -13.805  29.483  14.099  1.00  0.00     0.015 C 
BRANCH   5   6
ATOM      6  C   UNL     1     -15.314  29.803  13.973  1.00  0.00     0.028 C 
BRANCH   6   7
ATOM      7  C   UNL     1     -15.736  30.938  14.874  1.00  0.00    -0.028 C 
ATOM      8  C   UNL     1     -16.539  30.815  15.959  1.00  0.00    -0.070 CG0
ATOM      9  C   UNL     1     -16.889  32.066  16.723  1.00  0.00     0.039 C 
ATOM     10  G   UNL     1     -17.069  29.480  16.464  1.00  0.00     0.000 G0
ENDBRANCH   6   7
ENDBRANCH   5   6
ENDBRANCH   3   5
ENDBRANCH   1   3
BRANCH   1  11
ATOM     11  C   UNL     1     -13.888  27.826  17.035  1.00  0.00     0.087 C 
BRANCH  11  12
ATOM     12  C   UNL     1     -14.667  29.025  17.649  1.00  0.00     0.066 C 
BRANCH  12  13
ATOM     13  C   UNL     1     -16.195  28.926  17.595  1.00  0.00     0.140 C 
ATOM     14  O   UNL     1     -16.755  28.351  18.518  1.00  0.00    -0.299 OA
BRANCH  13  15
ATOM     15  C   UNL     1     -17.066  29.469  16.479  1.00  0.00     0.106 CG0
ATOM     16  G   UNL     1     -16.538  30.805  15.974  1.00  0.00     0.000 G0
ENDBRANCH  13  15
ENDBRANCH  12  13
BRANCH  12  17
ATOM     17  C   UNL     1     -14.214  29.331  19.115  1.00  0.00    -0.006 C 
ATOM     18  C   UNL     1     -13.188  28.321  19.656  1.00  0.00     0.008 C 
ATOM     19  C   UNL     1     -13.694  30.767  19.290  1.00  0.00     0.008 C 
ENDBRANCH  12  17
ENDBRANCH  11  12
ENDBRANCH   1  11
TORSDOF 1
ENDMDL
MODEL 8
REMARK VINA RESULT:    -3.001      2.109      5.077
REMARK INTER + INTRA:          -4.626
REMARK INTER:                  -4.608
REMARK INTRA:                  -0.017
REMARK UNBOUND:                -0.046
REMARK SMILES CC1=CCC[C@H](C)C(=O)C[C@H](C(C)C)C(=O)C1
REMARK SMILES IDX 8 1 9 2 6 3 7 4 5 5 4 6 3 7 2 8 1 9 10 11 11 12 15 13 16 14
REMARK SMILES IDX 17 15 12 17 13 18 14 19
REMARK H PARENT
REMARK Flexibility Score: 70.00
ROOT
ATOM      1  C   UNL     1     -15.464  24.186  15.830  1.00  0.00     0.136 C 
ATOM      2  O   UNL     1     -15.378  22.968  15.755  1.00  0.00    -0.299 OA
ENDROOT
BRANCH   1   3
ATOM      3  C   UNL     1     -14.735  25.047  14.808  1.00  0.00     0.053 C 
ATOM      4  C   UNL     1     -15.724  25.781  13.889  1.00  0.00     0.016 C 
BRANCH   3   5
ATOM      5  C   UNL     1     -13.743  26.042  15.461  1.00  0.00     0.015 C 
BRANCH   5   6
ATOM      6  C   UNL     1     -14.323  27.448  15.744  1.00  0.00     0.028 C 
BRANCH   6   7
ATOM      7  C   UNL     1     -13.705  28.089  16.963  1.00  0.00    -0.028 C 
ATOM      8  C   UNL     1     -14.247  28.083  18.205  1.00  0.00    -0.070 CG0
ATOM      9  C   UNL     1     -13.507  28.809  19.300  1.00  0.00     0.039 C 
ATOM     10  G   UNL     1     -15.537  27.354  18.557  1.00  0.00     0.000 G0
ENDBRANCH   6   7
ENDBRANCH   5   6
ENDBRANCH   3   5
ENDBRANCH   1   3
BRANCH   1  11
ATOM     11  C   UNL     1     -16.227  24.764  17.001  1.00  0.00     0.087 C 
BRANCH  11  12
ATOM     12  C   UNL     1     -15.547  24.630  18.394  1.00  0.00     0.066 C 
BRANCH  12  13
ATOM     13  C   UNL     1     -15.224  25.946  19.109  1.00  0.00     0.140 C 
ATOM     14  O   UNL     1     -14.692  25.874  20.208  1.00  0.00    -0.299 OA
BRANCH  13  15
ATOM     15  C   UNL     1     -15.529  27.330  18.570  1.00  0.00     0.106 CG0
ATOM     16  G   UNL     1     -14.249  28.070  18.207  1.00  0.00     0.000 G0
ENDBRANCH  13  15
ENDBRANCH  12  13
BRANCH  12  17
ATOM     17  C   UNL     1     -16.356  23.698  19.355  1.00  0.00    -0.006 C 
ATOM     18  C   UNL     1     -17.790  23.424  18.870  1.00  0.00     0.008 C 
ATOM     19  C   UNL     1     -15.630  22.375  19.652  1.00  0.00     0.008 C 
ENDBRANCH  12  17
ENDBRANCH  11  12
ENDBRANCH   1  11
TORSDOF 1
ENDMDL
MODEL 9
REMARK VINA RESULT:    -2.976      2.869      5.016
REMARK INTER + INTRA:          -4.588
REMARK INTER:                  -4.342
REMARK INTRA:                  -0.245
REMARK UNBOUND:                -0.046
REMARK SMILES CC1=CCC[C@H](C)C(=O)C[C@H](C(C)C)C(=O)C1
REMARK SMILES IDX 8 1 9 2 6 3 7 4 5 5 4 6 3 7 2 8 1 9 10 11 11 12 15 13 16 14
REMARK SMILES IDX 17 15 12 17 13 18 14 19
REMARK H PARENT
REMARK Flexibility Score: 70.00
ROOT
ATOM      1  C   UNL     1     -13.749  29.491  18.265  1.00  0.00     0.136 C 
ATOM      2  O   UNL     1     -12.804  30.128  18.709  1.00  0.00    -0.299 OA
ENDROOT
BRANCH   1   3
ATOM      3  C   UNL     1     -14.696  28.793  19.231  1.00  0.00     0.053 C 
ATOM      4  C   UNL     1     -13.928  28.117  20.377  1.00  0.00     0.016 C 
BRANCH   3   5
ATOM      5  C   UNL     1     -15.793  29.739  19.782  1.00  0.00     0.015 C 
BRANCH   5   6
ATOM      6  C   UNL     1     -17.203  29.517  19.185  1.00  0.00     0.028 C 
BRANCH   6   7
ATOM      7  C   UNL     1     -17.701  30.721  18.424  1.00  0.00    -0.028 C 
ATOM      8  C   UNL     1     -17.870  30.778  17.080  1.00  0.00    -0.070 CG0
ATOM      9  C   UNL     1     -18.340  32.081  16.484  1.00  0.00     0.039 C 
ATOM     10  G   UNL     1     -17.648  29.590  16.154  1.00  0.00     0.000 G0
ENDBRANCH   6   7
ENDBRANCH   5   6
ENDBRANCH   3   5
ENDBRANCH   1   3
BRANCH   1  11
ATOM     11  C   UNL     1     -13.864  29.366  16.762  1.00  0.00     0.087 C 
BRANCH  11  12
ATOM     12  C   UNL     1     -15.126  28.624  16.233  1.00  0.00     0.066 C 
BRANCH  12  13
ATOM     13  C   UNL     1     -16.224  29.514  15.642  1.00  0.00     0.140 C 
ATOM     14  O   UNL     1     -15.918  30.240  14.706  1.00  0.00    -0.299 OA
BRANCH  13  15
ATOM     15  C   UNL     1     -17.655  29.580  16.138  1.00  0.00     0.106 CG0
ATOM     16  G   UNL     1     -17.858  30.769  17.067  1.00  0.00     0.000 G0
ENDBRANCH  13  15
ENDBRANCH  12  13
BRANCH  12  17
ATOM     17  C   UNL     1     -14.760  27.498  15.212  1.00  0.00    -0.006 C 
ATOM     18  C   UNL     1     -13.711  26.509  15.749  1.00  0.00     0.008 C 
ATOM     19  C   UNL     1     -15.993  26.740  14.693  1.00  0.00     0.008 C 
ENDBRANCH  12  17
ENDBRANCH  11  12
ENDBRANCH   1  11
TORSDOF 1
ENDMDL
