MODEL 1
REMARK VINA RESULT:     4.472      0.000      0.000
REMARK INTER + INTRA:           5.770
REMARK INTER:                   5.387
REMARK INTRA:                   0.383
REMARK UNBOUND:                 0.383
REMARK SMILES Oc1cc(O)c2c(c1)O[C@@H](c1ccc(O)c(O)c1)[C@H](O)C2
REMARK SMILES IDX 21 1 19 2 10 3 9 4 7 5 8 6 2 7 3 8 4 9 6 10 20 11 11 13
REMARK SMILES IDX 18 14 12 15 16 16 13 17 14 18 17 19 15 21 5 23 1 25
REMARK H PARENT 20 12 17 20 15 22 5 24 1 26
REMARK Flexibility Score: inf
ROOT
ATOM      1  C   UNL     1     -11.658  36.915  -6.157  1.00  0.00     0.079 C 
ATOM      2  C   UNL     1     -11.480  36.322  -7.569  1.00  0.00     0.164 C 
ATOM      3  C   UNL     1      -9.982  36.151  -7.891  1.00  0.00     0.232 C 
ATOM      4  O   UNL     1      -9.365  35.342  -6.891  1.00  0.00    -0.482 OA
ATOM      5  C   UNL     1      -9.702  35.438  -5.536  1.00  0.00     0.131 A 
ATOM      6  C   UNL     1      -8.927  34.754  -4.596  1.00  0.00     0.093 A 
ATOM      7  C   UNL     1      -9.226  34.842  -3.236  1.00  0.00     0.122 A 
ATOM      8  C   UNL     1     -10.303  35.628  -2.810  1.00  0.00     0.092 A 
ATOM      9  C   UNL     1     -11.090  36.321  -3.738  1.00  0.00     0.126 A 
ATOM     10  C   UNL     1     -10.816  36.200  -5.121  1.00  0.00     0.039 A 
ENDROOT
BRANCH   2  11
ATOM     11  O   UNL     1     -12.125  37.123  -8.527  1.00  0.00    -0.389 OA
ATOM     12  H   UNL     1     -12.978  37.442  -8.128  1.00  0.00     0.211 HD
ENDBRANCH   2  11
BRANCH   3  13
ATOM     13  C   UNL     1      -9.784  35.522  -9.250  1.00  0.00    -0.001 A 
ATOM     14  C   UNL     1     -10.601  35.890 -10.333  1.00  0.00     0.057 A 
ATOM     15  C   UNL     1      -8.749  34.597  -9.456  1.00  0.00     0.012 A 
ATOM     16  C   UNL     1     -10.399  35.326 -11.601  1.00  0.00     0.157 A 
ATOM     17  C   UNL     1      -8.546  34.034 -10.719  1.00  0.00     0.050 A 
ATOM     18  C   UNL     1      -9.366  34.392 -11.793  1.00  0.00     0.157 A 
BRANCH  16  19
ATOM     19  O   UNL     1     -11.216  35.692 -12.669  1.00  0.00    -0.504 OA
ATOM     20  H   UNL     1     -10.942  36.415 -13.325  1.00  0.00     0.293 HD
ENDBRANCH  16  19
BRANCH  18  21
ATOM     21  O   UNL     1      -9.140  33.812 -13.041  1.00  0.00    -0.504 OA
ATOM     22  H   UNL     1      -9.391  34.279 -13.904  1.00  0.00     0.293 HD
ENDBRANCH  18  21
ENDBRANCH   3  13
BRANCH   9  23
ATOM     23  O   UNL     1     -12.123  37.125  -3.250  1.00  0.00    -0.507 OA
ATOM     24  H   UNL     1     -12.232  38.100  -3.495  1.00  0.00     0.293 HD
ENDBRANCH   9  23
BRANCH   7  25
ATOM     25  O   UNL     1      -8.444  34.150  -2.314  1.00  0.00    -0.508 OA
ATOM     26  H   UNL     1      -8.325  34.483  -1.364  1.00  0.00     0.293 HD
ENDBRANCH   7  25
TORSDOF 6
ENDMDL
MODEL 2
REMARK VINA RESULT:     6.505      1.396      6.895
REMARK INTER + INTRA:           8.219
REMARK INTER:                   7.789
REMARK INTRA:                   0.429
REMARK UNBOUND:                 0.383
REMARK SMILES Oc1cc(O)c2c(c1)O[C@@H](c1ccc(O)c(O)c1)[C@H](O)C2
REMARK SMILES IDX 21 1 19 2 10 3 9 4 7 5 8 6 2 7 3 8 4 9 6 10 20 11 11 13
REMARK SMILES IDX 18 14 12 15 16 16 13 17 14 18 17 19 15 21 5 23 1 25
REMARK H PARENT 20 12 17 20 15 22 5 24 1 26
REMARK Flexibility Score: inf
ROOT
ATOM      1  C   UNL     1     -10.796  36.384 -10.324  1.00  0.00     0.079 C 
ATOM      2  C   UNL     1     -10.847  36.673  -8.811  1.00  0.00     0.164 C 
ATOM      3  C   UNL     1     -10.435  35.419  -8.014  1.00  0.00     0.232 C 
ATOM      4  O   UNL     1      -9.140  34.989  -8.430  1.00  0.00    -0.482 OA
ATOM      5  C   UNL     1      -8.728  35.038  -9.767  1.00  0.00     0.131 A 
ATOM      6  C   UNL     1      -7.524  34.428 -10.127  1.00  0.00     0.093 A 
ATOM      7  C   UNL     1      -7.093  34.446 -11.454  1.00  0.00     0.122 A 
ATOM      8  C   UNL     1      -7.877  35.070 -12.432  1.00  0.00     0.092 A 
ATOM      9  C   UNL     1      -9.086  35.686 -12.090  1.00  0.00     0.126 A 
ATOM     10  C   UNL     1      -9.505  35.708 -10.738  1.00  0.00     0.039 A 
ENDROOT
BRANCH   2  11
ATOM     11  O   UNL     1     -12.125  37.124  -8.436  1.00  0.00    -0.389 OA
ATOM     12  H   UNL     1     -12.137  37.206  -7.446  1.00  0.00     0.211 HD
ENDBRANCH   2  11
BRANCH   3  13
ATOM     13  C   UNL     1     -10.427  35.695  -6.529  1.00  0.00    -0.001 A 
ATOM     14  C   UNL     1      -9.590  34.961  -5.670  1.00  0.00     0.057 A 
ATOM     15  C   UNL     1     -11.221  36.722  -5.997  1.00  0.00     0.012 A 
ATOM     16  C   UNL     1      -9.562  35.237  -4.295  1.00  0.00     0.157 A 
ATOM     17  C   UNL     1     -11.195  36.998  -4.627  1.00  0.00     0.050 A 
ATOM     18  C   UNL     1     -10.371  36.260  -3.772  1.00  0.00     0.157 A 
BRANCH  16  19
ATOM     19  O   UNL     1      -8.733  34.501  -3.450  1.00  0.00    -0.504 OA
ATOM     20  H   UNL     1      -8.984  33.570  -3.138  1.00  0.00     0.293 HD
ENDBRANCH  16  19
BRANCH  18  21
ATOM     21  O   UNL     1     -10.367  36.558  -2.410  1.00  0.00    -0.504 OA
ATOM     22  H   UNL     1     -10.493  37.502  -2.065  1.00  0.00     0.293 HD
ENDBRANCH  18  21
ENDBRANCH   3  13
BRANCH   9  23
ATOM     23  O   UNL     1      -9.846  36.254 -13.115  1.00  0.00    -0.507 OA
ATOM     24  H   UNL     1     -10.836  36.446 -13.033  1.00  0.00     0.293 HD
ENDBRANCH   9  23
BRANCH   7  25
ATOM     25  O   UNL     1      -5.889  33.834 -11.794  1.00  0.00    -0.508 OA
ATOM     26  H   UNL     1      -5.063  34.377 -12.018  1.00  0.00     0.293 HD
ENDBRANCH   7  25
TORSDOF 6
ENDMDL
