MODEL 1
REMARK VINA RESULT:    -4.584      0.000      0.000
REMARK INTER + INTRA:          -6.920
REMARK INTER:                  -6.997
REMARK INTRA:                   0.077
REMARK UNBOUND:                 0.077
REMARK SMILES CC1=CCC[C@H](C)C(=O)C[C@@H](C(C)C)C(=O)C1
REMARK SMILES IDX 8 1 9 2 6 3 7 4 5 5 4 6 3 7 2 8 1 9 10 11 11 12 15 13 16 14
REMARK SMILES IDX 17 15 12 17 13 18 14 19
REMARK H PARENT
REMARK Flexibility Score: 70.00
ROOT
ATOM      1  C   UNL     1     -13.754 -15.268  30.452  1.00  0.00     0.136 C 
ATOM      2  O   UNL     1     -14.235 -14.264  30.957  1.00  0.00    -0.299 OA
ENDROOT
BRANCH   1   3
ATOM      3  C   UNL     1     -13.520 -15.285  28.952  1.00  0.00     0.053 C 
ATOM      4  C   UNL     1     -14.052 -14.007  28.293  1.00  0.00     0.016 C 
BRANCH   3   5
ATOM      5  C   UNL     1     -12.034 -15.508  28.606  1.00  0.00     0.015 C 
BRANCH   5   6
ATOM      6  C   UNL     1     -11.831 -16.657  27.593  1.00  0.00     0.028 C 
BRANCH   6   7
ATOM      7  C   UNL     1     -12.792 -17.789  27.859  1.00  0.00    -0.028 C 
ATOM      8  C   UNL     1     -12.605 -18.783  28.760  1.00  0.00    -0.070 CG0
ATOM      9  C   UNL     1     -13.645 -19.872  28.834  1.00  0.00     0.039 C 
ATOM     10  G   UNL     1     -11.420 -18.835  29.714  1.00  0.00     0.000 G0
ENDBRANCH   6   7
ENDBRANCH   5   6
ENDBRANCH   3   5
ENDBRANCH   1   3
BRANCH   1  11
ATOM     11  C   UNL     1     -13.402 -16.435  31.353  1.00  0.00     0.087 C 
BRANCH  11  12
ATOM     12  C   UNL     1     -11.887 -16.789  31.379  1.00  0.00     0.066 C 
BRANCH  12  13
ATOM     13  C   UNL     1     -11.670 -18.276  31.111  1.00  0.00     0.140 C 
ATOM     14  O   UNL     1     -11.653 -19.041  32.064  1.00  0.00    -0.299 OA
BRANCH  13  15
ATOM     15  C   UNL     1     -11.437 -18.869  29.733  1.00  0.00     0.106 CG0
ATOM     16  G   UNL     1     -12.612 -18.782  28.769  1.00  0.00     0.000 G0
ENDBRANCH  13  15
ENDBRANCH  12  13
BRANCH  12  17
ATOM     17  C   UNL     1     -11.229 -16.385  32.737  1.00  0.00    -0.006 C 
ATOM     18  C   UNL     1     -12.162 -15.518  33.601  1.00  0.00     0.008 C 
ATOM     19  C   UNL     1      -9.908 -15.624  32.518  1.00  0.00     0.008 C 
ENDBRANCH  12  17
ENDBRANCH  11  12
ENDBRANCH   1  11
TORSDOF 1
ENDMDL
MODEL 2
REMARK VINA RESULT:    -4.525      2.166      5.100
REMARK INTER + INTRA:          -6.828
REMARK INTER:                  -6.868
REMARK INTRA:                   0.040
REMARK UNBOUND:                 0.077
REMARK SMILES CC1=CCC[C@H](C)C(=O)C[C@@H](C(C)C)C(=O)C1
REMARK SMILES IDX 8 1 9 2 6 3 7 4 5 5 4 6 3 7 2 8 1 9 10 11 11 12 15 13 16 14
REMARK SMILES IDX 17 15 12 17 13 18 14 19
REMARK H PARENT
REMARK Flexibility Score: 70.00
ROOT
ATOM      1  C   UNL     1     -13.079 -19.364  29.013  1.00  0.00     0.136 C 
ATOM      2  O   UNL     1     -13.297 -20.309  28.269  1.00  0.00    -0.299 OA
ENDROOT
BRANCH   1   3
ATOM      3  C   UNL     1     -12.320 -19.617  30.303  1.00  0.00     0.053 C 
ATOM      4  C   UNL     1     -11.007 -18.826  30.338  1.00  0.00     0.016 C 
BRANCH   3   5
ATOM      5  C   UNL     1     -13.182 -19.314  31.545  1.00  0.00     0.015 C 
BRANCH   5   6
ATOM      6  C   UNL     1     -12.641 -18.118  32.361  1.00  0.00     0.028 C 
BRANCH   6   7
ATOM      7  C   UNL     1     -13.635 -16.983  32.381  1.00  0.00    -0.028 C 
ATOM      8  C   UNL     1     -13.516 -15.823  31.693  1.00  0.00    -0.070 CG0
ATOM      9  C   UNL     1     -14.577 -14.771  31.896  1.00  0.00     0.039 C 
ATOM     10  G   UNL     1     -12.389 -15.546  30.709  1.00  0.00     0.000 G0
ENDBRANCH   6   7
ENDBRANCH   5   6
ENDBRANCH   3   5
ENDBRANCH   1   3
BRANCH   1  11
ATOM     11  C   UNL     1     -13.565 -17.989  28.599  1.00  0.00     0.087 C 
BRANCH  11  12
ATOM     12  C   UNL     1     -12.431 -16.939  28.412  1.00  0.00     0.066 C 
BRANCH  12  13
ATOM     13  C   UNL     1     -12.706 -15.687  29.240  1.00  0.00     0.140 C 
ATOM     14  O   UNL     1     -13.198 -14.718  28.681  1.00  0.00    -0.299 OA
BRANCH  13  15
ATOM     15  C   UNL     1     -12.373 -15.550  30.715  1.00  0.00     0.106 CG0
ATOM     16  G   UNL     1     -13.522 -15.812  31.679  1.00  0.00     0.000 G0
ENDBRANCH  13  15
ENDBRANCH  12  13
BRANCH  12  17
ATOM     17  C   UNL     1     -12.246 -16.560  26.908  1.00  0.00    -0.006 C 
ATOM     18  C   UNL     1     -13.542 -16.744  26.097  1.00  0.00     0.008 C 
ATOM     19  C   UNL     1     -11.129 -17.393  26.251  1.00  0.00     0.008 C 
ENDBRANCH  12  17
ENDBRANCH  11  12
ENDBRANCH   1  11
TORSDOF 1
ENDMDL
MODEL 3
REMARK VINA RESULT:    -4.477      1.549      3.838
REMARK INTER + INTRA:          -6.755
REMARK INTER:                  -6.665
REMARK INTRA:                  -0.090
REMARK UNBOUND:                 0.077
REMARK SMILES CC1=CCC[C@H](C)C(=O)C[C@@H](C(C)C)C(=O)C1
REMARK SMILES IDX 8 1 9 2 6 3 7 4 5 5 4 6 3 7 2 8 1 9 10 11 11 12 15 13 16 14
REMARK SMILES IDX 17 15 12 17 13 18 14 19
REMARK H PARENT
REMARK Flexibility Score: 70.00
ROOT
ATOM      1  C   UNL     1     -12.610 -16.258  31.501  1.00  0.00     0.136 C 
ATOM      2  O   UNL     1     -13.586 -16.770  32.031  1.00  0.00    -0.299 OA
ENDROOT
BRANCH   1   3
ATOM      3  C   UNL     1     -11.228 -16.652  31.991  1.00  0.00     0.053 C 
ATOM      4  C   UNL     1     -10.888 -15.952  33.312  1.00  0.00     0.016 C 
BRANCH   3   5
ATOM      5  C   UNL     1     -11.079 -18.181  32.120  1.00  0.00     0.015 C 
BRANCH   5   6
ATOM      6  C   UNL     1     -10.791 -18.862  30.763  1.00  0.00     0.028 C 
BRANCH   6   7
ATOM      7  C   UNL     1     -12.039 -19.494  30.199  1.00  0.00    -0.028 C 
ATOM      8  C   UNL     1     -12.620 -19.168  29.020  1.00  0.00    -0.070 CG0
ATOM      9  C   UNL     1     -13.909 -19.858  28.655  1.00  0.00     0.039 C 
ATOM     10  G   UNL     1     -12.021 -18.168  28.041  1.00  0.00     0.000 G0
ENDBRANCH   6   7
ENDBRANCH   5   6
ENDBRANCH   3   5
ENDBRANCH   1   3
BRANCH   1  11
ATOM     11  C   UNL     1     -12.834 -15.271  30.373  1.00  0.00     0.087 C 
BRANCH  11  12
ATOM     12  C   UNL     1     -13.153 -15.931  28.999  1.00  0.00     0.066 C 
BRANCH  12  13
ATOM     13  C   UNL     1     -11.953 -16.719  28.482  1.00  0.00     0.140 C 
ATOM     14  O   UNL     1     -10.877 -16.148  28.393  1.00  0.00    -0.299 OA
BRANCH  13  15
ATOM     15  C   UNL     1     -12.014 -18.169  28.033  1.00  0.00     0.106 CG0
ATOM     16  G   UNL     1     -12.611 -19.147  29.035  1.00  0.00     0.000 G0
ENDBRANCH  13  15
ENDBRANCH  12  13
BRANCH  12  17
ATOM     17  C   UNL     1     -13.594 -14.868  27.943  1.00  0.00    -0.006 C 
ATOM     18  C   UNL     1     -14.472 -13.764  28.561  1.00  0.00     0.008 C 
ATOM     19  C   UNL     1     -14.363 -15.518  26.778  1.00  0.00     0.008 C 
ENDBRANCH  12  17
ENDBRANCH  11  12
ENDBRANCH   1  11
TORSDOF 1
ENDMDL
MODEL 4
REMARK VINA RESULT:    -4.301      2.138      3.661
REMARK INTER + INTRA:          -6.486
REMARK INTER:                  -7.185
REMARK INTRA:                   0.699
REMARK UNBOUND:                 0.077
REMARK SMILES CC1=CCC[C@H](C)C(=O)C[C@@H](C(C)C)C(=O)C1
REMARK SMILES IDX 8 1 9 2 6 3 7 4 5 5 4 6 3 7 2 8 1 9 10 11 11 12 15 13 16 14
REMARK SMILES IDX 17 15 12 17 13 18 14 19
REMARK H PARENT
REMARK Flexibility Score: 70.00
ROOT
ATOM      1  C   UNL     1     -12.835 -19.796  30.571  1.00  0.00     0.136 C 
ATOM      2  O   UNL     1     -12.343 -20.834  30.988  1.00  0.00    -0.299 OA
ENDROOT
BRANCH   1   3
ATOM      3  C   UNL     1     -13.019 -19.631  29.072  1.00  0.00     0.053 C 
ATOM      4  C   UNL     1     -14.357 -20.219  28.610  1.00  0.00     0.016 C 
BRANCH   3   5
ATOM      5  C   UNL     1     -12.881 -18.159  28.636  1.00  0.00     0.015 C 
BRANCH   5   6
ATOM      6  C   UNL     1     -11.567 -17.893  27.866  1.00  0.00     0.028 C 
BRANCH   6   7
ATOM      7  C   UNL     1     -11.001 -16.539  28.214  1.00  0.00    -0.028 C 
ATOM      8  C   UNL     1     -10.377 -16.224  29.374  1.00  0.00    -0.070 CG0
ATOM      9  C   UNL     1      -9.941 -14.794  29.574  1.00  0.00     0.039 C 
ATOM     10  G   UNL     1     -10.071 -17.242  30.463  1.00  0.00     0.000 G0
ENDBRANCH   6   7
ENDBRANCH   5   6
ENDBRANCH   3   5
ENDBRANCH   1   3
BRANCH   1  11
ATOM     11  C   UNL     1     -13.251 -18.737  31.573  1.00  0.00     0.087 C 
BRANCH  11  12
ATOM     12  C   UNL     1     -12.619 -17.337  31.324  1.00  0.00     0.066 C 
BRANCH  12  13
ATOM     13  C   UNL     1     -11.113 -17.368  31.568  1.00  0.00     0.140 C 
ATOM     14  O   UNL     1     -10.712 -17.472  32.717  1.00  0.00    -0.299 OA
BRANCH  13  15
ATOM     15  C   UNL     1     -10.069 -17.241  30.472  1.00  0.00     0.106 CG0
ATOM     16  G   UNL     1     -10.375 -16.225  29.381  1.00  0.00     0.000 G0
ENDBRANCH  13  15
ENDBRANCH  12  13
BRANCH  12  17
ATOM     17  C   UNL     1     -13.286 -16.242  32.216  1.00  0.00    -0.006 C 
ATOM     18  C   UNL     1     -14.335 -16.832  33.175  1.00  0.00     0.008 C 
ATOM     19  C   UNL     1     -13.957 -15.151  31.360  1.00  0.00     0.008 C 
ENDBRANCH  12  17
ENDBRANCH  11  12
ENDBRANCH   1  11
TORSDOF 1
ENDMDL
MODEL 5
REMARK VINA RESULT:    -4.236      1.809      2.723
REMARK INTER + INTRA:          -6.388
REMARK INTER:                  -6.637
REMARK INTRA:                   0.249
REMARK UNBOUND:                 0.077
REMARK SMILES CC1=CCC[C@H](C)C(=O)C[C@@H](C(C)C)C(=O)C1
REMARK SMILES IDX 8 1 9 2 6 3 7 4 5 5 4 6 3 7 2 8 1 9 10 11 11 12 15 13 16 14
REMARK SMILES IDX 17 15 12 17 13 18 14 19
REMARK H PARENT
REMARK Flexibility Score: 70.00
ROOT
ATOM      1  C   UNL     1     -12.667 -15.899  29.215  1.00  0.00     0.136 C 
ATOM      2  O   UNL     1     -12.454 -14.747  28.864  1.00  0.00    -0.299 OA
ENDROOT
BRANCH   1   3
ATOM      3  C   UNL     1     -12.196 -17.029  28.317  1.00  0.00     0.053 C 
ATOM      4  C   UNL     1     -12.829 -16.930  26.924  1.00  0.00     0.016 C 
BRANCH   3   5
ATOM      5  C   UNL     1     -10.658 -17.086  28.224  1.00  0.00     0.015 C 
BRANCH   5   6
ATOM      6  C   UNL     1     -10.035 -17.992  29.309  1.00  0.00     0.028 C 
BRANCH   6   7
ATOM      7  C   UNL     1     -11.081 -18.876  29.942  1.00  0.00    -0.028 C 
ATOM      8  C   UNL     1     -11.462 -18.834  31.241  1.00  0.00    -0.070 CG0
ATOM      9  C   UNL     1     -12.473 -19.849  31.712  1.00  0.00     0.039 C 
ATOM     10  G   UNL     1     -10.945 -17.801  32.232  1.00  0.00     0.000 G0
ENDBRANCH   6   7
ENDBRANCH   5   6
ENDBRANCH   3   5
ENDBRANCH   1   3
BRANCH   1  11
ATOM     11  C   UNL     1     -13.372 -16.136  30.536  1.00  0.00     0.087 C 
BRANCH  11  12
ATOM     12  C   UNL     1     -12.568 -15.668  31.784  1.00  0.00     0.066 C 
BRANCH  12  13
ATOM     13  C   UNL     1     -11.198 -16.336  31.832  1.00  0.00     0.140 C 
ATOM     14  O   UNL     1     -10.220 -15.681  31.504  1.00  0.00    -0.299 OA
BRANCH  13  15
ATOM     15  C   UNL     1     -10.969 -17.784  32.230  1.00  0.00     0.106 CG0
ATOM     16  G   UNL     1     -11.449 -18.828  31.233  1.00  0.00     0.000 G0
ENDBRANCH  13  15
ENDBRANCH  12  13
BRANCH  12  17
ATOM     17  C   UNL     1     -13.351 -15.948  33.106  1.00  0.00    -0.006 C 
ATOM     18  C   UNL     1     -14.510 -16.940  32.897  1.00  0.00     0.008 C 
ATOM     19  C   UNL     1     -13.915 -14.649  33.713  1.00  0.00     0.008 C 
ENDBRANCH  12  17
ENDBRANCH  11  12
ENDBRANCH   1  11
TORSDOF 1
ENDMDL
MODEL 6
REMARK VINA RESULT:    -4.052      1.866      3.817
REMARK INTER + INTRA:          -6.107
REMARK INTER:                  -6.315
REMARK INTRA:                   0.208
REMARK UNBOUND:                 0.077
REMARK SMILES CC1=CCC[C@H](C)C(=O)C[C@@H](C(C)C)C(=O)C1
REMARK SMILES IDX 8 1 9 2 6 3 7 4 5 5 4 6 3 7 2 8 1 9 10 11 11 12 15 13 16 14
REMARK SMILES IDX 17 15 12 17 13 18 14 19
REMARK H PARENT
REMARK Flexibility Score: 70.00
ROOT
ATOM      1  C   UNL     1     -11.756 -18.883  30.575  1.00  0.00     0.136 C 
ATOM      2  O   UNL     1     -10.538 -18.781  30.585  1.00  0.00    -0.299 OA
ENDROOT
BRANCH   1   3
ATOM      3  C   UNL     1     -12.400 -19.778  29.531  1.00  0.00     0.053 C 
ATOM      4  C   UNL     1     -13.241 -20.879  30.188  1.00  0.00     0.016 C 
BRANCH   3   5
ATOM      5  C   UNL     1     -13.237 -18.970  28.520  1.00  0.00     0.015 C 
BRANCH   5   6
ATOM      6  C   UNL     1     -12.391 -17.931  27.751  1.00  0.00     0.028 C 
BRANCH   6   7
ATOM      7  C   UNL     1     -13.096 -16.598  27.688  1.00  0.00    -0.028 C 
ATOM      8  C   UNL     1     -12.749 -15.493  28.389  1.00  0.00    -0.070 CG0
ATOM      9  C   UNL     1     -13.619 -14.270  28.253  1.00  0.00     0.039 C 
ATOM     10  G   UNL     1     -11.515 -15.419  29.277  1.00  0.00     0.000 G0
ENDBRANCH   6   7
ENDBRANCH   5   6
ENDBRANCH   3   5
ENDBRANCH   1   3
BRANCH   1  11
ATOM     11  C   UNL     1     -12.555 -18.124  31.615  1.00  0.00     0.087 C 
BRANCH  11  12
ATOM     12  C   UNL     1     -12.920 -16.667  31.205  1.00  0.00     0.066 C 
BRANCH  12  13
ATOM     13  C   UNL     1     -11.688 -15.917  30.706  1.00  0.00     0.140 C 
ATOM     14  O   UNL     1     -10.793 -15.676  31.502  1.00  0.00    -0.299 OA
BRANCH  13  15
ATOM     15  C   UNL     1     -11.514 -15.414  29.284  1.00  0.00     0.106 CG0
ATOM     16  G   UNL     1     -12.754 -15.478  28.403  1.00  0.00     0.000 G0
ENDBRANCH  13  15
ENDBRANCH  12  13
BRANCH  12  17
ATOM     17  C   UNL     1     -13.582 -15.889  32.387  1.00  0.00    -0.006 C 
ATOM     18  C   UNL     1     -14.461 -16.800  33.263  1.00  0.00     0.008 C 
ATOM     19  C   UNL     1     -14.440 -14.716  31.877  1.00  0.00     0.008 C 
ENDBRANCH  12  17
ENDBRANCH  11  12
ENDBRANCH   1  11
TORSDOF 1
ENDMDL
MODEL 7
REMARK VINA RESULT:    -3.976      1.469      3.771
REMARK INTER + INTRA:          -5.991
REMARK INTER:                  -6.648
REMARK INTRA:                   0.656
REMARK UNBOUND:                 0.077
REMARK SMILES CC1=CCC[C@H](C)C(=O)C[C@@H](C(C)C)C(=O)C1
REMARK SMILES IDX 8 1 9 2 6 3 7 4 5 5 4 6 3 7 2 8 1 9 10 11 11 12 15 13 16 14
REMARK SMILES IDX 17 15 12 17 13 18 14 19
REMARK H PARENT
REMARK Flexibility Score: 70.00
ROOT
ATOM      1  C   UNL     1     -10.832 -18.028  31.860  1.00  0.00     0.136 C 
ATOM      2  O   UNL     1     -10.173 -18.205  32.874  1.00  0.00    -0.299 OA
ENDROOT
BRANCH   1   3
ATOM      3  C   UNL     1     -11.277 -19.241  31.062  1.00  0.00     0.053 C 
ATOM      4  C   UNL     1     -12.526 -19.882  31.679  1.00  0.00     0.016 C 
BRANCH   3   5
ATOM      5  C   UNL     1     -11.507 -18.898  29.577  1.00  0.00     0.015 C 
BRANCH   5   6
ATOM      6  C   UNL     1     -13.008 -18.811  29.217  1.00  0.00     0.028 C 
BRANCH   6   7
ATOM      7  C   UNL     1     -13.208 -18.103  27.900  1.00  0.00    -0.028 C 
ATOM      8  C   UNL     1     -12.915 -16.804  27.655  1.00  0.00    -0.070 CG0
ATOM      9  C   UNL     1     -13.254 -16.250  26.295  1.00  0.00     0.039 C 
ATOM     10  G   UNL     1     -12.236 -15.894  28.668  1.00  0.00     0.000 G0
ENDBRANCH   6   7
ENDBRANCH   5   6
ENDBRANCH   3   5
ENDBRANCH   1   3
BRANCH   1  11
ATOM     11  C   UNL     1     -11.183 -16.607  31.463  1.00  0.00     0.087 C 
BRANCH  11  12
ATOM     12  C   UNL     1     -12.708 -16.350  31.287  1.00  0.00     0.066 C 
BRANCH  12  13
ATOM     13  C   UNL     1     -12.991 -15.627  29.974  1.00  0.00     0.140 C 
ATOM     14  O   UNL     1     -13.904 -14.815  29.942  1.00  0.00    -0.299 OA
BRANCH  13  15
ATOM     15  C   UNL     1     -12.231 -15.875  28.683  1.00  0.00     0.106 CG0
ATOM     16  G   UNL     1     -12.920 -16.782  27.673  1.00  0.00     0.000 G0
ENDBRANCH  13  15
ENDBRANCH  12  13
BRANCH  12  17
ATOM     17  C   UNL     1     -13.292 -15.536  32.486  1.00  0.00    -0.006 C 
ATOM     18  C   UNL     1     -12.221 -15.206  33.542  1.00  0.00     0.008 C 
ATOM     19  C   UNL     1     -14.445 -16.294  33.172  1.00  0.00     0.008 C 
ENDBRANCH  12  17
ENDBRANCH  11  12
ENDBRANCH   1  11
TORSDOF 1
ENDMDL
MODEL 8
REMARK VINA RESULT:    -3.708      1.958      3.839
REMARK INTER + INTRA:          -5.582
REMARK INTER:                  -6.125
REMARK INTRA:                   0.543
REMARK UNBOUND:                 0.077
REMARK SMILES CC1=CCC[C@H](C)C(=O)C[C@@H](C(C)C)C(=O)C1
REMARK SMILES IDX 8 1 9 2 6 3 7 4 5 5 4 6 3 7 2 8 1 9 10 11 11 12 15 13 16 14
REMARK SMILES IDX 17 15 12 17 13 18 14 19
REMARK H PARENT
REMARK Flexibility Score: 70.00
ROOT
ATOM      1  C   UNL     1     -11.639 -16.660  27.872  1.00  0.00     0.136 C 
ATOM      2  O   UNL     1     -10.531 -16.175  28.050  1.00  0.00    -0.299 OA
ENDROOT
BRANCH   1   3
ATOM      3  C   UNL     1     -12.751 -15.761  27.363  1.00  0.00     0.053 C 
ATOM      4  C   UNL     1     -13.600 -16.474  26.304  1.00  0.00     0.016 C 
BRANCH   3   5
ATOM      5  C   UNL     1     -13.631 -15.230  28.512  1.00  0.00     0.015 C 
BRANCH   5   6
ATOM      6  C   UNL     1     -12.825 -14.990  29.809  1.00  0.00     0.028 C 
BRANCH   6   7
ATOM      7  C   UNL     1     -13.539 -15.570  31.005  1.00  0.00    -0.028 C 
ATOM      8  C   UNL     1     -13.028 -16.497  31.849  1.00  0.00    -0.070 CG0
ATOM      9  C   UNL     1     -13.919 -17.015  32.950  1.00  0.00     0.039 C 
ATOM     10  G   UNL     1     -11.599 -17.014  31.760  1.00  0.00     0.000 G0
ENDBRANCH   6   7
ENDBRANCH   5   6
ENDBRANCH   3   5
ENDBRANCH   1   3
BRANCH   1  11
ATOM     11  C   UNL     1     -11.837 -18.137  28.154  1.00  0.00     0.087 C 
BRANCH  11  12
ATOM     12  C   UNL     1     -12.334 -18.452  29.595  1.00  0.00     0.066 C 
BRANCH  12  13
ATOM     13  C   UNL     1     -11.307 -18.012  30.635  1.00  0.00     0.140 C 
ATOM     14  O   UNL     1     -10.192 -18.510  30.596  1.00  0.00    -0.299 OA
BRANCH  13  15
ATOM     15  C   UNL     1     -11.591 -17.016  31.744  1.00  0.00     0.106 CG0
ATOM     16  G   UNL     1     -13.028 -16.525  31.842  1.00  0.00     0.000 G0
ENDBRANCH  13  15
ENDBRANCH  12  13
BRANCH  12  17
ATOM     17  C   UNL     1     -12.660 -19.970  29.768  1.00  0.00    -0.006 C 
ATOM     18  C   UNL     1     -13.926 -20.385  28.997  1.00  0.00     0.008 C 
ATOM     19  C   UNL     1     -12.839 -20.342  31.252  1.00  0.00     0.008 C 
ENDBRANCH  12  17
ENDBRANCH  11  12
ENDBRANCH   1  11
TORSDOF 1
ENDMDL
MODEL 9
REMARK VINA RESULT:    -3.583      1.876      4.013
REMARK INTER + INTRA:          -5.391
REMARK INTER:                  -5.413
REMARK INTRA:                   0.022
REMARK UNBOUND:                 0.077
REMARK SMILES CC1=CCC[C@H](C)C(=O)C[C@@H](C(C)C)C(=O)C1
REMARK SMILES IDX 8 1 9 2 6 3 7 4 5 5 4 6 3 7 2 8 1 9 10 11 11 12 15 13 16 14
REMARK SMILES IDX 17 15 12 17 13 18 14 19
REMARK H PARENT
REMARK Flexibility Score: 70.00
ROOT
ATOM      1  C   UNL     1     -13.842 -15.013  31.392  1.00  0.00     0.136 C 
ATOM      2  O   UNL     1     -15.014 -14.725  31.197  1.00  0.00    -0.299 OA
ENDROOT
BRANCH   1   3
ATOM      3  C   UNL     1     -13.437 -15.521  32.765  1.00  0.00     0.053 C 
ATOM      4  C   UNL     1     -13.984 -14.614  33.874  1.00  0.00     0.016 C 
BRANCH   3   5
ATOM      5  C   UNL     1     -13.867 -16.985  32.984  1.00  0.00     0.015 C 
BRANCH   5   6
ATOM      6  C   UNL     1     -13.536 -17.885  31.772  1.00  0.00     0.028 C 
BRANCH   6   7
ATOM      7  C   UNL     1     -12.080 -18.281  31.774  1.00  0.00    -0.028 C 
ATOM      8  C   UNL     1     -11.315 -18.460  30.672  1.00  0.00    -0.070 CG0
ATOM      9  C   UNL     1      -9.895 -18.930  30.868  1.00  0.00     0.039 C 
ATOM     10  G   UNL     1     -11.805 -18.183  29.258  1.00  0.00     0.000 G0
ENDBRANCH   6   7
ENDBRANCH   5   6
ENDBRANCH   3   5
ENDBRANCH   1   3
BRANCH   1  11
ATOM     11  C   UNL     1     -12.859 -14.863  30.247  1.00  0.00     0.087 C 
BRANCH  11  12
ATOM     12  C   UNL     1     -13.095 -15.851  29.068  1.00  0.00     0.066 C 
BRANCH  12  13
ATOM     13  C   UNL     1     -11.867 -16.728  28.838  1.00  0.00     0.140 C 
ATOM     14  O   UNL     1     -10.900 -16.236  28.276  1.00  0.00    -0.299 OA
BRANCH  13  15
ATOM     15  C   UNL     1     -11.779 -18.192  29.232  1.00  0.00     0.106 CG0
ATOM     16  G   UNL     1     -11.320 -18.467  30.657  1.00  0.00     0.000 G0
ENDBRANCH  13  15
ENDBRANCH  12  13
BRANCH  12  17
ATOM     17  C   UNL     1     -13.470 -15.095  27.754  1.00  0.00    -0.006 C 
ATOM     18  C   UNL     1     -14.530 -14.004  27.993  1.00  0.00     0.008 C 
ATOM     19  C   UNL     1     -13.992 -16.063  26.676  1.00  0.00     0.008 C 
ENDBRANCH  12  17
ENDBRANCH  11  12
ENDBRANCH   1  11
TORSDOF 1
ENDMDL
