MODEL 1
REMARK VINA RESULT:    -3.914      0.000      0.000
REMARK INTER + INTRA:          -4.029
REMARK INTER:                  -4.029
REMARK INTRA:                   0.000
REMARK UNBOUND:                 0.000
REMARK SMILES CC1(C)[C@H]2CC[C@](C)(C2)[C@H]1O
REMARK SMILES IDX 1 1 2 2 4 3 5 4 6 5 7 6 9 7 10 8 8 9 3 10 11 11
REMARK H PARENT 11 12
REMARK Flexibility Score: inf
ROOT
ATOM      1  C   UNL     1     118.460 115.083 114.392  1.00  0.00     0.014 C 
ATOM      2  C   UNL     1     118.297 116.040 113.186  1.00  0.00    -0.006 C 
ATOM      3  C   UNL     1     119.205 117.306 113.376  1.00  0.00    -0.002 C 
ATOM      4  C   UNL     1     119.271 118.143 112.082  1.00  0.00     0.005 C 
ATOM      5  C   UNL     1     117.842 118.695 111.960  1.00  0.00     0.010 C 
ATOM      6  C   UNL     1     117.172 118.196 113.263  1.00  0.00    -0.006 C 
ATOM      7  C   UNL     1     118.335 118.214 114.229  1.00  0.00     0.013 C 
ATOM      8  C   UNL     1     116.868 116.678 113.168  1.00  0.00     0.126 C 
ATOM      9  C   UNL     1     115.976 119.043 113.709  1.00  0.00     0.014 C 
ATOM     10  C   UNL     1     118.633 115.232 111.906  1.00  0.00     0.014 C 
ENDROOT
BRANCH   8  11
ATOM     11  O   UNL     1     116.128 116.377 112.012  1.00  0.00    -0.392 OA
ATOM     12  H   UNL     1     116.369 117.065 111.337  1.00  0.00     0.211 HD
ENDBRANCH   8  11
TORSDOF 1
ENDMDL
MODEL 2
REMARK VINA RESULT:    -3.901      2.353      4.394
REMARK INTER + INTRA:          -4.015
REMARK INTER:                  -4.015
REMARK INTRA:                   0.000
REMARK UNBOUND:                 0.000
REMARK SMILES CC1(C)[C@H]2CC[C@](C)(C2)[C@H]1O
REMARK SMILES IDX 1 1 2 2 4 3 5 4 6 5 7 6 9 7 10 8 8 9 3 10 11 11
REMARK H PARENT 11 12
REMARK Flexibility Score: inf
ROOT
ATOM      1  C   UNL     1     114.778 117.937 114.591  1.00  0.00     0.014 C 
ATOM      2  C   UNL     1     114.942 117.016 113.357  1.00  0.00    -0.006 C 
ATOM      3  C   UNL     1     114.055 115.733 113.520  1.00  0.00    -0.002 C 
ATOM      4  C   UNL     1     113.987 114.931 112.203  1.00  0.00     0.005 C 
ATOM      5  C   UNL     1     115.423 114.404 112.052  1.00  0.00     0.010 C 
ATOM      6  C   UNL     1     116.099 114.876 113.362  1.00  0.00    -0.006 C 
ATOM      7  C   UNL     1     114.946 114.813 114.338  1.00  0.00     0.013 C 
ATOM      8  C   UNL     1     116.380 116.399 113.307  1.00  0.00     0.126 C 
ATOM      9  C   UNL     1     117.311 114.033 113.772  1.00  0.00     0.014 C 
ATOM     10  C   UNL     1     114.582 117.855 112.103  1.00  0.00     0.014 C 
ENDROOT
BRANCH   8  11
ATOM     11  O   UNL     1     117.104 116.744 112.153  1.00  0.00    -0.392 OA
ATOM     12  H   UNL     1     118.031 116.939 112.451  1.00  0.00     0.211 HD
ENDBRANCH   8  11
TORSDOF 1
ENDMDL
MODEL 3
REMARK VINA RESULT:    -3.899      1.848      2.136
REMARK INTER + INTRA:          -4.013
REMARK INTER:                  -4.013
REMARK INTRA:                   0.000
REMARK UNBOUND:                 0.000
REMARK SMILES CC1(C)[C@H]2CC[C@](C)(C2)[C@H]1O
REMARK SMILES IDX 1 1 2 2 4 3 5 4 6 5 7 6 9 7 10 8 8 9 3 10 11 11
REMARK H PARENT 11 12
REMARK Flexibility Score: inf
ROOT
ATOM      1  C   UNL     1     118.154 113.325 114.371  1.00  0.00     0.014 C 
ATOM      2  C   UNL     1     117.738 114.182 113.150  1.00  0.00    -0.006 C 
ATOM      3  C   UNL     1     118.415 115.595 113.227  1.00  0.00    -0.002 C 
ATOM      4  C   UNL     1     118.238 116.371 111.905  1.00  0.00     0.005 C 
ATOM      5  C   UNL     1     116.728 116.655 111.876  1.00  0.00     0.010 C 
ATOM      6  C   UNL     1     116.252 116.106 113.242  1.00  0.00    -0.006 C 
ATOM      7  C   UNL     1     117.458 116.374 114.115  1.00  0.00     0.013 C 
ATOM      8  C   UNL     1     116.219 114.556 113.222  1.00  0.00     0.126 C 
ATOM      9  C   UNL     1     114.958 116.749 113.752  1.00  0.00     0.014 C 
ATOM     10  C   UNL     1     118.123 113.388 111.875  1.00  0.00     0.014 C 
ENDROOT
BRANCH   8  11
ATOM     11  O   UNL     1     115.466 114.075 112.137  1.00  0.00    -0.392 OA
ATOM     12  H   UNL     1     116.120 113.797 111.443  1.00  0.00     0.211 HD
ENDBRANCH   8  11
TORSDOF 1
ENDMDL
MODEL 4
REMARK VINA RESULT:    -3.899      1.675      3.181
REMARK INTER + INTRA:          -4.013
REMARK INTER:                  -4.013
REMARK INTRA:                   0.000
REMARK UNBOUND:                 0.000
REMARK SMILES CC1(C)[C@H]2CC[C@](C)(C2)[C@H]1O
REMARK SMILES IDX 1 1 2 2 4 3 5 4 6 5 7 6 9 7 10 8 8 9 3 10 11 11
REMARK H PARENT 11 12
REMARK Flexibility Score: inf
ROOT
ATOM      1  C   UNL     1     117.867 118.506 114.804  1.00  0.00     0.014 C 
ATOM      2  C   UNL     1     117.054 118.355 113.495  1.00  0.00    -0.006 C 
ATOM      3  C   UNL     1     115.748 119.221 113.568  1.00  0.00    -0.002 C 
ATOM      4  C   UNL     1     115.056 119.304 112.191  1.00  0.00     0.005 C 
ATOM      5  C   UNL     1     114.565 117.865 111.970  1.00  0.00     0.010 C 
ATOM      6  C   UNL     1     114.938 117.169 113.301  1.00  0.00    -0.006 C 
ATOM      7  C   UNL     1     114.778 118.302 114.291  1.00  0.00     0.013 C 
ATOM      8  C   UNL     1     116.465 116.910 113.367  1.00  0.00     0.126 C 
ATOM      9  C   UNL     1     114.083 115.938 113.617  1.00  0.00     0.014 C 
ATOM     10  C   UNL     1     117.987 118.751 112.322  1.00  0.00     0.014 C 
ENDROOT
BRANCH   8  11
ATOM     11  O   UNL     1     116.915 116.214 112.232  1.00  0.00    -0.392 OA
ATOM     12  H   UNL     1     116.175 115.608 111.963  1.00  0.00     0.211 HD
ENDBRANCH   8  11
TORSDOF 1
ENDMDL
MODEL 5
REMARK VINA RESULT:    -3.876      1.608      3.136
REMARK INTER + INTRA:          -3.989
REMARK INTER:                  -3.989
REMARK INTRA:                   0.000
REMARK UNBOUND:                 0.000
REMARK SMILES CC1(C)[C@H]2CC[C@](C)(C2)[C@H]1O
REMARK SMILES IDX 1 1 2 2 4 3 5 4 6 5 7 6 9 7 10 8 8 9 3 10 11 11
REMARK H PARENT 11 12
REMARK Flexibility Score: inf
ROOT
ATOM      1  C   UNL     1     115.340 114.664 114.897  1.00  0.00     0.014 C 
ATOM      2  C   UNL     1     116.127 114.805 113.572  1.00  0.00    -0.006 C 
ATOM      3  C   UNL     1     117.424 113.923 113.618  1.00  0.00    -0.002 C 
ATOM      4  C   UNL     1     118.086 113.832 112.228  1.00  0.00     0.005 C 
ATOM      5  C   UNL     1     118.590 115.265 111.996  1.00  0.00     0.010 C 
ATOM      6  C   UNL     1     118.253 115.966 113.334  1.00  0.00    -0.006 C 
ATOM      7  C   UNL     1     118.420 114.832 114.321  1.00  0.00     0.013 C 
ATOM      8  C   UNL     1     116.731 116.243 113.431  1.00  0.00     0.126 C 
ATOM      9  C   UNL     1     119.129 117.186 113.633  1.00  0.00     0.014 C 
ATOM     10  C   UNL     1     115.166 114.420 112.418  1.00  0.00     0.014 C 
ENDROOT
BRANCH   8  11
ATOM     11  O   UNL     1     116.266 116.944 112.305  1.00  0.00    -0.392 OA
ATOM     12  H   UNL     1     115.308 117.143 112.474  1.00  0.00     0.211 HD
ENDBRANCH   8  11
TORSDOF 1
ENDMDL
MODEL 6
REMARK VINA RESULT:    -3.861      1.016      3.267
REMARK INTER + INTRA:          -3.974
REMARK INTER:                  -3.974
REMARK INTRA:                   0.000
REMARK UNBOUND:                 0.000
REMARK SMILES CC1(C)[C@H]2CC[C@](C)(C2)[C@H]1O
REMARK SMILES IDX 1 1 2 2 4 3 5 4 6 5 7 6 9 7 10 8 8 9 3 10 11 11
REMARK H PARENT 11 12
REMARK Flexibility Score: inf
ROOT
ATOM      1  C   UNL     1     116.504 119.240 111.875  1.00  0.00     0.014 C 
ATOM      2  C   UNL     1     117.104 118.437 113.055  1.00  0.00    -0.006 C 
ATOM      3  C   UNL     1     118.661 118.625 113.098  1.00  0.00    -0.002 C 
ATOM      4  C   UNL     1     119.254 118.062 114.407  1.00  0.00     0.005 C 
ATOM      5  C   UNL     1     119.042 116.548 114.253  1.00  0.00     0.010 C 
ATOM      6  C   UNL     1     118.459 116.429 112.824  1.00  0.00    -0.006 C 
ATOM      7  C   UNL     1     119.151 117.573 112.117  1.00  0.00     0.013 C 
ATOM      8  C   UNL     1     116.981 116.897 112.802  1.00  0.00     0.126 C 
ATOM      9  C   UNL     1     118.689 115.062 112.173  1.00  0.00     0.014 C 
ATOM     10  C   UNL     1     116.393 118.914 114.348  1.00  0.00     0.014 C 
ENDROOT
BRANCH   8  11
ATOM     11  O   UNL     1     116.217 116.224 113.772  1.00  0.00    -0.392 OA
ATOM     12  H   UNL     1     116.248 116.784 114.591  1.00  0.00     0.211 HD
ENDBRANCH   8  11
TORSDOF 1
ENDMDL
MODEL 7
REMARK VINA RESULT:    -3.837      2.481      3.673
REMARK INTER + INTRA:          -3.949
REMARK INTER:                  -3.949
REMARK INTRA:                   0.000
REMARK UNBOUND:                 0.000
REMARK SMILES CC1(C)[C@H]2CC[C@](C)(C2)[C@H]1O
REMARK SMILES IDX 1 1 2 2 4 3 5 4 6 5 7 6 9 7 10 8 8 9 3 10 11 11
REMARK H PARENT 11 12
REMARK Flexibility Score: inf
ROOT
ATOM      1  C   UNL     1     113.647 115.705 115.243  1.00  0.00     0.014 C 
ATOM      2  C   UNL     1     114.269 115.536 113.835  1.00  0.00    -0.006 C 
ATOM      3  C   UNL     1     115.666 114.830 113.943  1.00  0.00    -0.002 C 
ATOM      4  C   UNL     1     116.187 114.409 112.554  1.00  0.00     0.005 C 
ATOM      5  C   UNL     1     116.475 115.757 111.875  1.00  0.00     0.010 C 
ATOM      6  C   UNL     1     116.192 116.776 113.005  1.00  0.00    -0.006 C 
ATOM      7  C   UNL     1     116.604 115.991 114.231  1.00  0.00     0.013 C 
ATOM      8  C   UNL     1     114.665 116.925 113.229  1.00  0.00     0.126 C 
ATOM      9  C   UNL     1     116.929 118.108 112.840  1.00  0.00     0.014 C 
ATOM     10  C   UNL     1     113.250 114.749 112.971  1.00  0.00     0.014 C 
ENDROOT
BRANCH   8  11
ATOM     11  O   UNL     1     114.000 117.228 112.028  1.00  0.00    -0.392 OA
ATOM     12  H   UNL     1     113.118 117.607 112.284  1.00  0.00     0.211 HD
ENDBRANCH   8  11
TORSDOF 1
ENDMDL
MODEL 8
REMARK VINA RESULT:    -3.824      1.798      2.122
REMARK INTER + INTRA:          -3.936
REMARK INTER:                  -3.936
REMARK INTRA:                   0.000
REMARK UNBOUND:                 0.000
REMARK SMILES CC1(C)[C@H]2CC[C@](C)(C2)[C@H]1O
REMARK SMILES IDX 1 1 2 2 4 3 5 4 6 5 7 6 9 7 10 8 8 9 3 10 11 11
REMARK H PARENT 11 12
REMARK Flexibility Score: inf
ROOT
ATOM      1  C   UNL     1     115.627 115.415 114.361  1.00  0.00     0.014 C 
ATOM      2  C   UNL     1     115.862 116.339 113.141  1.00  0.00    -0.006 C 
ATOM      3  C   UNL     1     117.157 117.198 113.356  1.00  0.00    -0.002 C 
ATOM      4  C   UNL     1     117.565 117.927 112.059  1.00  0.00     0.005 C 
ATOM      5  C   UNL     1     116.435 118.952 111.875  1.00  0.00     0.010 C 
ATOM      6  C   UNL     1     115.586 118.757 113.154  1.00  0.00    -0.006 C 
ATOM      7  C   UNL     1     116.644 118.377 114.166  1.00  0.00     0.013 C 
ATOM      8  C   UNL     1     114.759 117.448 113.060  1.00  0.00     0.126 C 
ATOM      9  C   UNL     1     114.761 119.987 113.544  1.00  0.00     0.014 C 
ATOM     10  C   UNL     1     115.928 115.436 111.882  1.00  0.00     0.014 C 
ENDROOT
BRANCH   8  11
ATOM     11  O   UNL     1     114.001 117.407 111.877  1.00  0.00    -0.392 OA
ATOM     12  H   UNL     1     113.054 117.537 112.147  1.00  0.00     0.211 HD
ENDBRANCH   8  11
TORSDOF 1
ENDMDL
MODEL 9
REMARK VINA RESULT:    -3.821      1.621      3.813
REMARK INTER + INTRA:          -3.933
REMARK INTER:                  -3.933
REMARK INTRA:                   0.000
REMARK UNBOUND:                 0.000
REMARK SMILES CC1(C)[C@H]2CC[C@](C)(C2)[C@H]1O
REMARK SMILES IDX 1 1 2 2 4 3 5 4 6 5 7 6 9 7 10 8 8 9 3 10 11 11
REMARK H PARENT 11 12
REMARK Flexibility Score: inf
ROOT
ATOM      1  C   UNL     1     115.181 119.628 114.386  1.00  0.00     0.014 C 
ATOM      2  C   UNL     1     115.563 118.763 113.161  1.00  0.00    -0.006 C 
ATOM      3  C   UNL     1     114.899 117.346 113.273  1.00  0.00    -0.002 C 
ATOM      4  C   UNL     1     115.038 116.558 111.954  1.00  0.00     0.005 C 
ATOM      5  C   UNL     1     116.548 116.284 111.878  1.00  0.00     0.010 C 
ATOM      6  C   UNL     1     117.065 116.849 113.223  1.00  0.00    -0.006 C 
ATOM      7  C   UNL     1     115.890 116.582 114.137  1.00  0.00     0.013 C 
ATOM      8  C   UNL     1     117.086 118.399 113.186  1.00  0.00     0.126 C 
ATOM      9  C   UNL     1     118.379 116.221 113.696  1.00  0.00     0.014 C 
ATOM     10  C   UNL     1     115.131 119.542 111.891  1.00  0.00     0.014 C 
ENDROOT
BRANCH   8  11
ATOM     11  O   UNL     1     117.800 118.875 112.072  1.00  0.00    -0.392 OA
ATOM     12  H   UNL     1     117.128 119.047 111.361  1.00  0.00     0.211 HD
ENDBRANCH   8  11
TORSDOF 1
ENDMDL
