MODEL 1
REMARK VINA RESULT:    -3.373      0.000      0.000
REMARK INTER + INTRA:          -5.038
REMARK INTER:                  -4.556
REMARK INTRA:                  -0.482
REMARK UNBOUND:                -0.482
REMARK SMILES O=C[C@@H](O)[C@H](O)[C@H](O)CO
REMARK SMILES IDX 7 1 9 2 10 3 5 5 3 6 2 7 1 8 4 9 6 11 8 13
REMARK H PARENT 10 4 4 10 6 12 8 14
REMARK Flexibility Score: inf
ROOT
ATOM      1  C   UNL     1      52.049  59.039  25.561  1.00  0.00     0.171 C 
ENDROOT
BRANCH   1   2
ATOM      2  C   UNL     1      53.248  59.241  24.606  1.00  0.00     0.190 C 
BRANCH   2   3
ATOM      3  O   UNL     1      52.918  58.873  23.294  1.00  0.00    -0.394 OA
ATOM      4  H   UNL     1      53.607  58.223  22.996  1.00  0.00     0.210 HD
ENDBRANCH   2   3
ENDBRANCH   1   2
BRANCH   1   5
ATOM      5  C   UNL     1      52.324  59.443  27.037  1.00  0.00     0.181 C 
BRANCH   5   6
ATOM      6  C   UNL     1      52.999  58.322  27.861  1.00  0.00     0.209 C 
BRANCH   6   7
ATOM      7  C   UNL     1      53.644  58.891  29.097  1.00  0.00     0.258 C 
ATOM      8  O   UNL     1      53.425  60.044  29.434  1.00  0.00    -0.300 OA
ENDBRANCH   6   7
BRANCH   6   9
ATOM      9  O   UNL     1      52.043  57.364  28.240  1.00  0.00    -0.383 OA
ATOM     10  H   UNL     1      51.169  57.675  27.887  1.00  0.00     0.211 HD
ENDBRANCH   6   9
ENDBRANCH   5   6
BRANCH   5  11
ATOM     11  O   UNL     1      51.137  59.849  27.675  1.00  0.00    -0.387 OA
ATOM     12  H   UNL     1      50.623  59.029  27.892  1.00  0.00     0.211 HD
ENDBRANCH   5  11
ENDBRANCH   1   5
BRANCH   1  13
ATOM     13  O   UNL     1      51.610  57.704  25.508  1.00  0.00    -0.388 OA
ATOM     14  H   UNL     1      51.022  57.610  24.713  1.00  0.00     0.211 HD
ENDBRANCH   1  13
TORSDOF 8
ENDMDL
MODEL 2
REMARK VINA RESULT:    -3.309      3.094      5.071
REMARK INTER + INTRA:          -4.951
REMARK INTER:                  -4.522
REMARK INTRA:                  -0.430
REMARK UNBOUND:                -0.482
REMARK SMILES O=C[C@@H](O)[C@H](O)[C@H](O)CO
REMARK SMILES IDX 7 1 9 2 10 3 5 5 3 6 2 7 1 8 4 9 6 11 8 13
REMARK H PARENT 10 4 4 10 6 12 8 14
REMARK Flexibility Score: inf
ROOT
ATOM      1  C   UNL     1      51.510  59.726  24.184  1.00  0.00     0.171 C 
ENDROOT
BRANCH   1   2
ATOM      2  C   UNL     1      51.894  59.127  25.557  1.00  0.00     0.190 C 
BRANCH   2   3
ATOM      3  O   UNL     1      51.662  57.745  25.590  1.00  0.00    -0.394 OA
ATOM      4  H   UNL     1      51.323  57.490  24.692  1.00  0.00     0.210 HD
ENDBRANCH   2   3
ENDBRANCH   1   2
BRANCH   1   5
ATOM      5  C   UNL     1      49.991  59.671  23.858  1.00  0.00     0.181 C 
BRANCH   5   6
ATOM      6  C   UNL     1      49.176  60.779  24.564  1.00  0.00     0.209 C 
BRANCH   6   7
ATOM      7  C   UNL     1      48.128  61.336  23.636  1.00  0.00     0.258 C 
ATOM      8  O   UNL     1      47.713  60.669  22.701  1.00  0.00    -0.300 OA
ENDBRANCH   6   7
BRANCH   6   9
ATOM      9  O   UNL     1      48.546  60.256  25.706  1.00  0.00    -0.383 OA
ATOM     10  H   UNL     1      49.079  60.554  26.490  1.00  0.00     0.211 HD
ENDBRANCH   6   9
ENDBRANCH   5   6
BRANCH   5  11
ATOM     11  O   UNL     1      49.454  58.410  24.180  1.00  0.00    -0.387 OA
ATOM     12  H   UNL     1      49.982  58.050  24.940  1.00  0.00     0.211 HD
ENDBRANCH   5  11
ENDBRANCH   1   5
BRANCH   1  13
ATOM     13  O   UNL     1      52.239  59.092  23.161  1.00  0.00    -0.388 OA
ATOM     14  H   UNL     1      52.990  59.690  22.909  1.00  0.00     0.211 HD
ENDBRANCH   1  13
TORSDOF 8
ENDMDL
MODEL 3
REMARK VINA RESULT:    -3.224      2.394      3.592
REMARK INTER + INTRA:          -4.836
REMARK INTER:                  -4.415
REMARK INTRA:                  -0.422
REMARK UNBOUND:                -0.482
REMARK SMILES O=C[C@@H](O)[C@H](O)[C@H](O)CO
REMARK SMILES IDX 7 1 9 2 10 3 5 5 3 6 2 7 1 8 4 9 6 11 8 13
REMARK H PARENT 10 4 4 10 6 12 8 14
REMARK Flexibility Score: inf
ROOT
ATOM      1  C   UNL     1      50.618  60.180  24.994  1.00  0.00     0.171 C 
ENDROOT
BRANCH   1   2
ATOM      2  C   UNL     1      49.770  59.607  23.835  1.00  0.00     0.190 C 
BRANCH   2   3
ATOM      3  O   UNL     1      49.295  58.324  24.141  1.00  0.00    -0.394 OA
ATOM      4  H   UNL     1      49.044  58.334  25.102  1.00  0.00     0.210 HD
ENDBRANCH   2   3
ENDBRANCH   1   2
BRANCH   1   5
ATOM      5  C   UNL     1      51.939  59.408  25.270  1.00  0.00     0.181 C 
BRANCH   5   6
ATOM      6  C   UNL     1      53.046  59.703  24.232  1.00  0.00     0.209 C 
BRANCH   6   7
ATOM      7  C   UNL     1      54.408  59.599  24.869  1.00  0.00     0.258 C 
ATOM      8  O   UNL     1      54.520  59.262  26.037  1.00  0.00    -0.300 OA
ENDBRANCH   6   7
BRANCH   6   9
ATOM      9  O   UNL     1      52.965  58.786  23.171  1.00  0.00    -0.383 OA
ATOM     10  H   UNL     1      53.481  59.173  22.416  1.00  0.00     0.211 HD
ENDBRANCH   6   9
ENDBRANCH   5   6
BRANCH   5  11
ATOM     11  O   UNL     1      51.706  58.021  25.332  1.00  0.00    -0.387 OA
ATOM     12  H   UNL     1      50.981  57.873  25.994  1.00  0.00     0.211 HD
ENDBRANCH   5  11
ENDBRANCH   1   5
BRANCH   1  13
ATOM     13  O   UNL     1      49.849  60.241  26.170  1.00  0.00    -0.388 OA
ATOM     14  H   UNL     1      49.506  59.328  26.355  1.00  0.00     0.211 HD
ENDBRANCH   1  13
TORSDOF 8
ENDMDL
MODEL 4
REMARK VINA RESULT:    -3.196      6.236      7.954
REMARK INTER + INTRA:          -4.799
REMARK INTER:                  -4.133
REMARK INTRA:                  -0.666
REMARK UNBOUND:                -0.482
REMARK SMILES O=C[C@@H](O)[C@H](O)[C@H](O)CO
REMARK SMILES IDX 7 1 9 2 10 3 5 5 3 6 2 7 1 8 4 9 6 11 8 13
REMARK H PARENT 10 4 4 10 6 12 8 14
REMARK Flexibility Score: inf
ROOT
ATOM      1  C   UNL     1      47.758  62.480  30.544  1.00  0.00     0.171 C 
ENDROOT
BRANCH   1   2
ATOM      2  C   UNL     1      49.273  62.647  30.804  1.00  0.00     0.190 C 
BRANCH   2   3
ATOM      3  O   UNL     1      50.031  62.055  29.783  1.00  0.00    -0.394 OA
ATOM      4  H   UNL     1      49.912  61.072  29.871  1.00  0.00     0.210 HD
ENDBRANCH   2   3
ENDBRANCH   1   2
BRANCH   1   5
ATOM      5  C   UNL     1      47.338  62.634  29.055  1.00  0.00     0.181 C 
BRANCH   5   6
ATOM      6  C   UNL     1      45.962  63.317  28.878  1.00  0.00     0.209 C 
BRANCH   6   7
ATOM      7  C   UNL     1      45.754  63.719  27.441  1.00  0.00     0.258 C 
ATOM      8  O   UNL     1      46.597  63.457  26.597  1.00  0.00    -0.300 OA
ENDBRANCH   6   7
BRANCH   6   9
ATOM      9  O   UNL     1      44.936  62.437  29.262  1.00  0.00    -0.383 OA
ATOM     10  H   UNL     1      45.219  61.527  28.984  1.00  0.00     0.211 HD
ENDBRANCH   6   9
ENDBRANCH   5   6
BRANCH   5  11
ATOM     11  O   UNL     1      47.333  61.386  28.404  1.00  0.00    -0.387 OA
ATOM     12  H   UNL     1      46.827  60.755  28.979  1.00  0.00     0.211 HD
ENDBRANCH   5  11
ENDBRANCH   1   5
BRANCH   1  13
ATOM     13  O   UNL     1      47.030  63.383  31.340  1.00  0.00    -0.388 OA
ATOM     14  H   UNL     1      47.408  63.350  32.257  1.00  0.00     0.211 HD
ENDBRANCH   1  13
TORSDOF 8
ENDMDL
MODEL 5
REMARK VINA RESULT:    -3.172      2.014      2.915
REMARK INTER + INTRA:          -4.765
REMARK INTER:                  -4.019
REMARK INTRA:                  -0.747
REMARK UNBOUND:                -0.482
REMARK SMILES O=C[C@@H](O)[C@H](O)[C@H](O)CO
REMARK SMILES IDX 7 1 9 2 10 3 5 5 3 6 2 7 1 8 4 9 6 11 8 13
REMARK H PARENT 10 4 4 10 6 12 8 14
REMARK Flexibility Score: inf
ROOT
ATOM      1  C   UNL     1      50.979  60.014  23.694  1.00  0.00     0.171 C 
ENDROOT
BRANCH   1   2
ATOM      2  C   UNL     1      49.508  59.585  23.488  1.00  0.00     0.190 C 
BRANCH   2   3
ATOM      3  O   UNL     1      49.268  58.318  24.039  1.00  0.00    -0.394 OA
ATOM      4  H   UNL     1      49.571  58.354  24.984  1.00  0.00     0.210 HD
ENDBRANCH   2   3
ENDBRANCH   1   2
BRANCH   1   5
ATOM      5  C   UNL     1      51.423  60.104  25.182  1.00  0.00     0.181 C 
BRANCH   5   6
ATOM      6  C   UNL     1      52.338  58.936  25.617  1.00  0.00     0.209 C 
BRANCH   6   7
ATOM      7  C   UNL     1      52.869  59.172  27.007  1.00  0.00     0.258 C 
ATOM      8  O   UNL     1      52.137  59.052  27.977  1.00  0.00    -0.300 OA
ENDBRANCH   6   7
BRANCH   6   9
ATOM      9  O   UNL     1      51.617  57.730  25.599  1.00  0.00    -0.383 OA
ATOM     10  H   UNL     1      51.052  57.721  26.415  1.00  0.00     0.211 HD
ENDBRANCH   6   9
ENDBRANCH   5   6
BRANCH   5  11
ATOM     11  O   UNL     1      50.306  60.173  26.035  1.00  0.00    -0.387 OA
ATOM     12  H   UNL     1      49.902  61.072  25.921  1.00  0.00     0.211 HD
ENDBRANCH   5  11
ENDBRANCH   1   5
BRANCH   1  13
ATOM     13  O   UNL     1      51.217  61.242  23.051  1.00  0.00    -0.388 OA
ATOM     14  H   UNL     1      51.702  61.829  23.689  1.00  0.00     0.211 HD
ENDBRANCH   1  13
TORSDOF 8
ENDMDL
MODEL 6
REMARK VINA RESULT:    -3.155      2.137      4.641
REMARK INTER + INTRA:          -4.743
REMARK INTER:                  -4.244
REMARK INTRA:                  -0.499
REMARK UNBOUND:                -0.482
REMARK SMILES O=C[C@@H](O)[C@H](O)[C@H](O)CO
REMARK SMILES IDX 7 1 9 2 10 3 5 5 3 6 2 7 1 8 4 9 6 11 8 13
REMARK H PARENT 10 4 4 10 6 12 8 14
REMARK Flexibility Score: inf
ROOT
ATOM      1  C   UNL     1      52.237  58.957  25.531  1.00  0.00     0.171 C 
ENDROOT
BRANCH   1   2
ATOM      2  C   UNL     1      52.186  59.700  26.886  1.00  0.00     0.190 C 
BRANCH   2   3
ATOM      3  O   UNL     1      51.759  58.848  27.914  1.00  0.00    -0.394 OA
ATOM      4  H   UNL     1      52.121  59.219  28.762  1.00  0.00     0.210 HD
ENDBRANCH   2   3
ENDBRANCH   1   2
BRANCH   1   5
ATOM      5  C   UNL     1      51.562  59.716  24.353  1.00  0.00     0.181 C 
BRANCH   5   6
ATOM      6  C   UNL     1      50.021  59.772  24.466  1.00  0.00     0.209 C 
BRANCH   6   7
ATOM      7  C   UNL     1      49.456  60.767  23.486  1.00  0.00     0.258 C 
ATOM      8  O   UNL     1      50.195  61.385  22.737  1.00  0.00    -0.300 OA
ENDBRANCH   6   7
BRANCH   6   9
ATOM      9  O   UNL     1      49.474  58.505  24.202  1.00  0.00    -0.383 OA
ATOM     10  H   UNL     1      48.767  58.634  23.517  1.00  0.00     0.211 HD
ENDBRANCH   6   9
ENDBRANCH   5   6
BRANCH   5  11
ATOM     11  O   UNL     1      51.925  59.146  23.117  1.00  0.00    -0.387 OA
ATOM     12  H   UNL     1      52.882  58.893  23.179  1.00  0.00     0.211 HD
ENDBRANCH   5  11
ENDBRANCH   1   5
BRANCH   1  13
ATOM     13  O   UNL     1      51.667  57.678  25.660  1.00  0.00    -0.388 OA
ATOM     14  H   UNL     1      51.359  57.577  26.599  1.00  0.00     0.211 HD
ENDBRANCH   1  13
TORSDOF 8
ENDMDL
MODEL 7
REMARK VINA RESULT:    -3.154      6.095      6.886
REMARK INTER + INTRA:          -4.741
REMARK INTER:                  -4.080
REMARK INTRA:                  -0.662
REMARK UNBOUND:                -0.482
REMARK SMILES O=C[C@@H](O)[C@H](O)[C@H](O)CO
REMARK SMILES IDX 7 1 9 2 10 3 5 5 3 6 2 7 1 8 4 9 6 11 8 13
REMARK H PARENT 10 4 4 10 6 12 8 14
REMARK Flexibility Score: inf
ROOT
ATOM      1  C   UNL     1      46.651  62.746  28.760  1.00  0.00     0.171 C 
ENDROOT
BRANCH   1   2
ATOM      2  C   UNL     1      46.602  62.483  27.237  1.00  0.00     0.190 C 
BRANCH   2   3
ATOM      3  O   UNL     1      46.641  61.110  26.959  1.00  0.00    -0.394 OA
ATOM      4  H   UNL     1      45.773  60.732  27.259  1.00  0.00     0.210 HD
ENDBRANCH   2   3
ENDBRANCH   1   2
BRANCH   1   5
ATOM      5  C   UNL     1      47.738  61.935  29.521  1.00  0.00     0.181 C 
BRANCH   5   6
ATOM      6  C   UNL     1      48.017  62.474  30.943  1.00  0.00     0.209 C 
BRANCH   6   7
ATOM      7  C   UNL     1      49.387  63.097  31.011  1.00  0.00     0.258 C 
ATOM      8  O   UNL     1      50.332  62.466  31.458  1.00  0.00    -0.300 OA
ENDBRANCH   6   7
BRANCH   6   9
ATOM      9  O   UNL     1      47.056  63.438  31.288  1.00  0.00    -0.383 OA
ATOM     10  H   UNL     1      47.513  64.109  31.859  1.00  0.00     0.211 HD
ENDBRANCH   6   9
ENDBRANCH   5   6
BRANCH   5  11
ATOM     11  O   UNL     1      48.938  61.894  28.787  1.00  0.00    -0.387 OA
ATOM     12  H   UNL     1      49.448  61.102  29.100  1.00  0.00     0.211 HD
ENDBRANCH   5  11
ENDBRANCH   1   5
BRANCH   1  13
ATOM     13  O   UNL     1      45.390  62.504  29.332  1.00  0.00    -0.388 OA
ATOM     14  H   UNL     1      44.738  63.115  28.899  1.00  0.00     0.211 HD
ENDBRANCH   1  13
TORSDOF 8
ENDMDL
MODEL 8
REMARK VINA RESULT:    -3.124      6.125      7.630
REMARK INTER + INTRA:          -4.702
REMARK INTER:                  -3.933
REMARK INTRA:                  -0.769
REMARK UNBOUND:                -0.482
REMARK SMILES O=C[C@@H](O)[C@H](O)[C@H](O)CO
REMARK SMILES IDX 7 1 9 2 10 3 5 5 3 6 2 7 1 8 4 9 6 11 8 13
REMARK H PARENT 10 4 4 10 6 12 8 14
REMARK Flexibility Score: inf
ROOT
ATOM      1  C   UNL     1      46.670  63.563  29.616  1.00  0.00     0.171 C 
ENDROOT
BRANCH   1   2
ATOM      2  C   UNL     1      45.396  63.355  28.765  1.00  0.00     0.190 C 
BRANCH   2   3
ATOM      3  O   UNL     1      44.637  62.278  29.244  1.00  0.00    -0.394 OA
ATOM      4  H   UNL     1      45.260  61.510  29.345  1.00  0.00     0.210 HD
ENDBRANCH   2   3
ENDBRANCH   1   2
BRANCH   1   5
ATOM      5  C   UNL     1      47.518  62.277  29.834  1.00  0.00     0.181 C 
BRANCH   5   6
ATOM      6  C   UNL     1      49.015  62.570  30.083  1.00  0.00     0.209 C 
BRANCH   6   7
ATOM      7  C   UNL     1      49.617  63.288  28.903  1.00  0.00     0.258 C 
ATOM      8  O   UNL     1      49.786  62.703  27.844  1.00  0.00    -0.300 OA
ENDBRANCH   6   7
BRANCH   6   9
ATOM      9  O   UNL     1      49.164  63.367  31.230  1.00  0.00    -0.383 OA
ATOM     10  H   UNL     1      49.662  62.824  31.896  1.00  0.00     0.211 HD
ENDBRANCH   6   9
ENDBRANCH   5   6
BRANCH   5  11
ATOM     11  O   UNL     1      47.383  61.398  28.743  1.00  0.00    -0.387 OA
ATOM     12  H   UNL     1      46.798  60.652  29.035  1.00  0.00     0.211 HD
ENDBRANCH   5  11
ENDBRANCH   1   5
BRANCH   1  13
ATOM     13  O   UNL     1      46.332  64.125  30.861  1.00  0.00    -0.388 OA
ATOM     14  H   UNL     1      46.728  63.553  31.569  1.00  0.00     0.211 HD
ENDBRANCH   1  13
TORSDOF 8
ENDMDL
MODEL 9
REMARK VINA RESULT:    -3.106      1.149      2.040
REMARK INTER + INTRA:          -4.677
REMARK INTER:                  -4.359
REMARK INTRA:                  -0.318
REMARK UNBOUND:                -0.482
REMARK SMILES O=C[C@@H](O)[C@H](O)[C@H](O)CO
REMARK SMILES IDX 7 1 9 2 10 3 5 5 3 6 2 7 1 8 4 9 6 11 8 13
REMARK H PARENT 10 4 4 10 6 12 8 14
REMARK Flexibility Score: inf
ROOT
ATOM      1  C   UNL     1      52.163  59.647  26.967  1.00  0.00     0.171 C 
ENDROOT
BRANCH   1   2
ATOM      2  C   UNL     1      52.410  58.945  25.611  1.00  0.00     0.190 C 
BRANCH   2   3
ATOM      3  O   UNL     1      51.594  57.813  25.471  1.00  0.00    -0.394 OA
ATOM      4  H   UNL     1      52.149  57.112  25.038  1.00  0.00     0.210 HD
ENDBRANCH   2   3
ENDBRANCH   1   2
BRANCH   1   5
ATOM      5  C   UNL     1      52.635  58.838  28.208  1.00  0.00     0.181 C 
BRANCH   5   6
ATOM      6  C   UNL     1      54.161  58.919  28.445  1.00  0.00     0.209 C 
BRANCH   6   7
ATOM      7  C   UNL     1      54.454  59.485  29.810  1.00  0.00     0.258 C 
ATOM      8  O   UNL     1      53.583  59.518  30.665  1.00  0.00    -0.300 OA
ENDBRANCH   6   7
BRANCH   6   9
ATOM      9  O   UNL     1      54.731  57.639  28.347  1.00  0.00    -0.383 OA
ATOM     10  H   UNL     1      54.154  57.026  28.873  1.00  0.00     0.211 HD
ENDBRANCH   6   9
ENDBRANCH   5   6
BRANCH   5  11
ATOM     11  O   UNL     1      52.245  57.489  28.105  1.00  0.00    -0.387 OA
ATOM     12  H   UNL     1      51.369  57.471  27.637  1.00  0.00     0.211 HD
ENDBRANCH   5  11
ENDBRANCH   1   5
BRANCH   1  13
ATOM     13  O   UNL     1      50.801  59.971  27.101  1.00  0.00    -0.388 OA
ATOM     14  H   UNL     1      50.283  59.126  27.055  1.00  0.00     0.211 HD
ENDBRANCH   1  13
TORSDOF 8
ENDMDL
