MODEL 1
REMARK VINA RESULT:     2.442      0.000      0.000
REMARK INTER + INTRA:           2.568
REMARK INTER:                   2.584
REMARK INTRA:                  -0.016
REMARK UNBOUND:                -0.016
REMARK SMILES O=C([O-])c1cccnc1
REMARK SMILES IDX 4 1 5 2 9 3 6 4 8 5 7 6 2 7 1 8 3 9
REMARK H PARENT
REMARK Flexibility Score: inf
ROOT
ATOM      1  C   UNL     1      -3.710   7.762  31.603  1.00  0.00     0.016 A 
ATOM      2  C   UNL     1      -3.804   8.528  32.777  1.00  0.00     0.013 A 
ATOM      3  C   UNL     1      -4.855   7.623  30.801  1.00  0.00     0.120 A 
ATOM      4  C   UNL     1      -5.015   9.131  33.124  1.00  0.00     0.021 A 
ATOM      5  N   UNL     1      -6.022   8.221  31.162  1.00  0.00    -0.264 NA
ATOM      6  C   UNL     1      -6.125   8.965  32.295  1.00  0.00     0.111 A 
ENDROOT
BRANCH   1   7
ATOM      7  C   UNL     1      -2.437   7.114  31.217  1.00  0.00     0.073 C 
ATOM      8  O   UNL     1      -2.183   5.934  31.581  1.00  0.00    -0.545 OA
ATOM      9  O   UNL     1      -1.503   7.799  30.449  1.00  0.00    -0.545 OA
ENDBRANCH   1   7
TORSDOF 1
ENDMDL
MODEL 2
REMARK VINA RESULT:     4.450      2.877      3.831
REMARK INTER + INTRA:           4.694
REMARK INTER:                   4.712
REMARK INTRA:                  -0.018
REMARK UNBOUND:                -0.016
REMARK SMILES O=C([O-])c1cccnc1
REMARK SMILES IDX 4 1 5 2 9 3 6 4 8 5 7 6 2 7 1 8 3 9
REMARK H PARENT
REMARK Flexibility Score: inf
ROOT
ATOM      1  C   UNL     1      -4.343   7.968  31.717  1.00  0.00     0.016 A 
ATOM      2  C   UNL     1      -4.309   6.676  32.266  1.00  0.00     0.013 A 
ATOM      3  C   UNL     1      -3.207   8.435  31.036  1.00  0.00     0.120 A 
ATOM      4  C   UNL     1      -3.165   5.886  32.129  1.00  0.00     0.021 A 
ATOM      5  N   UNL     1      -2.106   7.647  30.916  1.00  0.00    -0.264 NA
ATOM      6  C   UNL     1      -2.062   6.395  31.443  1.00  0.00     0.111 A 
ENDROOT
BRANCH   1   7
ATOM      7  C   UNL     1      -5.545   8.820  31.852  1.00  0.00     0.073 C 
ATOM      8  O   UNL     1      -6.125   9.276  30.829  1.00  0.00    -0.545 OA
ATOM      9  O   UNL     1      -6.050   9.132  33.109  1.00  0.00    -0.545 OA
ENDBRANCH   1   7
TORSDOF 1
ENDMDL
MODEL 3
REMARK VINA RESULT:     4.994      2.522      3.192
REMARK INTER + INTRA:           5.270
REMARK INTER:                   5.287
REMARK INTRA:                  -0.017
REMARK UNBOUND:                -0.016
REMARK SMILES O=C([O-])c1cccnc1
REMARK SMILES IDX 4 1 5 2 9 3 6 4 8 5 7 6 2 7 1 8 3 9
REMARK H PARENT
REMARK Flexibility Score: inf
ROOT
ATOM      1  C   UNL     1      -4.692   7.686  32.269  1.00  0.00     0.016 A 
ATOM      2  C   UNL     1      -3.366   7.558  31.826  1.00  0.00     0.013 A 
ATOM      3  C   UNL     1      -5.066   8.870  32.927  1.00  0.00     0.120 A 
ATOM      4  C   UNL     1      -2.451   8.591  32.042  1.00  0.00     0.021 A 
ATOM      5  N   UNL     1      -4.156   9.862  33.125  1.00  0.00    -0.264 NA
ATOM      6  C   UNL     1      -2.870   9.748  32.700  1.00  0.00     0.111 A 
ENDROOT
BRANCH   1   7
ATOM      7  C   UNL     1      -5.676   6.604  32.051  1.00  0.00     0.073 C 
ATOM      8  O   UNL     1      -6.119   5.935  33.023  1.00  0.00    -0.545 OA
ATOM      9  O   UNL     1      -6.125   6.308  30.769  1.00  0.00    -0.545 OA
ENDBRANCH   1   7
TORSDOF 1
ENDMDL
