MODEL 1
REMARK VINA RESULT:    -4.377      0.000      0.000
REMARK INTER + INTRA:          -4.377
REMARK INTER:                  -4.377
REMARK INTRA:                   0.000
REMARK UNBOUND:                 0.000
REMARK SMILES CC1=CC=CC(C)(C)[C@@H]1C
REMARK SMILES IDX 10 1 9 2 2 3 3 4 4 5 5 6 6 7 7 8 8 9 1 10
REMARK H PARENT
REMARK Flexibility Score: inf
ROOT
ATOM      1  C   UNL     1       6.138  -1.346  19.987  1.00  0.00     0.013 C 
ATOM      2  C   UNL     1       6.001  -2.756  19.382  1.00  0.00     0.021 C 
ATOM      3  C   UNL     1       6.159  -2.647  17.872  1.00  0.00    -0.070 C 
ATOM      4  C   UNL     1       5.080  -2.436  17.100  1.00  0.00    -0.001 C 
ATOM      5  C   UNL     1       3.725  -2.434  17.679  1.00  0.00    -0.004 C 
ATOM      6  C   UNL     1       3.514  -2.868  18.928  1.00  0.00    -0.020 C 
ATOM      7  C   UNL     1       4.645  -3.465  19.745  1.00  0.00    -0.011 C 
ATOM      8  C   UNL     1       4.746  -4.969  19.404  1.00  0.00     0.016 C 
ATOM      9  C   UNL     1       4.314  -3.339  21.248  1.00  0.00     0.016 C 
ATOM     10  C   UNL     1       7.523  -2.684  17.247  1.00  0.00     0.040 C 
ENDROOT
TORSDOF 0
ENDMDL
MODEL 2
REMARK VINA RESULT:    -4.294      3.854      6.038
REMARK INTER + INTRA:          -4.294
REMARK INTER:                  -4.294
REMARK INTRA:                   0.000
REMARK UNBOUND:                 0.000
REMARK SMILES CC1=CC=CC(C)(C)[C@@H]1C
REMARK SMILES IDX 10 1 9 2 2 3 3 4 4 5 5 6 6 7 7 8 8 9 1 10
REMARK H PARENT
REMARK Flexibility Score: inf
ROOT
ATOM      1  C   UNL     1       0.994  -2.290  17.338  1.00  0.00     0.013 C 
ATOM      2  C   UNL     1       1.391  -1.302  16.225  1.00  0.00     0.021 C 
ATOM      3  C   UNL     1       0.202  -1.131  15.290  1.00  0.00    -0.070 C 
ATOM      4  C   UNL     1       0.060  -1.945  14.231  1.00  0.00    -0.001 C 
ATOM      5  C   UNL     1       1.107  -2.925  13.886  1.00  0.00    -0.004 C 
ATOM      6  C   UNL     1       2.312  -2.871  14.467  1.00  0.00    -0.020 C 
ATOM      7  C   UNL     1       2.667  -1.745  15.419  1.00  0.00    -0.011 C 
ATOM      8  C   UNL     1       3.186  -0.551  14.586  1.00  0.00     0.016 C 
ATOM      9  C   UNL     1       3.807  -2.204  16.354  1.00  0.00     0.016 C 
ATOM     10  C   UNL     1      -0.862  -0.116  15.592  1.00  0.00     0.040 C 
ENDROOT
TORSDOF 0
ENDMDL
MODEL 3
REMARK VINA RESULT:    -4.132      3.655      5.740
REMARK INTER + INTRA:          -4.132
REMARK INTER:                  -4.132
REMARK INTRA:                   0.000
REMARK UNBOUND:                 0.000
REMARK SMILES CC1=CC=CC(C)(C)[C@@H]1C
REMARK SMILES IDX 10 1 9 2 2 3 3 4 4 5 5 6 6 7 7 8 8 9 1 10
REMARK H PARENT
REMARK Flexibility Score: inf
ROOT
ATOM      1  C   UNL     1       2.942  -2.334  13.107  1.00  0.00     0.013 C 
ATOM      2  C   UNL     1       2.372  -2.939  14.404  1.00  0.00     0.021 C 
ATOM      3  C   UNL     1       0.862  -2.747  14.400  1.00  0.00    -0.070 C 
ATOM      4  C   UNL     1       0.328  -1.635  14.930  1.00  0.00    -0.001 C 
ATOM      5  C   UNL     1       1.173  -0.651  15.631  1.00  0.00    -0.004 C 
ATOM      6  C   UNL     1       2.437  -0.945  15.960  1.00  0.00    -0.020 C 
ATOM      7  C   UNL     1       3.002  -2.331  15.710  1.00  0.00    -0.011 C 
ATOM      8  C   UNL     1       2.642  -3.226  16.917  1.00  0.00     0.016 C 
ATOM      9  C   UNL     1       4.541  -2.248  15.622  1.00  0.00     0.016 C 
ATOM     10  C   UNL     1      -0.029  -3.751  13.728  1.00  0.00     0.040 C 
ENDROOT
TORSDOF 0
ENDMDL
MODEL 4
REMARK VINA RESULT:    -4.023      8.429     10.416
REMARK INTER + INTRA:          -4.023
REMARK INTER:                  -4.023
REMARK INTRA:                   0.000
REMARK UNBOUND:                 0.000
REMARK SMILES CC1=CC=CC(C)(C)[C@@H]1C
REMARK SMILES IDX 10 1 9 2 2 3 3 4 4 5 5 6 6 7 7 8 8 9 1 10
REMARK H PARENT
REMARK Flexibility Score: inf
ROOT
ATOM      1  C   UNL     1      10.059  -0.314  27.060  1.00  0.00     0.013 C 
ATOM      2  C   UNL     1      10.981   0.676  26.325  1.00  0.00     0.021 C 
ATOM      3  C   UNL     1      10.717   0.561  24.831  1.00  0.00    -0.070 C 
ATOM      4  C   UNL     1      11.416  -0.317  24.094  1.00  0.00    -0.001 C 
ATOM      5  C   UNL     1      12.528  -1.084  24.685  1.00  0.00    -0.004 C 
ATOM      6  C   UNL     1      13.017  -0.762  25.889  1.00  0.00    -0.020 C 
ATOM      7  C   UNL     1      12.508   0.458  26.634  1.00  0.00    -0.011 C 
ATOM      8  C   UNL     1      13.309   1.689  26.151  1.00  0.00     0.016 C 
ATOM      9  C   UNL     1      12.771   0.283  28.145  1.00  0.00     0.016 C 
ATOM     10  C   UNL     1       9.617   1.357  24.191  1.00  0.00     0.040 C 
ENDROOT
TORSDOF 0
ENDMDL
MODEL 5
REMARK VINA RESULT:    -4.002      3.483      5.614
REMARK INTER + INTRA:          -4.002
REMARK INTER:                  -4.002
REMARK INTRA:                   0.000
REMARK UNBOUND:                 0.000
REMARK SMILES CC1=CC=CC(C)(C)[C@@H]1C
REMARK SMILES IDX 10 1 9 2 2 3 3 4 4 5 5 6 6 7 7 8 8 9 1 10
REMARK H PARENT
REMARK Flexibility Score: inf
ROOT
ATOM      1  C   UNL     1       0.637  -1.449  16.694  1.00  0.00     0.013 C 
ATOM      2  C   UNL     1       1.332  -2.541  15.859  1.00  0.00     0.021 C 
ATOM      3  C   UNL     1       2.721  -2.774  16.434  1.00  0.00    -0.070 C 
ATOM      4  C   UNL     1       3.762  -2.056  15.981  1.00  0.00    -0.001 C 
ATOM      5  C   UNL     1       3.604  -1.131  14.843  1.00  0.00    -0.004 C 
ATOM      6  C   UNL     1       2.496  -1.155  14.091  1.00  0.00    -0.020 C 
ATOM      7  C   UNL     1       1.419  -2.198  14.327  1.00  0.00    -0.011 C 
ATOM      8  C   UNL     1       1.797  -3.472  13.537  1.00  0.00     0.016 C 
ATOM      9  C   UNL     1       0.074  -1.678  13.775  1.00  0.00     0.016 C 
ATOM     10  C   UNL     1       2.923  -3.736  17.568  1.00  0.00     0.040 C 
ENDROOT
TORSDOF 0
ENDMDL
MODEL 6
REMARK VINA RESULT:    -3.963      0.979      2.995
REMARK INTER + INTRA:          -3.963
REMARK INTER:                  -3.963
REMARK INTRA:                   0.000
REMARK UNBOUND:                 0.000
REMARK SMILES CC1=CC=CC(C)(C)[C@@H]1C
REMARK SMILES IDX 10 1 9 2 2 3 3 4 4 5 5 6 6 7 7 8 8 9 1 10
REMARK H PARENT
REMARK Flexibility Score: inf
ROOT
ATOM      1  C   UNL     1       3.940  -4.433  18.765  1.00  0.00     0.013 C 
ATOM      2  C   UNL     1       4.203  -2.916  18.799  1.00  0.00     0.021 C 
ATOM      3  C   UNL     1       3.967  -2.356  17.403  1.00  0.00    -0.070 C 
ATOM      4  C   UNL     1       4.980  -2.303  16.523  1.00  0.00    -0.001 C 
ATOM      5  C   UNL     1       6.352  -2.662  16.928  1.00  0.00    -0.004 C 
ATOM      6  C   UNL     1       6.665  -2.821  18.220  1.00  0.00    -0.020 C 
ATOM      7  C   UNL     1       5.644  -2.541  19.307  1.00  0.00    -0.011 C 
ATOM      8  C   UNL     1       5.693  -1.032  19.640  1.00  0.00     0.016 C 
ATOM      9  C   UNL     1       6.026  -3.322  20.582  1.00  0.00     0.016 C 
ATOM     10  C   UNL     1       2.589  -1.947  16.973  1.00  0.00     0.040 C 
ENDROOT
TORSDOF 0
ENDMDL
MODEL 7
REMARK VINA RESULT:    -3.939      1.019      3.057
REMARK INTER + INTRA:          -3.939
REMARK INTER:                  -3.939
REMARK INTRA:                   0.000
REMARK UNBOUND:                 0.000
REMARK SMILES CC1=CC=CC(C)(C)[C@@H]1C
REMARK SMILES IDX 10 1 9 2 2 3 3 4 4 5 5 6 6 7 7 8 8 9 1 10
REMARK H PARENT
REMARK Flexibility Score: inf
ROOT
ATOM      1  C   UNL     1       5.890  -2.494  17.561  1.00  0.00     0.013 C 
ATOM      2  C   UNL     1       4.786  -2.355  18.626  1.00  0.00     0.021 C 
ATOM      3  C   UNL     1       5.373  -2.739  19.977  1.00  0.00    -0.070 C 
ATOM      4  C   UNL     1       5.323  -4.016  20.390  1.00  0.00    -0.001 C 
ATOM      5  C   UNL     1       4.595  -5.034  19.611  1.00  0.00    -0.004 C 
ATOM      6  C   UNL     1       3.780  -4.676  18.611  1.00  0.00    -0.020 C 
ATOM      7  C   UNL     1       3.505  -3.213  18.317  1.00  0.00    -0.011 C 
ATOM      8  C   UNL     1       2.345  -2.746  19.225  1.00  0.00     0.016 C 
ATOM      9  C   UNL     1       3.051  -3.062  16.849  1.00  0.00     0.016 C 
ATOM     10  C   UNL     1       6.087  -1.716  20.813  1.00  0.00     0.040 C 
ENDROOT
TORSDOF 0
ENDMDL
MODEL 8
REMARK VINA RESULT:    -3.827      9.347     10.923
REMARK INTER + INTRA:          -3.827
REMARK INTER:                  -3.827
REMARK INTRA:                   0.000
REMARK UNBOUND:                 0.000
REMARK SMILES CC1=CC=CC(C)(C)[C@@H]1C
REMARK SMILES IDX 10 1 9 2 2 3 3 4 4 5 5 6 6 7 7 8 8 9 1 10
REMARK H PARENT
REMARK Flexibility Score: inf
ROOT
ATOM      1  C   UNL     1      12.383   1.873  27.125  1.00  0.00     0.013 C 
ATOM      2  C   UNL     1      11.884   0.854  26.084  1.00  0.00     0.021 C 
ATOM      3  C   UNL     1      10.513   0.355  26.520  1.00  0.00    -0.070 C 
ATOM      4  C   UNL     1      10.416  -0.722  27.317  1.00  0.00    -0.001 C 
ATOM      5  C   UNL     1      11.612  -1.508  27.675  1.00  0.00    -0.004 C 
ATOM      6  C   UNL     1      12.773  -1.314  27.038  1.00  0.00    -0.020 C 
ATOM      7  C   UNL     1      12.867  -0.354  25.867  1.00  0.00    -0.011 C 
ATOM      8  C   UNL     1      12.468  -1.116  24.583  1.00  0.00     0.016 C 
ATOM      9  C   UNL     1      14.329   0.116  25.706  1.00  0.00     0.016 C 
ATOM     10  C   UNL     1       9.274   1.110  26.140  1.00  0.00     0.040 C 
ENDROOT
TORSDOF 0
ENDMDL
