MODEL 1
REMARK VINA RESULT:    -2.940      0.000      0.000
REMARK INTER + INTRA:          -4.464
REMARK INTER:                  -3.971
REMARK INTRA:                  -0.493
REMARK UNBOUND:                -0.493
REMARK SMILES CCCCCCCC(=O)[O-]
REMARK SMILES IDX 5 1 6 2 7 3 8 4 9 5 10 6 4 7 3 8 2 9 1 10
REMARK H PARENT
REMARK Flexibility Score: inf
ROOT
ATOM      1  C   UNL     1      64.213  45.055  15.610  1.00  0.00     0.000 C 
ENDROOT
BRANCH   1   2
ATOM      2  C   UNL     1      63.117  45.601  16.544  1.00  0.00     0.006 C 
BRANCH   2   3
ATOM      3  C   UNL     1      61.922  44.655  16.738  1.00  0.00     0.053 C 
BRANCH   3   4
ATOM      4  C   UNL     1      61.949  43.982  18.076  1.00  0.00     0.041 C 
ATOM      5  O   UNL     1      62.848  44.266  18.910  1.00  0.00    -0.550 OA
ATOM      6  O   UNL     1      61.000  43.017  18.389  1.00  0.00    -0.550 OA
ENDBRANCH   3   4
ENDBRANCH   2   3
ENDBRANCH   1   2
BRANCH   1   7
ATOM      7  C   UNL     1      63.799  43.756  14.902  1.00  0.00     0.000 C 
BRANCH   7   8
ATOM      8  C   UNL     1      64.824  42.642  15.163  1.00  0.00    -0.000 C 
BRANCH   8   9
ATOM      9  C   UNL     1      64.161  41.302  15.520  1.00  0.00    -0.003 C 
ATOM     10  C   UNL     1      64.021  41.094  17.027  1.00  0.00     0.004 C 
ENDBRANCH   8   9
ENDBRANCH   7   8
ENDBRANCH   1   7
TORSDOF 6
ENDMDL
MODEL 2
REMARK VINA RESULT:    -2.891     13.685     15.123
REMARK INTER + INTRA:          -4.398
REMARK INTER:                  -4.115
REMARK INTRA:                  -0.284
REMARK UNBOUND:                -0.493
REMARK SMILES CCCCCCCC(=O)[O-]
REMARK SMILES IDX 5 1 6 2 7 3 8 4 9 5 10 6 4 7 3 8 2 9 1 10
REMARK H PARENT
REMARK Flexibility Score: inf
ROOT
ATOM      1  C   UNL     1      49.061  44.137  14.858  1.00  0.00     0.000 C 
ENDROOT
BRANCH   1   2
ATOM      2  C   UNL     1      50.068  45.178  14.336  1.00  0.00     0.006 C 
BRANCH   2   3
ATOM      3  C   UNL     1      49.677  46.636  14.626  1.00  0.00     0.053 C 
BRANCH   3   4
ATOM      4  C   UNL     1      50.408  47.600  13.743  1.00  0.00     0.041 C 
ATOM      5  O   UNL     1      50.023  48.795  13.654  1.00  0.00    -0.550 OA
ATOM      6  O   UNL     1      51.495  47.169  12.992  1.00  0.00    -0.550 OA
ENDBRANCH   3   4
ENDBRANCH   2   3
ENDBRANCH   1   2
BRANCH   1   7
ATOM      7  C   UNL     1      47.672  44.733  15.127  1.00  0.00     0.000 C 
BRANCH   7   8
ATOM      8  C   UNL     1      46.574  43.879  14.475  1.00  0.00    -0.000 C 
BRANCH   8   9
ATOM      9  C   UNL     1      47.068  42.475  14.089  1.00  0.00    -0.003 C 
ATOM     10  C   UNL     1      46.369  41.366  14.873  1.00  0.00     0.004 C 
ENDBRANCH   8   9
ENDBRANCH   7   8
ENDBRANCH   1   7
TORSDOF 6
ENDMDL
MODEL 3
REMARK VINA RESULT:    -2.853      1.239      3.329
REMARK INTER + INTRA:          -4.347
REMARK INTER:                  -3.798
REMARK INTRA:                  -0.549
REMARK UNBOUND:                -0.493
REMARK SMILES CCCCCCCC(=O)[O-]
REMARK SMILES IDX 5 1 6 2 7 3 8 4 9 5 10 6 4 7 3 8 2 9 1 10
REMARK H PARENT
REMARK Flexibility Score: inf
ROOT
ATOM      1  C   UNL     1      64.192  42.247  15.172  1.00  0.00     0.000 C 
ENDROOT
BRANCH   1   2
ATOM      2  C   UNL     1      64.558  42.029  16.652  1.00  0.00     0.006 C 
BRANCH   2   3
ATOM      3  C   UNL     1      63.732  40.938  17.353  1.00  0.00     0.053 C 
BRANCH   3   4
ATOM      4  C   UNL     1      63.007  41.467  18.553  1.00  0.00     0.041 C 
ATOM      5  O   UNL     1      61.942  40.920  18.941  1.00  0.00    -0.550 OA
ATOM      6  O   UNL     1      63.491  42.585  19.221  1.00  0.00    -0.550 OA
ENDBRANCH   3   4
ENDBRANCH   2   3
ENDBRANCH   1   2
BRANCH   1   7
ATOM      7  C   UNL     1      63.819  43.703  14.859  1.00  0.00     0.000 C 
BRANCH   7   8
ATOM      8  C   UNL     1      63.989  44.591  16.101  1.00  0.00    -0.000 C 
BRANCH   8   9
ATOM      9  C   UNL     1      62.744  45.443  16.395  1.00  0.00    -0.003 C 
ATOM     10  C   UNL     1      61.600  44.629  16.998  1.00  0.00     0.004 C 
ENDBRANCH   8   9
ENDBRANCH   7   8
ENDBRANCH   1   7
TORSDOF 6
ENDMDL
MODEL 4
REMARK VINA RESULT:    -2.835     13.109     14.453
REMARK INTER + INTRA:          -4.322
REMARK INTER:                  -4.223
REMARK INTRA:                  -0.099
REMARK UNBOUND:                -0.493
REMARK SMILES CCCCCCCC(=O)[O-]
REMARK SMILES IDX 5 1 6 2 7 3 8 4 9 5 10 6 4 7 3 8 2 9 1 10
REMARK H PARENT
REMARK Flexibility Score: inf
ROOT
ATOM      1  C   UNL     1      50.479  45.801  14.122  1.00  0.00     0.000 C 
ENDROOT
BRANCH   1   2
ATOM      2  C   UNL     1      50.683  47.286  13.770  1.00  0.00     0.006 C 
BRANCH   2   3
ATOM      3  C   UNL     1      51.794  47.545  12.740  1.00  0.00     0.053 C 
BRANCH   3   4
ATOM      4  C   UNL     1      51.695  48.912  12.137  1.00  0.00     0.041 C 
ATOM      5  O   UNL     1      51.627  49.928  12.877  1.00  0.00    -0.550 OA
ATOM      6  O   UNL     1      51.641  49.061  10.756  1.00  0.00    -0.550 OA
ENDBRANCH   3   4
ENDBRANCH   2   3
ENDBRANCH   1   2
BRANCH   1   7
ATOM      7  C   UNL     1      49.118  45.527  14.781  1.00  0.00     0.000 C 
BRANCH   7   8
ATOM      8  C   UNL     1      48.841  44.018  14.855  1.00  0.00    -0.000 C 
BRANCH   8   9
ATOM      9  C   UNL     1      47.341  43.689  14.800  1.00  0.00    -0.003 C 
ATOM     10  C   UNL     1      47.047  42.388  14.054  1.00  0.00     0.004 C 
ENDBRANCH   8   9
ENDBRANCH   7   8
ENDBRANCH   1   7
TORSDOF 6
ENDMDL
MODEL 5
REMARK VINA RESULT:    -2.772     13.280     14.288
REMARK INTER + INTRA:          -4.238
REMARK INTER:                  -3.915
REMARK INTRA:                  -0.323
REMARK UNBOUND:                -0.493
REMARK SMILES CCCCCCCC(=O)[O-]
REMARK SMILES IDX 5 1 6 2 7 3 8 4 9 5 10 6 4 7 3 8 2 9 1 10
REMARK H PARENT
REMARK Flexibility Score: inf
ROOT
ATOM      1  C   UNL     1      49.287  48.453  13.926  1.00  0.00     0.000 C 
ENDROOT
BRANCH   1   2
ATOM      2  C   UNL     1      49.950  49.771  13.483  1.00  0.00     0.006 C 
BRANCH   2   3
ATOM      3  C   UNL     1      50.120  49.914  11.962  1.00  0.00     0.053 C 
BRANCH   3   4
ATOM      4  C   UNL     1      51.437  49.377  11.491  1.00  0.00     0.041 C 
ATOM      5  O   UNL     1      51.632  49.164  10.266  1.00  0.00    -0.550 OA
ATOM      6  O   UNL     1      52.436  49.081  12.410  1.00  0.00    -0.550 OA
ENDBRANCH   3   4
ENDBRANCH   2   3
ENDBRANCH   1   2
BRANCH   1   7
ATOM      7  C   UNL     1      50.235  47.549  14.728  1.00  0.00     0.000 C 
BRANCH   7   8
ATOM      8  C   UNL     1      50.493  46.230  13.984  1.00  0.00    -0.000 C 
BRANCH   8   9
ATOM      9  C   UNL     1      50.383  45.002  14.903  1.00  0.00    -0.003 C 
ATOM     10  C   UNL     1      49.054  44.264  14.747  1.00  0.00     0.004 C 
ENDBRANCH   8   9
ENDBRANCH   7   8
ENDBRANCH   1   7
TORSDOF 6
ENDMDL
MODEL 6
REMARK VINA RESULT:    -2.757     14.309     15.675
REMARK INTER + INTRA:          -4.217
REMARK INTER:                  -3.939
REMARK INTRA:                  -0.278
REMARK UNBOUND:                -0.493
REMARK SMILES CCCCCCCC(=O)[O-]
REMARK SMILES IDX 5 1 6 2 7 3 8 4 9 5 10 6 4 7 3 8 2 9 1 10
REMARK H PARENT
REMARK Flexibility Score: inf
ROOT
ATOM      1  C   UNL     1      49.831  44.450  15.261  1.00  0.00     0.000 C 
ENDROOT
BRANCH   1   2
ATOM      2  C   UNL     1      48.547  43.672  14.919  1.00  0.00     0.006 C 
BRANCH   2   3
ATOM      3  C   UNL     1      47.268  44.523  14.935  1.00  0.00     0.053 C 
BRANCH   3   4
ATOM      4  C   UNL     1      46.032  43.680  14.999  1.00  0.00     0.041 C 
ATOM      5  O   UNL     1      44.961  44.159  15.455  1.00  0.00    -0.550 OA
ATOM      6  O   UNL     1      46.073  42.353  14.587  1.00  0.00    -0.550 OA
ENDBRANCH   3   4
ENDBRANCH   2   3
ENDBRANCH   1   2
BRANCH   1   7
ATOM      7  C   UNL     1      50.198  45.493  14.196  1.00  0.00     0.000 C 
BRANCH   7   8
ATOM      8  C   UNL     1      50.306  46.894  14.816  1.00  0.00    -0.000 C 
BRANCH   8   9
ATOM      9  C   UNL     1      49.017  47.715  14.651  1.00  0.00    -0.003 C 
ATOM     10  C   UNL     1      49.196  48.919  13.727  1.00  0.00     0.004 C 
ENDBRANCH   8   9
ENDBRANCH   7   8
ENDBRANCH   1   7
TORSDOF 6
ENDMDL
MODEL 7
REMARK VINA RESULT:    -2.752     14.412     15.842
REMARK INTER + INTRA:          -4.211
REMARK INTER:                  -3.788
REMARK INTRA:                  -0.423
REMARK UNBOUND:                -0.493
REMARK SMILES CCCCCCCC(=O)[O-]
REMARK SMILES IDX 5 1 6 2 7 3 8 4 9 5 10 6 4 7 3 8 2 9 1 10
REMARK H PARENT
REMARK Flexibility Score: inf
ROOT
ATOM      1  C   UNL     1      46.479  43.696  14.520  1.00  0.00     0.000 C 
ENDROOT
BRANCH   1   2
ATOM      2  C   UNL     1      47.587  44.669  14.962  1.00  0.00     0.006 C 
BRANCH   2   3
ATOM      3  C   UNL     1      48.834  43.986  15.544  1.00  0.00     0.053 C 
BRANCH   3   4
ATOM      4  C   UNL     1      50.101  44.624  15.063  1.00  0.00     0.041 C 
ATOM      5  O   UNL     1      50.081  45.406  14.077  1.00  0.00    -0.550 OA
ATOM      6  O   UNL     1      51.309  44.327  15.683  1.00  0.00    -0.550 OA
ENDBRANCH   3   4
ENDBRANCH   2   3
ENDBRANCH   1   2
BRANCH   1   7
ATOM      7  C   UNL     1      47.021  42.311  14.137  1.00  0.00     0.000 C 
BRANCH   7   8
ATOM      8  C   UNL     1      46.198  41.198  14.803  1.00  0.00    -0.000 C 
BRANCH   8   9
ATOM      9  C   UNL     1      45.191  41.742  15.830  1.00  0.00    -0.003 C 
ATOM     10  C   UNL     1      45.574  41.403  17.270  1.00  0.00     0.004 C 
ENDBRANCH   8   9
ENDBRANCH   7   8
ENDBRANCH   1   7
TORSDOF 6
ENDMDL
MODEL 8
REMARK VINA RESULT:    -2.750      2.105      2.572
REMARK INTER + INTRA:          -4.209
REMARK INTER:                  -4.033
REMARK INTRA:                  -0.175
REMARK UNBOUND:                -0.493
REMARK SMILES CCCCCCCC(=O)[O-]
REMARK SMILES IDX 5 1 6 2 7 3 8 4 9 5 10 6 4 7 3 8 2 9 1 10
REMARK H PARENT
REMARK Flexibility Score: inf
ROOT
ATOM      1  C   UNL     1      63.667  44.444  15.432  1.00  0.00     0.000 C 
ENDROOT
BRANCH   1   2
ATOM      2  C   UNL     1      62.478  44.611  16.395  1.00  0.00     0.006 C 
BRANCH   2   3
ATOM      3  C   UNL     1      62.447  45.957  17.136  1.00  0.00     0.053 C 
BRANCH   3   4
ATOM      4  C   UNL     1      63.719  46.727  16.955  1.00  0.00     0.041 C 
ATOM      5  O   UNL     1      63.791  47.635  16.086  1.00  0.00    -0.550 OA
ATOM      6  O   UNL     1      64.835  46.418  17.722  1.00  0.00    -0.550 OA
ENDBRANCH   3   4
ENDBRANCH   2   3
ENDBRANCH   1   2
BRANCH   1   7
ATOM      7  C   UNL     1      64.608  43.301  15.839  1.00  0.00     0.000 C 
BRANCH   7   8
ATOM      8  C   UNL     1      64.298  42.026  15.039  1.00  0.00    -0.000 C 
BRANCH   8   9
ATOM      9  C   UNL     1      64.191  40.779  15.931  1.00  0.00    -0.003 C 
ATOM     10  C   UNL     1      63.811  41.115  17.373  1.00  0.00     0.004 C 
ENDBRANCH   8   9
ENDBRANCH   7   8
ENDBRANCH   1   7
TORSDOF 6
ENDMDL
MODEL 9
REMARK VINA RESULT:    -2.722      0.817      1.284
REMARK INTER + INTRA:          -4.170
REMARK INTER:                  -3.619
REMARK INTRA:                  -0.551
REMARK UNBOUND:                -0.493
REMARK SMILES CCCCCCCC(=O)[O-]
REMARK SMILES IDX 5 1 6 2 7 3 8 4 9 5 10 6 4 7 3 8 2 9 1 10
REMARK H PARENT
REMARK Flexibility Score: inf
ROOT
ATOM      1  C   UNL     1      63.603  43.758  14.829  1.00  0.00     0.000 C 
ENDROOT
BRANCH   1   2
ATOM      2  C   UNL     1      64.053  44.952  15.690  1.00  0.00     0.006 C 
BRANCH   2   3
ATOM      3  C   UNL     1      62.926  45.603  16.508  1.00  0.00     0.053 C 
BRANCH   3   4
ATOM      4  C   UNL     1      62.485  44.736  17.647  1.00  0.00     0.041 C 
ATOM      5  O   UNL     1      63.236  44.570  18.643  1.00  0.00    -0.550 OA
ATOM      6  O   UNL     1      61.259  44.085  17.592  1.00  0.00    -0.550 OA
ENDBRANCH   3   4
ENDBRANCH   2   3
ENDBRANCH   1   2
BRANCH   1   7
ATOM      7  C   UNL     1      64.599  42.589  14.864  1.00  0.00     0.000 C 
BRANCH   7   8
ATOM      8  C   UNL     1      64.865  42.140  16.309  1.00  0.00    -0.000 C 
BRANCH   8   9
ATOM      9  C   UNL     1      64.061  40.889  16.697  1.00  0.00    -0.003 C 
ATOM     10  C   UNL     1      63.252  41.079  17.979  1.00  0.00     0.004 C 
ENDBRANCH   8   9
ENDBRANCH   7   8
ENDBRANCH   1   7
TORSDOF 6
ENDMDL
