MODEL 1
REMARK VINA RESULT:    -5.387      0.000      0.000
REMARK INTER + INTRA:          -6.991
REMARK INTER:                  -6.646
REMARK INTRA:                  -0.345
REMARK UNBOUND:                -0.345
REMARK SMILES O=c1c(O)c(-c2cc(O)c(O)c(O)c2)oc2cc(O)cc(O)c12
REMARK SMILES IDX 5 1 3 2 2 3 1 4 23 5 21 6 20 7 18 8 17 9 16 10 15 11 6 12
REMARK SMILES IDX 7 13 8 14 14 15 10 16 12 17 9 18 11 20 13 22 4 24 22 26
REMARK SMILES IDX 19 28
REMARK H PARENT 9 19 11 21 13 23 4 25 22 27 19 29
REMARK Flexibility Score: inf
ROOT
ATOM      1  C   UNL     1      41.294  16.263 211.025  1.00  0.00     0.180 A 
ATOM      2  C   UNL     1      41.574  15.808 212.325  1.00  0.00     0.208 A 
ATOM      3  C   UNL     1      40.556  15.843 213.292  1.00  0.00     0.238 A 
ATOM      4  O   UNL     1      40.828  15.486 214.468  1.00  0.00    -0.285 OA
ATOM      5  C   UNL     1      39.269  16.316 212.943  1.00  0.00     0.111 A 
ATOM      6  C   UNL     1      38.152  16.359 213.831  1.00  0.00     0.134 A 
ATOM      7  C   UNL     1      36.962  16.968 213.416  1.00  0.00     0.093 A 
ATOM      8  C   UNL     1      36.827  17.478 212.122  1.00  0.00     0.123 A 
ATOM      9  C   UNL     1      37.890  17.388 211.228  1.00  0.00     0.094 A 
ATOM     10  C   UNL     1      39.103  16.818 211.626  1.00  0.00     0.146 A 
ATOM     11  O   UNL     1      40.096  16.762 210.745  1.00  0.00    -0.452 OA
ENDROOT
BRANCH   1  12
ATOM     12  C   UNL     1      42.308  16.233 209.945  1.00  0.00     0.029 A 
ATOM     13  C   UNL     1      43.253  17.262 209.802  1.00  0.00     0.062 A 
ATOM     14  C   UNL     1      44.222  17.213 208.793  1.00  0.00     0.162 A 
ATOM     15  C   UNL     1      42.366  15.131 209.083  1.00  0.00     0.062 A 
ATOM     16  C   UNL     1      44.257  16.108 207.908  1.00  0.00     0.200 A 
ATOM     17  C   UNL     1      43.324  15.068 208.068  1.00  0.00     0.162 A 
BRANCH  14  18
ATOM     18  O   UNL     1      45.128  18.274 208.714  1.00  0.00    -0.504 OA
ATOM     19  H   UNL     1      45.280  18.827 207.883  1.00  0.00     0.293 HD
ENDBRANCH  14  18
BRANCH  16  20
ATOM     20  O   UNL     1      45.193  16.010 206.875  1.00  0.00    -0.502 OA
ATOM     21  H   UNL     1      46.127  16.390 206.918  1.00  0.00     0.293 HD
ENDBRANCH  16  20
BRANCH  17  22
ATOM     22  O   UNL     1      43.331  13.958 207.224  1.00  0.00    -0.504 OA
ATOM     23  H   UNL     1      44.132  13.342 207.145  1.00  0.00     0.293 HD
ENDBRANCH  17  22
ENDBRANCH   1  12
BRANCH   2  24
ATOM     24  O   UNL     1      42.857  15.365 212.655  1.00  0.00    -0.502 OA
ATOM     25  H   UNL     1      43.147  14.401 212.543  1.00  0.00     0.293 HD
ENDBRANCH   2  24
BRANCH   6  26
ATOM     26  O   UNL     1      38.152  15.797 215.112  1.00  0.00    -0.507 OA
ATOM     27  H   UNL     1      37.964  16.305 215.963  1.00  0.00     0.293 HD
ENDBRANCH   6  26
BRANCH   8  28
ATOM     28  O   UNL     1      35.633  18.069 211.712  1.00  0.00    -0.508 OA
ATOM     29  H   UNL     1      35.537  18.486 210.793  1.00  0.00     0.293 HD
ENDBRANCH   8  28
TORSDOF 7
ENDMDL
MODEL 2
REMARK VINA RESULT:    -5.367      0.088      1.768
REMARK INTER + INTRA:          -6.967
REMARK INTER:                  -6.620
REMARK INTRA:                  -0.347
REMARK UNBOUND:                -0.345
REMARK SMILES O=c1c(O)c(-c2cc(O)c(O)c(O)c2)oc2cc(O)cc(O)c12
REMARK SMILES IDX 5 1 3 2 2 3 1 4 23 5 21 6 20 7 18 8 17 9 16 10 15 11 6 12
REMARK SMILES IDX 7 13 8 14 14 15 10 16 12 17 9 18 11 20 13 22 4 24 22 26
REMARK SMILES IDX 19 28
REMARK H PARENT 9 19 11 21 13 23 4 25 22 27 19 29
REMARK Flexibility Score: inf
ROOT
ATOM      1  C   UNL     1      41.302  16.160 211.009  1.00  0.00     0.180 A 
ATOM      2  C   UNL     1      41.572  15.720 212.316  1.00  0.00     0.208 A 
ATOM      3  C   UNL     1      40.550  15.770 213.276  1.00  0.00     0.238 A 
ATOM      4  O   UNL     1      40.813  15.426 214.458  1.00  0.00    -0.285 OA
ATOM      5  C   UNL     1      39.266  16.245 212.915  1.00  0.00     0.111 A 
ATOM      6  C   UNL     1      38.145  16.303 213.796  1.00  0.00     0.134 A 
ATOM      7  C   UNL     1      36.960  16.912 213.367  1.00  0.00     0.093 A 
ATOM      8  C   UNL     1      36.834  17.406 212.066  1.00  0.00     0.123 A 
ATOM      9  C   UNL     1      37.902  17.302 211.180  1.00  0.00     0.094 A 
ATOM     10  C   UNL     1      39.110  16.731 211.591  1.00  0.00     0.146 A 
ATOM     11  O   UNL     1      40.107  16.661 210.717  1.00  0.00    -0.452 OA
ENDROOT
BRANCH   1  12
ATOM     12  C   UNL     1      42.322  16.114 209.935  1.00  0.00     0.029 A 
ATOM     13  C   UNL     1      42.369  15.052 209.018  1.00  0.00     0.062 A 
ATOM     14  C   UNL     1      43.321  15.028 207.992  1.00  0.00     0.162 A 
ATOM     15  C   UNL     1      43.222  17.177 209.792  1.00  0.00     0.062 A 
ATOM     16  C   UNL     1      44.245  16.094 207.871  1.00  0.00     0.200 A 
ATOM     17  C   UNL     1      44.181  17.169 208.777  1.00  0.00     0.162 A 
BRANCH  14  18
ATOM     18  O   UNL     1      43.305  13.938 207.119  1.00  0.00    -0.504 OA
ATOM     19  H   UNL     1      43.520  13.998 206.134  1.00  0.00     0.293 HD
ENDBRANCH  14  18
BRANCH  16  20
ATOM     20  O   UNL     1      45.225  16.120 206.875  1.00  0.00    -0.502 OA
ATOM     21  H   UNL     1      45.741  15.310 206.565  1.00  0.00     0.293 HD
ENDBRANCH  16  20
BRANCH  17  22
ATOM     22  O   UNL     1      45.067  18.242 208.684  1.00  0.00    -0.504 OA
ATOM     23  H   UNL     1      44.897  19.127 209.147  1.00  0.00     0.293 HD
ENDBRANCH  17  22
ENDBRANCH   1  12
BRANCH   2  24
ATOM     24  O   UNL     1      42.853  15.276 212.658  1.00  0.00    -0.502 OA
ATOM     25  H   UNL     1      43.028  14.345 213.018  1.00  0.00     0.293 HD
ENDBRANCH   2  24
BRANCH   6  26
ATOM     26  O   UNL     1      38.135  15.756 215.084  1.00  0.00    -0.507 OA
ATOM     27  H   UNL     1      37.972  16.279 215.930  1.00  0.00     0.293 HD
ENDBRANCH   6  26
BRANCH   8  28
ATOM     28  O   UNL     1      35.645  17.998 211.643  1.00  0.00    -0.508 OA
ATOM     29  H   UNL     1      34.891  18.195 212.291  1.00  0.00     0.293 HD
ENDBRANCH   8  28
TORSDOF 7
ENDMDL
MODEL 3
REMARK VINA RESULT:    -5.267      7.905     12.116
REMARK INTER + INTRA:          -6.844
REMARK INTER:                  -6.491
REMARK INTRA:                  -0.353
REMARK UNBOUND:                -0.345
REMARK SMILES O=c1c(O)c(-c2cc(O)c(O)c(O)c2)oc2cc(O)cc(O)c12
REMARK SMILES IDX 5 1 3 2 2 3 1 4 23 5 21 6 20 7 18 8 17 9 16 10 15 11 6 12
REMARK SMILES IDX 7 13 8 14 14 15 10 16 12 17 9 18 11 20 13 22 4 24 22 26
REMARK SMILES IDX 19 28
REMARK H PARENT 9 19 11 21 13 23 4 25 22 27 19 29
REMARK Flexibility Score: inf
ROOT
ATOM      1  C   UNL     1      40.456  18.078 221.272  1.00  0.00     0.180 A 
ATOM      2  C   UNL     1      41.426  17.944 222.281  1.00  0.00     0.208 A 
ATOM      3  C   UNL     1      42.779  17.854 221.916  1.00  0.00     0.238 A 
ATOM      4  O   UNL     1      43.637  17.679 222.820  1.00  0.00    -0.285 OA
ATOM      5  C   UNL     1      43.146  17.914 220.551  1.00  0.00     0.111 A 
ATOM      6  C   UNL     1      44.490  17.872 220.069  1.00  0.00     0.134 A 
ATOM      7  C   UNL     1      44.728  17.808 218.692  1.00  0.00     0.093 A 
ATOM      8  C   UNL     1      43.674  17.851 217.775  1.00  0.00     0.123 A 
ATOM      9  C   UNL     1      42.363  17.951 218.233  1.00  0.00     0.094 A 
ATOM     10  C   UNL     1      42.091  17.980 219.604  1.00  0.00     0.146 A 
ATOM     11  O   UNL     1      40.826  18.066 219.997  1.00  0.00    -0.452 OA
ENDROOT
BRANCH   1  12
ATOM     12  C   UNL     1      39.012  18.205 221.580  1.00  0.00     0.029 A 
ATOM     13  C   UNL     1      38.450  19.436 221.951  1.00  0.00     0.062 A 
ATOM     14  C   UNL     1      37.080  19.552 222.217  1.00  0.00     0.162 A 
ATOM     15  C   UNL     1      38.177  17.089 221.442  1.00  0.00     0.062 A 
ATOM     16  C   UNL     1      36.247  18.412 222.101  1.00  0.00     0.200 A 
ATOM     17  C   UNL     1      36.809  17.184 221.706  1.00  0.00     0.162 A 
BRANCH  14  18
ATOM     18  O   UNL     1      36.595  20.809 222.582  1.00  0.00    -0.504 OA
ATOM     19  H   UNL     1      35.662  21.137 222.378  1.00  0.00     0.293 HD
ENDBRANCH  14  18
BRANCH  16  20
ATOM     20  O   UNL     1      34.875  18.463 222.365  1.00  0.00    -0.502 OA
ATOM     21  H   UNL     1      34.291  19.265 222.178  1.00  0.00     0.293 HD
ENDBRANCH  16  20
BRANCH  17  22
ATOM     22  O   UNL     1      36.019  16.042 221.571  1.00  0.00    -0.504 OA
ATOM     23  H   UNL     1      36.003  15.493 220.720  1.00  0.00     0.293 HD
ENDBRANCH  17  22
ENDBRANCH   1  12
BRANCH   2  24
ATOM     24  O   UNL     1      41.040  17.864 223.622  1.00  0.00    -0.502 OA
ATOM     25  H   UNL     1      41.685  18.032 224.385  1.00  0.00     0.293 HD
ENDBRANCH   2  24
BRANCH   6  26
ATOM     26  O   UNL     1      45.616  17.920 220.897  1.00  0.00    -0.507 OA
ATOM     27  H   UNL     1      46.509  17.506 220.676  1.00  0.00     0.293 HD
ENDBRANCH   6  26
BRANCH   8  28
ATOM     28  O   UNL     1      43.921  17.802 216.405  1.00  0.00    -0.508 OA
ATOM     29  H   UNL     1      44.272  18.608 215.901  1.00  0.00     0.293 HD
ENDBRANCH   8  28
TORSDOF 7
ENDMDL
MODEL 4
REMARK VINA RESULT:    -5.171      6.395      8.316
REMARK INTER + INTRA:          -6.725
REMARK INTER:                  -6.455
REMARK INTRA:                  -0.270
REMARK UNBOUND:                -0.345
REMARK SMILES O=c1c(O)c(-c2cc(O)c(O)c(O)c2)oc2cc(O)cc(O)c12
REMARK SMILES IDX 5 1 3 2 2 3 1 4 23 5 21 6 20 7 18 8 17 9 16 10 15 11 6 12
REMARK SMILES IDX 7 13 8 14 14 15 10 16 12 17 9 18 11 20 13 22 4 24 22 26
REMARK SMILES IDX 19 28
REMARK H PARENT 9 19 11 21 13 23 4 25 22 27 19 29
REMARK Flexibility Score: inf
ROOT
ATOM      1  C   UNL     1      47.921  18.272 213.437  1.00  0.00     0.180 A 
ATOM      2  C   UNL     1      47.340  18.114 212.167  1.00  0.00     0.208 A 
ATOM      3  C   UNL     1      45.995  17.722 212.078  1.00  0.00     0.238 A 
ATOM      4  O   UNL     1      45.496  17.529 210.939  1.00  0.00    -0.285 OA
ATOM      5  C   UNL     1      45.244  17.509 213.258  1.00  0.00     0.111 A 
ATOM      6  C   UNL     1      43.862  17.148 213.287  1.00  0.00     0.134 A 
ATOM      7  C   UNL     1      43.255  16.836 214.508  1.00  0.00     0.093 A 
ATOM      8  C   UNL     1      43.961  16.935 215.710  1.00  0.00     0.123 A 
ATOM      9  C   UNL     1      45.292  17.343 215.699  1.00  0.00     0.094 A 
ATOM     10  C   UNL     1      45.936  17.626 214.491  1.00  0.00     0.146 A 
ATOM     11  O   UNL     1      47.209  18.002 214.525  1.00  0.00    -0.452 OA
ENDROOT
BRANCH   1  12
ATOM     12  C   UNL     1      49.326  18.708 213.612  1.00  0.00     0.029 A 
ATOM     13  C   UNL     1      49.730  20.016 213.299  1.00  0.00     0.062 A 
ATOM     14  C   UNL     1      51.055  20.425 213.490  1.00  0.00     0.162 A 
ATOM     15  C   UNL     1      50.262  17.818 214.155  1.00  0.00     0.062 A 
ATOM     16  C   UNL     1      52.001  19.511 214.015  1.00  0.00     0.200 A 
ATOM     17  C   UNL     1      51.589  18.208 214.350  1.00  0.00     0.162 A 
BRANCH  14  18
ATOM     18  O   UNL     1      51.381  21.741 213.155  1.00  0.00    -0.504 OA
ATOM     19  H   UNL     1      50.807  22.336 212.574  1.00  0.00     0.293 HD
ENDBRANCH  14  18
BRANCH  16  20
ATOM     20  O   UNL     1      53.340  19.859 214.216  1.00  0.00    -0.502 OA
ATOM     21  H   UNL     1      53.984  20.087 213.473  1.00  0.00     0.293 HD
ENDBRANCH  16  20
BRANCH  17  22
ATOM     22  O   UNL     1      52.488  17.282 214.878  1.00  0.00    -0.504 OA
ATOM     23  H   UNL     1      52.313  16.285 214.858  1.00  0.00     0.293 HD
ENDBRANCH  17  22
ENDBRANCH   1  12
BRANCH   2  24
ATOM     24  O   UNL     1      48.106  18.308 211.015  1.00  0.00    -0.502 OA
ATOM     25  H   UNL     1      47.690  18.482 210.107  1.00  0.00     0.293 HD
ENDBRANCH   2  24
BRANCH   6  26
ATOM     26  O   UNL     1      43.043  17.110 212.154  1.00  0.00    -0.507 OA
ATOM     27  H   UNL     1      42.964  16.324 211.528  1.00  0.00     0.293 HD
ENDBRANCH   6  26
BRANCH   8  28
ATOM     28  O   UNL     1      43.344  16.636 216.924  1.00  0.00    -0.508 OA
ATOM     29  H   UNL     1      43.347  17.294 217.695  1.00  0.00     0.293 HD
ENDBRANCH   8  28
TORSDOF 7
ENDMDL
MODEL 5
REMARK VINA RESULT:    -5.139      4.488      5.962
REMARK INTER + INTRA:          -6.686
REMARK INTER:                  -6.334
REMARK INTRA:                  -0.352
REMARK UNBOUND:                -0.345
REMARK SMILES O=c1c(O)c(-c2cc(O)c(O)c(O)c2)oc2cc(O)cc(O)c12
REMARK SMILES IDX 5 1 3 2 2 3 1 4 23 5 21 6 20 7 18 8 17 9 16 10 15 11 6 12
REMARK SMILES IDX 7 13 8 14 14 15 10 16 12 17 9 18 11 20 13 22 4 24 22 26
REMARK SMILES IDX 19 28
REMARK H PARENT 9 19 11 21 13 23 4 25 22 27 19 29
REMARK Flexibility Score: inf
ROOT
ATOM      1  C   UNL     1      45.349  17.701 213.527  1.00  0.00     0.180 A 
ATOM      2  C   UNL     1      44.774  17.423 214.779  1.00  0.00     0.208 A 
ATOM      3  C   UNL     1      43.496  16.843 214.827  1.00  0.00     0.238 A 
ATOM      4  O   UNL     1      42.964  16.647 215.951  1.00  0.00    -0.285 OA
ATOM      5  C   UNL     1      42.817  16.534 213.625  1.00  0.00     0.111 A 
ATOM      6  C   UNL     1      41.535  15.908 213.555  1.00  0.00     0.134 A 
ATOM      7  C   UNL     1      40.902  15.769 212.315  1.00  0.00     0.093 A 
ATOM      8  C   UNL     1      41.531  16.172 211.134  1.00  0.00     0.123 A 
ATOM      9  C   UNL     1      42.806  16.729 211.186  1.00  0.00     0.094 A 
ATOM     10  C   UNL     1      43.449  16.915 212.413  1.00  0.00     0.146 A 
ATOM     11  O   UNL     1      44.660  17.460 212.418  1.00  0.00    -0.452 OA
ENDROOT
BRANCH   1  12
ATOM     12  C   UNL     1      46.702  18.289 213.394  1.00  0.00     0.029 A 
ATOM     13  C   UNL     1      47.856  17.493 213.483  1.00  0.00     0.062 A 
ATOM     14  C   UNL     1      49.130  18.053 213.333  1.00  0.00     0.162 A 
ATOM     15  C   UNL     1      46.838  19.655 213.117  1.00  0.00     0.062 A 
ATOM     16  C   UNL     1      49.259  19.441 213.080  1.00  0.00     0.200 A 
ATOM     17  C   UNL     1      48.101  20.232 212.968  1.00  0.00     0.162 A 
BRANCH  14  18
ATOM     18  O   UNL     1      50.229  17.198 213.435  1.00  0.00    -0.504 OA
ATOM     19  H   UNL     1      50.349  16.514 214.169  1.00  0.00     0.293 HD
ENDBRANCH  14  18
BRANCH  16  20
ATOM     20  O   UNL     1      50.504  20.058 212.933  1.00  0.00    -0.502 OA
ATOM     21  H   UNL     1      50.952  20.610 213.650  1.00  0.00     0.293 HD
ENDBRANCH  16  20
BRANCH  17  22
ATOM     22  O   UNL     1      48.186  21.600 212.709  1.00  0.00    -0.504 OA
ATOM     23  H   UNL     1      48.962  22.165 213.033  1.00  0.00     0.293 HD
ENDBRANCH  17  22
ENDBRANCH   1  12
BRANCH   2  24
ATOM     24  O   UNL     1      45.453  17.757 215.954  1.00  0.00    -0.502 OA
ATOM     25  H   UNL     1      46.003  18.602 216.044  1.00  0.00     0.293 HD
ENDBRANCH   2  24
BRANCH   6  26
ATOM     26  O   UNL     1      40.861  15.386 214.663  1.00  0.00    -0.507 OA
ATOM     27  H   UNL     1      41.303  14.899 215.428  1.00  0.00     0.293 HD
ENDBRANCH   6  26
BRANCH   8  28
ATOM     28  O   UNL     1      40.899  16.016 209.902  1.00  0.00    -0.508 OA
ATOM     29  H   UNL     1      41.350  15.534 209.133  1.00  0.00     0.293 HD
ENDBRANCH   8  28
TORSDOF 7
ENDMDL
MODEL 6
REMARK VINA RESULT:    -5.089      9.473     11.321
REMARK INTER + INTRA:          -6.624
REMARK INTER:                  -6.305
REMARK INTRA:                  -0.319
REMARK UNBOUND:                -0.345
REMARK SMILES O=c1c(O)c(-c2cc(O)c(O)c(O)c2)oc2cc(O)cc(O)c12
REMARK SMILES IDX 5 1 3 2 2 3 1 4 23 5 21 6 20 7 18 8 17 9 16 10 15 11 6 12
REMARK SMILES IDX 7 13 8 14 14 15 10 16 12 17 9 18 11 20 13 22 4 24 22 26
REMARK SMILES IDX 19 28
REMARK H PARENT 9 19 11 21 13 23 4 25 22 27 19 29
REMARK Flexibility Score: inf
ROOT
ATOM      1  C   UNL     1      47.252  17.194 219.897  1.00  0.00     0.180 A 
ATOM      2  C   UNL     1      46.586  18.242 220.556  1.00  0.00     0.208 A 
ATOM      3  C   UNL     1      45.276  18.565 220.170  1.00  0.00     0.238 A 
ATOM      4  O   UNL     1      44.705  19.539 220.727  1.00  0.00    -0.285 OA
ATOM      5  C   UNL     1      44.642  17.828 219.142  1.00  0.00     0.111 A 
ATOM      6  C   UNL     1      43.303  18.043 218.697  1.00  0.00     0.134 A 
ATOM      7  C   UNL     1      42.823  17.341 217.585  1.00  0.00     0.093 A 
ATOM      8  C   UNL     1      43.613  16.384 216.941  1.00  0.00     0.123 A 
ATOM      9  C   UNL     1      44.900  16.125 217.404  1.00  0.00     0.094 A 
ATOM     10  C   UNL     1      45.419  16.836 218.490  1.00  0.00     0.146 A 
ATOM     11  O   UNL     1      46.655  16.564 218.892  1.00  0.00    -0.452 OA
ENDROOT
BRANCH   1  12
ATOM     12  C   UNL     1      48.626  16.778 220.265  1.00  0.00     0.029 A 
ATOM     13  C   UNL     1      48.875  16.022 221.422  1.00  0.00     0.062 A 
ATOM     14  C   UNL     1      50.173  15.613 221.748  1.00  0.00     0.162 A 
ATOM     15  C   UNL     1      49.693  17.094 219.415  1.00  0.00     0.062 A 
ATOM     16  C   UNL     1      51.251  15.959 220.898  1.00  0.00     0.200 A 
ATOM     17  C   UNL     1      50.996  16.697 219.727  1.00  0.00     0.162 A 
BRANCH  14  18
ATOM     18  O   UNL     1      50.341  14.864 222.915  1.00  0.00    -0.504 OA
ATOM     19  H   UNL     1      49.719  14.125 223.208  1.00  0.00     0.293 HD
ENDBRANCH  14  18
BRANCH  16  20
ATOM     20  O   UNL     1      52.569  15.590 221.178  1.00  0.00    -0.502 OA
ATOM     21  H   UNL     1      53.078  15.884 221.999  1.00  0.00     0.293 HD
ENDBRANCH  16  20
BRANCH  17  22
ATOM     22  O   UNL     1      52.029  17.049 218.859  1.00  0.00    -0.504 OA
ATOM     23  H   UNL     1      52.595  17.877 218.998  1.00  0.00     0.293 HD
ENDBRANCH  17  22
ENDBRANCH   1  12
BRANCH   2  24
ATOM     24  O   UNL     1      47.239  18.972 221.554  1.00  0.00    -0.502 OA
ATOM     25  H   UNL     1      46.784  19.239 222.419  1.00  0.00     0.293 HD
ENDBRANCH   2  24
BRANCH   6  26
ATOM     26  O   UNL     1      42.401  18.907 219.326  1.00  0.00    -0.507 OA
ATOM     27  H   UNL     1      42.519  19.284 220.254  1.00  0.00     0.293 HD
ENDBRANCH   6  26
BRANCH   8  28
ATOM     28  O   UNL     1      43.122  15.679 215.844  1.00  0.00    -0.508 OA
ATOM     29  H   UNL     1      43.744  15.216 215.191  1.00  0.00     0.293 HD
ENDBRANCH   8  28
TORSDOF 7
ENDMDL
MODEL 7
REMARK VINA RESULT:    -5.050      8.196     12.248
REMARK INTER + INTRA:          -6.576
REMARK INTER:                  -6.211
REMARK INTRA:                  -0.365
REMARK UNBOUND:                -0.345
REMARK SMILES O=c1c(O)c(-c2cc(O)c(O)c(O)c2)oc2cc(O)cc(O)c12
REMARK SMILES IDX 5 1 3 2 2 3 1 4 23 5 21 6 20 7 18 8 17 9 16 10 15 11 6 12
REMARK SMILES IDX 7 13 8 14 14 15 10 16 12 17 9 18 11 20 13 22 4 24 22 26
REMARK SMILES IDX 19 28
REMARK H PARENT 9 19 11 21 13 23 4 25 22 27 19 29
REMARK Flexibility Score: inf
ROOT
ATOM      1  C   UNL     1      39.765  18.363 220.383  1.00  0.00     0.180 A 
ATOM      2  C   UNL     1      39.853  18.922 219.097  1.00  0.00     0.208 A 
ATOM      3  C   UNL     1      41.100  18.957 218.454  1.00  0.00     0.238 A 
ATOM      4  O   UNL     1      41.182  19.508 217.325  1.00  0.00    -0.285 OA
ATOM      5  C   UNL     1      42.240  18.419 219.097  1.00  0.00     0.111 A 
ATOM      6  C   UNL     1      43.546  18.365 218.523  1.00  0.00     0.134 A 
ATOM      7  C   UNL     1      44.625  17.930 219.301  1.00  0.00     0.093 A 
ATOM      8  C   UNL     1      44.435  17.484 220.612  1.00  0.00     0.123 A 
ATOM      9  C   UNL     1      43.156  17.477 221.161  1.00  0.00     0.094 A 
ATOM     10  C   UNL     1      42.064  17.940 220.421  1.00  0.00     0.146 A 
ATOM     11  O   UNL     1      40.863  17.926 220.988  1.00  0.00    -0.452 OA
ENDROOT
BRANCH   1  12
ATOM     12  C   UNL     1      38.480  18.267 221.115  1.00  0.00     0.029 A 
ATOM     13  C   UNL     1      37.662  17.131 221.009  1.00  0.00     0.062 A 
ATOM     14  C   UNL     1      36.461  17.039 221.722  1.00  0.00     0.162 A 
ATOM     15  C   UNL     1      38.097  19.303 221.976  1.00  0.00     0.062 A 
ATOM     16  C   UNL     1      36.068  18.104 222.570  1.00  0.00     0.200 A 
ATOM     17  C   UNL     1      36.901  19.231 222.693  1.00  0.00     0.162 A 
BRANCH  14  18
ATOM     18  O   UNL     1      35.701  15.878 221.564  1.00  0.00    -0.504 OA
ATOM     19  H   UNL     1      35.055  15.526 222.256  1.00  0.00     0.293 HD
ENDBRANCH  14  18
BRANCH  16  20
ATOM     20  O   UNL     1      34.875  18.074 223.297  1.00  0.00    -0.502 OA
ATOM     21  H   UNL     1      34.451  18.885 223.724  1.00  0.00     0.293 HD
ENDBRANCH  16  20
BRANCH  17  22
ATOM     22  O   UNL     1      36.553  20.295 223.525  1.00  0.00    -0.504 OA
ATOM     23  H   UNL     1      36.082  21.122 223.179  1.00  0.00     0.293 HD
ENDBRANCH  17  22
ENDBRANCH   1  12
BRANCH   2  24
ATOM     24  O   UNL     1      38.719  19.468 218.488  1.00  0.00    -0.502 OA
ATOM     25  H   UNL     1      38.548  19.397 217.492  1.00  0.00     0.293 HD
ENDBRANCH   2  24
BRANCH   6  26
ATOM     26  O   UNL     1      43.828  18.699 217.195  1.00  0.00    -0.507 OA
ATOM     27  H   UNL     1      44.735  18.617 216.761  1.00  0.00     0.293 HD
ENDBRANCH   6  26
BRANCH   8  28
ATOM     28  O   UNL     1      45.513  17.038 221.374  1.00  0.00    -0.508 OA
ATOM     29  H   UNL     1      45.585  16.073 221.676  1.00  0.00     0.293 HD
ENDBRANCH   8  28
TORSDOF 7
ENDMDL
MODEL 8
REMARK VINA RESULT:    -5.017      8.470     11.980
REMARK INTER + INTRA:          -6.535
REMARK INTER:                  -6.204
REMARK INTRA:                  -0.331
REMARK UNBOUND:                -0.345
REMARK SMILES O=c1c(O)c(-c2cc(O)c(O)c(O)c2)oc2cc(O)cc(O)c12
REMARK SMILES IDX 5 1 3 2 2 3 1 4 23 5 21 6 20 7 18 8 17 9 16 10 15 11 6 12
REMARK SMILES IDX 7 13 8 14 14 15 10 16 12 17 9 18 11 20 13 22 4 24 22 26
REMARK SMILES IDX 19 28
REMARK H PARENT 9 19 11 21 13 23 4 25 22 27 19 29
REMARK Flexibility Score: inf
ROOT
ATOM      1  C   UNL     1      40.882  17.943 221.005  1.00  0.00     0.180 A 
ATOM      2  C   UNL     1      41.582  18.019 222.221  1.00  0.00     0.208 A 
ATOM      3  C   UNL     1      42.976  17.861 222.215  1.00  0.00     0.238 A 
ATOM      4  O   UNL     1      43.591  17.875 223.313  1.00  0.00    -0.285 OA
ATOM      5  C   UNL     1      43.655  17.644 220.992  1.00  0.00     0.111 A 
ATOM      6  C   UNL     1      45.071  17.508 220.863  1.00  0.00     0.134 A 
ATOM      7  C   UNL     1      45.622  17.167 219.622  1.00  0.00     0.093 A 
ATOM      8  C   UNL     1      44.814  17.020 218.491  1.00  0.00     0.123 A 
ATOM      9  C   UNL     1      43.439  17.208 218.594  1.00  0.00     0.094 A 
ATOM     10  C   UNL     1      42.856  17.514 219.827  1.00  0.00     0.146 A 
ATOM     11  O   UNL     1      41.539  17.674 219.883  1.00  0.00    -0.452 OA
ENDROOT
BRANCH   1  12
ATOM     12  C   UNL     1      39.413  18.126 220.927  1.00  0.00     0.029 A 
ATOM     13  C   UNL     1      38.529  17.081 221.239  1.00  0.00     0.062 A 
ATOM     14  C   UNL     1      37.143  17.270 221.187  1.00  0.00     0.162 A 
ATOM     15  C   UNL     1      38.891  19.382 220.594  1.00  0.00     0.062 A 
ATOM     16  C   UNL     1      36.623  18.536 220.822  1.00  0.00     0.200 A 
ATOM     17  C   UNL     1      37.511  19.589 220.533  1.00  0.00     0.162 A 
BRANCH  14  18
ATOM     18  O   UNL     1      36.329  16.183 221.510  1.00  0.00    -0.504 OA
ATOM     19  H   UNL     1      35.319  16.209 221.502  1.00  0.00     0.293 HD
ENDBRANCH  14  18
BRANCH  16  20
ATOM     20  O   UNL     1      35.250  18.781 220.741  1.00  0.00    -0.502 OA
ATOM     21  H   UNL     1      34.547  18.239 221.221  1.00  0.00     0.293 HD
ENDBRANCH  16  20
BRANCH  17  22
ATOM     22  O   UNL     1      37.038  20.852 220.180  1.00  0.00    -0.504 OA
ATOM     23  H   UNL     1      36.988  21.617 220.842  1.00  0.00     0.293 HD
ENDBRANCH  17  22
ENDBRANCH   1  12
BRANCH   2  24
ATOM     24  O   UNL     1      40.889  18.212 223.420  1.00  0.00    -0.502 OA
ATOM     25  H   UNL     1      40.288  17.503 223.822  1.00  0.00     0.293 HD
ENDBRANCH   2  24
BRANCH   6  26
ATOM     26  O   UNL     1      45.973  17.726 221.909  1.00  0.00    -0.507 OA
ATOM     27  H   UNL     1      46.307  18.631 222.202  1.00  0.00     0.293 HD
ENDBRANCH   6  26
BRANCH   8  28
ATOM     28  O   UNL     1      45.373  16.694 217.257  1.00  0.00    -0.508 OA
ATOM     29  H   UNL     1      46.073  17.283 216.821  1.00  0.00     0.293 HD
ENDBRANCH   8  28
TORSDOF 7
ENDMDL
MODEL 9
REMARK VINA RESULT:    -5.010      1.458      3.418
REMARK INTER + INTRA:          -6.527
REMARK INTER:                  -6.252
REMARK INTRA:                  -0.274
REMARK UNBOUND:                -0.345
REMARK SMILES O=c1c(O)c(-c2cc(O)c(O)c(O)c2)oc2cc(O)cc(O)c12
REMARK SMILES IDX 5 1 3 2 2 3 1 4 23 5 21 6 20 7 18 8 17 9 16 10 15 11 6 12
REMARK SMILES IDX 7 13 8 14 14 15 10 16 12 17 9 18 11 20 13 22 4 24 22 26
REMARK SMILES IDX 19 28
REMARK H PARENT 9 19 11 21 13 23 4 25 22 27 19 29
REMARK Flexibility Score: inf
ROOT
ATOM      1  C   UNL     1      40.576  17.095 209.978  1.00  0.00     0.180 A 
ATOM      2  C   UNL     1      39.746  18.105 209.460  1.00  0.00     0.208 A 
ATOM      3  C   UNL     1      38.500  18.337 210.063  1.00  0.00     0.238 A 
ATOM      4  O   UNL     1      37.739  19.205 209.561  1.00  0.00    -0.285 OA
ATOM      5  C   UNL     1      38.106  17.570 211.185  1.00  0.00     0.111 A 
ATOM      6  C   UNL     1      36.882  17.747 211.899  1.00  0.00     0.134 A 
ATOM      7  C   UNL     1      36.538  16.845 212.913  1.00  0.00     0.093 A 
ATOM      8  C   UNL     1      37.403  15.811 213.282  1.00  0.00     0.123 A 
ATOM      9  C   UNL     1      38.625  15.666 212.632  1.00  0.00     0.094 A 
ATOM     10  C   UNL     1      38.980  16.529 211.591  1.00  0.00     0.146 A 
ATOM     11  O   UNL     1      40.151  16.349 210.990  1.00  0.00    -0.452 OA
ENDROOT
BRANCH   1  12
ATOM     12  C   UNL     1      41.914  16.808 209.412  1.00  0.00     0.029 A 
ATOM     13  C   UNL     1      42.146  15.668 208.627  1.00  0.00     0.062 A 
ATOM     14  C   UNL     1      43.409  15.417 208.076  1.00  0.00     0.162 A 
ATOM     15  C   UNL     1      42.959  17.720 209.613  1.00  0.00     0.062 A 
ATOM     16  C   UNL     1      44.467  16.330 208.307  1.00  0.00     0.200 A 
ATOM     17  C   UNL     1      44.226  17.484 209.075  1.00  0.00     0.162 A 
BRANCH  14  18
ATOM     18  O   UNL     1      43.562  14.262 207.307  1.00  0.00    -0.504 OA
ATOM     19  H   UNL     1      43.591  13.327 207.689  1.00  0.00     0.293 HD
ENDBRANCH  14  18
BRANCH  16  20
ATOM     20  O   UNL     1      45.751  16.128 207.794  1.00  0.00    -0.502 OA
ATOM     21  H   UNL     1      46.596  16.465 208.231  1.00  0.00     0.293 HD
ENDBRANCH  16  20
BRANCH  17  22
ATOM     22  O   UNL     1      45.239  18.412 209.316  1.00  0.00    -0.504 OA
ATOM     23  H   UNL     1      45.209  19.355 208.947  1.00  0.00     0.293 HD
ENDBRANCH  17  22
ENDBRANCH   1  12
BRANCH   2  24
ATOM     24  O   UNL     1      40.145  18.836 208.338  1.00  0.00    -0.502 OA
ATOM     25  H   UNL     1      40.737  18.445 207.615  1.00  0.00     0.293 HD
ENDBRANCH   2  24
BRANCH   6  26
ATOM     26  O   UNL     1      35.992  18.801 211.672  1.00  0.00    -0.507 OA
ATOM     27  H   UNL     1      35.893  19.609 212.267  1.00  0.00     0.293 HD
ENDBRANCH   6  26
BRANCH   8  28
ATOM     28  O   UNL     1      37.058  14.927 214.303  1.00  0.00    -0.508 OA
ATOM     29  H   UNL     1      37.270  15.130 215.273  1.00  0.00     0.293 HD
ENDBRANCH   8  28
TORSDOF 7
ENDMDL
