MODEL 1
REMARK VINA RESULT:    -4.439      0.000      0.000
REMARK INTER + INTRA:          -7.078
REMARK INTER:                  -6.774
REMARK INTRA:                  -0.303
REMARK UNBOUND:                -0.303
REMARK SMILES O=C([O-])CCCCCCCCC(=O)[O-]
REMARK SMILES IDX 7 1 6 2 5 3 4 4 2 5 1 6 3 7 8 8 9 9 10 10 11 11 12 12 13 13
REMARK SMILES IDX 14 14
REMARK H PARENT
REMARK Flexibility Score: inf
ROOT
ATOM      1  C   UNL     1      45.928   8.253  20.324  1.00  0.00     0.000 C 
ENDROOT
BRANCH   1   2
ATOM      2  C   UNL     1      46.911   7.309  21.032  1.00  0.00     0.000 C 
BRANCH   2   3
ATOM      3  C   UNL     1      47.216   7.729  22.481  1.00  0.00     0.006 C 
BRANCH   3   4
ATOM      4  C   UNL     1      46.539   9.045  22.905  1.00  0.00     0.053 C 
BRANCH   4   5
ATOM      5  C   UNL     1      45.337   8.821  23.772  1.00  0.00     0.041 C 
ATOM      6  O   UNL     1      44.235   8.499  23.254  1.00  0.00    -0.550 OA
ATOM      7  O   UNL     1      45.441   8.934  25.153  1.00  0.00    -0.550 OA
ENDBRANCH   4   5
ENDBRANCH   3   4
ENDBRANCH   2   3
ENDBRANCH   1   2
BRANCH   1   8
ATOM      8  C   UNL     1      46.094   8.179  18.801  1.00  0.00     0.000 C 
BRANCH   8   9
ATOM      9  C   UNL     1      46.736   6.848  18.382  1.00  0.00     0.000 C 
BRANCH   9  10
ATOM     10  C   UNL     1      46.790   6.659  16.855  1.00  0.00     0.006 C 
BRANCH  10  11
ATOM     11  C   UNL     1      47.575   5.413  16.407  1.00  0.00     0.053 C 
BRANCH  11  12
ATOM     12  C   UNL     1      47.456   5.157  14.936  1.00  0.00     0.041 C 
ATOM     13  O   UNL     1      46.931   6.019  14.184  1.00  0.00    -0.550 OA
ATOM     14  O   UNL     1      47.957   3.981  14.388  1.00  0.00    -0.550 OA
ENDBRANCH  11  12
ENDBRANCH  10  11
ENDBRANCH   9  10
ENDBRANCH   8   9
ENDBRANCH   1   8
TORSDOF 9
ENDMDL
MODEL 2
REMARK VINA RESULT:    -4.401      1.781      7.534
REMARK INTER + INTRA:          -7.019
REMARK INTER:                  -6.574
REMARK INTRA:                  -0.446
REMARK UNBOUND:                -0.303
REMARK SMILES O=C([O-])CCCCCCCCC(=O)[O-]
REMARK SMILES IDX 7 1 6 2 5 3 4 4 2 5 1 6 3 7 8 8 9 9 10 10 11 11 12 12 13 13
REMARK SMILES IDX 14 14
REMARK H PARENT
REMARK Flexibility Score: inf
ROOT
ATOM      1  C   UNL     1      44.633   7.544  17.012  1.00  0.00     0.000 C 
ENDROOT
BRANCH   1   2
ATOM      2  C   UNL     1      44.674   6.906  15.615  1.00  0.00     0.000 C 
BRANCH   2   3
ATOM      3  C   UNL     1      46.074   6.942  14.976  1.00  0.00     0.006 C 
BRANCH   3   4
ATOM      4  C   UNL     1      46.438   5.663  14.200  1.00  0.00     0.053 C 
BRANCH   4   5
ATOM      5  C   UNL     1      47.591   4.926  14.814  1.00  0.00     0.041 C 
ATOM      6  O   UNL     1      48.285   4.143  14.114  1.00  0.00    -0.550 OA
ATOM      7  O   UNL     1      47.920   5.130  16.148  1.00  0.00    -0.550 OA
ENDBRANCH   4   5
ENDBRANCH   3   4
ENDBRANCH   2   3
ENDBRANCH   1   2
BRANCH   1   8
ATOM      8  C   UNL     1      46.046   7.880  17.505  1.00  0.00     0.000 C 
BRANCH   8   9
ATOM      9  C   UNL     1      46.437   6.995  18.697  1.00  0.00     0.000 C 
BRANCH   9  10
ATOM     10  C   UNL     1      46.484   7.763  20.030  1.00  0.00     0.006 C 
BRANCH  10  11
ATOM     11  C   UNL     1      47.182   6.997  21.168  1.00  0.00     0.053 C 
BRANCH  11  12
ATOM     12  C   UNL     1      47.338   7.825  22.407  1.00  0.00     0.041 C 
ATOM     13  O   UNL     1      48.485   8.137  22.820  1.00  0.00    -0.550 OA
ATOM     14  O   UNL     1      46.215   8.283  23.088  1.00  0.00    -0.550 OA
ENDBRANCH  11  12
ENDBRANCH  10  11
ENDBRANCH   9  10
ENDBRANCH   8   9
ENDBRANCH   1   8
TORSDOF 9
ENDMDL
MODEL 3
REMARK VINA RESULT:    -4.398      1.851      2.404
REMARK INTER + INTRA:          -7.015
REMARK INTER:                  -6.593
REMARK INTRA:                  -0.423
REMARK UNBOUND:                -0.303
REMARK SMILES O=C([O-])CCCCCCCCC(=O)[O-]
REMARK SMILES IDX 7 1 6 2 5 3 4 4 2 5 1 6 3 7 8 8 9 9 10 10 11 11 12 12 13 13
REMARK SMILES IDX 14 14
REMARK H PARENT
REMARK Flexibility Score: inf
ROOT
ATOM      1  C   UNL     1      47.246   6.868  21.176  1.00  0.00     0.000 C 
ENDROOT
BRANCH   1   2
ATOM      2  C   UNL     1      47.507   7.600  22.501  1.00  0.00     0.000 C 
BRANCH   2   3
ATOM      3  C   UNL     1      46.697   8.901  22.641  1.00  0.00     0.006 C 
BRANCH   3   4
ATOM      4  C   UNL     1      45.808   8.951  23.896  1.00  0.00     0.053 C 
BRANCH   4   5
ATOM      5  C   UNL     1      44.346   8.923  23.568  1.00  0.00     0.041 C 
ATOM      6  O   UNL     1      43.510   9.433  24.359  1.00  0.00    -0.550 OA
ATOM      7  O   UNL     1      43.909   8.365  22.372  1.00  0.00    -0.550 OA
ENDBRANCH   4   5
ENDBRANCH   3   4
ENDBRANCH   2   3
ENDBRANCH   1   2
BRANCH   1   8
ATOM      8  C   UNL     1      46.461   7.755  20.202  1.00  0.00     0.000 C 
BRANCH   8   9
ATOM      9  C   UNL     1      46.572   7.226  18.765  1.00  0.00     0.000 C 
BRANCH   9  10
ATOM     10  C   UNL     1      45.927   8.161  17.726  1.00  0.00     0.006 C 
BRANCH  10  11
ATOM     11  C   UNL     1      44.570   7.665  17.196  1.00  0.00     0.053 C 
BRANCH  11  12
ATOM     12  C   UNL     1      44.713   6.752  16.017  1.00  0.00     0.041 C 
ATOM     13  O   UNL     1      43.716   6.117  15.583  1.00  0.00    -0.550 OA
ATOM     14  O   UNL     1      45.938   6.628  15.373  1.00  0.00    -0.550 OA
ENDBRANCH  11  12
ENDBRANCH  10  11
ENDBRANCH   9  10
ENDBRANCH   8   9
ENDBRANCH   1   8
TORSDOF 9
ENDMDL
MODEL 4
REMARK VINA RESULT:    -4.392      2.101      7.233
REMARK INTER + INTRA:          -7.006
REMARK INTER:                  -6.555
REMARK INTRA:                  -0.451
REMARK UNBOUND:                -0.303
REMARK SMILES O=C([O-])CCCCCCCCC(=O)[O-]
REMARK SMILES IDX 7 1 6 2 5 3 4 4 2 5 1 6 3 7 8 8 9 9 10 10 11 11 12 12 13 13
REMARK SMILES IDX 14 14
REMARK H PARENT
REMARK Flexibility Score: inf
ROOT
ATOM      1  C   UNL     1      46.609   7.476  19.998  1.00  0.00     0.000 C 
ENDROOT
BRANCH   1   2
ATOM      2  C   UNL     1      46.656   6.712  18.667  1.00  0.00     0.000 C 
BRANCH   2   3
ATOM      3  C   UNL     1      46.633   7.638  17.438  1.00  0.00     0.006 C 
BRANCH   3   4
ATOM      4  C   UNL     1      46.045   6.984  16.174  1.00  0.00     0.053 C 
BRANCH   4   5
ATOM      5  C   UNL     1      44.580   7.255  16.014  1.00  0.00     0.041 C 
ATOM      6  O   UNL     1      44.140   8.431  16.110  1.00  0.00    -0.550 OA
ATOM      7  O   UNL     1      43.704   6.216  15.725  1.00  0.00    -0.550 OA
ENDBRANCH   4   5
ENDBRANCH   3   4
ENDBRANCH   2   3
ENDBRANCH   1   2
BRANCH   1   8
ATOM      8  C   UNL     1      47.164   6.620  21.144  1.00  0.00     0.000 C 
BRANCH   8   9
ATOM      9  C   UNL     1      47.583   7.497  22.333  1.00  0.00     0.000 C 
BRANCH   9  10
ATOM     10  C   UNL     1      46.770   8.800  22.439  1.00  0.00     0.006 C 
BRANCH  10  11
ATOM     11  C   UNL     1      45.846   8.862  23.668  1.00  0.00     0.053 C 
BRANCH  11  12
ATOM     12  C   UNL     1      44.395   8.840  23.297  1.00  0.00     0.041 C 
ATOM     13  O   UNL     1      43.533   9.310  24.086  1.00  0.00    -0.550 OA
ATOM     14  O   UNL     1      43.995   8.334  22.066  1.00  0.00    -0.550 OA
ENDBRANCH  11  12
ENDBRANCH  10  11
ENDBRANCH   9  10
ENDBRANCH   8   9
ENDBRANCH   1   8
TORSDOF 9
ENDMDL
MODEL 5
REMARK VINA RESULT:    -4.358      0.658      7.839
REMARK INTER + INTRA:          -6.954
REMARK INTER:                  -6.695
REMARK INTRA:                  -0.259
REMARK UNBOUND:                -0.303
REMARK SMILES O=C([O-])CCCCCCCCC(=O)[O-]
REMARK SMILES IDX 7 1 6 2 5 3 4 4 2 5 1 6 3 7 8 8 9 9 10 10 11 11 12 12 13 13
REMARK SMILES IDX 14 14
REMARK H PARENT
REMARK Flexibility Score: inf
ROOT
ATOM      1  C   UNL     1      46.765   7.048  19.290  1.00  0.00     0.000 C 
ENDROOT
BRANCH   1   2
ATOM      2  C   UNL     1      45.893   7.548  18.128  1.00  0.00     0.000 C 
BRANCH   2   3
ATOM      3  C   UNL     1      46.563   7.376  16.753  1.00  0.00     0.006 C 
BRANCH   3   4
ATOM      4  C   UNL     1      47.188   5.986  16.532  1.00  0.00     0.053 C 
BRANCH   4   5
ATOM      5  C   UNL     1      47.258   5.610  15.083  1.00  0.00     0.041 C 
ATOM      6  O   UNL     1      46.684   6.321  14.217  1.00  0.00    -0.550 OA
ATOM      7  O   UNL     1      47.984   4.495  14.685  1.00  0.00    -0.550 OA
ENDBRANCH   4   5
ENDBRANCH   3   4
ENDBRANCH   2   3
ENDBRANCH   1   2
BRANCH   1   8
ATOM      8  C   UNL     1      46.431   7.793  20.588  1.00  0.00     0.000 C 
BRANCH   8   9
ATOM      9  C   UNL     1      47.332   7.323  21.740  1.00  0.00     0.000 C 
BRANCH   9  10
ATOM     10  C   UNL     1      47.515   8.387  22.837  1.00  0.00     0.006 C 
BRANCH  10  11
ATOM     11  C   UNL     1      46.354   9.394  22.930  1.00  0.00     0.053 C 
BRANCH  11  12
ATOM     12  C   UNL     1      45.174   8.844  23.671  1.00  0.00     0.041 C 
ATOM     13  O   UNL     1      45.273   8.549  24.891  1.00  0.00    -0.550 OA
ATOM     14  O   UNL     1      43.953   8.689  23.024  1.00  0.00    -0.550 OA
ENDBRANCH  11  12
ENDBRANCH  10  11
ENDBRANCH   9  10
ENDBRANCH   8   9
ENDBRANCH   1   8
TORSDOF 9
ENDMDL
MODEL 6
REMARK VINA RESULT:    -4.328      1.927      6.972
REMARK INTER + INTRA:          -6.909
REMARK INTER:                  -6.289
REMARK INTRA:                  -0.620
REMARK UNBOUND:                -0.303
REMARK SMILES O=C([O-])CCCCCCCCC(=O)[O-]
REMARK SMILES IDX 7 1 6 2 5 3 4 4 2 5 1 6 3 7 8 8 9 9 10 10 11 11 12 12 13 13
REMARK SMILES IDX 14 14
REMARK H PARENT
REMARK Flexibility Score: inf
ROOT
ATOM      1  C   UNL     1      44.905   9.180  17.767  1.00  0.00     0.000 C 
ENDROOT
BRANCH   1   2
ATOM      2  C   UNL     1      45.239   7.730  17.387  1.00  0.00     0.000 C 
BRANCH   2   3
ATOM      3  C   UNL     1      46.744   7.494  17.166  1.00  0.00     0.006 C 
BRANCH   3   4
ATOM      4  C   UNL     1      47.115   6.022  16.912  1.00  0.00     0.053 C 
BRANCH   4   5
ATOM      5  C   UNL     1      47.200   5.694  15.452  1.00  0.00     0.041 C 
ATOM      6  O   UNL     1      48.226   5.129  14.989  1.00  0.00    -0.550 OA
ATOM      7  O   UNL     1      46.135   5.981  14.607  1.00  0.00    -0.550 OA
ENDBRANCH   4   5
ENDBRANCH   3   4
ENDBRANCH   2   3
ENDBRANCH   1   2
BRANCH   1   8
ATOM      8  C   UNL     1      45.468   9.529  19.151  1.00  0.00     0.000 C 
BRANCH   8   9
ATOM      9  C   UNL     1      44.668   8.835  20.262  1.00  0.00     0.000 C 
BRANCH   9  10
ATOM     10  C   UNL     1      45.545   8.376  21.441  1.00  0.00     0.006 C 
BRANCH  10  11
ATOM     11  C   UNL     1      46.748   7.511  21.026  1.00  0.00     0.053 C 
BRANCH  11  12
ATOM     12  C   UNL     1      47.739   7.334  22.135  1.00  0.00     0.041 C 
ATOM     13  O   UNL     1      48.221   6.196  22.377  1.00  0.00    -0.550 OA
ATOM     14  O   UNL     1      48.158   8.430  22.880  1.00  0.00    -0.550 OA
ENDBRANCH  11  12
ENDBRANCH  10  11
ENDBRANCH   9  10
ENDBRANCH   8   9
ENDBRANCH   1   8
TORSDOF 9
ENDMDL
MODEL 7
REMARK VINA RESULT:    -4.316      1.969      2.705
REMARK INTER + INTRA:          -6.890
REMARK INTER:                  -6.463
REMARK INTRA:                  -0.426
REMARK UNBOUND:                -0.303
REMARK SMILES O=C([O-])CCCCCCCCC(=O)[O-]
REMARK SMILES IDX 7 1 6 2 5 3 4 4 2 5 1 6 3 7 8 8 9 9 10 10 11 11 12 12 13 13
REMARK SMILES IDX 14 14
REMARK H PARENT
REMARK Flexibility Score: inf
ROOT
ATOM      1  C   UNL     1      45.875   8.021  18.099  1.00  0.00     0.000 C 
ENDROOT
BRANCH   1   2
ATOM      2  C   UNL     1      45.659   9.067  19.201  1.00  0.00     0.000 C 
BRANCH   2   3
ATOM      3  C   UNL     1      45.765   8.480  20.620  1.00  0.00     0.006 C 
BRANCH   3   4
ATOM      4  C   UNL     1      46.782   7.332  20.747  1.00  0.00     0.053 C 
BRANCH   4   5
ATOM      5  C   UNL     1      47.567   7.395  22.022  1.00  0.00     0.041 C 
ATOM      6  O   UNL     1      47.547   8.439  22.725  1.00  0.00    -0.550 OA
ATOM      7  O   UNL     1      48.292   6.291  22.452  1.00  0.00    -0.550 OA
ENDBRANCH   4   5
ENDBRANCH   3   4
ENDBRANCH   2   3
ENDBRANCH   1   2
BRANCH   1   8
ATOM      8  C   UNL     1      44.604   7.837  17.259  1.00  0.00     0.000 C 
BRANCH   8   9
ATOM      9  C   UNL     1      44.864   6.907  16.065  1.00  0.00     0.000 C 
BRANCH   9  10
ATOM     10  C   UNL     1      46.210   7.178  15.369  1.00  0.00     0.006 C 
BRANCH  10  11
ATOM     11  C   UNL     1      46.648   6.065  14.401  1.00  0.00     0.053 C 
BRANCH  11  12
ATOM     12  C   UNL     1      47.607   5.101  15.029  1.00  0.00     0.041 C 
ATOM     13  O   UNL     1      48.218   4.261  14.318  1.00  0.00    -0.550 OA
ATOM     14  O   UNL     1      47.855   5.152  16.396  1.00  0.00    -0.550 OA
ENDBRANCH  11  12
ENDBRANCH  10  11
ENDBRANCH   9  10
ENDBRANCH   8   9
ENDBRANCH   1   8
TORSDOF 9
ENDMDL
MODEL 8
REMARK VINA RESULT:    -4.303      2.250      7.503
REMARK INTER + INTRA:          -6.870
REMARK INTER:                  -6.365
REMARK INTRA:                  -0.505
REMARK UNBOUND:                -0.303
REMARK SMILES O=C([O-])CCCCCCCCC(=O)[O-]
REMARK SMILES IDX 7 1 6 2 5 3 4 4 2 5 1 6 3 7 8 8 9 9 10 10 11 11 12 12 13 13
REMARK SMILES IDX 14 14
REMARK H PARENT
REMARK Flexibility Score: inf
ROOT
ATOM      1  C   UNL     1      46.412   6.636  17.896  1.00  0.00     0.000 C 
ENDROOT
BRANCH   1   2
ATOM      2  C   UNL     1      46.744   7.641  16.784  1.00  0.00     0.000 C 
BRANCH   2   3
ATOM      3  C   UNL     1      45.531   7.985  15.900  1.00  0.00     0.006 C 
BRANCH   3   4
ATOM      4  C   UNL     1      44.345   7.018  16.063  1.00  0.00     0.053 C 
BRANCH   4   5
ATOM      5  C   UNL     1      43.994   6.317  14.785  1.00  0.00     0.041 C 
ATOM      6  O   UNL     1      42.989   6.682  14.120  1.00  0.00    -0.550 OA
ATOM      7  O   UNL     1      44.794   5.285  14.311  1.00  0.00    -0.550 OA
ENDBRANCH   4   5
ENDBRANCH   3   4
ENDBRANCH   2   3
ENDBRANCH   1   2
BRANCH   1   8
ATOM      8  C   UNL     1      46.755   7.211  19.277  1.00  0.00     0.000 C 
BRANCH   8   9
ATOM      9  C   UNL     1      45.756   8.305  19.681  1.00  0.00     0.000 C 
BRANCH   9  10
ATOM     10  C   UNL     1      45.673   8.515  21.204  1.00  0.00     0.006 C 
BRANCH  10  11
ATOM     11  C   UNL     1      46.800   7.823  21.992  1.00  0.00     0.053 C 
BRANCH  11  12
ATOM     12  C   UNL     1      47.546   8.771  22.880  1.00  0.00     0.041 C 
ATOM     13  O   UNL     1      48.767   8.583  23.123  1.00  0.00    -0.550 OA
ATOM     14  O   UNL     1      46.904   9.884  23.412  1.00  0.00    -0.550 OA
ENDBRANCH  11  12
ENDBRANCH  10  11
ENDBRANCH   9  10
ENDBRANCH   8   9
ENDBRANCH   1   8
TORSDOF 9
ENDMDL
MODEL 9
REMARK VINA RESULT:    -4.241      1.685      2.152
REMARK INTER + INTRA:          -6.775
REMARK INTER:                  -6.263
REMARK INTRA:                  -0.512
REMARK UNBOUND:                -0.303
REMARK SMILES O=C([O-])CCCCCCCCC(=O)[O-]
REMARK SMILES IDX 7 1 6 2 5 3 4 4 2 5 1 6 3 7 8 8 9 9 10 10 11 11 12 12 13 13
REMARK SMILES IDX 14 14
REMARK H PARENT
REMARK Flexibility Score: inf
ROOT
ATOM      1  C   UNL     1      46.666   7.160  18.629  1.00  0.00     0.000 C 
ENDROOT
BRANCH   1   2
ATOM      2  C   UNL     1      46.781   6.795  20.116  1.00  0.00     0.000 C 
BRANCH   2   3
ATOM      3  C   UNL     1      46.403   7.956  21.054  1.00  0.00     0.006 C 
BRANCH   3   4
ATOM      4  C   UNL     1      47.165   7.951  22.392  1.00  0.00     0.053 C 
BRANCH   4   5
ATOM      5  C   UNL     1      46.643   8.973  23.355  1.00  0.00     0.041 C 
ATOM      6  O   UNL     1      45.729   8.669  24.166  1.00  0.00    -0.550 OA
ATOM      7  O   UNL     1      47.188  10.251  23.382  1.00  0.00    -0.550 OA
ENDBRANCH   4   5
ENDBRANCH   3   4
ENDBRANCH   2   3
ENDBRANCH   1   2
BRANCH   1   8
ATOM      8  C   UNL     1      45.842   8.441  18.439  1.00  0.00     0.000 C 
BRANCH   8   9
ATOM      9  C   UNL     1      44.453   8.121  17.870  1.00  0.00     0.000 C 
BRANCH   9  10
ATOM     10  C   UNL     1      44.428   8.065  16.332  1.00  0.00     0.006 C 
BRANCH  10  11
ATOM     11  C   UNL     1      44.315   6.641  15.760  1.00  0.00     0.053 C 
BRANCH  11  12
ATOM     12  C   UNL     1      45.531   6.235  14.984  1.00  0.00     0.041 C 
ATOM     13  O   UNL     1      46.591   6.908  15.071  1.00  0.00    -0.550 OA
ATOM     14  O   UNL     1      45.505   5.094  14.191  1.00  0.00    -0.550 OA
ENDBRANCH  11  12
ENDBRANCH  10  11
ENDBRANCH   9  10
ENDBRANCH   8   9
ENDBRANCH   1   8
TORSDOF 9
ENDMDL
