MODEL 1
REMARK VINA RESULT:    -6.348      0.000      0.000
REMARK INTER + INTRA:          -6.979
REMARK INTER:                  -6.904
REMARK INTRA:                  -0.074
REMARK UNBOUND:                -0.074
REMARK SMILES Cc1ccc(C(C)C)c(O)c1
REMARK SMILES IDX 1 1 2 2 11 3 9 4 5 5 4 6 3 7 10 8 6 10 7 11 8 12
REMARK H PARENT 10 9
REMARK Flexibility Score: inf
ROOT
ATOM      1  C   UNL     1     367.712 243.785 277.156  1.00  0.00     0.044 C 
ATOM      2  C   UNL     1     369.169 243.572 276.871  1.00  0.00    -0.047 A 
ATOM      3  C   UNL     1     369.568 242.778 275.788  1.00  0.00     0.049 A 
ATOM      4  C   UNL     1     370.928 242.603 275.491  1.00  0.00     0.119 A 
ATOM      5  C   UNL     1     371.911 243.240 276.279  1.00  0.00    -0.004 A 
ATOM      6  C   UNL     1     371.497 244.053 277.354  1.00  0.00     0.008 A 
ATOM      7  C   UNL     1     370.142 244.221 277.641  1.00  0.00     0.004 A 
ENDROOT
BRANCH   4   8
ATOM      8  O   UNL     1     371.297 241.799 274.411  1.00  0.00    -0.508 OA
ATOM      9  H   UNL     1     370.676 241.093 274.036  1.00  0.00     0.293 HD
ENDBRANCH   4   8
BRANCH   5  10
ATOM     10  C   UNL     1     373.393 243.067 275.978  1.00  0.00     0.017 C 
ATOM     11  C   UNL     1     374.228 244.148 276.675  1.00  0.00     0.012 C 
ATOM     12  C   UNL     1     373.875 241.662 276.364  1.00  0.00     0.012 C 
ENDBRANCH   5  10
TORSDOF 2
ENDMDL
MODEL 2
REMARK VINA RESULT:    -5.668      1.634      2.350
REMARK INTER + INTRA:          -6.239
REMARK INTER:                  -6.082
REMARK INTRA:                  -0.157
REMARK UNBOUND:                -0.074
REMARK SMILES Cc1ccc(C(C)C)c(O)c1
REMARK SMILES IDX 1 1 2 2 11 3 9 4 5 5 4 6 3 7 10 8 6 10 7 11 8 12
REMARK H PARENT 10 9
REMARK Flexibility Score: inf
ROOT
ATOM      1  C   UNL     1     369.185 244.667 277.729  1.00  0.00     0.044 C 
ATOM      2  C   UNL     1     370.217 243.778 277.101  1.00  0.00    -0.047 A 
ATOM      3  C   UNL     1     371.427 244.315 276.642  1.00  0.00     0.049 A 
ATOM      4  C   UNL     1     372.413 243.485 276.088  1.00  0.00     0.119 A 
ATOM      5  C   UNL     1     372.196 242.092 275.998  1.00  0.00    -0.004 A 
ATOM      6  C   UNL     1     370.984 241.561 276.482  1.00  0.00     0.008 A 
ATOM      7  C   UNL     1     370.009 242.395 277.033  1.00  0.00     0.004 A 
ENDROOT
BRANCH   4   8
ATOM      8  O   UNL     1     373.605 244.047 275.629  1.00  0.00    -0.508 OA
ATOM      9  H   UNL     1     374.048 244.822 276.109  1.00  0.00     0.293 HD
ENDBRANCH   4   8
BRANCH   5  10
ATOM     10  C   UNL     1     373.251 241.171 275.401  1.00  0.00     0.017 C 
ATOM     11  C   UNL     1     374.334 240.830 276.432  1.00  0.00     0.012 C 
ATOM     12  C   UNL     1     372.613 239.898 274.830  1.00  0.00     0.012 C 
ENDBRANCH   5  10
TORSDOF 2
ENDMDL
MODEL 3
REMARK VINA RESULT:    -5.632      1.228      4.024
REMARK INTER + INTRA:          -6.200
REMARK INTER:                  -6.006
REMARK INTRA:                  -0.194
REMARK UNBOUND:                -0.074
REMARK SMILES Cc1ccc(C(C)C)c(O)c1
REMARK SMILES IDX 1 1 2 2 11 3 9 4 5 5 4 6 3 7 10 8 6 10 7 11 8 12
REMARK H PARENT 10 9
REMARK Flexibility Score: inf
ROOT
ATOM      1  C   UNL     1     374.588 244.301 276.672  1.00  0.00     0.044 C 
ATOM      2  C   UNL     1     373.262 243.648 276.412  1.00  0.00    -0.047 A 
ATOM      3  C   UNL     1     373.201 242.398 275.784  1.00  0.00     0.049 A 
ATOM      4  C   UNL     1     371.968 241.763 275.572  1.00  0.00     0.119 A 
ATOM      5  C   UNL     1     370.773 242.380 276.002  1.00  0.00    -0.004 A 
ATOM      6  C   UNL     1     370.848 243.629 276.651  1.00  0.00     0.008 A 
ATOM      7  C   UNL     1     372.080 244.252 276.859  1.00  0.00     0.004 A 
ENDROOT
BRANCH   4   8
ATOM      8  O   UNL     1     371.936 240.522 274.935  1.00  0.00    -0.508 OA
ATOM      9  H   UNL     1     371.197 239.852 275.112  1.00  0.00     0.293 HD
ENDBRANCH   4   8
BRANCH   5  10
ATOM     10  C   UNL     1     369.423 241.712 275.783  1.00  0.00     0.017 C 
ATOM     11  C   UNL     1     369.060 240.800 276.961  1.00  0.00     0.012 C 
ATOM     12  C   UNL     1     368.324 242.755 275.534  1.00  0.00     0.012 C 
ENDBRANCH   5  10
TORSDOF 2
ENDMDL
MODEL 4
REMARK VINA RESULT:    -5.544      1.603      4.372
REMARK INTER + INTRA:          -6.104
REMARK INTER:                  -5.905
REMARK INTRA:                  -0.199
REMARK UNBOUND:                -0.074
REMARK SMILES Cc1ccc(C(C)C)c(O)c1
REMARK SMILES IDX 1 1 2 2 11 3 9 4 5 5 4 6 3 7 10 8 6 10 7 11 8 12
REMARK H PARENT 10 9
REMARK Flexibility Score: inf
ROOT
ATOM      1  C   UNL     1     374.236 239.878 275.929  1.00  0.00     0.044 C 
ATOM      2  C   UNL     1     373.156 240.899 276.130  1.00  0.00    -0.047 A 
ATOM      3  C   UNL     1     373.422 242.259 275.921  1.00  0.00     0.049 A 
ATOM      4  C   UNL     1     372.408 243.217 276.070  1.00  0.00     0.119 A 
ATOM      5  C   UNL     1     371.102 242.815 276.422  1.00  0.00    -0.004 A 
ATOM      6  C   UNL     1     370.841 241.443 276.610  1.00  0.00     0.008 A 
ATOM      7  C   UNL     1     371.856 240.496 276.459  1.00  0.00     0.004 A 
ENDROOT
BRANCH   4   8
ATOM      8  O   UNL     1     372.703 244.566 275.864  1.00  0.00    -0.508 OA
ATOM      9  H   UNL     1     373.520 245.001 276.275  1.00  0.00     0.293 HD
ENDBRANCH   4   8
BRANCH   5  10
ATOM     10  C   UNL     1     369.984 243.835 276.590  1.00  0.00     0.017 C 
ATOM     11  C   UNL     1     368.645 243.274 276.096  1.00  0.00     0.012 C 
ATOM     12  C   UNL     1     369.881 244.308 278.045  1.00  0.00     0.012 C 
ENDBRANCH   5  10
TORSDOF 2
ENDMDL
MODEL 5
REMARK VINA RESULT:    -5.479      1.771      2.386
REMARK INTER + INTRA:          -6.033
REMARK INTER:                  -5.837
REMARK INTRA:                  -0.196
REMARK UNBOUND:                -0.074
REMARK SMILES Cc1ccc(C(C)C)c(O)c1
REMARK SMILES IDX 1 1 2 2 11 3 9 4 5 5 4 6 3 7 10 8 6 10 7 11 8 12
REMARK H PARENT 10 9
REMARK Flexibility Score: inf
ROOT
ATOM      1  C   UNL     1     369.110 244.875 277.567  1.00  0.00     0.044 C 
ATOM      2  C   UNL     1     370.038 243.752 277.209  1.00  0.00    -0.047 A 
ATOM      3  C   UNL     1     369.635 242.421 277.379  1.00  0.00     0.049 A 
ATOM      4  C   UNL     1     370.481 241.365 277.012  1.00  0.00     0.119 A 
ATOM      5  C   UNL     1     371.750 241.637 276.454  1.00  0.00    -0.004 A 
ATOM      6  C   UNL     1     372.136 242.979 276.268  1.00  0.00     0.008 A 
ATOM      7  C   UNL     1     371.286 244.024 276.636  1.00  0.00     0.004 A 
ENDROOT
BRANCH   4   8
ATOM      8  O   UNL     1     370.058 240.048 277.201  1.00  0.00    -0.508 OA
ATOM      9  H   UNL     1     370.231 239.552 278.067  1.00  0.00     0.293 HD
ENDBRANCH   4   8
BRANCH   5  10
ATOM     10  C   UNL     1     372.687 240.508 276.047  1.00  0.00     0.017 C 
ATOM     11  C   UNL     1     372.457 240.098 274.587  1.00  0.00     0.012 C 
ATOM     12  C   UNL     1     374.152 240.893 276.287  1.00  0.00     0.012 C 
ENDBRANCH   5  10
TORSDOF 2
ENDMDL
MODEL 6
REMARK VINA RESULT:    -5.402      1.947      2.827
REMARK INTER + INTRA:          -5.950
REMARK INTER:                  -5.750
REMARK INTRA:                  -0.200
REMARK UNBOUND:                -0.074
REMARK SMILES Cc1ccc(C(C)C)c(O)c1
REMARK SMILES IDX 1 1 2 2 11 3 9 4 5 5 4 6 3 7 10 8 6 10 7 11 8 12
REMARK H PARENT 10 9
REMARK Flexibility Score: inf
ROOT
ATOM      1  C   UNL     1     369.330 240.099 276.021  1.00  0.00     0.044 C 
ATOM      2  C   UNL     1     370.327 241.219 276.032  1.00  0.00    -0.047 A 
ATOM      3  C   UNL     1     370.148 242.316 276.886  1.00  0.00     0.049 A 
ATOM      4  C   UNL     1     371.095 243.350 276.930  1.00  0.00     0.119 A 
ATOM      5  C   UNL     1     372.248 243.288 276.118  1.00  0.00    -0.004 A 
ATOM      6  C   UNL     1     372.428 242.170 275.278  1.00  0.00     0.008 A 
ATOM      7  C   UNL     1     371.480 241.146 275.241  1.00  0.00     0.004 A 
ENDROOT
BRANCH   4   8
ATOM      8  O   UNL     1     370.887 244.435 277.783  1.00  0.00    -0.508 OA
ATOM      9  H   UNL     1     371.159 245.375 277.525  1.00  0.00     0.293 HD
ENDBRANCH   4   8
BRANCH   5  10
ATOM     10  C   UNL     1     373.290 244.397 276.148  1.00  0.00     0.017 C 
ATOM     11  C   UNL     1     374.454 244.037 277.079  1.00  0.00     0.012 C 
ATOM     12  C   UNL     1     373.793 244.721 274.735  1.00  0.00     0.012 C 
ENDBRANCH   5  10
TORSDOF 2
ENDMDL
MODEL 7
REMARK VINA RESULT:    -5.241      1.820      4.315
REMARK INTER + INTRA:          -5.775
REMARK INTER:                  -5.591
REMARK INTRA:                  -0.184
REMARK UNBOUND:                -0.074
REMARK SMILES Cc1ccc(C(C)C)c(O)c1
REMARK SMILES IDX 1 1 2 2 11 3 9 4 5 5 4 6 3 7 10 8 6 10 7 11 8 12
REMARK H PARENT 10 9
REMARK Flexibility Score: inf
ROOT
ATOM      1  C   UNL     1     374.603 244.340 276.503  1.00  0.00     0.044 C 
ATOM      2  C   UNL     1     373.223 243.752 276.514  1.00  0.00    -0.047 A 
ATOM      3  C   UNL     1     372.198 244.368 277.243  1.00  0.00     0.049 A 
ATOM      4  C   UNL     1     370.896 243.847 277.228  1.00  0.00     0.119 A 
ATOM      5  C   UNL     1     370.604 242.695 276.465  1.00  0.00    -0.004 A 
ATOM      6  C   UNL     1     371.639 242.095 275.719  1.00  0.00     0.008 A 
ATOM      7  C   UNL     1     372.931 242.622 275.739  1.00  0.00     0.004 A 
ENDROOT
BRANCH   4   8
ATOM      8  O   UNL     1     369.896 244.476 277.971  1.00  0.00    -0.508 OA
ATOM      9  H   UNL     1     369.887 244.449 278.983  1.00  0.00     0.293 HD
ENDBRANCH   4   8
BRANCH   5  10
ATOM     10  C   UNL     1     369.199 242.110 276.432  1.00  0.00     0.017 C 
ATOM     11  C   UNL     1     368.343 242.789 275.356  1.00  0.00     0.012 C 
ATOM     12  C   UNL     1     369.238 240.590 276.227  1.00  0.00     0.012 C 
ENDBRANCH   5  10
TORSDOF 2
ENDMDL
MODEL 8
REMARK VINA RESULT:    -5.222      1.794      3.174
REMARK INTER + INTRA:          -5.754
REMARK INTER:                  -5.753
REMARK INTRA:                  -0.002
REMARK UNBOUND:                -0.074
REMARK SMILES Cc1ccc(C(C)C)c(O)c1
REMARK SMILES IDX 1 1 2 2 11 3 9 4 5 5 4 6 3 7 10 8 6 10 7 11 8 12
REMARK H PARENT 10 9
REMARK Flexibility Score: inf
ROOT
ATOM      1  C   UNL     1     365.448 245.098 274.771  1.00  0.00     0.044 C 
ATOM      2  C   UNL     1     366.717 244.725 275.478  1.00  0.00    -0.047 A 
ATOM      3  C   UNL     1     367.532 243.703 274.973  1.00  0.00     0.049 A 
ATOM      4  C   UNL     1     368.740 243.373 275.607  1.00  0.00     0.119 A 
ATOM      5  C   UNL     1     369.150 244.079 276.758  1.00  0.00    -0.004 A 
ATOM      6  C   UNL     1     368.333 245.119 277.245  1.00  0.00     0.008 A 
ATOM      7  C   UNL     1     367.133 245.441 276.607  1.00  0.00     0.004 A 
ENDROOT
BRANCH   4   8
ATOM      8  O   UNL     1     369.528 242.344 275.088  1.00  0.00    -0.508 OA
ATOM      9  H   UNL     1     370.511 242.477 274.884  1.00  0.00     0.293 HD
ENDBRANCH   4   8
BRANCH   5  10
ATOM     10  C   UNL     1     370.456 243.740 277.463  1.00  0.00     0.017 C 
ATOM     11  C   UNL     1     371.665 244.092 276.587  1.00  0.00     0.012 C 
ATOM     12  C   UNL     1     370.544 244.434 278.829  1.00  0.00     0.012 C 
ENDBRANCH   5  10
TORSDOF 2
ENDMDL
MODEL 9
REMARK VINA RESULT:    -5.153      1.909      2.880
REMARK INTER + INTRA:          -5.679
REMARK INTER:                  -5.526
REMARK INTRA:                  -0.153
REMARK UNBOUND:                -0.074
REMARK SMILES Cc1ccc(C(C)C)c(O)c1
REMARK SMILES IDX 1 1 2 2 11 3 9 4 5 5 4 6 3 7 10 8 6 10 7 11 8 12
REMARK H PARENT 10 9
REMARK Flexibility Score: inf
ROOT
ATOM      1  C   UNL     1     366.171 244.536 276.286  1.00  0.00     0.044 C 
ATOM      2  C   UNL     1     367.618 244.144 276.348  1.00  0.00    -0.047 A 
ATOM      3  C   UNL     1     368.416 244.557 277.422  1.00  0.00     0.049 A 
ATOM      4  C   UNL     1     369.760 244.164 277.507  1.00  0.00     0.119 A 
ATOM      5  C   UNL     1     370.318 243.334 276.510  1.00  0.00    -0.004 A 
ATOM      6  C   UNL     1     369.500 242.908 275.445  1.00  0.00     0.008 A 
ATOM      7  C   UNL     1     368.163 243.304 275.369  1.00  0.00     0.004 A 
ENDROOT
BRANCH   4   8
ATOM      8  O   UNL     1     370.536 244.598 278.583  1.00  0.00    -0.508 OA
ATOM      9  H   UNL     1     371.529 244.405 278.637  1.00  0.00     0.293 HD
ENDBRANCH   4   8
BRANCH   5  10
ATOM     10  C   UNL     1     371.774 242.894 276.579  1.00  0.00     0.017 C 
ATOM     11  C   UNL     1     371.991 241.581 275.817  1.00  0.00     0.012 C 
ATOM     12  C   UNL     1     372.710 243.994 276.061  1.00  0.00     0.012 C 
ENDBRANCH   5  10
TORSDOF 2
ENDMDL
