MODEL 1
REMARK VINA RESULT:    -6.348      0.000      0.000
REMARK INTER + INTRA:          -9.359
REMARK INTER:                 -10.430
REMARK INTRA:                   1.071
REMARK UNBOUND:                 1.071
REMARK SMILES COc1ccc([C@H]2CC(=O)c3c(O)cc(O[C@H]4O[C@H](CO[C@H]5O[C@@H](C)[C@@H](O)[C@H](O)[C@H]5O)[C@H](O)[C@H](O)[C@@H]4O)cc3O2)cc1O
REMARK SMILES IDX 19 1 32 2 34 3 36 4 17 5 18 6 20 7 21 8 22 9 25 10 24 11
REMARK SMILES IDX 26 12 23 13 28 14 30 15 27 16 29 18 31 20 33 22 35 24 16 26
REMARK SMILES IDX 15 27 14 28 38 29 12 30 39 31 11 32 40 33 9 34 7 35 10 36
REMARK SMILES IDX 8 37 13 38 6 40 41 41 5 42 42 43 4 44 3 45 43 46 2 48 1 49
REMARK SMILES IDX 37 50
REMARK H PARENT 27 17 29 19 31 21 33 23 35 25 13 39 43 47 37 51
REMARK Flexibility Score: inf
ROOT
ATOM      1  C   UNL     1      -1.538 -19.299  35.886  1.00  0.00     0.180 C 
ATOM      2  C   UNL     1      -1.064 -18.696  34.523  1.00  0.00     0.177 C 
ATOM      3  C   UNL     1      -2.183 -18.883  33.491  1.00  0.00     0.180 C 
ATOM      4  C   UNL     1      -3.502 -18.219  33.968  1.00  0.00     0.214 C 
ATOM      5  C   UNL     1      -3.562 -18.126  35.513  1.00  0.00     0.339 C 
ATOM      6  O   UNL     1      -2.948 -19.258  36.105  1.00  0.00    -0.332 OA
ENDROOT
BRANCH   1   7
ATOM      7  C   UNL     1      -0.787 -18.745  37.124  1.00  0.00     0.198 C 
BRANCH   7   8
ATOM      8  O   UNL     1       0.590 -18.597  36.837  1.00  0.00    -0.347 OA
BRANCH   8   9
ATOM      9  C   UNL     1       1.260 -19.845  36.770  1.00  0.00     0.281 C 
ATOM     10  C   UNL     1      -0.167 -23.213  36.983  1.00  0.00     0.041 C 
ATOM     11  C   UNL     1       0.922 -22.147  37.120  1.00  0.00     0.150 C 
ATOM     12  C   UNL     1       2.130 -22.391  36.158  1.00  0.00     0.174 C 
ATOM     13  O   UNL     1       0.302 -20.876  36.917  1.00  0.00    -0.344 OA
ATOM     14  C   UNL     1       2.044 -21.442  34.941  1.00  0.00     0.179 C 
ATOM     15  C   UNL     1       1.971 -19.969  35.396  1.00  0.00     0.202 C 
BRANCH  12  16
ATOM     16  O   UNL     1       2.261 -23.738  35.767  1.00  0.00    -0.388 OA
ATOM     17  H   UNL     1       2.627 -23.744  34.846  1.00  0.00     0.211 HD
ENDBRANCH  12  16
BRANCH  14  18
ATOM     18  O   UNL     1       3.123 -21.634  34.063  1.00  0.00    -0.387 OA
ATOM     19  H   UNL     1       3.787 -22.204  34.533  1.00  0.00     0.211 HD
ENDBRANCH  14  18
BRANCH  15  20
ATOM     20  O   UNL     1       1.293 -19.215  34.424  1.00  0.00    -0.385 OA
ATOM     21  H   UNL     1       0.390 -19.040  34.797  1.00  0.00     0.211 HD
ENDBRANCH  15  20
ENDBRANCH   8   9
ENDBRANCH   7   8
ENDBRANCH   1   7
BRANCH   2  22
ATOM     22  O   UNL     1      -0.748 -17.332  34.651  1.00  0.00    -0.387 OA
ATOM     23  H   UNL     1      -1.300 -16.978  35.404  1.00  0.00     0.211 HD
ENDBRANCH   2  22
BRANCH   3  24
ATOM     24  O   UNL     1      -1.793 -18.386  32.234  1.00  0.00    -0.387 OA
ATOM     25  H   UNL     1      -0.804 -18.322  32.236  1.00  0.00     0.211 HD
ENDBRANCH   3  24
BRANCH   5  26
ATOM     26  O   UNL     1      -4.935 -18.115  35.904  1.00  0.00    -0.462 OA
BRANCH  26  27
ATOM     27  C   UNL     1      -5.928 -19.041  35.547  1.00  0.00     0.130 A 
ATOM     28  C   UNL     1      -7.251 -18.983  36.031  1.00  0.00     0.093 A 
ATOM     29  C   UNL     1      -5.586 -20.027  34.617  1.00  0.00     0.094 A 
ATOM     30  C   UNL     1      -8.230 -19.864  35.534  1.00  0.00     0.133 A 
ATOM     31  C   UNL     1      -6.544 -20.924  34.136  1.00  0.00     0.138 A 
ATOM     32  C   UNL     1      -7.871 -20.845  34.588  1.00  0.00     0.102 A 
ATOM     33  O   UNL     1      -6.160 -21.907  33.210  1.00  0.00    -0.484 OA
ATOM     34  C   UNL     1      -8.853 -21.782  34.008  1.00  0.00     0.174 C 
ATOM     35  C   UNL     1      -7.041 -22.921  32.704  1.00  0.00     0.211 C 
ATOM     36  O   UNL     1      -9.931 -22.048  34.608  1.00  0.00    -0.294 OA
ATOM     37  C   UNL     1      -8.517 -22.462  32.716  1.00  0.00     0.131 C 
BRANCH  30  38
ATOM     38  O   UNL     1      -9.550 -19.756  35.966  1.00  0.00    -0.507 OA
ATOM     39  H   UNL     1     -10.145 -18.985  35.677  1.00  0.00     0.293 HD
ENDBRANCH  30  38
BRANCH  35  40
ATOM     40  C   UNL     1      -6.878 -24.226  33.463  1.00  0.00    -0.003 A 
ATOM     41  C   UNL     1      -7.262 -25.429  32.842  1.00  0.00     0.057 A 
ATOM     42  C   UNL     1      -6.473 -24.251  34.804  1.00  0.00     0.011 A 
ATOM     43  C   UNL     1      -7.232 -26.638  33.548  1.00  0.00     0.158 A 
ATOM     44  C   UNL     1      -6.458 -25.450  35.507  1.00  0.00     0.051 A 
ATOM     45  C   UNL     1      -6.844 -26.651  34.885  1.00  0.00     0.160 A 
BRANCH  43  46
ATOM     46  O   UNL     1      -7.592 -27.830  32.924  1.00  0.00    -0.504 OA
ATOM     47  H   UNL     1      -8.518 -28.228  33.051  1.00  0.00     0.293 HD
ENDBRANCH  43  46
BRANCH  45  48
ATOM     48  O   UNL     1      -6.890 -27.872  35.576  1.00  0.00    -0.493 OA
ATOM     49  C   UNL     1      -7.918 -28.205  36.512  1.00  0.00     0.278 C 
ENDBRANCH  45  48
ENDBRANCH  35  40
ENDBRANCH  26  27
ENDBRANCH   5  26
BRANCH   4  50
ATOM     50  O   UNL     1      -3.695 -16.946  33.395  1.00  0.00    -0.384 OA
ATOM     51  H   UNL     1      -2.820 -16.632  33.050  1.00  0.00     0.211 HD
ENDBRANCH   4  50
TORSDOF 15
ENDMDL
