MODEL 1
REMARK VINA RESULT:    -5.669      0.000      0.000
REMARK INTER + INTRA:          -5.835
REMARK INTER:                  -5.835
REMARK INTRA:                   0.000
REMARK UNBOUND:                 0.000
REMARK SMILES C=C1[C@H](O)C[C@]23C[C@H]1C(C)(C)[C@@H]2CC[C@H]3C
REMARK SMILES IDX 16 1 15 2 14 3 13 4 12 5 6 6 7 7 8 8 9 9 10 10 11 11 2 12
REMARK SMILES IDX 1 13 3 14 5 15 4 16
REMARK H PARENT 4 17
REMARK Flexibility Score: inf
ROOT
ATOM      1  C   UNL     1     114.750 120.781 134.182  1.00  0.00     0.008 C 
ATOM      2  C   UNL     1     115.760 120.161 133.200  1.00  0.00    -0.008 C 
ATOM      3  C   UNL     1     117.230 120.251 133.724  1.00  0.00     0.004 C 
ATOM      4  C   UNL     1     117.983 121.282 132.845  1.00  0.00     0.005 C 
ATOM      5  C   UNL     1     116.844 121.962 132.115  1.00  0.00     0.002 C 
ATOM      6  C   UNL     1     115.830 120.866 131.823  1.00  0.00    -0.020 C 
ATOM      7  C   UNL     1     114.711 121.722 131.243  1.00  0.00     0.016 C 
ATOM      8  C   UNL     1     115.517 122.522 130.181  1.00  0.00     0.023 C 
ATOM      9  C   UNL     1     116.908 122.854 130.859  1.00  0.00    -0.025 C 
ATOM     10  C   UNL     1     118.169 122.569 130.003  1.00  0.00     0.012 C 
ATOM     11  C   UNL     1     116.940 124.352 131.247  1.00  0.00     0.012 C 
ATOM     12  C   UNL     1     115.684 121.606 128.990  1.00  0.00    -0.045 C 
ATOM     13  C   UNL     1     115.625 122.089 127.740  1.00  0.00     0.011 C 
ATOM     14  C   UNL     1     115.961 120.137 129.230  1.00  0.00     0.140 C 
ATOM     15  C   UNL     1     116.281 119.806 130.726  1.00  0.00     0.044 C 
ENDROOT
BRANCH  14  16
ATOM     16  O   UNL     1     114.840 119.403 128.805  1.00  0.00    -0.389 OA
ATOM     17  H   UNL     1     115.184 118.573 128.380  1.00  0.00     0.211 HD
ENDBRANCH  14  16
TORSDOF 1
ENDMDL
MODEL 2
REMARK VINA RESULT:    -5.534      1.893      3.298
REMARK INTER + INTRA:          -5.696
REMARK INTER:                  -5.696
REMARK INTRA:                   0.000
REMARK UNBOUND:                 0.000
REMARK SMILES C=C1[C@H](O)C[C@]23C[C@H]1C(C)(C)[C@@H]2CC[C@H]3C
REMARK SMILES IDX 16 1 15 2 14 3 13 4 12 5 6 6 7 7 8 8 9 9 10 10 11 11 2 12
REMARK SMILES IDX 1 13 3 14 5 15 4 16
REMARK H PARENT 4 17
REMARK Flexibility Score: inf
ROOT
ATOM      1  C   UNL     1     117.621 120.338 134.342  1.00  0.00     0.008 C 
ATOM      2  C   UNL     1     116.549 121.210 133.665  1.00  0.00    -0.008 C 
ATOM      3  C   UNL     1     115.126 120.569 133.744  1.00  0.00     0.004 C 
ATOM      4  C   UNL     1     114.735 120.110 132.316  1.00  0.00     0.005 C 
ATOM      5  C   UNL     1     116.059 120.192 131.586  1.00  0.00     0.002 C 
ATOM      6  C   UNL     1     116.760 121.422 132.145  1.00  0.00    -0.020 C 
ATOM      7  C   UNL     1     118.104 121.274 131.440  1.00  0.00     0.016 C 
ATOM      8  C   UNL     1     117.612 121.095 129.977  1.00  0.00     0.023 C 
ATOM      9  C   UNL     1     116.319 120.186 130.066  1.00  0.00    -0.025 C 
ATOM     10  C   UNL     1     115.087 120.673 129.261  1.00  0.00     0.012 C 
ATOM     11  C   UNL     1     116.663 118.761 129.571  1.00  0.00     0.012 C 
ATOM     12  C   UNL     1     117.285 122.478 129.461  1.00  0.00    -0.045 C 
ATOM     13  C   UNL     1     117.553 122.817 128.192  1.00  0.00     0.011 C 
ATOM     14  C   UNL     1     116.611 123.464 130.392  1.00  0.00     0.140 C 
ATOM     15  C   UNL     1     116.116 122.815 131.727  1.00  0.00     0.044 C 
ENDROOT
BRANCH  14  16
ATOM     16  O   UNL     1     117.520 124.500 130.668  1.00  0.00    -0.389 OA
ATOM     17  H   UNL     1     117.797 124.394 131.616  1.00  0.00     0.211 HD
ENDBRANCH  14  16
TORSDOF 1
ENDMDL
MODEL 3
REMARK VINA RESULT:    -5.369      1.571      4.306
REMARK INTER + INTRA:          -5.526
REMARK INTER:                  -5.526
REMARK INTRA:                   0.000
REMARK UNBOUND:                 0.000
REMARK SMILES C=C1[C@H](O)C[C@]23C[C@H]1C(C)(C)[C@@H]2CC[C@H]3C
REMARK SMILES IDX 16 1 15 2 14 3 13 4 12 5 6 6 7 7 8 8 9 9 10 10 11 11 2 12
REMARK SMILES IDX 1 13 3 14 5 15 4 16
REMARK H PARENT 4 17
REMARK Flexibility Score: inf
ROOT
ATOM      1  C   UNL     1     113.991 120.694 126.962  1.00  0.00     0.008 C 
ATOM      2  C   UNL     1     114.072 121.709 128.116  1.00  0.00    -0.008 C 
ATOM      3  C   UNL     1     114.503 123.129 127.628  1.00  0.00     0.004 C 
ATOM      4  C   UNL     1     115.939 123.392 128.149  1.00  0.00     0.005 C 
ATOM      5  C   UNL     1     116.369 122.010 128.594  1.00  0.00     0.002 C 
ATOM      6  C   UNL     1     115.128 121.368 129.196  1.00  0.00    -0.020 C 
ATOM      7  C   UNL     1     115.678 119.968 129.443  1.00  0.00     0.016 C 
ATOM      8  C   UNL     1     116.978 120.330 130.212  1.00  0.00     0.023 C 
ATOM      9  C   UNL     1     117.554 121.620 129.500  1.00  0.00    -0.025 C 
ATOM     10  C   UNL     1     117.983 122.780 130.434  1.00  0.00     0.012 C 
ATOM     11  C   UNL     1     118.788 121.225 128.654  1.00  0.00     0.012 C 
ATOM     12  C   UNL     1     116.567 120.619 131.638  1.00  0.00    -0.045 C 
ATOM     13  C   UNL     1     117.343 120.244 132.665  1.00  0.00     0.011 C 
ATOM     14  C   UNL     1     115.280 121.378 131.888  1.00  0.00     0.140 C 
ATOM     15  C   UNL     1     114.657 121.982 130.586  1.00  0.00     0.044 C 
ENDROOT
BRANCH  14  16
ATOM     16  O   UNL     1     114.365 120.502 132.497  1.00  0.00    -0.389 OA
ATOM     17  H   UNL     1     114.208 120.845 133.416  1.00  0.00     0.211 HD
ENDBRANCH  14  16
TORSDOF 1
ENDMDL
MODEL 4
REMARK VINA RESULT:    -5.368     13.788     15.768
REMARK INTER + INTRA:          -5.525
REMARK INTER:                  -5.525
REMARK INTRA:                   0.000
REMARK UNBOUND:                 0.000
REMARK SMILES C=C1[C@H](O)C[C@]23C[C@H]1C(C)(C)[C@@H]2CC[C@H]3C
REMARK SMILES IDX 16 1 15 2 14 3 13 4 12 5 6 6 7 7 8 8 9 9 10 10 11 11 2 12
REMARK SMILES IDX 1 13 3 14 5 15 4 16
REMARK H PARENT 4 17
REMARK Flexibility Score: inf
ROOT
ATOM      1  C   UNL     1     123.467 119.396 121.615  1.00  0.00     0.008 C 
ATOM      2  C   UNL     1     124.054 119.478 120.195  1.00  0.00    -0.008 C 
ATOM      3  C   UNL     1     123.666 118.243 119.320  1.00  0.00     0.004 C 
ATOM      4  C   UNL     1     124.946 117.395 119.106  1.00  0.00     0.005 C 
ATOM      5  C   UNL     1     125.890 117.987 120.132  1.00  0.00     0.002 C 
ATOM      6  C   UNL     1     125.602 119.482 120.140  1.00  0.00    -0.020 C 
ATOM      7  C   UNL     1     126.498 119.892 121.303  1.00  0.00     0.016 C 
ATOM      8  C   UNL     1     127.828 119.225 120.856  1.00  0.00     0.023 C 
ATOM      9  C   UNL     1     127.421 117.830 120.231  1.00  0.00    -0.025 C 
ATOM     10  C   UNL     1     128.062 117.482 118.863  1.00  0.00     0.012 C 
ATOM     11  C   UNL     1     127.796 116.700 121.219  1.00  0.00     0.012 C 
ATOM     12  C   UNL     1     128.440 120.141 119.820  1.00  0.00    -0.045 C 
ATOM     13  C   UNL     1     129.768 120.327 119.768  1.00  0.00     0.011 C 
ATOM     14  C   UNL     1     127.533 120.815 118.813  1.00  0.00     0.140 C 
ATOM     15  C   UNL     1     126.067 120.265 118.837  1.00  0.00     0.044 C 
ENDROOT
BRANCH  14  16
ATOM     16  O   UNL     1     127.533 122.195 119.075  1.00  0.00    -0.389 OA
ATOM     17  H   UNL     1     126.965 122.621 118.380  1.00  0.00     0.211 HD
ENDBRANCH  14  16
TORSDOF 1
ENDMDL
MODEL 5
REMARK VINA RESULT:    -5.361      1.996      4.700
REMARK INTER + INTRA:          -5.518
REMARK INTER:                  -5.518
REMARK INTRA:                   0.000
REMARK UNBOUND:                 0.000
REMARK SMILES C=C1[C@H](O)C[C@]23C[C@H]1C(C)(C)[C@@H]2CC[C@H]3C
REMARK SMILES IDX 16 1 15 2 14 3 13 4 12 5 6 6 7 7 8 8 9 9 10 10 11 11 2 12
REMARK SMILES IDX 1 13 3 14 5 15 4 16
REMARK H PARENT 4 17
REMARK Flexibility Score: inf
ROOT
ATOM      1  C   UNL     1     118.883 123.614 126.136  1.00  0.00     0.008 C 
ATOM      2  C   UNL     1     117.474 123.869 126.698  1.00  0.00    -0.008 C 
ATOM      3  C   UNL     1     117.321 125.309 127.286  1.00  0.00     0.004 C 
ATOM      4  C   UNL     1     117.214 125.181 128.828  1.00  0.00     0.005 C 
ATOM      5  C   UNL     1     117.652 123.749 129.054  1.00  0.00     0.002 C 
ATOM      6  C   UNL     1     117.083 122.956 127.887  1.00  0.00    -0.020 C 
ATOM      7  C   UNL     1     117.729 121.606 128.176  1.00  0.00     0.016 C 
ATOM      8  C   UNL     1     117.329 121.440 129.669  1.00  0.00     0.023 C 
ATOM      9  C   UNL     1     117.468 122.879 130.314  1.00  0.00    -0.025 C 
ATOM     10  C   UNL     1     116.277 123.354 131.184  1.00  0.00     0.012 C 
ATOM     11  C   UNL     1     118.735 122.918 131.201  1.00  0.00     0.012 C 
ATOM     12  C   UNL     1     115.895 120.963 129.678  1.00  0.00    -0.045 C 
ATOM     13  C   UNL     1     115.477 120.064 130.582  1.00  0.00     0.011 C 
ATOM     14  C   UNL     1     114.924 121.548 128.675  1.00  0.00     0.140 C 
ATOM     15  C   UNL     1     115.503 122.777 127.899  1.00  0.00     0.044 C 
ENDROOT
BRANCH  14  16
ATOM     16  O   UNL     1     114.562 120.535 127.770  1.00  0.00    -0.389 OA
ATOM     17  H   UNL     1     114.288 120.985 126.928  1.00  0.00     0.211 HD
ENDBRANCH  14  16
TORSDOF 1
ENDMDL
MODEL 6
REMARK VINA RESULT:    -5.281      3.776      5.931
REMARK INTER + INTRA:          -5.436
REMARK INTER:                  -5.436
REMARK INTRA:                   0.000
REMARK UNBOUND:                 0.000
REMARK SMILES C=C1[C@H](O)C[C@]23C[C@H]1C(C)(C)[C@@H]2CC[C@H]3C
REMARK SMILES IDX 16 1 15 2 14 3 13 4 12 5 6 6 7 7 8 8 9 9 10 10 11 11 2 12
REMARK SMILES IDX 1 13 3 14 5 15 4 16
REMARK H PARENT 4 17
REMARK Flexibility Score: inf
ROOT
ATOM      1  C   UNL     1     119.799 122.601 130.919  1.00  0.00     0.008 C 
ATOM      2  C   UNL     1     118.439 123.311 131.036  1.00  0.00    -0.008 C 
ATOM      3  C   UNL     1     117.330 122.614 130.183  1.00  0.00     0.004 C 
ATOM      4  C   UNL     1     116.992 123.549 128.993  1.00  0.00     0.005 C 
ATOM      5  C   UNL     1     118.139 124.537 129.036  1.00  0.00     0.002 C 
ATOM      6  C   UNL     1     118.428 124.768 130.512  1.00  0.00    -0.020 C 
ATOM      7  C   UNL     1     119.673 125.638 130.379  1.00  0.00     0.016 C 
ATOM      8  C   UNL     1     119.142 126.702 129.379  1.00  0.00     0.023 C 
ATOM      9  C   UNL     1     118.247 125.910 128.342  1.00  0.00    -0.025 C 
ATOM     10  C   UNL     1     116.856 126.521 128.035  1.00  0.00     0.012 C 
ATOM     11  C   UNL     1     119.009 125.791 127.000  1.00  0.00     0.012 C 
ATOM     12  C   UNL     1     118.320 127.679 130.189  1.00  0.00    -0.045 C 
ATOM     13  C   UNL     1     118.342 128.991 129.909  1.00  0.00     0.011 C 
ATOM     14  C   UNL     1     117.438 127.148 131.299  1.00  0.00     0.140 C 
ATOM     15  C   UNL     1     117.315 125.588 131.297  1.00  0.00     0.044 C 
ENDROOT
BRANCH  14  16
ATOM     16  O   UNL     1     117.962 127.588 132.527  1.00  0.00    -0.389 OA
ATOM     17  H   UNL     1     118.668 126.939 132.787  1.00  0.00     0.211 HD
ENDBRANCH  14  16
TORSDOF 1
ENDMDL
MODEL 7
REMARK VINA RESULT:    -5.247     13.663     15.695
REMARK INTER + INTRA:          -5.401
REMARK INTER:                  -5.401
REMARK INTRA:                   0.000
REMARK UNBOUND:                 0.000
REMARK SMILES C=C1[C@H](O)C[C@]23C[C@H]1C(C)(C)[C@@H]2CC[C@H]3C
REMARK SMILES IDX 16 1 15 2 14 3 13 4 12 5 6 6 7 7 8 8 9 9 10 10 11 11 2 12
REMARK SMILES IDX 1 13 3 14 5 15 4 16
REMARK H PARENT 4 17
REMARK Flexibility Score: inf
ROOT
ATOM      1  C   UNL     1     127.897 122.074 118.996  1.00  0.00     0.008 C 
ATOM      2  C   UNL     1     127.558 121.242 120.245  1.00  0.00    -0.008 C 
ATOM      3  C   UNL     1     128.827 120.603 120.895  1.00  0.00     0.004 C 
ATOM      4  C   UNL     1     128.766 119.074 120.648  1.00  0.00     0.005 C 
ATOM      5  C   UNL     1     127.679 118.969 119.600  1.00  0.00     0.002 C 
ATOM      6  C   UNL     1     126.645 120.021 119.974  1.00  0.00    -0.020 C 
ATOM      7  C   UNL     1     125.724 119.893 118.765  1.00  0.00     0.016 C 
ATOM      8  C   UNL     1     125.500 118.356 118.769  1.00  0.00     0.023 C 
ATOM      9  C   UNL     1     126.897 117.718 119.150  1.00  0.00    -0.025 C 
ATOM     10  C   UNL     1     126.870 116.621 120.246  1.00  0.00     0.012 C 
ATOM     11  C   UNL     1     127.534 117.094 117.885  1.00  0.00     0.012 C 
ATOM     12  C   UNL     1     124.455 118.077 119.826  1.00  0.00    -0.045 C 
ATOM     13  C   UNL     1     123.525 117.130 119.637  1.00  0.00     0.011 C 
ATOM     14  C   UNL     1     124.500 118.858 121.122  1.00  0.00     0.140 C 
ATOM     15  C   UNL     1     125.806 119.705 121.288  1.00  0.00     0.044 C 
ENDROOT
BRANCH  14  16
ATOM     16  O   UNL     1     123.374 119.698 121.169  1.00  0.00    -0.389 OA
ATOM     17  H   UNL     1     122.658 119.193 121.637  1.00  0.00     0.211 HD
ENDBRANCH  14  16
TORSDOF 1
ENDMDL
MODEL 8
REMARK VINA RESULT:    -5.243      1.788      4.581
REMARK INTER + INTRA:          -5.396
REMARK INTER:                  -5.396
REMARK INTRA:                   0.000
REMARK UNBOUND:                 0.000
REMARK SMILES C=C1[C@H](O)C[C@]23C[C@H]1C(C)(C)[C@@H]2CC[C@H]3C
REMARK SMILES IDX 16 1 15 2 14 3 13 4 12 5 6 6 7 7 8 8 9 9 10 10 11 11 2 12
REMARK SMILES IDX 1 13 3 14 5 15 4 16
REMARK H PARENT 4 17
REMARK Flexibility Score: inf
ROOT
ATOM      1  C   UNL     1     114.782 122.071 126.631  1.00  0.00     0.008 C 
ATOM      2  C   UNL     1     115.698 122.694 127.698  1.00  0.00    -0.008 C 
ATOM      3  C   UNL     1     117.190 122.755 127.238  1.00  0.00     0.004 C 
ATOM      4  C   UNL     1     117.986 121.724 128.079  1.00  0.00     0.005 C 
ATOM      5  C   UNL     1     116.876 120.908 128.707  1.00  0.00     0.002 C 
ATOM      6  C   UNL     1     115.767 121.900 129.026  1.00  0.00    -0.020 C 
ATOM      7  C   UNL     1     114.696 120.921 129.494  1.00  0.00     0.016 C 
ATOM      8  C   UNL     1     115.519 120.112 130.535  1.00  0.00     0.023 C 
ATOM      9  C   UNL     1     116.959 119.936 129.902  1.00  0.00    -0.025 C 
ATOM     10  C   UNL     1     118.156 120.255 130.833  1.00  0.00     0.012 C 
ATOM     11  C   UNL     1     117.125 118.477 129.415  1.00  0.00     0.012 C 
ATOM     12  C   UNL     1     115.564 120.950 131.792  1.00  0.00    -0.045 C 
ATOM     13  C   UNL     1     115.491 120.376 133.002  1.00  0.00     0.011 C 
ATOM     14  C   UNL     1     115.732 122.450 131.665  1.00  0.00     0.140 C 
ATOM     15  C   UNL     1     116.086 122.911 130.212  1.00  0.00     0.044 C 
ENDROOT
BRANCH  14  16
ATOM     16  O   UNL     1     114.540 123.064 132.087  1.00  0.00    -0.389 OA
ATOM     17  H   UNL     1     114.674 124.044 131.999  1.00  0.00     0.211 HD
ENDBRANCH  14  16
TORSDOF 1
ENDMDL
MODEL 9
REMARK VINA RESULT:    -5.233      2.976      4.664
REMARK INTER + INTRA:          -5.386
REMARK INTER:                  -5.386
REMARK INTRA:                   0.000
REMARK UNBOUND:                 0.000
REMARK SMILES C=C1[C@H](O)C[C@]23C[C@H]1C(C)(C)[C@@H]2CC[C@H]3C
REMARK SMILES IDX 16 1 15 2 14 3 13 4 12 5 6 6 7 7 8 8 9 9 10 10 11 11 2 12
REMARK SMILES IDX 1 13 3 14 5 15 4 16
REMARK H PARENT 4 17
REMARK Flexibility Score: inf
ROOT
ATOM      1  C   UNL     1     113.353 122.754 127.478  1.00  0.00     0.008 C 
ATOM      2  C   UNL     1     114.761 122.175 127.253  1.00  0.00    -0.008 C 
ATOM      3  C   UNL     1     114.967 120.812 127.989  1.00  0.00     0.004 C 
ATOM      4  C   UNL     1     115.952 121.052 129.161  1.00  0.00     0.005 C 
ATOM      5  C   UNL     1     115.980 122.564 129.243  1.00  0.00     0.002 C 
ATOM      6  C   UNL     1     115.911 123.054 127.804  1.00  0.00    -0.020 C 
ATOM      7  C   UNL     1     115.792 124.551 128.066  1.00  0.00     0.016 C 
ATOM      8  C   UNL     1     116.992 124.742 129.035  1.00  0.00     0.023 C 
ATOM      9  C   UNL     1     116.996 123.466 129.971  1.00  0.00    -0.025 C 
ATOM     10  C   UNL     1     118.366 122.767 130.164  1.00  0.00     0.012 C 
ATOM     11  C   UNL     1     116.476 123.863 131.373  1.00  0.00     0.012 C 
ATOM     12  C   UNL     1     118.233 124.804 128.174  1.00  0.00    -0.045 C 
ATOM     13  C   UNL     1     119.240 125.635 128.482  1.00  0.00     0.011 C 
ATOM     14  C   UNL     1     118.340 123.881 126.979  1.00  0.00     0.140 C 
ATOM     15  C   UNL     1     117.219 122.790 126.938  1.00  0.00     0.044 C 
ENDROOT
BRANCH  14  16
ATOM     16  O   UNL     1     118.293 124.664 125.812  1.00  0.00    -0.389 OA
ATOM     17  H   UNL     1     117.424 124.471 125.372  1.00  0.00     0.211 HD
ENDBRANCH  14  16
TORSDOF 1
ENDMDL
