MODEL 1
REMARK VINA RESULT:    -4.068      0.000      0.000
REMARK INTER + INTRA:          -6.497
REMARK INTER:                  -5.732
REMARK INTRA:                  -0.765
REMARK UNBOUND:                -0.765
REMARK SMILES CCCCCCCCC(=O)[O-]
REMARK SMILES IDX 6 1 7 2 8 3 9 4 10 5 11 6 5 7 4 8 3 9 2 10 1 11
REMARK H PARENT
REMARK Flexibility Score: inf
ROOT
ATOM      1  C   UNL     1      62.679  28.997  13.297  1.00  0.00     0.000 C 
ENDROOT
BRANCH   1   2
ATOM      2  C   UNL     1      61.179  29.100  13.632  1.00  0.00     0.006 C 
BRANCH   2   3
ATOM      3  C   UNL     1      60.285  28.403  12.600  1.00  0.00     0.053 C 
BRANCH   3   4
ATOM      4  C   UNL     1      60.486  29.005  11.245  1.00  0.00     0.041 C 
ATOM      5  O   UNL     1      60.094  30.179  11.008  1.00  0.00    -0.550 OA
ATOM      6  O   UNL     1      61.148  28.288  10.257  1.00  0.00    -0.550 OA
ENDBRANCH   3   4
ENDBRANCH   2   3
ENDBRANCH   1   2
BRANCH   1   7
ATOM      7  C   UNL     1      63.485  30.294  13.504  1.00  0.00     0.000 C 
BRANCH   7   8
ATOM      8  C   UNL     1      63.153  31.377  12.464  1.00  0.00    -0.000 C 
BRANCH   8   9
ATOM      9  C   UNL     1      62.662  32.682  13.110  1.00  0.00    -0.000 C 
BRANCH   9  10
ATOM     10  C   UNL     1      61.135  32.829  13.064  1.00  0.00    -0.003 C 
ATOM     11  C   UNL     1      60.528  32.709  14.458  1.00  0.00     0.004 C 
ENDBRANCH   9  10
ENDBRANCH   8   9
ENDBRANCH   7   8
ENDBRANCH   1   7
TORSDOF 7
ENDMDL
MODEL 2
REMARK VINA RESULT:    -4.066      1.463      2.045
REMARK INTER + INTRA:          -6.494
REMARK INTER:                  -5.753
REMARK INTRA:                  -0.741
REMARK UNBOUND:                -0.765
REMARK SMILES CCCCCCCCC(=O)[O-]
REMARK SMILES IDX 6 1 7 2 8 3 9 4 10 5 11 6 5 7 4 8 3 9 2 10 1 11
REMARK H PARENT
REMARK Flexibility Score: inf
ROOT
ATOM      1  C   UNL     1      60.710  28.418  13.017  1.00  0.00     0.000 C 
ENDROOT
BRANCH   1   2
ATOM      2  C   UNL     1      60.044  29.001  11.755  1.00  0.00     0.006 C 
BRANCH   2   3
ATOM      3  C   UNL     1      61.013  29.814  10.889  1.00  0.00     0.053 C 
BRANCH   3   4
ATOM      4  C   UNL     1      61.762  28.914   9.958  1.00  0.00     0.041 C 
ATOM      5  O   UNL     1      63.017  28.990   9.875  1.00  0.00    -0.550 OA
ATOM      6  O   UNL     1      61.080  27.958   9.216  1.00  0.00    -0.550 OA
ENDBRANCH   3   4
ENDBRANCH   2   3
ENDBRANCH   1   2
BRANCH   1   7
ATOM      7  C   UNL     1      62.010  29.119  13.452  1.00  0.00     0.000 C 
BRANCH   7   8
ATOM      8  C   UNL     1      61.794  30.119  14.600  1.00  0.00    -0.000 C 
BRANCH   8   9
ATOM      9  C   UNL     1      62.301  31.529  14.254  1.00  0.00    -0.000 C 
BRANCH   9  10
ATOM     10  C   UNL     1      61.229  32.395  13.577  1.00  0.00    -0.003 C 
ATOM     11  C   UNL     1      59.844  32.099  14.143  1.00  0.00     0.004 C 
ENDBRANCH   9  10
ENDBRANCH   8   9
ENDBRANCH   7   8
ENDBRANCH   1   7
TORSDOF 7
ENDMDL
MODEL 3
REMARK VINA RESULT:    -4.023      1.310      2.166
REMARK INTER + INTRA:          -6.435
REMARK INTER:                  -5.832
REMARK INTRA:                  -0.603
REMARK UNBOUND:                -0.765
REMARK SMILES CCCCCCCCC(=O)[O-]
REMARK SMILES IDX 6 1 7 2 8 3 9 4 10 5 11 6 5 7 4 8 3 9 2 10 1 11
REMARK H PARENT
REMARK Flexibility Score: inf
ROOT
ATOM      1  C   UNL     1      62.658  29.055  13.187  1.00  0.00     0.000 C 
ENDROOT
BRANCH   1   2
ATOM      2  C   UNL     1      62.364  29.255  11.688  1.00  0.00     0.006 C 
BRANCH   2   3
ATOM      3  C   UNL     1      60.894  29.009  11.328  1.00  0.00     0.053 C 
BRANCH   3   4
ATOM      4  C   UNL     1      60.722  28.956   9.843  1.00  0.00     0.041 C 
ATOM      5  O   UNL     1      61.092  27.940   9.197  1.00  0.00    -0.550 OA
ATOM      6  O   UNL     1      60.108  30.009   9.176  1.00  0.00    -0.550 OA
ENDBRANCH   3   4
ENDBRANCH   2   3
ENDBRANCH   1   2
BRANCH   1   7
ATOM      7  C   UNL     1      61.511  29.450  14.136  1.00  0.00     0.000 C 
BRANCH   7   8
ATOM      8  C   UNL     1      61.905  30.566  15.118  1.00  0.00    -0.000 C 
BRANCH   8   9
ATOM      9  C   UNL     1      60.852  31.684  15.191  1.00  0.00    -0.000 C 
BRANCH   9  10
ATOM     10  C   UNL     1      60.246  32.019  13.821  1.00  0.00    -0.003 C 
ATOM     11  C   UNL     1      61.199  32.876  12.993  1.00  0.00     0.004 C 
ENDBRANCH   9  10
ENDBRANCH   8   9
ENDBRANCH   7   8
ENDBRANCH   1   7
TORSDOF 7
ENDMDL
MODEL 4
REMARK VINA RESULT:    -3.998     13.056     13.972
REMARK INTER + INTRA:          -6.399
REMARK INTER:                  -5.714
REMARK INTRA:                  -0.685
REMARK UNBOUND:                -0.765
REMARK SMILES CCCCCCCCC(=O)[O-]
REMARK SMILES IDX 6 1 7 2 8 3 9 4 10 5 11 6 5 7 4 8 3 9 2 10 1 11
REMARK H PARENT
REMARK Flexibility Score: inf
ROOT
ATOM      1  C   UNL     1      62.417  29.670  24.948  1.00  0.00     0.000 C 
ENDROOT
BRANCH   1   2
ATOM      2  C   UNL     1      61.857  28.262  24.671  1.00  0.00     0.006 C 
BRANCH   2   3
ATOM      3  C   UNL     1      60.797  27.828  25.691  1.00  0.00     0.053 C 
BRANCH   3   4
ATOM      4  C   UNL     1      61.411  27.667  27.046  1.00  0.00     0.041 C 
ATOM      5  O   UNL     1      62.201  26.714  27.275  1.00  0.00    -0.550 OA
ATOM      6  O   UNL     1      61.150  28.599  28.043  1.00  0.00    -0.550 OA
ENDBRANCH   3   4
ENDBRANCH   2   3
ENDBRANCH   1   2
BRANCH   1   7
ATOM      7  C   UNL     1      63.949  29.796  24.841  1.00  0.00     0.000 C 
BRANCH   7   8
ATOM      8  C   UNL     1      64.690  29.054  25.966  1.00  0.00    -0.000 C 
BRANCH   8   9
ATOM      9  C   UNL     1      65.699  28.027  25.427  1.00  0.00    -0.000 C 
BRANCH   9  10
ATOM     10  C   UNL     1      65.106  26.616  25.313  1.00  0.00    -0.003 C 
ATOM     11  C   UNL     1      65.467  25.974  23.977  1.00  0.00     0.004 C 
ENDBRANCH   9  10
ENDBRANCH   8   9
ENDBRANCH   7   8
ENDBRANCH   1   7
TORSDOF 7
ENDMDL
MODEL 5
REMARK VINA RESULT:    -3.977      2.025      3.282
REMARK INTER + INTRA:          -6.369
REMARK INTER:                  -5.695
REMARK INTRA:                  -0.675
REMARK UNBOUND:                -0.765
REMARK SMILES CCCCCCCCC(=O)[O-]
REMARK SMILES IDX 6 1 7 2 8 3 9 4 10 5 11 6 5 7 4 8 3 9 2 10 1 11
REMARK H PARENT
REMARK Flexibility Score: inf
ROOT
ATOM      1  C   UNL     1      60.178  29.112  11.296  1.00  0.00     0.000 C 
ENDROOT
BRANCH   1   2
ATOM      2  C   UNL     1      61.221  28.551  10.311  1.00  0.00     0.006 C 
BRANCH   2   3
ATOM      3  C   UNL     1      62.056  29.645   9.636  1.00  0.00     0.053 C 
BRANCH   3   4
ATOM      4  C   UNL     1      63.511  29.440   9.919  1.00  0.00     0.041 C 
ATOM      5  O   UNL     1      64.268  28.963   9.033  1.00  0.00    -0.550 OA
ATOM      6  O   UNL     1      64.041  29.822  11.145  1.00  0.00    -0.550 OA
ENDBRANCH   3   4
ENDBRANCH   2   3
ENDBRANCH   1   2
BRANCH   1   7
ATOM      7  C   UNL     1      60.268  28.556  12.730  1.00  0.00     0.000 C 
BRANCH   7   8
ATOM      8  C   UNL     1      61.587  28.922  13.431  1.00  0.00    -0.000 C 
BRANCH   8   9
ATOM      9  C   UNL     1      61.487  30.237  14.222  1.00  0.00    -0.000 C 
BRANCH   9  10
ATOM     10  C   UNL     1      62.100  31.428  13.472  1.00  0.00    -0.003 C 
ATOM     11  C   UNL     1      61.015  32.312  12.864  1.00  0.00     0.004 C 
ENDBRANCH   9  10
ENDBRANCH   8   9
ENDBRANCH   7   8
ENDBRANCH   1   7
TORSDOF 7
ENDMDL
MODEL 6
REMARK VINA RESULT:    -3.969      1.529      2.551
REMARK INTER + INTRA:          -6.357
REMARK INTER:                  -5.628
REMARK INTRA:                  -0.729
REMARK UNBOUND:                -0.765
REMARK SMILES CCCCCCCCC(=O)[O-]
REMARK SMILES IDX 6 1 7 2 8 3 9 4 10 5 11 6 5 7 4 8 3 9 2 10 1 11
REMARK H PARENT
REMARK Flexibility Score: inf
ROOT
ATOM      1  C   UNL     1      61.358  29.577  13.757  1.00  0.00     0.000 C 
ENDROOT
BRANCH   1   2
ATOM      2  C   UNL     1      62.579  29.034  12.989  1.00  0.00     0.006 C 
BRANCH   2   3
ATOM      3  C   UNL     1      62.955  29.896  11.777  1.00  0.00     0.053 C 
BRANCH   3   4
ATOM      4  C   UNL     1      62.800  29.113  10.511  1.00  0.00     0.041 C 
ATOM      5  O   UNL     1      61.713  28.531  10.255  1.00  0.00    -0.550 OA
ATOM      6  O   UNL     1      63.839  29.065   9.591  1.00  0.00    -0.550 OA
ENDBRANCH   3   4
ENDBRANCH   2   3
ENDBRANCH   1   2
BRANCH   1   7
ATOM      7  C   UNL     1      60.535  30.641  13.007  1.00  0.00     0.000 C 
BRANCH   7   8
ATOM      8  C   UNL     1      60.170  31.847  13.888  1.00  0.00    -0.000 C 
BRANCH   8   9
ATOM      9  C   UNL     1      61.046  33.076  13.595  1.00  0.00    -0.000 C 
BRANCH   9  10
ATOM     10  C   UNL     1      62.315  33.119  14.459  1.00  0.00    -0.003 C 
ATOM     11  C   UNL     1      63.571  33.054  13.595  1.00  0.00     0.004 C 
ENDBRANCH   9  10
ENDBRANCH   8   9
ENDBRANCH   7   8
ENDBRANCH   1   7
TORSDOF 7
ENDMDL
MODEL 7
REMARK VINA RESULT:    -3.923     13.181     14.222
REMARK INTER + INTRA:          -6.293
REMARK INTER:                  -5.685
REMARK INTRA:                  -0.608
REMARK UNBOUND:                -0.765
REMARK SMILES CCCCCCCCC(=O)[O-]
REMARK SMILES IDX 6 1 7 2 8 3 9 4 10 5 11 6 5 7 4 8 3 9 2 10 1 11
REMARK H PARENT
REMARK Flexibility Score: inf
ROOT
ATOM      1  C   UNL     1      62.276  29.539  25.106  1.00  0.00     0.000 C 
ENDROOT
BRANCH   1   2
ATOM      2  C   UNL     1      63.313  29.501  26.245  1.00  0.00     0.006 C 
BRANCH   2   3
ATOM      3  C   UNL     1      62.700  29.784  27.622  1.00  0.00     0.053 C 
BRANCH   3   4
ATOM      4  C   UNL     1      62.005  28.566  28.145  1.00  0.00     0.041 C 
ATOM      5  O   UNL     1      62.431  27.418  27.851  1.00  0.00    -0.550 OA
ATOM      6  O   UNL     1      60.915  28.699  28.995  1.00  0.00    -0.550 OA
ENDBRANCH   3   4
ENDBRANCH   2   3
ENDBRANCH   1   2
BRANCH   1   7
ATOM      7  C   UNL     1      62.232  28.278  24.222  1.00  0.00     0.000 C 
BRANCH   7   8
ATOM      8  C   UNL     1      63.433  28.176  23.267  1.00  0.00    -0.000 C 
BRANCH   8   9
ATOM      9  C   UNL     1      63.984  26.744  23.166  1.00  0.00    -0.000 C 
BRANCH   9  10
ATOM     10  C   UNL     1      63.971  26.008  24.513  1.00  0.00    -0.003 C 
ATOM     11  C   UNL     1      65.170  26.405  25.368  1.00  0.00     0.004 C 
ENDBRANCH   9  10
ENDBRANCH   8   9
ENDBRANCH   7   8
ENDBRANCH   1   7
TORSDOF 7
ENDMDL
MODEL 8
REMARK VINA RESULT:    -3.840      1.926      2.712
REMARK INTER + INTRA:          -6.176
REMARK INTER:                  -5.492
REMARK INTRA:                  -0.683
REMARK UNBOUND:                -0.765
REMARK SMILES CCCCCCCCC(=O)[O-]
REMARK SMILES IDX 6 1 7 2 8 3 9 4 10 5 11 6 5 7 4 8 3 9 2 10 1 11
REMARK H PARENT
REMARK Flexibility Score: inf
ROOT
ATOM      1  C   UNL     1      62.113  29.683   9.809  1.00  0.00     0.000 C 
ENDROOT
BRANCH   1   2
ATOM      2  C   UNL     1      61.093  28.643  10.311  1.00  0.00     0.006 C 
BRANCH   2   3
ATOM      3  C   UNL     1      60.001  29.254  11.197  1.00  0.00     0.053 C 
BRANCH   3   4
ATOM      4  C   UNL     1      59.952  28.557  12.520  1.00  0.00     0.041 C 
ATOM      5  O   UNL     1      60.960  28.556  13.274  1.00  0.00    -0.550 OA
ATOM      6  O   UNL     1      58.776  27.949  12.942  1.00  0.00    -0.550 OA
ENDBRANCH   3   4
ENDBRANCH   2   3
ENDBRANCH   1   2
BRANCH   1   7
ATOM      7  C   UNL     1      63.557  29.472  10.303  1.00  0.00     0.000 C 
BRANCH   7   8
ATOM      8  C   UNL     1      63.819  30.114  11.676  1.00  0.00    -0.000 C 
BRANCH   8   9
ATOM      9  C   UNL     1      64.153  31.611  11.571  1.00  0.00    -0.000 C 
BRANCH   9  10
ATOM     10  C   UNL     1      63.430  32.456  12.630  1.00  0.00    -0.003 C 
ATOM     11  C   UNL     1      61.967  32.043  12.757  1.00  0.00     0.004 C 
ENDBRANCH   9  10
ENDBRANCH   8   9
ENDBRANCH   7   8
ENDBRANCH   1   7
TORSDOF 7
ENDMDL
MODEL 9
REMARK VINA RESULT:    -3.800      1.885      2.764
REMARK INTER + INTRA:          -6.119
REMARK INTER:                  -5.493
REMARK INTRA:                  -0.626
REMARK UNBOUND:                -0.765
REMARK SMILES CCCCCCCCC(=O)[O-]
REMARK SMILES IDX 6 1 7 2 8 3 9 4 10 5 11 6 5 7 4 8 3 9 2 10 1 11
REMARK H PARENT
REMARK Flexibility Score: inf
ROOT
ATOM      1  C   UNL     1      63.752  30.364  11.202  1.00  0.00     0.000 C 
ENDROOT
BRANCH   1   2
ATOM      2  C   UNL     1      63.679  29.377  10.021  1.00  0.00     0.006 C 
BRANCH   2   3
ATOM      3  C   UNL     1      62.705  29.826   8.925  1.00  0.00     0.053 C 
BRANCH   3   4
ATOM      4  C   UNL     1      61.323  29.337   9.223  1.00  0.00     0.041 C 
ATOM      5  O   UNL     1      60.372  30.155   9.339  1.00  0.00    -0.550 OA
ATOM      6  O   UNL     1      61.074  27.974   9.325  1.00  0.00    -0.550 OA
ENDBRANCH   3   4
ENDBRANCH   2   3
ENDBRANCH   1   2
BRANCH   1   7
ATOM      7  C   UNL     1      63.811  29.711  12.596  1.00  0.00     0.000 C 
BRANCH   7   8
ATOM      8  C   UNL     1      62.535  28.926  12.943  1.00  0.00    -0.000 C 
BRANCH   8   9
ATOM      9  C   UNL     1      61.523  29.771  13.734  1.00  0.00    -0.000 C 
BRANCH   9  10
ATOM     10  C   UNL     1      60.456  30.415  12.836  1.00  0.00    -0.003 C 
ATOM     11  C   UNL     1      60.449  31.932  12.992  1.00  0.00     0.004 C 
ENDBRANCH   9  10
ENDBRANCH   8   9
ENDBRANCH   7   8
ENDBRANCH   1   7
TORSDOF 7
ENDMDL
