MODEL 1
REMARK VINA RESULT:    -4.743      0.000      0.000
REMARK INTER + INTRA:          -8.606
REMARK INTER:                  -7.239
REMARK INTRA:                  -1.366
REMARK UNBOUND:                -1.366
REMARK SMILES CC(=O)CCC=C(C)CCC=C(C)CCC=C(C)C
REMARK SMILES IDX 10 1 11 2 12 3 13 4 14 5 15 6 16 7 18 8 17 9 19 10 9 11 7 12
REMARK SMILES IDX 6 13 8 14 5 15 4 16 2 17 3 18 1 19
REMARK H PARENT
REMARK Flexibility Score: inf
ROOT
ATOM      1  C   UNL     1     165.694 199.492 304.924  1.00  0.00     0.032 C 
ENDROOT
BRANCH   1   2
ATOM      2  C   UNL     1     166.310 200.813 304.528  1.00  0.00    -0.028 C 
ATOM      3  C   UNL     1     165.842 201.627 303.555  1.00  0.00    -0.077 C 
ATOM      4  C   UNL     1     166.527 202.953 303.344  1.00  0.00     0.039 C 
BRANCH   3   5
ATOM      5  C   UNL     1     164.685 201.248 302.647  1.00  0.00     0.034 C 
BRANCH   5   6
ATOM      6  C   UNL     1     165.162 200.909 301.226  1.00  0.00     0.032 C 
BRANCH   6   7
ATOM      7  C   UNL     1     166.277 199.891 301.234  1.00  0.00    -0.028 C 
ATOM      8  C   UNL     1     168.467 198.924 300.610  1.00  0.00     0.039 C 
ATOM      9  C   UNL     1     167.406 199.986 300.494  1.00  0.00    -0.080 C 
ATOM     10  C   UNL     1     167.622 201.100 299.500  1.00  0.00     0.039 C 
ENDBRANCH   6   7
ENDBRANCH   5   6
ENDBRANCH   3   5
ENDBRANCH   1   2
BRANCH   1  11
ATOM     11  C   UNL     1     166.119 199.064 306.335  1.00  0.00     0.034 C 
BRANCH  11  12
ATOM     12  C   UNL     1     165.018 199.297 307.348  1.00  0.00    -0.077 C 
ATOM     13  C   UNL     1     164.778 200.555 307.788  1.00  0.00    -0.028 C 
ATOM     14  C   UNL     1     164.267 198.105 307.889  1.00  0.00     0.039 C 
BRANCH  13  15
ATOM     15  C   UNL     1     163.709 200.920 308.786  1.00  0.00     0.035 C 
BRANCH  15  16
ATOM     16  C   UNL     1     163.148 202.320 308.496  1.00  0.00     0.079 C 
BRANCH  16  17
ATOM     17  C   UNL     1     162.225 202.352 307.300  1.00  0.00     0.130 C 
ATOM     18  O   UNL     1     161.039 202.076 307.412  1.00  0.00    -0.300 OA
ATOM     19  C   UNL     1     162.759 202.737 305.955  1.00  0.00     0.087 C 
ENDBRANCH  16  17
ENDBRANCH  15  16
ENDBRANCH  13  15
ENDBRANCH  11  12
ENDBRANCH   1  11
TORSDOF 9
ENDMDL
MODEL 2
REMARK VINA RESULT:    -4.489      2.832      7.214
REMARK INTER + INTRA:          -8.217
REMARK INTER:                  -7.340
REMARK INTRA:                  -0.876
REMARK UNBOUND:                -1.366
REMARK SMILES CC(=O)CCC=C(C)CCC=C(C)CCC=C(C)C
REMARK SMILES IDX 10 1 11 2 12 3 13 4 14 5 15 6 16 7 18 8 17 9 19 10 9 11 7 12
REMARK SMILES IDX 6 13 8 14 5 15 4 16 2 17 3 18 1 19
REMARK H PARENT
REMARK Flexibility Score: inf
ROOT
ATOM      1  C   UNL     1     165.488 199.249 306.247  1.00  0.00     0.032 C 
ENDROOT
BRANCH   1   2
ATOM      2  C   UNL     1     165.212 199.842 307.609  1.00  0.00    -0.028 C 
ATOM      3  C   UNL     1     164.285 200.791 307.868  1.00  0.00    -0.077 C 
ATOM      4  C   UNL     1     164.079 201.213 309.300  1.00  0.00     0.039 C 
BRANCH   3   5
ATOM      5  C   UNL     1     163.472 201.471 306.780  1.00  0.00     0.034 C 
BRANCH   5   6
ATOM      6  C   UNL     1     162.656 202.650 307.331  1.00  0.00     0.032 C 
BRANCH   6   7
ATOM      7  C   UNL     1     161.220 202.607 306.867  1.00  0.00    -0.028 C 
ATOM      8  C   UNL     1     159.363 202.680 305.234  1.00  0.00     0.039 C 
ATOM      9  C   UNL     1     160.824 202.778 305.584  1.00  0.00    -0.080 C 
ATOM     10  C   UNL     1     161.796 203.124 304.484  1.00  0.00     0.039 C 
ENDBRANCH   6   7
ENDBRANCH   5   6
ENDBRANCH   3   5
ENDBRANCH   1   2
BRANCH   1  11
ATOM     11  C   UNL     1     166.578 200.027 305.496  1.00  0.00     0.034 C 
BRANCH  11  12
ATOM     12  C   UNL     1     166.188 200.292 304.058  1.00  0.00    -0.077 C 
ATOM     13  C   UNL     1     166.506 199.382 303.107  1.00  0.00    -0.028 C 
ATOM     14  C   UNL     1     165.517 201.601 303.718  1.00  0.00     0.039 C 
BRANCH  13  15
ATOM     15  C   UNL     1     166.169 199.524 301.644  1.00  0.00     0.035 C 
BRANCH  15  16
ATOM     16  C   UNL     1     167.326 200.183 300.879  1.00  0.00     0.079 C 
BRANCH  16  17
ATOM     17  C   UNL     1     168.317 199.183 300.330  1.00  0.00     0.130 C 
ATOM     18  O   UNL     1     169.143 198.651 301.058  1.00  0.00    -0.300 OA
ATOM     19  C   UNL     1     168.288 198.824 298.876  1.00  0.00     0.087 C 
ENDBRANCH  16  17
ENDBRANCH  15  16
ENDBRANCH  13  15
ENDBRANCH  11  12
ENDBRANCH   1  11
TORSDOF 9
ENDMDL
MODEL 3
REMARK VINA RESULT:    -4.327      1.913      3.805
REMARK INTER + INTRA:          -7.969
REMARK INTER:                  -6.157
REMARK INTRA:                  -1.813
REMARK UNBOUND:                -1.366
REMARK SMILES CC(=O)CCC=C(C)CCC=C(C)CCC=C(C)C
REMARK SMILES IDX 10 1 11 2 12 3 13 4 14 5 15 6 16 7 18 8 17 9 19 10 9 11 7 12
REMARK SMILES IDX 6 13 8 14 5 15 4 16 2 17 3 18 1 19
REMARK H PARENT
REMARK Flexibility Score: inf
ROOT
ATOM      1  C   UNL     1     166.736 199.255 302.478  1.00  0.00     0.032 C 
ENDROOT
BRANCH   1   2
ATOM      2  C   UNL     1     166.930 199.535 301.006  1.00  0.00    -0.028 C 
ATOM      3  C   UNL     1     167.170 200.755 300.474  1.00  0.00    -0.077 C 
ATOM      4  C   UNL     1     167.425 200.848 298.992  1.00  0.00     0.039 C 
BRANCH   3   5
ATOM      5  C   UNL     1     167.160 202.032 301.297  1.00  0.00     0.034 C 
BRANCH   5   6
ATOM      6  C   UNL     1     166.259 203.107 300.670  1.00  0.00     0.032 C 
BRANCH   6   7
ATOM      7  C   UNL     1     164.876 203.105 301.275  1.00  0.00    -0.028 C 
ATOM      8  C   UNL     1     162.420 202.814 301.314  1.00  0.00     0.039 C 
ATOM      9  C   UNL     1     163.743 202.817 300.595  1.00  0.00    -0.080 C 
ATOM     10  C   UNL     1     163.745 202.549 299.110  1.00  0.00     0.039 C 
ENDBRANCH   6   7
ENDBRANCH   5   6
ENDBRANCH   3   5
ENDBRANCH   1   2
BRANCH   1  11
ATOM     11  C   UNL     1     165.314 199.600 302.942  1.00  0.00     0.034 C 
BRANCH  11  12
ATOM     12  C   UNL     1     165.311 200.227 304.320  1.00  0.00    -0.077 C 
ATOM     13  C   UNL     1     165.773 199.513 305.374  1.00  0.00    -0.028 C 
ATOM     14  C   UNL     1     164.723 201.607 304.487  1.00  0.00     0.039 C 
BRANCH  13  15
ATOM     15  C   UNL     1     165.829 200.024 306.791  1.00  0.00     0.035 C 
BRANCH  15  16
ATOM     16  C   UNL     1     164.509 199.744 307.524  1.00  0.00     0.079 C 
BRANCH  16  17
ATOM     17  C   UNL     1     163.998 200.937 308.298  1.00  0.00     0.130 C 
ATOM     18  O   UNL     1     164.376 201.156 309.440  1.00  0.00    -0.300 OA
ATOM     19  C   UNL     1     163.021 201.877 307.661  1.00  0.00     0.087 C 
ENDBRANCH  16  17
ENDBRANCH  15  16
ENDBRANCH  13  15
ENDBRANCH  11  12
ENDBRANCH   1  11
TORSDOF 9
ENDMDL
MODEL 4
REMARK VINA RESULT:    -4.262      2.357      6.901
REMARK INTER + INTRA:          -7.871
REMARK INTER:                  -6.388
REMARK INTRA:                  -1.483
REMARK UNBOUND:                -1.366
REMARK SMILES CC(=O)CCC=C(C)CCC=C(C)CCC=C(C)C
REMARK SMILES IDX 10 1 11 2 12 3 13 4 14 5 15 6 16 7 18 8 17 9 19 10 9 11 7 12
REMARK SMILES IDX 6 13 8 14 5 15 4 16 2 17 3 18 1 19
REMARK H PARENT
REMARK Flexibility Score: inf
ROOT
ATOM      1  C   UNL     1     163.507 203.006 305.032  1.00  0.00     0.032 C 
ENDROOT
BRANCH   1   2
ATOM      2  C   UNL     1     162.158 202.737 305.657  1.00  0.00    -0.028 C 
ATOM      3  C   UNL     1     161.938 202.558 306.979  1.00  0.00    -0.077 C 
ATOM      4  C   UNL     1     160.516 202.383 307.447  1.00  0.00     0.039 C 
BRANCH   3   5
ATOM      5  C   UNL     1     163.059 202.490 308.002  1.00  0.00     0.034 C 
BRANCH   5   6
ATOM      6  C   UNL     1     163.479 201.041 308.292  1.00  0.00     0.032 C 
BRANCH   6   7
ATOM      7  C   UNL     1     164.652 200.613 307.443  1.00  0.00    -0.028 C 
ATOM      8  C   UNL     1     166.179 199.020 306.325  1.00  0.00     0.039 C 
ATOM      9  C   UNL     1     165.007 199.327 307.220  1.00  0.00    -0.080 C 
ATOM     10  C   UNL     1     164.301 198.173 307.887  1.00  0.00     0.039 C 
ENDBRANCH   6   7
ENDBRANCH   5   6
ENDBRANCH   3   5
ENDBRANCH   1   2
BRANCH   1  11
ATOM     11  C   UNL     1     163.616 202.397 303.628  1.00  0.00     0.034 C 
BRANCH  11  12
ATOM     12  C   UNL     1     164.999 201.838 303.365  1.00  0.00    -0.077 C 
ATOM     13  C   UNL     1     165.141 200.518 303.101  1.00  0.00    -0.028 C 
ATOM     14  C   UNL     1     166.187 202.763 303.477  1.00  0.00     0.039 C 
BRANCH  13  15
ATOM     15  C   UNL     1     166.458 199.842 302.816  1.00  0.00     0.035 C 
BRANCH  15  16
ATOM     16  C   UNL     1     166.484 199.281 301.387  1.00  0.00     0.079 C 
BRANCH  16  17
ATOM     17  C   UNL     1     167.314 200.115 300.439  1.00  0.00     0.130 C 
ATOM     18  O   UNL     1     167.446 201.319 300.611  1.00  0.00    -0.300 OA
ATOM     19  C   UNL     1     167.998 199.466 299.275  1.00  0.00     0.087 C 
ENDBRANCH  16  17
ENDBRANCH  15  16
ENDBRANCH  13  15
ENDBRANCH  11  12
ENDBRANCH   1  11
TORSDOF 9
ENDMDL
MODEL 5
REMARK VINA RESULT:    -4.231      1.937      3.996
REMARK INTER + INTRA:          -7.823
REMARK INTER:                  -5.702
REMARK INTRA:                  -2.122
REMARK UNBOUND:                -1.366
REMARK SMILES CC(=O)CCC=C(C)CCC=C(C)CCC=C(C)C
REMARK SMILES IDX 10 1 11 2 12 3 13 4 14 5 15 6 16 7 18 8 17 9 19 10 9 11 7 12
REMARK SMILES IDX 6 13 8 14 5 15 4 16 2 17 3 18 1 19
REMARK H PARENT
REMARK Flexibility Score: inf
ROOT
ATOM      1  C   UNL     1     165.365 199.862 302.547  1.00  0.00     0.032 C 
ENDROOT
BRANCH   1   2
ATOM      2  C   UNL     1     166.348 199.394 301.500  1.00  0.00    -0.028 C 
ATOM      3  C   UNL     1     167.030 200.205 300.659  1.00  0.00    -0.077 C 
ATOM      4  C   UNL     1     168.038 199.581 299.729  1.00  0.00     0.039 C 
BRANCH   3   5
ATOM      5  C   UNL     1     166.798 201.704 300.588  1.00  0.00     0.034 C 
BRANCH   5   6
ATOM      6  C   UNL     1     165.545 202.050 299.770  1.00  0.00     0.032 C 
BRANCH   6   7
ATOM      7  C   UNL     1     164.509 202.767 300.602  1.00  0.00    -0.028 C 
ATOM      8  C   UNL     1     162.298 203.125 301.653  1.00  0.00     0.039 C 
ATOM      9  C   UNL     1     163.235 202.343 300.771  1.00  0.00    -0.080 C 
ATOM     10  C   UNL     1     162.691 201.132 300.054  1.00  0.00     0.039 C 
ENDBRANCH   6   7
ENDBRANCH   5   6
ENDBRANCH   3   5
ENDBRANCH   1   2
BRANCH   1  11
ATOM     11  C   UNL     1     166.072 200.525 303.737  1.00  0.00     0.034 C 
BRANCH  11  12
ATOM     12  C   UNL     1     165.426 201.843 304.109  1.00  0.00    -0.077 C 
ATOM     13  C   UNL     1     164.193 201.843 304.668  1.00  0.00    -0.028 C 
ATOM     14  C   UNL     1     166.152 203.125 303.778  1.00  0.00     0.039 C 
BRANCH  13  15
ATOM     15  C   UNL     1     163.447 203.083 305.089  1.00  0.00     0.035 C 
BRANCH  15  16
ATOM     16  C   UNL     1     161.968 202.765 305.356  1.00  0.00     0.079 C 
BRANCH  16  17
ATOM     17  C   UNL     1     161.629 202.719 306.828  1.00  0.00     0.130 C 
ATOM     18  O   UNL     1     160.525 203.057 307.231  1.00  0.00    -0.300 OA
ATOM     19  C   UNL     1     162.650 202.243 307.815  1.00  0.00     0.087 C 
ENDBRANCH  16  17
ENDBRANCH  15  16
ENDBRANCH  13  15
ENDBRANCH  11  12
ENDBRANCH   1  11
TORSDOF 9
ENDMDL
MODEL 6
REMARK VINA RESULT:    -4.057      2.530      6.751
REMARK INTER + INTRA:          -7.558
REMARK INTER:                  -5.627
REMARK INTRA:                  -1.931
REMARK UNBOUND:                -1.366
REMARK SMILES CC(=O)CCC=C(C)CCC=C(C)CCC=C(C)C
REMARK SMILES IDX 10 1 11 2 12 3 13 4 14 5 15 6 16 7 18 8 17 9 19 10 9 11 7 12
REMARK SMILES IDX 6 13 8 14 5 15 4 16 2 17 3 18 1 19
REMARK H PARENT
REMARK Flexibility Score: inf
ROOT
ATOM      1  C   UNL     1     166.094 199.350 302.152  1.00  0.00     0.032 C 
ENDROOT
BRANCH   1   2
ATOM      2  C   UNL     1     166.332 199.453 303.640  1.00  0.00    -0.028 C 
ATOM      3  C   UNL     1     165.534 200.112 304.510  1.00  0.00    -0.077 C 
ATOM      4  C   UNL     1     165.871 200.045 305.977  1.00  0.00     0.039 C 
BRANCH   3   5
ATOM      5  C   UNL     1     164.341 200.943 304.070  1.00  0.00     0.034 C 
BRANCH   5   6
ATOM      6  C   UNL     1     164.302 202.306 304.777  1.00  0.00     0.032 C 
BRANCH   6   7
ATOM      7  C   UNL     1     162.891 202.733 305.102  1.00  0.00    -0.028 C 
ATOM      8  C   UNL     1     160.916 203.123 306.539  1.00  0.00     0.039 C 
ATOM      9  C   UNL     1     162.323 202.632 306.326  1.00  0.00    -0.080 C 
ATOM     10  C   UNL     1     163.034 201.987 307.489  1.00  0.00     0.039 C 
ENDBRANCH   6   7
ENDBRANCH   5   6
ENDBRANCH   3   5
ENDBRANCH   1   2
BRANCH   1  11
ATOM     11  C   UNL     1     167.064 200.236 301.357  1.00  0.00     0.034 C 
BRANCH  11  12
ATOM     12  C   UNL     1     166.464 201.593 301.054  1.00  0.00    -0.077 C 
ATOM     13  C   UNL     1     165.711 201.751 299.940  1.00  0.00    -0.028 C 
ATOM     14  C   UNL     1     166.785 202.748 301.971  1.00  0.00     0.039 C 
BRANCH  13  15
ATOM     15  C   UNL     1     165.054 203.044 299.531  1.00  0.00     0.035 C 
BRANCH  15  16
ATOM     16  C   UNL     1     163.661 202.783 298.939  1.00  0.00     0.079 C 
BRANCH  16  17
ATOM     17  C   UNL     1     162.685 202.224 299.947  1.00  0.00     0.130 C 
ATOM     18  O   UNL     1     161.968 201.272 299.669  1.00  0.00    -0.300 OA
ATOM     19  C   UNL     1     162.593 202.829 301.314  1.00  0.00     0.087 C 
ENDBRANCH  16  17
ENDBRANCH  15  16
ENDBRANCH  13  15
ENDBRANCH  11  12
ENDBRANCH   1  11
TORSDOF 9
ENDMDL
MODEL 7
REMARK VINA RESULT:    -4.004      3.670      5.738
REMARK INTER + INTRA:          -7.477
REMARK INTER:                  -6.106
REMARK INTRA:                  -1.371
REMARK UNBOUND:                -1.366
REMARK SMILES CC(=O)CCC=C(C)CCC=C(C)CCC=C(C)C
REMARK SMILES IDX 10 1 11 2 12 3 13 4 14 5 15 6 16 7 18 8 17 9 19 10 9 11 7 12
REMARK SMILES IDX 6 13 8 14 5 15 4 16 2 17 3 18 1 19
REMARK H PARENT
REMARK Flexibility Score: inf
ROOT
ATOM      1  C   UNL     1     164.801 202.604 302.946  1.00  0.00     0.032 C 
ENDROOT
BRANCH   1   2
ATOM      2  C   UNL     1     165.200 201.815 304.171  1.00  0.00    -0.028 C 
ATOM      3  C   UNL     1     165.385 200.476 304.204  1.00  0.00    -0.077 C 
ATOM      4  C   UNL     1     165.867 199.856 305.490  1.00  0.00     0.039 C 
BRANCH   3   5
ATOM      5  C   UNL     1     165.097 199.572 303.018  1.00  0.00     0.034 C 
BRANCH   5   6
ATOM      6  C   UNL     1     166.386 199.153 302.294  1.00  0.00     0.032 C 
BRANCH   6   7
ATOM      7  C   UNL     1     166.679 200.038 301.107  1.00  0.00    -0.028 C 
ATOM      8  C   UNL     1     167.900 200.800 299.094  1.00  0.00     0.039 C 
ATOM      9  C   UNL     1     167.727 199.872 300.268  1.00  0.00    -0.080 C 
ATOM     10  C   UNL     1     168.777 198.813 300.496  1.00  0.00     0.039 C 
ENDBRANCH   6   7
ENDBRANCH   5   6
ENDBRANCH   3   5
ENDBRANCH   1   2
BRANCH   1  11
ATOM     11  C   UNL     1     163.280 202.794 302.860  1.00  0.00     0.034 C 
BRANCH  11  12
ATOM     12  C   UNL     1     162.760 202.529 301.463  1.00  0.00    -0.077 C 
ATOM     13  C   UNL     1     161.449 202.734 301.195  1.00  0.00    -0.028 C 
ATOM     14  C   UNL     1     163.710 201.976 300.429  1.00  0.00     0.039 C 
BRANCH  13  15
ATOM     15  C   UNL     1     160.810 202.516 299.847  1.00  0.00     0.035 C 
BRANCH  15  16
ATOM     16  C   UNL     1     159.279 202.498 299.965  1.00  0.00     0.079 C 
BRANCH  16  17
ATOM     17  C   UNL     1     158.730 201.136 300.319  1.00  0.00     0.130 C 
ATOM     18  O   UNL     1     158.712 200.230 299.497  1.00  0.00    -0.300 OA
ATOM     19  C   UNL     1     158.205 200.876 301.698  1.00  0.00     0.087 C 
ENDBRANCH  16  17
ENDBRANCH  15  16
ENDBRANCH  13  15
ENDBRANCH  11  12
ENDBRANCH   1  11
TORSDOF 9
ENDMDL
MODEL 8
REMARK VINA RESULT:    -3.973      1.580      2.607
REMARK INTER + INTRA:          -7.429
REMARK INTER:                  -6.051
REMARK INTRA:                  -1.378
REMARK UNBOUND:                -1.366
REMARK SMILES CC(=O)CCC=C(C)CCC=C(C)CCC=C(C)C
REMARK SMILES IDX 10 1 11 2 12 3 13 4 14 5 15 6 16 7 18 8 17 9 19 10 9 11 7 12
REMARK SMILES IDX 6 13 8 14 5 15 4 16 2 17 3 18 1 19
REMARK H PARENT
REMARK Flexibility Score: inf
ROOT
ATOM      1  C   UNL     1     166.068 200.019 306.336  1.00  0.00     0.032 C 
ENDROOT
BRANCH   1   2
ATOM      2  C   UNL     1     165.921 199.347 304.991  1.00  0.00    -0.028 C 
ATOM      3  C   UNL     1     165.322 199.898 303.910  1.00  0.00    -0.077 C 
ATOM      4  C   UNL     1     165.335 199.125 302.617  1.00  0.00     0.039 C 
BRANCH   3   5
ATOM      5  C   UNL     1     164.611 201.239 303.954  1.00  0.00     0.034 C 
BRANCH   5   6
ATOM      6  C   UNL     1     165.467 202.359 303.344  1.00  0.00     0.032 C 
BRANCH   6   7
ATOM      7  C   UNL     1     164.986 202.750 301.967  1.00  0.00    -0.028 C 
ATOM      8  C   UNL     1     165.104 202.986 299.507  1.00  0.00     0.039 C 
ATOM      9  C   UNL     1     165.703 202.589 300.831  1.00  0.00    -0.080 C 
ATOM     10  C   UNL     1     167.120 202.072 300.843  1.00  0.00     0.039 C 
ENDBRANCH   6   7
ENDBRANCH   5   6
ENDBRANCH   3   5
ENDBRANCH   1   2
BRANCH   1  11
ATOM     11  C   UNL     1     165.003 199.540 307.332  1.00  0.00     0.034 C 
BRANCH  11  12
ATOM     12  C   UNL     1     164.217 200.698 307.911  1.00  0.00    -0.077 C 
ATOM     13  C   UNL     1     163.442 201.448 307.092  1.00  0.00    -0.028 C 
ATOM     14  C   UNL     1     164.379 201.022 309.376  1.00  0.00     0.039 C 
BRANCH  13  15
ATOM     15  C   UNL     1     162.607 202.618 307.544  1.00  0.00     0.035 C 
BRANCH  15  16
ATOM     16  C   UNL     1     161.112 202.331 307.344  1.00  0.00     0.079 C 
BRANCH  16  17
ATOM     17  C   UNL     1     160.587 202.823 306.015  1.00  0.00     0.130 C 
ATOM     18  O   UNL     1     159.390 203.000 305.837  1.00  0.00    -0.300 OA
ATOM     19  C   UNL     1     161.541 203.111 304.896  1.00  0.00     0.087 C 
ENDBRANCH  16  17
ENDBRANCH  15  16
ENDBRANCH  13  15
ENDBRANCH  11  12
ENDBRANCH   1  11
TORSDOF 9
ENDMDL
MODEL 9
REMARK VINA RESULT:    -3.903      2.321      6.860
REMARK INTER + INTRA:          -7.323
REMARK INTER:                  -6.094
REMARK INTRA:                  -1.229
REMARK UNBOUND:                -1.366
REMARK SMILES CC(=O)CCC=C(C)CCC=C(C)CCC=C(C)C
REMARK SMILES IDX 10 1 11 2 12 3 13 4 14 5 15 6 16 7 18 8 17 9 19 10 9 11 7 12
REMARK SMILES IDX 6 13 8 14 5 15 4 16 2 17 3 18 1 19
REMARK H PARENT
REMARK Flexibility Score: inf
ROOT
ATOM      1  C   UNL     1     166.472 199.359 301.459  1.00  0.00     0.032 C 
ENDROOT
BRANCH   1   2
ATOM      2  C   UNL     1     165.535 200.223 302.270  1.00  0.00    -0.028 C 
ATOM      3  C   UNL     1     165.580 200.364 303.615  1.00  0.00    -0.077 C 
ATOM      4  C   UNL     1     164.624 201.334 304.261  1.00  0.00     0.039 C 
BRANCH   3   5
ATOM      5  C   UNL     1     166.522 199.566 304.499  1.00  0.00     0.034 C 
BRANCH   5   6
ATOM      6  C   UNL     1     166.366 199.938 305.981  1.00  0.00     0.032 C 
BRANCH   6   7
ATOM      7  C   UNL     1     165.680 198.846 306.767  1.00  0.00    -0.028 C 
ATOM      8  C   UNL     1     164.072 197.885 308.383  1.00  0.00     0.039 C 
ATOM      9  C   UNL     1     164.708 199.058 307.684  1.00  0.00    -0.080 C 
ATOM     10  C   UNL     1     164.269 200.445 308.082  1.00  0.00     0.039 C 
ENDBRANCH   6   7
ENDBRANCH   5   6
ENDBRANCH   3   5
ENDBRANCH   1   2
BRANCH   1  11
ATOM     11  C   UNL     1     167.369 200.198 300.539  1.00  0.00     0.034 C 
BRANCH  11  12
ATOM     12  C   UNL     1     166.803 201.585 300.317  1.00  0.00    -0.077 C 
ATOM     13  C   UNL     1     165.958 201.797 299.281  1.00  0.00    -0.028 C 
ATOM     14  C   UNL     1     167.259 202.706 301.219  1.00  0.00     0.039 C 
BRANCH  13  15
ATOM     15  C   UNL     1     165.322 203.125 298.957  1.00  0.00     0.035 C 
BRANCH  15  16
ATOM     16  C   UNL     1     163.793 202.996 298.896  1.00  0.00     0.079 C 
BRANCH  16  17
ATOM     17  C   UNL     1     163.194 202.455 300.172  1.00  0.00     0.130 C 
ATOM     18  O   UNL     1     163.484 202.936 301.259  1.00  0.00    -0.300 OA
ATOM     19  C   UNL     1     162.219 201.318 300.117  1.00  0.00     0.087 C 
ENDBRANCH  16  17
ENDBRANCH  15  16
ENDBRANCH  13  15
ENDBRANCH  11  12
ENDBRANCH   1  11
TORSDOF 9
ENDMDL
