MODEL 1
REMARK VINA RESULT:    -4.564      0.000      0.000
REMARK INTER + INTRA:          -5.314
REMARK INTER:                  -5.231
REMARK INTRA:                  -0.083
REMARK UNBOUND:                -0.083
REMARK SMILES COc1cc(C(=O)[O-])ccc1O
REMARK SMILES IDX 5 1 9 2 4 3 10 4 3 5 11 6 6 7 7 8 8 9 2 10 1 11 12 12
REMARK H PARENT 12 13
REMARK Flexibility Score: inf
ROOT
ATOM      1  C   UNL     1      -3.788 -29.570  -3.139  1.00  0.00     0.001 A 
ATOM      2  C   UNL     1      -5.103 -30.061  -3.197  1.00  0.00     0.014 A 
ATOM      3  C   UNL     1      -2.989 -29.618  -4.295  1.00  0.00     0.060 A 
ATOM      4  C   UNL     1      -5.607 -30.589  -4.386  1.00  0.00     0.051 A 
ATOM      5  C   UNL     1      -3.494 -30.150  -5.499  1.00  0.00     0.161 A 
ATOM      6  C   UNL     1      -4.814 -30.637  -5.534  1.00  0.00     0.157 A 
ENDROOT
BRANCH   1   7
ATOM      7  C   UNL     1      -3.249 -29.010  -1.880  1.00  0.00     0.072 C 
ATOM      8  O   UNL     1      -3.841 -29.206  -0.785  1.00  0.00    -0.545 OA
ATOM      9  O   UNL     1      -2.079 -28.258  -1.885  1.00  0.00    -0.545 OA
ENDBRANCH   1   7
BRANCH   5  10
ATOM     10  O   UNL     1      -2.720 -30.210  -6.669  1.00  0.00    -0.493 OA
ATOM     11  C   UNL     1      -1.313 -30.438  -6.697  1.00  0.00     0.278 C 
ENDBRANCH   5  10
BRANCH   6  12
ATOM     12  O   UNL     1      -5.353 -31.171  -6.705  1.00  0.00    -0.504 OA
ATOM     13  H   UNL     1      -6.218 -30.830  -7.107  1.00  0.00     0.293 HD
ENDBRANCH   6  12
TORSDOF 3
ENDMDL
MODEL 2
REMARK VINA RESULT:    -4.312      1.915      4.222
REMARK INTER + INTRA:          -5.025
REMARK INTER:                  -4.929
REMARK INTRA:                  -0.096
REMARK UNBOUND:                -0.083
REMARK SMILES COc1cc(C(=O)[O-])ccc1O
REMARK SMILES IDX 5 1 9 2 4 3 10 4 3 5 11 6 6 7 7 8 8 9 2 10 1 11 12 12
REMARK H PARENT 12 13
REMARK Flexibility Score: inf
ROOT
ATOM      1  C   UNL     1      -3.423 -29.955  -5.302  1.00  0.00     0.001 A 
ATOM      2  C   UNL     1      -3.126 -29.572  -3.984  1.00  0.00     0.014 A 
ATOM      3  C   UNL     1      -4.703 -30.458  -5.596  1.00  0.00     0.060 A 
ATOM      4  C   UNL     1      -4.089 -29.690  -2.980  1.00  0.00     0.051 A 
ATOM      5  C   UNL     1      -5.679 -30.579  -4.586  1.00  0.00     0.161 A 
ATOM      6  C   UNL     1      -5.360 -30.189  -3.272  1.00  0.00     0.157 A 
ENDROOT
BRANCH   1   7
ATOM      7  C   UNL     1      -2.404 -29.832  -6.369  1.00  0.00     0.072 C 
ATOM      8  O   UNL     1      -2.493 -28.925  -7.239  1.00  0.00    -0.545 OA
ATOM      9  O   UNL     1      -1.332 -30.716  -6.426  1.00  0.00    -0.545 OA
ENDBRANCH   1   7
BRANCH   5  10
ATOM     10  O   UNL     1      -6.965 -31.076  -4.850  1.00  0.00    -0.493 OA
ATOM     11  C   UNL     1      -8.013 -30.329  -5.462  1.00  0.00     0.278 C 
ENDBRANCH   5  10
BRANCH   6  12
ATOM     12  O   UNL     1      -6.296 -30.292  -2.243  1.00  0.00    -0.504 OA
ATOM     13  H   UNL     1      -7.130 -30.862  -2.325  1.00  0.00     0.293 HD
ENDBRANCH   6  12
TORSDOF 3
ENDMDL
MODEL 3
REMARK VINA RESULT:    -4.309      1.392      4.089
REMARK INTER + INTRA:          -5.022
REMARK INTER:                  -4.948
REMARK INTRA:                  -0.074
REMARK UNBOUND:                -0.083
REMARK SMILES COc1cc(C(=O)[O-])ccc1O
REMARK SMILES IDX 5 1 9 2 4 3 10 4 3 5 11 6 6 7 7 8 8 9 2 10 1 11 12 12
REMARK H PARENT 12 13
REMARK Flexibility Score: inf
ROOT
ATOM      1  C   UNL     1      -3.367 -29.943  -5.356  1.00  0.00     0.001 A 
ATOM      2  C   UNL     1      -4.651 -30.456  -5.609  1.00  0.00     0.014 A 
ATOM      3  C   UNL     1      -3.036 -29.545  -4.048  1.00  0.00     0.060 A 
ATOM      4  C   UNL     1      -5.583 -30.568  -4.577  1.00  0.00     0.051 A 
ATOM      5  C   UNL     1      -3.974 -29.657  -3.002  1.00  0.00     0.161 A 
ATOM      6  C   UNL     1      -5.254 -30.173  -3.278  1.00  0.00     0.157 A 
ENDROOT
BRANCH   1   7
ATOM      7  C   UNL     1      -2.376 -29.822  -6.448  1.00  0.00     0.072 C 
ATOM      8  O   UNL     1      -2.489 -28.920  -7.321  1.00  0.00    -0.545 OA
ATOM      9  O   UNL     1      -1.303 -30.704  -6.528  1.00  0.00    -0.545 OA
ENDBRANCH   1   7
BRANCH   5  10
ATOM     10  O   UNL     1      -3.672 -29.269  -1.687  1.00  0.00    -0.493 OA
ATOM     11  C   UNL     1      -2.510 -28.536  -1.306  1.00  0.00     0.278 C 
ENDBRANCH   5  10
BRANCH   6  12
ATOM     12  O   UNL     1      -6.212 -30.300  -2.272  1.00  0.00    -0.504 OA
ATOM     13  H   UNL     1      -6.999 -29.668  -2.192  1.00  0.00     0.293 HD
ENDBRANCH   6  12
TORSDOF 3
ENDMDL
MODEL 4
REMARK VINA RESULT:    -4.111      1.135      3.031
REMARK INTER + INTRA:          -4.795
REMARK INTER:                  -4.692
REMARK INTRA:                  -0.103
REMARK UNBOUND:                -0.083
REMARK SMILES COc1cc(C(=O)[O-])ccc1O
REMARK SMILES IDX 5 1 9 2 4 3 10 4 3 5 11 6 6 7 7 8 8 9 2 10 1 11 12 12
REMARK H PARENT 12 13
REMARK Flexibility Score: inf
ROOT
ATOM      1  C   UNL     1      -3.844 -29.571  -3.204  1.00  0.00     0.001 A 
ATOM      2  C   UNL     1      -3.109 -29.550  -4.402  1.00  0.00     0.014 A 
ATOM      3  C   UNL     1      -5.142 -30.113  -3.209  1.00  0.00     0.060 A 
ATOM      4  C   UNL     1      -3.661 -30.060  -5.578  1.00  0.00     0.051 A 
ATOM      5  C   UNL     1      -5.703 -30.629  -4.394  1.00  0.00     0.161 A 
ATOM      6  C   UNL     1      -4.950 -30.598  -5.582  1.00  0.00     0.157 A 
ENDROOT
BRANCH   1   7
ATOM      7  C   UNL     1      -3.262 -29.032  -1.955  1.00  0.00     0.072 C 
ATOM      8  O   UNL     1      -2.172 -28.400  -1.976  1.00  0.00    -0.545 OA
ATOM      9  O   UNL     1      -3.912 -29.212  -0.739  1.00  0.00    -0.545 OA
ENDBRANCH   1   7
BRANCH   5  10
ATOM     10  O   UNL     1      -6.996 -31.176  -4.428  1.00  0.00    -0.493 OA
ATOM     11  C   UNL     1      -8.194 -30.415  -4.558  1.00  0.00     0.278 C 
ENDBRANCH   5  10
BRANCH   6  12
ATOM     12  O   UNL     1      -5.467 -31.098  -6.777  1.00  0.00    -0.504 OA
ATOM     13  H   UNL     1      -5.161 -30.762  -7.682  1.00  0.00     0.293 HD
ENDBRANCH   6  12
TORSDOF 3
ENDMDL
MODEL 5
REMARK VINA RESULT:    -4.104      9.453     10.419
REMARK INTER + INTRA:          -4.787
REMARK INTER:                  -4.707
REMARK INTRA:                  -0.080
REMARK UNBOUND:                -0.083
REMARK SMILES COc1cc(C(=O)[O-])ccc1O
REMARK SMILES IDX 5 1 9 2 4 3 10 4 3 5 11 6 6 7 7 8 8 9 2 10 1 11 12 12
REMARK H PARENT 12 13
REMARK Flexibility Score: inf
ROOT
ATOM      1  C   UNL     1       4.599 -26.333   0.305  1.00  0.00     0.001 A 
ATOM      2  C   UNL     1       3.278 -26.308   0.783  1.00  0.00     0.014 A 
ATOM      3  C   UNL     1       5.040 -25.299  -0.539  1.00  0.00     0.060 A 
ATOM      4  C   UNL     1       2.417 -25.270   0.424  1.00  0.00     0.051 A 
ATOM      5  C   UNL     1       4.175 -24.248  -0.904  1.00  0.00     0.161 A 
ATOM      6  C   UNL     1       2.856 -24.242  -0.415  1.00  0.00     0.157 A 
ENDROOT
BRANCH   1   7
ATOM      7  C   UNL     1       5.514 -27.433   0.684  1.00  0.00     0.072 C 
ATOM      8  O   UNL     1       6.754 -27.231   0.783  1.00  0.00    -0.545 OA
ATOM      9  O   UNL     1       5.019 -28.708   0.937  1.00  0.00    -0.545 OA
ENDBRANCH   1   7
BRANCH   5  10
ATOM     10  O   UNL     1       4.589 -23.202  -1.744  1.00  0.00    -0.493 OA
ATOM     11  C   UNL     1       5.599 -23.317  -2.743  1.00  0.00     0.278 C 
ENDBRANCH   5  10
BRANCH   6  12
ATOM     12  O   UNL     1       1.967 -23.221  -0.751  1.00  0.00    -0.504 OA
ATOM     13  H   UNL     1       1.502 -22.657  -0.051  1.00  0.00     0.293 HD
ENDBRANCH   6  12
TORSDOF 3
ENDMDL
MODEL 6
REMARK VINA RESULT:    -3.981      7.849     10.157
REMARK INTER + INTRA:          -4.646
REMARK INTER:                  -4.547
REMARK INTRA:                  -0.099
REMARK UNBOUND:                -0.083
REMARK SMILES COc1cc(C(=O)[O-])ccc1O
REMARK SMILES IDX 5 1 9 2 4 3 10 4 3 5 11 6 6 7 7 8 8 9 2 10 1 11 12 12
REMARK H PARENT 12 13
REMARK Flexibility Score: inf
ROOT
ATOM      1  C   UNL     1       4.582 -26.044   0.090  1.00  0.00     0.001 A 
ATOM      2  C   UNL     1       5.046 -24.994  -0.720  1.00  0.00     0.014 A 
ATOM      3  C   UNL     1       3.234 -26.053   0.491  1.00  0.00     0.060 A 
ATOM      4  C   UNL     1       4.181 -23.975  -1.119  1.00  0.00     0.051 A 
ATOM      5  C   UNL     1       2.356 -25.026   0.090  1.00  0.00     0.161 A 
ATOM      6  C   UNL     1       2.842 -23.984  -0.721  1.00  0.00     0.157 A 
ENDROOT
BRANCH   1   7
ATOM      7  C   UNL     1       5.496 -27.127   0.515  1.00  0.00     0.072 C 
ATOM      8  O   UNL     1       5.068 -28.301   0.681  1.00  0.00    -0.545 OA
ATOM      9  O   UNL     1       6.844 -26.866   0.738  1.00  0.00    -0.545 OA
ENDBRANCH   1   7
BRANCH   5  10
ATOM     10  O   UNL     1       1.006 -25.009   0.474  1.00  0.00    -0.493 OA
ATOM     11  C   UNL     1       0.005 -25.878  -0.048  1.00  0.00     0.278 C 
ENDBRANCH   5  10
BRANCH   6  12
ATOM     12  O   UNL     1       2.008 -22.948  -1.140  1.00  0.00    -0.504 OA
ATOM     13  H   UNL     1       0.999 -22.998  -1.057  1.00  0.00     0.293 HD
ENDBRANCH   6  12
TORSDOF 3
ENDMDL
MODEL 7
REMARK VINA RESULT:    -3.979      1.809      3.850
REMARK INTER + INTRA:          -4.643
REMARK INTER:                  -4.558
REMARK INTRA:                  -0.086
REMARK UNBOUND:                -0.083
REMARK SMILES COc1cc(C(=O)[O-])ccc1O
REMARK SMILES IDX 5 1 9 2 4 3 10 4 3 5 11 6 6 7 7 8 8 9 2 10 1 11 12 12
REMARK H PARENT 12 13
REMARK Flexibility Score: inf
ROOT
ATOM      1  C   UNL     1      -5.488 -30.413  -4.429  1.00  0.00     0.001 A 
ATOM      2  C   UNL     1      -5.041 -30.868  -5.681  1.00  0.00     0.014 A 
ATOM      3  C   UNL     1      -4.541 -30.033  -3.462  1.00  0.00     0.060 A 
ATOM      4  C   UNL     1      -3.676 -30.942  -5.959  1.00  0.00     0.051 A 
ATOM      5  C   UNL     1      -3.161 -30.106  -3.738  1.00  0.00     0.161 A 
ATOM      6  C   UNL     1      -2.735 -30.565  -4.998  1.00  0.00     0.157 A 
ENDROOT
BRANCH   1   7
ATOM      7  C   UNL     1      -6.936 -30.333  -4.131  1.00  0.00     0.072 C 
ATOM      8  O   UNL     1      -7.789 -30.657  -5.001  1.00  0.00    -0.545 OA
ATOM      9  O   UNL     1      -7.377 -29.901  -2.885  1.00  0.00    -0.545 OA
ENDBRANCH   1   7
BRANCH   5  10
ATOM     10  O   UNL     1      -2.192 -29.733  -2.792  1.00  0.00    -0.493 OA
ATOM     11  C   UNL     1      -2.306 -28.617  -1.914  1.00  0.00     0.278 C 
ENDBRANCH   5  10
BRANCH   6  12
ATOM     12  O   UNL     1      -1.379 -30.652  -5.312  1.00  0.00    -0.504 OA
ATOM     13  H   UNL     1      -0.667 -30.170  -4.776  1.00  0.00     0.293 HD
ENDBRANCH   6  12
TORSDOF 3
ENDMDL
MODEL 8
REMARK VINA RESULT:    -3.972      8.848      9.818
REMARK INTER + INTRA:          -4.636
REMARK INTER:                  -4.555
REMARK INTRA:                  -0.080
REMARK UNBOUND:                -0.083
REMARK SMILES COc1cc(C(=O)[O-])ccc1O
REMARK SMILES IDX 5 1 9 2 4 3 10 4 3 5 11 6 6 7 7 8 8 9 2 10 1 11 12 12
REMARK H PARENT 12 13
REMARK Flexibility Score: inf
ROOT
ATOM      1  C   UNL     1       2.876 -26.015   0.531  1.00  0.00     0.001 A 
ATOM      2  C   UNL     1       4.230 -26.081   0.164  1.00  0.00     0.014 A 
ATOM      3  C   UNL     1       2.096 -24.938   0.074  1.00  0.00     0.060 A 
ATOM      4  C   UNL     1       4.792 -25.091  -0.644  1.00  0.00     0.051 A 
ATOM      5  C   UNL     1       2.658 -23.936  -0.742  1.00  0.00     0.161 A 
ATOM      6  C   UNL     1       4.017 -24.022  -1.098  1.00  0.00     0.157 A 
ENDROOT
BRANCH   1   7
ATOM      7  C   UNL     1       2.277 -27.063   1.388  1.00  0.00     0.072 C 
ATOM      8  O   UNL     1       1.061 -27.006   1.717  1.00  0.00    -0.545 OA
ATOM      9  O   UNL     1       3.046 -28.129   1.841  1.00  0.00    -0.545 OA
ENDBRANCH   1   7
BRANCH   5  10
ATOM     10  O   UNL     1       1.904 -22.850  -1.214  1.00  0.00    -0.493 OA
ATOM     11  C   UNL     1       0.536 -22.614  -0.891  1.00  0.00     0.278 C 
ENDBRANCH   5  10
BRANCH   6  12
ATOM     12  O   UNL     1       4.613 -23.052  -1.904  1.00  0.00    -0.504 OA
ATOM     13  H   UNL     1       4.384 -22.949  -2.885  1.00  0.00     0.293 HD
ENDBRANCH   6  12
TORSDOF 3
ENDMDL
MODEL 9
REMARK VINA RESULT:    -3.954      1.365      4.498
REMARK INTER + INTRA:          -4.615
REMARK INTER:                  -4.538
REMARK INTRA:                  -0.077
REMARK UNBOUND:                -0.083
REMARK SMILES COc1cc(C(=O)[O-])ccc1O
REMARK SMILES IDX 5 1 9 2 4 3 10 4 3 5 11 6 6 7 7 8 8 9 2 10 1 11 12 12
REMARK H PARENT 12 13
REMARK Flexibility Score: inf
ROOT
ATOM      1  C   UNL     1      -3.681 -29.804  -3.663  1.00  0.00     0.001 A 
ATOM      2  C   UNL     1      -4.909 -30.225  -3.125  1.00  0.00     0.014 A 
ATOM      3  C   UNL     1      -2.765 -29.133  -2.833  1.00  0.00     0.060 A 
ATOM      4  C   UNL     1      -5.213 -29.979  -1.785  1.00  0.00     0.051 A 
ATOM      5  C   UNL     1      -3.068 -28.883  -1.480  1.00  0.00     0.161 A 
ATOM      6  C   UNL     1      -4.303 -29.312  -0.961  1.00  0.00     0.157 A 
ENDROOT
BRANCH   1   7
ATOM      7  C   UNL     1      -3.354 -30.063  -5.083  1.00  0.00     0.072 C 
ATOM      8  O   UNL     1      -4.244 -29.979  -5.972  1.00  0.00    -0.545 OA
ATOM      9  O   UNL     1      -2.058 -30.401  -5.459  1.00  0.00    -0.545 OA
ENDBRANCH   1   7
BRANCH   5  10
ATOM     10  O   UNL     1      -2.173 -28.216  -0.628  1.00  0.00    -0.493 OA
ATOM     11  C   UNL     1      -0.883 -27.749  -1.015  1.00  0.00     0.278 C 
ENDBRANCH   5  10
BRANCH   6  12
ATOM     12  O   UNL     1      -4.643 -29.085   0.372  1.00  0.00    -0.504 OA
ATOM     13  H   UNL     1      -4.995 -29.821   0.974  1.00  0.00     0.293 HD
ENDBRANCH   6  12
TORSDOF 3
ENDMDL
