MODEL 1
REMARK VINA RESULT:    -5.747      0.000      0.000
REMARK INTER + INTRA:          -6.880
REMARK INTER:                  -6.754
REMARK INTRA:                  -0.126
REMARK UNBOUND:                -0.126
REMARK SMILES O=C([O-])C=Cc1ccc(O)c(O)c1
REMARK SMILES IDX 6 1 13 2 7 3 11 4 8 5 9 6 5 7 4 8 2 9 1 10 3 11 12 12 10 14
REMARK H PARENT 12 13 10 15
REMARK Flexibility Score: inf
ROOT
ATOM      1  C   UNL     1      72.907  41.573  -3.900  1.00  0.00    -0.022 A 
ATOM      2  C   UNL     1      73.667  41.370  -5.070  1.00  0.00     0.058 A 
ATOM      3  C   UNL     1      71.735  40.821  -3.715  1.00  0.00     0.012 A 
ATOM      4  C   UNL     1      73.275  40.418  -6.019  1.00  0.00     0.157 A 
ATOM      5  C   UNL     1      71.343  39.870  -4.660  1.00  0.00     0.051 A 
ATOM      6  C   UNL     1      72.110  39.661  -5.813  1.00  0.00     0.157 A 
ENDROOT
BRANCH   1   7
ATOM      7  C   UNL     1      73.276  42.577  -2.872  1.00  0.00     0.010 C 
ATOM      8  C   UNL     1      73.275  43.900  -3.089  1.00  0.00     0.025 C 
BRANCH   8   9
ATOM      9  C   UNL     1      73.658  44.867  -2.047  1.00  0.00     0.064 C 
ATOM     10  O   UNL     1      73.287  44.721  -0.851  1.00  0.00    -0.545 OA
ATOM     11  O   UNL     1      74.442  45.962  -2.387  1.00  0.00    -0.545 OA
ENDBRANCH   8   9
ENDBRANCH   1   7
BRANCH   4  12
ATOM     12  O   UNL     1      74.053  40.243  -7.162  1.00  0.00    -0.504 OA
ATOM     13  H   UNL     1      74.021  39.391  -7.711  1.00  0.00     0.293 HD
ENDBRANCH   4  12
BRANCH   6  14
ATOM     14  O   UNL     1      71.717  38.710  -6.753  1.00  0.00    -0.504 OA
ATOM     15  H   UNL     1      71.001  38.024  -6.546  1.00  0.00     0.293 HD
ENDBRANCH   6  14
TORSDOF 4
ENDMDL
MODEL 2
REMARK VINA RESULT:    -5.648      1.643      5.928
REMARK INTER + INTRA:          -6.764
REMARK INTER:                  -6.610
REMARK INTRA:                  -0.154
REMARK UNBOUND:                -0.126
REMARK SMILES O=C([O-])C=Cc1ccc(O)c(O)c1
REMARK SMILES IDX 6 1 13 2 7 3 11 4 8 5 9 6 5 7 4 8 2 9 1 10 3 11 12 12 10 14
REMARK H PARENT 12 13 10 15
REMARK Flexibility Score: inf
ROOT
ATOM      1  C   UNL     1      74.033  43.271  -4.057  1.00  0.00    -0.022 A 
ATOM      2  C   UNL     1      74.461  44.575  -3.732  1.00  0.00     0.058 A 
ATOM      3  C   UNL     1      73.254  42.563  -3.128  1.00  0.00     0.012 A 
ATOM      4  C   UNL     1      74.095  45.163  -2.516  1.00  0.00     0.157 A 
ATOM      5  C   UNL     1      72.886  43.149  -1.914  1.00  0.00     0.051 A 
ATOM      6  C   UNL     1      73.301  44.449  -1.603  1.00  0.00     0.157 A 
ENDROOT
BRANCH   1   7
ATOM      7  C   UNL     1      74.405  42.602  -5.329  1.00  0.00     0.010 C 
ATOM      8  C   UNL     1      73.946  41.399  -5.699  1.00  0.00     0.025 C 
BRANCH   8   9
ATOM      9  C   UNL     1      74.346  40.761  -6.964  1.00  0.00     0.064 C 
ATOM     10  O   UNL     1      75.125  41.338  -7.769  1.00  0.00    -0.545 OA
ATOM     11  O   UNL     1      73.854  39.500  -7.278  1.00  0.00    -0.545 OA
ENDBRANCH   8   9
ENDBRANCH   1   7
BRANCH   4  12
ATOM     12  O   UNL     1      74.534  46.455  -2.230  1.00  0.00    -0.504 OA
ATOM     13  H   UNL     1      73.944  47.268  -2.367  1.00  0.00     0.293 HD
ENDBRANCH   4  12
BRANCH   6  14
ATOM     14  O   UNL     1      72.931  45.032  -0.392  1.00  0.00    -0.504 OA
ATOM     15  H   UNL     1      71.961  45.227  -0.172  1.00  0.00     0.293 HD
ENDBRANCH   6  14
TORSDOF 4
ENDMDL
MODEL 3
REMARK VINA RESULT:    -5.527      1.037      6.057
REMARK INTER + INTRA:          -6.622
REMARK INTER:                  -6.468
REMARK INTRA:                  -0.154
REMARK UNBOUND:                -0.126
REMARK SMILES O=C([O-])C=Cc1ccc(O)c(O)c1
REMARK SMILES IDX 6 1 13 2 7 3 11 4 8 5 9 6 5 7 4 8 2 9 1 10 3 11 12 12 10 14
REMARK H PARENT 12 13 10 15
REMARK Flexibility Score: inf
ROOT
ATOM      1  C   UNL     1      73.065  42.598  -3.253  1.00  0.00    -0.022 A 
ATOM      2  C   UNL     1      72.784  43.110  -1.969  1.00  0.00     0.058 A 
ATOM      3  C   UNL     1      73.912  43.328  -4.102  1.00  0.00     0.012 A 
ATOM      4  C   UNL     1      73.358  44.312  -1.539  1.00  0.00     0.157 A 
ATOM      5  C   UNL     1      74.488  44.527  -3.675  1.00  0.00     0.051 A 
ATOM      6  C   UNL     1      74.217  45.023  -2.394  1.00  0.00     0.157 A 
ENDROOT
BRANCH   1   7
ATOM      7  C   UNL     1      72.471  41.335  -3.757  1.00  0.00     0.010 C 
ATOM      8  C   UNL     1      72.645  40.876  -5.004  1.00  0.00     0.025 C 
BRANCH   8   9
ATOM      9  C   UNL     1      72.030  39.623  -5.472  1.00  0.00     0.064 C 
ATOM     10  O   UNL     1      71.258  38.957  -4.731  1.00  0.00    -0.545 OA
ATOM     11  O   UNL     1      72.307  39.164  -6.754  1.00  0.00    -0.545 OA
ENDBRANCH   8   9
ENDBRANCH   1   7
BRANCH   4  12
ATOM     12  O   UNL     1      73.060  44.786  -0.263  1.00  0.00    -0.504 OA
ATOM     13  H   UNL     1      72.113  45.010   0.021  1.00  0.00     0.293 HD
ENDBRANCH   4  12
BRANCH   6  14
ATOM     14  O   UNL     1      74.795  46.218  -1.969  1.00  0.00    -0.504 OA
ATOM     15  H   UNL     1      74.290  47.096  -2.010  1.00  0.00     0.293 HD
ENDBRANCH   6  14
TORSDOF 4
ENDMDL
MODEL 4
REMARK VINA RESULT:    -5.459      1.111      2.339
REMARK INTER + INTRA:          -6.542
REMARK INTER:                  -6.416
REMARK INTRA:                  -0.126
REMARK UNBOUND:                -0.126
REMARK SMILES O=C([O-])C=Cc1ccc(O)c(O)c1
REMARK SMILES IDX 6 1 13 2 7 3 11 4 8 5 9 6 5 7 4 8 2 9 1 10 3 11 12 12 10 14
REMARK H PARENT 12 13 10 15
REMARK Flexibility Score: inf
ROOT
ATOM      1  C   UNL     1      74.009  42.104  -4.867  1.00  0.00    -0.022 A 
ATOM      2  C   UNL     1      73.031  41.088  -4.867  1.00  0.00     0.058 A 
ATOM      3  C   UNL     1      74.857  42.228  -5.979  1.00  0.00     0.012 A 
ATOM      4  C   UNL     1      72.891  40.234  -5.968  1.00  0.00     0.157 A 
ATOM      5  C   UNL     1      74.718  41.378  -7.080  1.00  0.00     0.051 A 
ATOM      6  C   UNL     1      73.735  40.381  -7.081  1.00  0.00     0.157 A 
ENDROOT
BRANCH   1   7
ATOM      7  C   UNL     1      74.202  43.025  -3.720  1.00  0.00     0.010 C 
ATOM      8  C   UNL     1      73.688  44.261  -3.663  1.00  0.00     0.025 C 
BRANCH   8   9
ATOM      9  C   UNL     1      73.911  45.152  -2.512  1.00  0.00     0.064 C 
ATOM     10  O   UNL     1      74.635  46.179  -2.611  1.00  0.00    -0.545 OA
ATOM     11  O   UNL     1      73.314  44.856  -1.293  1.00  0.00    -0.545 OA
ENDBRANCH   8   9
ENDBRANCH   1   7
BRANCH   4  12
ATOM     12  O   UNL     1      71.911  39.242  -5.934  1.00  0.00    -0.504 OA
ATOM     13  H   UNL     1      71.682  38.684  -6.748  1.00  0.00     0.293 HD
ENDBRANCH   4  12
BRANCH   6  14
ATOM     14  O   UNL     1      73.597  39.535  -8.181  1.00  0.00    -0.504 OA
ATOM     15  H   UNL     1      73.464  38.537  -8.070  1.00  0.00     0.293 HD
ENDBRANCH   6  14
TORSDOF 4
ENDMDL
MODEL 5
REMARK VINA RESULT:    -5.328      2.254      3.451
REMARK INTER + INTRA:          -6.388
REMARK INTER:                  -6.264
REMARK INTRA:                  -0.124
REMARK UNBOUND:                -0.126
REMARK SMILES O=C([O-])C=Cc1ccc(O)c(O)c1
REMARK SMILES IDX 6 1 13 2 7 3 11 4 8 5 9 6 5 7 4 8 2 9 1 10 3 11 12 12 10 14
REMARK H PARENT 12 13 10 15
REMARK Flexibility Score: inf
ROOT
ATOM      1  C   UNL     1      74.064  40.771  -6.796  1.00  0.00    -0.022 A 
ATOM      2  C   UNL     1      72.988  39.860  -6.804  1.00  0.00     0.058 A 
ATOM      3  C   UNL     1      74.991  40.734  -7.850  1.00  0.00     0.012 A 
ATOM      4  C   UNL     1      72.832  38.951  -7.857  1.00  0.00     0.157 A 
ATOM      5  C   UNL     1      74.836  39.829  -8.903  1.00  0.00     0.051 A 
ATOM      6  C   UNL     1      73.757  38.936  -8.914  1.00  0.00     0.157 A 
ENDROOT
BRANCH   1   7
ATOM      7  C   UNL     1      74.278  41.746  -5.697  1.00  0.00     0.010 C 
ATOM      8  C   UNL     1      73.681  41.660  -4.500  1.00  0.00     0.025 C 
BRANCH   8   9
ATOM      9  C   UNL     1      73.909  42.653  -3.436  1.00  0.00     0.064 C 
ATOM     10  O   UNL     1      73.644  42.392  -2.232  1.00  0.00    -0.545 OA
ATOM     11  O   UNL     1      74.422  43.900  -3.766  1.00  0.00    -0.545 OA
ENDBRANCH   8   9
ENDBRANCH   1   7
BRANCH   4  12
ATOM     12  O   UNL     1      71.754  38.067  -7.832  1.00  0.00    -0.504 OA
ATOM     13  H   UNL     1      71.581  37.449  -7.047  1.00  0.00     0.293 HD
ENDBRANCH   4  12
BRANCH   6  14
ATOM     14  O   UNL     1      73.604  38.035  -9.966  1.00  0.00    -0.504 OA
ATOM     15  H   UNL     1      72.754  38.001 -10.516  1.00  0.00     0.293 HD
ENDBRANCH   6  14
TORSDOF 4
ENDMDL
MODEL 6
REMARK VINA RESULT:    -4.961      1.175      6.078
REMARK INTER + INTRA:          -5.957
REMARK INTER:                  -5.807
REMARK INTRA:                  -0.151
REMARK UNBOUND:                -0.126
REMARK SMILES O=C([O-])C=Cc1ccc(O)c(O)c1
REMARK SMILES IDX 6 1 13 2 7 3 11 4 8 5 9 6 5 7 4 8 2 9 1 10 3 11 12 12 10 14
REMARK H PARENT 12 13 10 15
REMARK Flexibility Score: inf
ROOT
ATOM      1  C   UNL     1      73.502  42.402  -3.985  1.00  0.00    -0.022 A 
ATOM      2  C   UNL     1      72.917  42.616  -2.720  1.00  0.00     0.058 A 
ATOM      3  C   UNL     1      74.268  43.429  -4.560  1.00  0.00     0.012 A 
ATOM      4  C   UNL     1      73.117  43.822  -2.038  1.00  0.00     0.157 A 
ATOM      5  C   UNL     1      74.470  44.632  -3.880  1.00  0.00     0.051 A 
ATOM      6  C   UNL     1      73.899  44.834  -2.617  1.00  0.00     0.157 A 
ENDROOT
BRANCH   1   7
ATOM      7  C   UNL     1      73.309  41.145  -4.751  1.00  0.00     0.010 C 
ATOM      8  C   UNL     1      73.556  41.028  -6.063  1.00  0.00     0.025 C 
BRANCH   8   9
ATOM      9  C   UNL     1      73.343  39.768  -6.793  1.00  0.00     0.064 C 
ATOM     10  O   UNL     1      74.216  39.312  -7.579  1.00  0.00    -0.545 OA
ATOM     11  O   UNL     1      72.155  39.069  -6.616  1.00  0.00    -0.545 OA
ENDBRANCH   8   9
ENDBRANCH   1   7
BRANCH   4  12
ATOM     12  O   UNL     1      72.525  43.998  -0.787  1.00  0.00    -0.504 OA
ATOM     13  H   UNL     1      72.312  43.217  -0.177  1.00  0.00     0.293 HD
ENDBRANCH   4  12
BRANCH   6  14
ATOM     14  O   UNL     1      74.104  46.035  -1.940  1.00  0.00    -0.504 OA
ATOM     15  H   UNL     1      74.090  46.083  -0.928  1.00  0.00     0.293 HD
ENDBRANCH   6  14
TORSDOF 4
ENDMDL
MODEL 7
REMARK VINA RESULT:    -4.646     13.306     13.693
REMARK INTER + INTRA:          -5.587
REMARK INTER:                  -5.434
REMARK INTRA:                  -0.153
REMARK UNBOUND:                -0.126
REMARK SMILES O=C([O-])C=Cc1ccc(O)c(O)c1
REMARK SMILES IDX 6 1 13 2 7 3 11 4 8 5 9 6 5 7 4 8 2 9 1 10 3 11 12 12 10 14
REMARK H PARENT 12 13 10 15
REMARK Flexibility Score: inf
ROOT
ATOM      1  C   UNL     1      69.478  47.576   7.355  1.00  0.00    -0.022 A 
ATOM      2  C   UNL     1      68.206  48.088   7.026  1.00  0.00     0.058 A 
ATOM      3  C   UNL     1      69.607  46.203   7.619  1.00  0.00     0.012 A 
ATOM      4  C   UNL     1      67.096  47.239   6.938  1.00  0.00     0.157 A 
ATOM      5  C   UNL     1      68.502  45.353   7.531  1.00  0.00     0.051 A 
ATOM      6  C   UNL     1      67.244  45.864   7.189  1.00  0.00     0.157 A 
ENDROOT
BRANCH   1   7
ATOM      7  C   UNL     1      70.680  48.439   7.470  1.00  0.00     0.010 C 
ATOM      8  C   UNL     1      71.857  48.015   7.953  1.00  0.00     0.025 C 
BRANCH   8   9
ATOM      9  C   UNL     1      73.026  48.903   8.063  1.00  0.00     0.064 C 
ATOM     10  O   UNL     1      72.889  50.143   8.244  1.00  0.00    -0.545 OA
ATOM     11  O   UNL     1      74.303  48.366   7.963  1.00  0.00    -0.545 OA
ENDBRANCH   8   9
ENDBRANCH   1   7
BRANCH   4  12
ATOM     12  O   UNL     1      65.855  47.780   6.607  1.00  0.00    -0.504 OA
ATOM     13  H   UNL     1      65.764  48.599   6.018  1.00  0.00     0.293 HD
ENDBRANCH   4  12
BRANCH   6  14
ATOM     14  O   UNL     1      66.144  45.014   7.100  1.00  0.00    -0.504 OA
ATOM     15  H   UNL     1      65.996  44.420   6.292  1.00  0.00     0.293 HD
ENDBRANCH   6  14
TORSDOF 4
ENDMDL
MODEL 8
REMARK VINA RESULT:    -4.478     13.831     15.013
REMARK INTER + INTRA:          -5.390
REMARK INTER:                  -5.264
REMARK INTRA:                  -0.125
REMARK UNBOUND:                -0.126
REMARK SMILES O=C([O-])C=Cc1ccc(O)c(O)c1
REMARK SMILES IDX 6 1 13 2 7 3 11 4 8 5 9 6 5 7 4 8 2 9 1 10 3 11 12 12 10 14
REMARK H PARENT 12 13 10 15
REMARK Flexibility Score: inf
ROOT
ATOM      1  C   UNL     1      69.015  48.722   8.659  1.00  0.00    -0.022 A 
ATOM      2  C   UNL     1      68.429  48.142   7.515  1.00  0.00     0.058 A 
ATOM      3  C   UNL     1      68.195  49.042   9.752  1.00  0.00     0.012 A 
ATOM      4  C   UNL     1      67.057  47.867   7.480  1.00  0.00     0.157 A 
ATOM      5  C   UNL     1      66.825  48.767   9.720  1.00  0.00     0.051 A 
ATOM      6  C   UNL     1      66.251  48.177   8.587  1.00  0.00     0.157 A 
ENDROOT
BRANCH   1   7
ATOM      7  C   UNL     1      70.462  49.042   8.739  1.00  0.00     0.010 C 
ATOM      8  C   UNL     1      71.348  48.732   7.782  1.00  0.00     0.025 C 
BRANCH   8   9
ATOM      9  C   UNL     1      72.779  49.056   7.902  1.00  0.00     0.064 C 
ATOM     10  O   UNL     1      73.200  49.834   8.799  1.00  0.00    -0.545 OA
ATOM     11  O   UNL     1      73.683  48.496   7.008  1.00  0.00    -0.545 OA
ENDBRANCH   8   9
ENDBRANCH   1   7
BRANCH   4  12
ATOM     12  O   UNL     1      66.512  47.291   6.333  1.00  0.00    -0.504 OA
ATOM     13  H   UNL     1      66.757  47.608   5.402  1.00  0.00     0.293 HD
ENDBRANCH   4  12
BRANCH   6  14
ATOM     14  O   UNL     1      64.885  47.902   8.558  1.00  0.00    -0.504 OA
ATOM     15  H   UNL     1      64.207  48.604   8.283  1.00  0.00     0.293 HD
ENDBRANCH   6  14
TORSDOF 4
ENDMDL
