MODEL 1
REMARK VINA RESULT:    -7.137      0.000      0.000
REMARK INTER + INTRA:         -11.853
REMARK INTER:                 -10.475
REMARK INTRA:                  -1.378
REMARK UNBOUND:                -1.378
REMARK SMILES O=c1c(O[C@@H]2O[C@H](CO)[C@H](O)[C@@H](O)[C@H]2O)c(-c2ccc(O)c(O)c2)oc2cc(O)cc(O)c12
REMARK SMILES IDX 4 1 3 2 16 3 25 4 2 5 26 6 1 7 33 8 27 9 31 10 28 11 30 12
REMARK SMILES IDX 17 13 18 14 19 15 20 16 24 17 22 18 21 19 23 21 32 23 29 25
REMARK SMILES IDX 5 27 14 28 6 29 12 30 7 31 10 32 15 33 13 35 8 37 9 38 11 40
REMARK H PARENT 21 20 23 22 32 24 29 26 15 34 13 36 9 39 11 41
REMARK Flexibility Score: inf
ROOT
ATOM      1  O   UNL     1     -63.336 -44.324 -35.049  1.00  0.00    -0.454 OA
ENDROOT
BRANCH   1   2
ATOM      2  C   UNL     1     -62.540 -43.364 -34.391  1.00  0.00     0.214 A 
ATOM      3  C   UNL     1     -61.597 -42.656 -35.161  1.00  0.00     0.180 A 
ATOM      4  O   UNL     1     -60.776 -41.783 -34.586  1.00  0.00    -0.452 OA
ATOM      5  C   UNL     1     -62.611 -43.091 -33.006  1.00  0.00     0.239 A 
ATOM      6  C   UNL     1     -60.807 -41.503 -33.290  1.00  0.00     0.146 A 
ATOM      7  O   UNL     1     -63.440 -43.702 -32.278  1.00  0.00    -0.285 OA
ATOM      8  C   UNL     1     -61.738 -42.137 -32.438  1.00  0.00     0.111 A 
ATOM      9  C   UNL     1     -59.906 -40.562 -32.778  1.00  0.00     0.094 A 
ATOM     10  C   UNL     1     -61.753 -41.796 -31.063  1.00  0.00     0.134 A 
ATOM     11  C   UNL     1     -59.924 -40.235 -31.419  1.00  0.00     0.123 A 
ATOM     12  C   UNL     1     -60.844 -40.850 -30.568  1.00  0.00     0.093 A 
BRANCH   3  13
ATOM     13  C   UNL     1     -61.472 -42.874 -36.619  1.00  0.00     0.025 A 
ATOM     14  C   UNL     1     -60.780 -43.997 -37.099  1.00  0.00     0.016 A 
ATOM     15  C   UNL     1     -60.656 -44.217 -38.474  1.00  0.00     0.051 A 
ATOM     16  C   UNL     1     -61.197 -43.300 -39.385  1.00  0.00     0.157 A 
ATOM     17  C   UNL     1     -62.003 -41.950 -37.536  1.00  0.00     0.062 A 
ATOM     18  C   UNL     1     -61.865 -42.162 -38.915  1.00  0.00     0.158 A 
BRANCH  16  19
ATOM     19  O   UNL     1     -61.069 -43.508 -40.757  1.00  0.00    -0.504 OA
ATOM     20  H   UNL     1     -61.803 -43.247 -41.406  1.00  0.00     0.293 HD
ENDBRANCH  16  19
BRANCH  18  21
ATOM     21  O   UNL     1     -62.381 -41.240 -39.823  1.00  0.00    -0.504 OA
ATOM     22  H   UNL     1     -63.379 -41.087 -39.912  1.00  0.00     0.293 HD
ENDBRANCH  18  21
ENDBRANCH   3  13
BRANCH  10  23
ATOM     23  O   UNL     1     -62.666 -42.383 -30.187  1.00  0.00    -0.507 OA
ATOM     24  H   UNL     1     -62.906 -43.368 -30.246  1.00  0.00     0.293 HD
ENDBRANCH  10  23
BRANCH  11  25
ATOM     25  O   UNL     1     -59.034 -39.295 -30.904  1.00  0.00    -0.508 OA
ATOM     26  H   UNL     1     -59.342 -38.561 -30.276  1.00  0.00     0.293 HD
ENDBRANCH  11  25
ENDBRANCH   1   2
BRANCH   1  27
ATOM     27  C   UNL     1     -64.760 -44.422 -35.047  1.00  0.00     0.339 C 
ATOM     28  C   UNL     1     -65.370 -43.271 -35.864  1.00  0.00     0.214 C 
ATOM     29  O   UNL     1     -65.201 -45.705 -35.490  1.00  0.00    -0.332 OA
ATOM     30  C   UNL     1     -65.071 -43.471 -37.358  1.00  0.00     0.180 C 
ATOM     31  C   UNL     1     -64.964 -45.967 -36.873  1.00  0.00     0.179 C 
ATOM     32  C   UNL     1     -65.538 -44.866 -37.803  1.00  0.00     0.177 C 
BRANCH  28  33
ATOM     33  O   UNL     1     -66.756 -43.225 -35.632  1.00  0.00    -0.384 OA
ATOM     34  H   UNL     1     -67.189 -43.784 -36.334  1.00  0.00     0.211 HD
ENDBRANCH  28  33
BRANCH  30  35
ATOM     35  O   UNL     1     -65.659 -42.454 -38.134  1.00  0.00    -0.387 OA
ATOM     36  H   UNL     1     -66.630 -42.647 -38.214  1.00  0.00     0.211 HD
ENDBRANCH  30  35
BRANCH  31  37
ATOM     37  C   UNL     1     -63.491 -46.337 -37.156  1.00  0.00     0.191 C 
BRANCH  37  38
ATOM     38  O   UNL     1     -63.411 -47.160 -38.288  1.00  0.00    -0.394 OA
ATOM     39  H   UNL     1     -62.928 -46.630 -38.986  1.00  0.00     0.210 HD
ENDBRANCH  37  38
ENDBRANCH  31  37
BRANCH  32  40
ATOM     40  O   UNL     1     -65.154 -45.078 -39.137  1.00  0.00    -0.387 OA
ATOM     41  H   UNL     1     -65.390 -46.019 -39.354  1.00  0.00     0.211 HD
ENDBRANCH  32  40
ENDBRANCH   1  27
TORSDOF 12
ENDMDL
MODEL 2
REMARK VINA RESULT:    -6.973      0.987      1.736
REMARK INTER + INTRA:         -11.612
REMARK INTER:                  -9.782
REMARK INTRA:                  -1.830
REMARK UNBOUND:                -1.378
REMARK SMILES O=c1c(O[C@@H]2O[C@H](CO)[C@H](O)[C@@H](O)[C@H]2O)c(-c2ccc(O)c(O)c2)oc2cc(O)cc(O)c12
REMARK SMILES IDX 4 1 3 2 16 3 25 4 2 5 26 6 1 7 33 8 27 9 31 10 28 11 30 12
REMARK SMILES IDX 17 13 18 14 19 15 20 16 24 17 22 18 21 19 23 21 32 23 29 25
REMARK SMILES IDX 5 27 14 28 6 29 12 30 7 31 10 32 15 33 13 35 8 37 9 38 11 40
REMARK H PARENT 21 20 23 22 32 24 29 26 15 34 13 36 9 39 11 41
REMARK Flexibility Score: inf
ROOT
ATOM      1  O   UNL     1     -63.932 -43.888 -34.954  1.00  0.00    -0.454 OA
ENDROOT
BRANCH   1   2
ATOM      2  C   UNL     1     -62.965 -43.131 -34.262  1.00  0.00     0.214 A 
ATOM      3  C   UNL     1     -61.852 -42.668 -34.989  1.00  0.00     0.180 A 
ATOM      4  O   UNL     1     -60.877 -42.003 -34.379  1.00  0.00    -0.452 OA
ATOM      5  C   UNL     1     -63.030 -42.837 -32.882  1.00  0.00     0.239 A 
ATOM      6  C   UNL     1     -60.897 -41.710 -33.086  1.00  0.00     0.146 A 
ATOM      7  O   UNL     1     -64.008 -43.232 -32.190  1.00  0.00    -0.285 OA
ATOM      8  C   UNL     1     -61.985 -42.104 -32.276  1.00  0.00     0.111 A 
ATOM      9  C   UNL     1     -59.826 -40.998 -32.535  1.00  0.00     0.094 A 
ATOM     10  C   UNL     1     -61.979 -41.756 -30.902  1.00  0.00     0.134 A 
ATOM     11  C   UNL     1     -59.826 -40.663 -31.177  1.00  0.00     0.123 A 
ATOM     12  C   UNL     1     -60.898 -41.041 -30.368  1.00  0.00     0.093 A 
BRANCH   3  13
ATOM     13  C   UNL     1     -61.719 -42.923 -36.441  1.00  0.00     0.025 A 
ATOM     14  C   UNL     1     -61.153 -44.128 -36.889  1.00  0.00     0.016 A 
ATOM     15  C   UNL     1     -61.024 -44.382 -38.256  1.00  0.00     0.051 A 
ATOM     16  C   UNL     1     -61.431 -43.423 -39.193  1.00  0.00     0.157 A 
ATOM     17  C   UNL     1     -62.115 -41.958 -37.384  1.00  0.00     0.062 A 
ATOM     18  C   UNL     1     -61.970 -42.207 -38.756  1.00  0.00     0.158 A 
BRANCH  16  19
ATOM     19  O   UNL     1     -61.296 -43.667 -40.559  1.00  0.00    -0.504 OA
ATOM     20  H   UNL     1     -61.368 -44.603 -40.941  1.00  0.00     0.293 HD
ENDBRANCH  16  19
BRANCH  18  21
ATOM     21  O   UNL     1     -62.352 -41.246 -39.689  1.00  0.00    -0.504 OA
ATOM     22  H   UNL     1     -62.930 -41.482 -40.486  1.00  0.00     0.293 HD
ENDBRANCH  18  21
ENDBRANCH   3  13
BRANCH  10  23
ATOM     23  O   UNL     1     -63.039 -42.108 -30.067  1.00  0.00    -0.507 OA
ATOM     24  H   UNL     1     -63.734 -42.793 -30.346  1.00  0.00     0.293 HD
ENDBRANCH  10  23
BRANCH  11  25
ATOM     25  O   UNL     1     -58.765 -39.949 -30.624  1.00  0.00    -0.508 OA
ATOM     26  H   UNL     1     -57.824 -40.325 -30.608  1.00  0.00     0.293 HD
ENDBRANCH  11  25
ENDBRANCH   1   2
BRANCH   1  27
ATOM     27  C   UNL     1     -65.185 -43.436 -35.469  1.00  0.00     0.339 C 
ATOM     28  C   UNL     1     -65.264 -43.705 -36.980  1.00  0.00     0.214 C 
ATOM     29  O   UNL     1     -66.283 -43.998 -34.752  1.00  0.00    -0.332 OA
ATOM     30  C   UNL     1     -65.376 -45.216 -37.240  1.00  0.00     0.180 C 
ATOM     31  C   UNL     1     -66.460 -45.402 -34.945  1.00  0.00     0.179 C 
ATOM     32  C   UNL     1     -66.553 -45.798 -36.442  1.00  0.00     0.177 C 
BRANCH  28  33
ATOM     33  O   UNL     1     -66.371 -43.022 -37.513  1.00  0.00    -0.384 OA
ATOM     34  H   UNL     1     -67.012 -42.874 -36.766  1.00  0.00     0.211 HD
ENDBRANCH  28  33
BRANCH  30  35
ATOM     35  O   UNL     1     -65.496 -45.487 -38.616  1.00  0.00    -0.387 OA
ATOM     36  H   UNL     1     -66.201 -46.175 -38.736  1.00  0.00     0.211 HD
ENDBRANCH  30  35
BRANCH  31  37
ATOM     37  C   UNL     1     -65.452 -46.238 -34.125  1.00  0.00     0.191 C 
BRANCH  37  38
ATOM     38  O   UNL     1     -65.321 -45.704 -32.836  1.00  0.00    -0.394 OA
ATOM     39  H   UNL     1     -66.013 -44.986 -32.758  1.00  0.00     0.210 HD
ENDBRANCH  37  38
ENDBRANCH  31  37
BRANCH  32  40
ATOM     40  O   UNL     1     -66.571 -47.193 -36.597  1.00  0.00    -0.387 OA
ATOM     41  H   UNL     1     -67.483 -47.496 -36.343  1.00  0.00     0.211 HD
ENDBRANCH  32  40
ENDBRANCH   1  27
TORSDOF 12
ENDMDL
MODEL 3
REMARK VINA RESULT:    -6.894      3.759      5.928
REMARK INTER + INTRA:         -11.495
REMARK INTER:                 -10.086
REMARK INTRA:                  -1.410
REMARK UNBOUND:                -1.378
REMARK SMILES O=c1c(O[C@@H]2O[C@H](CO)[C@H](O)[C@@H](O)[C@H]2O)c(-c2ccc(O)c(O)c2)oc2cc(O)cc(O)c12
REMARK SMILES IDX 4 1 3 2 16 3 25 4 2 5 26 6 1 7 33 8 27 9 31 10 28 11 30 12
REMARK SMILES IDX 17 13 18 14 19 15 20 16 24 17 22 18 21 19 23 21 32 23 29 25
REMARK SMILES IDX 5 27 14 28 6 29 12 30 7 31 10 32 15 33 13 35 8 37 9 38 11 40
REMARK H PARENT 21 20 23 22 32 24 29 26 15 34 13 36 9 39 11 41
REMARK Flexibility Score: inf
ROOT
ATOM      1  O   UNL     1     -62.245 -44.460 -33.038  1.00  0.00    -0.454 OA
ENDROOT
BRANCH   1   2
ATOM      2  C   UNL     1     -60.934 -44.972 -32.947  1.00  0.00     0.214 A 
ATOM      3  C   UNL     1     -59.866 -44.058 -33.024  1.00  0.00     0.180 A 
ATOM      4  O   UNL     1     -58.609 -44.488 -33.006  1.00  0.00    -0.452 OA
ATOM      5  C   UNL     1     -60.629 -46.346 -32.812  1.00  0.00     0.239 A 
ATOM      6  C   UNL     1     -58.281 -45.767 -32.886  1.00  0.00     0.146 A 
ATOM      7  O   UNL     1     -61.554 -47.200 -32.740  1.00  0.00    -0.285 OA
ATOM      8  C   UNL     1     -59.279 -46.759 -32.770  1.00  0.00     0.111 A 
ATOM      9  C   UNL     1     -56.926 -46.120 -32.869  1.00  0.00     0.094 A 
ATOM     10  C   UNL     1     -58.888 -48.113 -32.625  1.00  0.00     0.134 A 
ATOM     11  C   UNL     1     -56.549 -47.459 -32.730  1.00  0.00     0.123 A 
ATOM     12  C   UNL     1     -57.526 -48.448 -32.608  1.00  0.00     0.093 A 
BRANCH   3  13
ATOM     13  C   UNL     1     -60.104 -42.603 -33.150  1.00  0.00     0.025 A 
ATOM     14  C   UNL     1     -60.398 -42.051 -34.407  1.00  0.00     0.016 A 
ATOM     15  C   UNL     1     -60.627 -40.680 -34.541  1.00  0.00     0.051 A 
ATOM     16  C   UNL     1     -60.536 -39.838 -33.423  1.00  0.00     0.157 A 
ATOM     17  C   UNL     1     -60.002 -41.754 -32.034  1.00  0.00     0.062 A 
ATOM     18  C   UNL     1     -60.216 -40.375 -32.170  1.00  0.00     0.158 A 
BRANCH  16  19
ATOM     19  O   UNL     1     -60.755 -38.467 -33.552  1.00  0.00    -0.504 OA
ATOM     20  H   UNL     1     -61.140 -38.067 -34.400  1.00  0.00     0.293 HD
ENDBRANCH  16  19
BRANCH  18  21
ATOM     21  O   UNL     1     -60.103 -39.534 -31.067  1.00  0.00    -0.504 OA
ATOM     22  H   UNL     1     -60.751 -38.770 -30.915  1.00  0.00     0.293 HD
ENDBRANCH  18  21
ENDBRANCH   3  13
BRANCH  10  23
ATOM     23  O   UNL     1     -59.838 -49.125 -32.490  1.00  0.00    -0.507 OA
ATOM     24  H   UNL     1     -59.665 -50.068 -32.822  1.00  0.00     0.293 HD
ENDBRANCH  10  23
BRANCH  11  25
ATOM     25  O   UNL     1     -55.203 -47.817 -32.706  1.00  0.00    -0.508 OA
ATOM     26  H   UNL     1     -54.857 -48.616 -33.227  1.00  0.00     0.293 HD
ENDBRANCH  11  25
ENDBRANCH   1   2
BRANCH   1  27
ATOM     27  C   UNL     1     -63.060 -44.359 -34.206  1.00  0.00     0.339 C 
ATOM     28  C   UNL     1     -64.204 -45.383 -34.142  1.00  0.00     0.214 C 
ATOM     29  O   UNL     1     -63.525 -43.026 -34.410  1.00  0.00    -0.332 OA
ATOM     30  C   UNL     1     -65.212 -44.979 -33.055  1.00  0.00     0.180 C 
ATOM     31  C   UNL     1     -64.472 -42.575 -33.442  1.00  0.00     0.179 C 
ATOM     32  C   UNL     1     -65.681 -43.535 -33.287  1.00  0.00     0.177 C 
BRANCH  28  33
ATOM     33  O   UNL     1     -64.827 -45.457 -35.401  1.00  0.00    -0.384 OA
ATOM     34  H   UNL     1     -64.959 -46.422 -35.606  1.00  0.00     0.211 HD
ENDBRANCH  28  33
BRANCH  30  35
ATOM     35  O   UNL     1     -66.295 -45.877 -33.008  1.00  0.00    -0.387 OA
ATOM     36  H   UNL     1     -66.781 -45.732 -32.155  1.00  0.00     0.211 HD
ENDBRANCH  30  35
BRANCH  31  37
ATOM     37  C   UNL     1     -63.803 -42.174 -32.109  1.00  0.00     0.191 C 
BRANCH  37  38
ATOM     38  O   UNL     1     -63.677 -40.780 -32.035  1.00  0.00    -0.394 OA
ATOM     39  H   UNL     1     -64.562 -40.403 -32.314  1.00  0.00     0.210 HD
ENDBRANCH  37  38
ENDBRANCH  31  37
BRANCH  32  40
ATOM     40  O   UNL     1     -66.509 -43.141 -32.224  1.00  0.00    -0.387 OA
ATOM     41  H   UNL     1     -65.968 -42.535 -31.652  1.00  0.00     0.211 HD
ENDBRANCH  32  40
ENDBRANCH   1  27
TORSDOF 12
ENDMDL
MODEL 4
REMARK VINA RESULT:    -6.726      2.849      7.535
REMARK INTER + INTRA:         -11.249
REMARK INTER:                  -9.743
REMARK INTRA:                  -1.506
REMARK UNBOUND:                -1.378
REMARK SMILES O=c1c(O[C@@H]2O[C@H](CO)[C@H](O)[C@@H](O)[C@H]2O)c(-c2ccc(O)c(O)c2)oc2cc(O)cc(O)c12
REMARK SMILES IDX 4 1 3 2 16 3 25 4 2 5 26 6 1 7 33 8 27 9 31 10 28 11 30 12
REMARK SMILES IDX 17 13 18 14 19 15 20 16 24 17 22 18 21 19 23 21 32 23 29 25
REMARK SMILES IDX 5 27 14 28 6 29 12 30 7 31 10 32 15 33 13 35 8 37 9 38 11 40
REMARK H PARENT 21 20 23 22 32 24 29 26 15 34 13 36 9 39 11 41
REMARK Flexibility Score: inf
ROOT
ATOM      1  O   UNL     1     -61.518 -42.811 -34.538  1.00  0.00    -0.454 OA
ENDROOT
BRANCH   1   2
ATOM      2  C   UNL     1     -61.695 -43.684 -35.631  1.00  0.00     0.214 A 
ATOM      3  C   UNL     1     -61.085 -44.951 -35.563  1.00  0.00     0.180 A 
ATOM      4  O   UNL     1     -61.165 -45.793 -36.588  1.00  0.00    -0.452 OA
ATOM      5  C   UNL     1     -62.419 -43.353 -36.799  1.00  0.00     0.239 A 
ATOM      6  C   UNL     1     -61.830 -45.520 -37.702  1.00  0.00     0.146 A 
ATOM      7  O   UNL     1     -62.981 -42.229 -36.904  1.00  0.00    -0.285 OA
ATOM      8  C   UNL     1     -62.502 -44.287 -37.855  1.00  0.00     0.111 A 
ATOM      9  C   UNL     1     -61.863 -46.476 -38.724  1.00  0.00     0.094 A 
ATOM     10  C   UNL     1     -63.218 -44.040 -39.053  1.00  0.00     0.134 A 
ATOM     11  C   UNL     1     -62.568 -46.221 -39.904  1.00  0.00     0.123 A 
ATOM     12  C   UNL     1     -63.241 -45.010 -40.065  1.00  0.00     0.093 A 
BRANCH   3  13
ATOM     13  C   UNL     1     -60.323 -45.377 -34.369  1.00  0.00     0.025 A 
ATOM     14  C   UNL     1     -59.006 -44.927 -34.185  1.00  0.00     0.016 A 
ATOM     15  C   UNL     1     -58.275 -45.320 -33.061  1.00  0.00     0.051 A 
ATOM     16  C   UNL     1     -58.842 -46.191 -32.121  1.00  0.00     0.157 A 
ATOM     17  C   UNL     1     -60.884 -46.261 -33.430  1.00  0.00     0.062 A 
ATOM     18  C   UNL     1     -60.145 -46.667 -32.310  1.00  0.00     0.158 A 
BRANCH  16  19
ATOM     19  O   UNL     1     -58.115 -46.593 -31.002  1.00  0.00    -0.504 OA
ATOM     20  H   UNL     1     -58.555 -47.077 -30.227  1.00  0.00     0.293 HD
ENDBRANCH  16  19
BRANCH  18  21
ATOM     21  O   UNL     1     -60.698 -47.551 -31.386  1.00  0.00    -0.504 OA
ATOM     22  H   UNL     1     -61.331 -48.288 -31.672  1.00  0.00     0.293 HD
ENDBRANCH  18  21
ENDBRANCH   3  13
BRANCH  10  23
ATOM     23  O   UNL     1     -63.910 -42.844 -39.242  1.00  0.00    -0.507 OA
ATOM     24  H   UNL     1     -63.828 -42.070 -38.591  1.00  0.00     0.293 HD
ENDBRANCH  10  23
BRANCH  11  25
ATOM     25  O   UNL     1     -62.610 -47.171 -40.923  1.00  0.00    -0.508 OA
ATOM     26  H   UNL     1     -62.788 -48.150 -40.729  1.00  0.00     0.293 HD
ENDBRANCH  11  25
ENDBRANCH   1   2
BRANCH   1  27
ATOM     27  C   UNL     1     -62.412 -42.591 -33.447  1.00  0.00     0.339 C 
ATOM     28  C   UNL     1     -61.732 -42.973 -32.122  1.00  0.00     0.214 C 
ATOM     29  O   UNL     1     -62.918 -41.257 -33.441  1.00  0.00    -0.332 OA
ATOM     30  C   UNL     1     -60.622 -41.964 -31.790  1.00  0.00     0.180 C 
ATOM     31  C   UNL     1     -61.947 -40.257 -33.134  1.00  0.00     0.179 C 
ATOM     32  C   UNL     1     -61.189 -40.537 -31.809  1.00  0.00     0.177 C 
BRANCH  28  33
ATOM     33  O   UNL     1     -62.699 -43.008 -31.102  1.00  0.00    -0.384 OA
ATOM     34  H   UNL     1     -62.270 -42.646 -30.280  1.00  0.00     0.211 HD
ENDBRANCH  28  33
BRANCH  30  35
ATOM     35  O   UNL     1     -60.014 -42.266 -30.557  1.00  0.00    -0.387 OA
ATOM     36  H   UNL     1     -59.970 -41.432 -30.021  1.00  0.00     0.211 HD
ENDBRANCH  30  35
BRANCH  31  37
ATOM     37  C   UNL     1     -61.031 -39.940 -34.337  1.00  0.00     0.191 C 
BRANCH  37  38
ATOM     38  O   UNL     1     -60.803 -38.560 -34.418  1.00  0.00    -0.394 OA
ATOM     39  H   UNL     1     -61.036 -38.184 -33.520  1.00  0.00     0.210 HD
ENDBRANCH  37  38
ENDBRANCH  31  37
BRANCH  32  40
ATOM     40  O   UNL     1     -60.143 -39.620 -31.620  1.00  0.00    -0.387 OA
ATOM     41  H   UNL     1     -59.391 -40.127 -31.213  1.00  0.00     0.211 HD
ENDBRANCH  32  40
ENDBRANCH   1  27
TORSDOF 12
ENDMDL
MODEL 5
REMARK VINA RESULT:    -6.718      1.207      2.254
REMARK INTER + INTRA:         -11.238
REMARK INTER:                  -9.837
REMARK INTRA:                  -1.402
REMARK UNBOUND:                -1.378
REMARK SMILES O=c1c(O[C@@H]2O[C@H](CO)[C@H](O)[C@@H](O)[C@H]2O)c(-c2ccc(O)c(O)c2)oc2cc(O)cc(O)c12
REMARK SMILES IDX 4 1 3 2 16 3 25 4 2 5 26 6 1 7 33 8 27 9 31 10 28 11 30 12
REMARK SMILES IDX 17 13 18 14 19 15 20 16 24 17 22 18 21 19 23 21 32 23 29 25
REMARK SMILES IDX 5 27 14 28 6 29 12 30 7 31 10 32 15 33 13 35 8 37 9 38 11 40
REMARK H PARENT 21 20 23 22 32 24 29 26 15 34 13 36 9 39 11 41
REMARK Flexibility Score: inf
ROOT
ATOM      1  O   UNL     1     -63.399 -44.178 -34.952  1.00  0.00    -0.454 OA
ENDROOT
BRANCH   1   2
ATOM      2  C   UNL     1     -62.560 -43.245 -34.309  1.00  0.00     0.214 A 
ATOM      3  C   UNL     1     -61.596 -42.581 -35.093  1.00  0.00     0.180 A 
ATOM      4  O   UNL     1     -60.737 -41.737 -34.532  1.00  0.00    -0.452 OA
ATOM      5  C   UNL     1     -62.608 -42.959 -32.926  1.00  0.00     0.239 A 
ATOM      6  C   UNL     1     -60.746 -41.445 -33.239  1.00  0.00     0.146 A 
ATOM      7  O   UNL     1     -63.455 -43.530 -32.186  1.00  0.00    -0.285 OA
ATOM      8  C   UNL     1     -61.694 -42.035 -32.374  1.00  0.00     0.111 A 
ATOM      9  C   UNL     1     -59.804 -40.537 -32.742  1.00  0.00     0.094 A 
ATOM     10  C   UNL     1     -61.683 -41.683 -31.001  1.00  0.00     0.134 A 
ATOM     11  C   UNL     1     -59.797 -40.199 -31.386  1.00  0.00     0.123 A 
ATOM     12  C   UNL     1     -60.733 -40.770 -30.522  1.00  0.00     0.093 A 
BRANCH   3  13
ATOM     13  C   UNL     1     -61.493 -42.815 -36.550  1.00  0.00     0.025 A 
ATOM     14  C   UNL     1     -60.818 -43.950 -37.028  1.00  0.00     0.016 A 
ATOM     15  C   UNL     1     -60.714 -44.185 -38.401  1.00  0.00     0.051 A 
ATOM     16  C   UNL     1     -61.259 -43.273 -39.315  1.00  0.00     0.157 A 
ATOM     17  C   UNL     1     -62.028 -41.897 -37.470  1.00  0.00     0.062 A 
ATOM     18  C   UNL     1     -61.910 -42.124 -38.849  1.00  0.00     0.158 A 
BRANCH  16  19
ATOM     19  O   UNL     1     -61.151 -43.497 -40.687  1.00  0.00    -0.504 OA
ATOM     20  H   UNL     1     -61.893 -43.944 -41.212  1.00  0.00     0.293 HD
ENDBRANCH  16  19
BRANCH  18  21
ATOM     21  O   UNL     1     -62.430 -41.207 -39.759  1.00  0.00    -0.504 OA
ATOM     22  H   UNL     1     -62.419 -40.212 -39.573  1.00  0.00     0.293 HD
ENDBRANCH  18  21
ENDBRANCH   3  13
BRANCH  10  23
ATOM     23  O   UNL     1     -62.610 -42.227 -30.113  1.00  0.00    -0.507 OA
ATOM     24  H   UNL     1     -62.752 -41.840 -29.185  1.00  0.00     0.293 HD
ENDBRANCH  10  23
BRANCH  11  25
ATOM     25  O   UNL     1     -58.866 -39.290 -30.886  1.00  0.00    -0.508 OA
ATOM     26  H   UNL     1     -57.870 -39.426 -31.017  1.00  0.00     0.293 HD
ENDBRANCH  11  25
ENDBRANCH   1   2
BRANCH   1  27
ATOM     27  C   UNL     1     -63.243 -45.596 -35.006  1.00  0.00     0.339 C 
ATOM     28  C   UNL     1     -63.952 -46.251 -33.810  1.00  0.00     0.214 C 
ATOM     29  O   UNL     1     -63.672 -46.127 -36.259  1.00  0.00    -0.332 OA
ATOM     30  C   UNL     1     -65.475 -46.126 -33.969  1.00  0.00     0.180 C 
ATOM     31  C   UNL     1     -65.080 -46.053 -36.482  1.00  0.00     0.179 C 
ATOM     32  C   UNL     1     -65.907 -46.686 -35.332  1.00  0.00     0.177 C 
BRANCH  28  33
ATOM     33  O   UNL     1     -63.566 -47.602 -33.729  1.00  0.00    -0.384 OA
ATOM     34  H   UNL     1     -62.814 -47.652 -33.080  1.00  0.00     0.211 HD
ENDBRANCH  28  33
BRANCH  30  35
ATOM     35  O   UNL     1     -66.150 -46.760 -32.908  1.00  0.00    -0.387 OA
ATOM     36  H   UNL     1     -66.682 -46.075 -32.426  1.00  0.00     0.211 HD
ENDBRANCH  30  35
BRANCH  31  37
ATOM     37  C   UNL     1     -65.535 -44.634 -36.888  1.00  0.00     0.191 C 
BRANCH  37  38
ATOM     38  O   UNL     1     -64.636 -44.086 -37.813  1.00  0.00    -0.394 OA
ATOM     39  H   UNL     1     -64.530 -44.767 -38.538  1.00  0.00     0.210 HD
ENDBRANCH  37  38
ENDBRANCH  31  37
BRANCH  32  40
ATOM     40  O   UNL     1     -67.281 -46.459 -35.512  1.00  0.00    -0.387 OA
ATOM     41  H   UNL     1     -67.630 -47.227 -36.037  1.00  0.00     0.211 HD
ENDBRANCH  32  40
ENDBRANCH   1  27
TORSDOF 12
ENDMDL
MODEL 6
REMARK VINA RESULT:    -6.702      1.884      3.413
REMARK INTER + INTRA:         -11.215
REMARK INTER:                  -9.797
REMARK INTRA:                  -1.418
REMARK UNBOUND:                -1.378
REMARK SMILES O=c1c(O[C@@H]2O[C@H](CO)[C@H](O)[C@@H](O)[C@H]2O)c(-c2ccc(O)c(O)c2)oc2cc(O)cc(O)c12
REMARK SMILES IDX 4 1 3 2 16 3 25 4 2 5 26 6 1 7 33 8 27 9 31 10 28 11 30 12
REMARK SMILES IDX 17 13 18 14 19 15 20 16 24 17 22 18 21 19 23 21 32 23 29 25
REMARK SMILES IDX 5 27 14 28 6 29 12 30 7 31 10 32 15 33 13 35 8 37 9 38 11 40
REMARK H PARENT 21 20 23 22 32 24 29 26 15 34 13 36 9 39 11 41
REMARK Flexibility Score: inf
ROOT
ATOM      1  O   UNL     1     -61.501 -44.198 -36.908  1.00  0.00    -0.454 OA
ENDROOT
BRANCH   1   2
ATOM      2  C   UNL     1     -61.612 -43.447 -35.721  1.00  0.00     0.214 A 
ATOM      3  C   UNL     1     -62.631 -42.478 -35.651  1.00  0.00     0.180 A 
ATOM      4  O   UNL     1     -62.747 -41.696 -34.582  1.00  0.00    -0.452 OA
ATOM      5  C   UNL     1     -60.747 -43.586 -34.612  1.00  0.00     0.239 A 
ATOM      6  C   UNL     1     -61.953 -41.792 -33.524  1.00  0.00     0.146 A 
ATOM      7  O   UNL     1     -59.820 -44.441 -34.631  1.00  0.00    -0.285 OA
ATOM      8  C   UNL     1     -60.920 -42.754 -33.484  1.00  0.00     0.111 A 
ATOM      9  C   UNL     1     -62.159 -40.928 -32.442  1.00  0.00     0.094 A 
ATOM     10  C   UNL     1     -60.105 -42.838 -32.328  1.00  0.00     0.134 A 
ATOM     11  C   UNL     1     -61.347 -41.015 -31.307  1.00  0.00     0.123 A 
ATOM     12  C   UNL     1     -60.327 -41.965 -31.253  1.00  0.00     0.093 A 
BRANCH   3  13
ATOM     13  C   UNL     1     -63.586 -42.281 -36.764  1.00  0.00     0.025 A 
ATOM     14  C   UNL     1     -64.733 -43.087 -36.849  1.00  0.00     0.016 A 
ATOM     15  C   UNL     1     -65.645 -42.911 -37.893  1.00  0.00     0.051 A 
ATOM     16  C   UNL     1     -65.406 -41.947 -38.882  1.00  0.00     0.157 A 
ATOM     17  C   UNL     1     -63.345 -41.323 -37.764  1.00  0.00     0.062 A 
ATOM     18  C   UNL     1     -64.251 -41.157 -38.821  1.00  0.00     0.158 A 
BRANCH  16  19
ATOM     19  O   UNL     1     -66.308 -41.773 -39.931  1.00  0.00    -0.504 OA
ATOM     20  H   UNL     1     -66.024 -41.361 -40.812  1.00  0.00     0.293 HD
ENDBRANCH  16  19
BRANCH  18  21
ATOM     21  O   UNL     1     -64.005 -40.216 -39.817  1.00  0.00    -0.504 OA
ATOM     22  H   UNL     1     -64.337 -39.262 -39.739  1.00  0.00     0.293 HD
ENDBRANCH  18  21
ENDBRANCH   3  13
BRANCH  10  23
ATOM     23  O   UNL     1     -59.083 -43.783 -32.236  1.00  0.00    -0.507 OA
ATOM     24  H   UNL     1     -58.701 -44.238 -33.058  1.00  0.00     0.293 HD
ENDBRANCH  10  23
BRANCH  11  25
ATOM     25  O   UNL     1     -61.550 -40.162 -30.224  1.00  0.00    -0.508 OA
ATOM     26  H   UNL     1     -62.114 -40.441 -29.429  1.00  0.00     0.293 HD
ENDBRANCH  11  25
ENDBRANCH   1   2
BRANCH   1  27
ATOM     27  C   UNL     1     -61.311 -45.608 -37.032  1.00  0.00     0.339 C 
ATOM     28  C   UNL     1     -62.488 -46.358 -36.391  1.00  0.00     0.214 C 
ATOM     29  O   UNL     1     -61.085 -45.992 -38.387  1.00  0.00    -0.332 OA
ATOM     30  C   UNL     1     -63.757 -46.167 -37.236  1.00  0.00     0.180 C 
ATOM     31  C   UNL     1     -62.221 -45.849 -39.240  1.00  0.00     0.179 C 
ATOM     32  C   UNL     1     -63.482 -46.570 -38.692  1.00  0.00     0.177 C 
BRANCH  28  33
ATOM     33  O   UNL     1     -62.161 -47.722 -36.280  1.00  0.00    -0.384 OA
ATOM     34  H   UNL     1     -61.228 -47.826 -36.612  1.00  0.00     0.211 HD
ENDBRANCH  28  33
BRANCH  30  35
ATOM     35  O   UNL     1     -64.841 -46.884 -36.694  1.00  0.00    -0.387 OA
ATOM     36  H   UNL     1     -64.933 -47.734 -37.197  1.00  0.00     0.211 HD
ENDBRANCH  30  35
BRANCH  31  37
ATOM     37  C   UNL     1     -62.458 -44.382 -39.660  1.00  0.00     0.191 C 
BRANCH  37  38
ATOM     38  O   UNL     1     -61.231 -43.736 -39.864  1.00  0.00    -0.394 OA
ATOM     39  H   UNL     1     -61.439 -42.761 -39.955  1.00  0.00     0.210 HD
ENDBRANCH  37  38
ENDBRANCH  31  37
BRANCH  32  40
ATOM     40  O   UNL     1     -64.611 -46.280 -39.474  1.00  0.00    -0.387 OA
ATOM     41  H   UNL     1     -64.657 -46.980 -40.178  1.00  0.00     0.211 HD
ENDBRANCH  32  40
ENDBRANCH   1  27
TORSDOF 12
ENDMDL
MODEL 7
REMARK VINA RESULT:    -6.690      1.778      4.458
REMARK INTER + INTRA:         -11.197
REMARK INTER:                  -9.821
REMARK INTRA:                  -1.376
REMARK UNBOUND:                -1.378
REMARK SMILES O=c1c(O[C@@H]2O[C@H](CO)[C@H](O)[C@@H](O)[C@H]2O)c(-c2ccc(O)c(O)c2)oc2cc(O)cc(O)c12
REMARK SMILES IDX 4 1 3 2 16 3 25 4 2 5 26 6 1 7 33 8 27 9 31 10 28 11 30 12
REMARK SMILES IDX 17 13 18 14 19 15 20 16 24 17 22 18 21 19 23 21 32 23 29 25
REMARK SMILES IDX 5 27 14 28 6 29 12 30 7 31 10 32 15 33 13 35 8 37 9 38 11 40
REMARK H PARENT 21 20 23 22 32 24 29 26 15 34 13 36 9 39 11 41
REMARK Flexibility Score: inf
ROOT
ATOM      1  O   UNL     1     -64.043 -42.055 -35.998  1.00  0.00    -0.454 OA
ENDROOT
BRANCH   1   2
ATOM      2  C   UNL     1     -63.285 -41.990 -34.812  1.00  0.00     0.214 A 
ATOM      3  C   UNL     1     -63.472 -43.008 -33.857  1.00  0.00     0.180 A 
ATOM      4  O   UNL     1     -62.832 -42.968 -32.694  1.00  0.00    -0.452 OA
ATOM      5  C   UNL     1     -62.373 -40.953 -34.512  1.00  0.00     0.239 A 
ATOM      6  C   UNL     1     -61.972 -42.011 -32.372  1.00  0.00     0.146 A 
ATOM      7  O   UNL     1     -62.174 -40.020 -35.337  1.00  0.00    -0.285 OA
ATOM      8  C   UNL     1     -61.692 -40.961 -33.274  1.00  0.00     0.111 A 
ATOM      9  C   UNL     1     -61.341 -42.059 -31.124  1.00  0.00     0.094 A 
ATOM     10  C   UNL     1     -60.753 -39.967 -32.900  1.00  0.00     0.134 A 
ATOM     11  C   UNL     1     -60.419 -41.071 -30.762  1.00  0.00     0.123 A 
ATOM     12  C   UNL     1     -60.129 -40.033 -31.647  1.00  0.00     0.093 A 
BRANCH   3  13
ATOM     13  C   UNL     1     -64.398 -44.136 -34.104  1.00  0.00     0.025 A 
ATOM     14  C   UNL     1     -63.950 -45.263 -34.811  1.00  0.00     0.016 A 
ATOM     15  C   UNL     1     -64.812 -46.337 -35.049  1.00  0.00     0.051 A 
ATOM     16  C   UNL     1     -66.142 -46.284 -34.609  1.00  0.00     0.157 A 
ATOM     17  C   UNL     1     -65.735 -44.082 -33.674  1.00  0.00     0.062 A 
ATOM     18  C   UNL     1     -66.605 -45.152 -33.927  1.00  0.00     0.158 A 
BRANCH  16  19
ATOM     19  O   UNL     1     -67.009 -47.348 -34.852  1.00  0.00    -0.504 OA
ATOM     20  H   UNL     1     -67.950 -47.362 -34.476  1.00  0.00     0.293 HD
ENDBRANCH  16  19
BRANCH  18  21
ATOM     21  O   UNL     1     -67.933 -45.092 -33.511  1.00  0.00    -0.504 OA
ATOM     22  H   UNL     1     -68.696 -45.301 -34.144  1.00  0.00     0.293 HD
ENDBRANCH  18  21
ENDBRANCH   3  13
BRANCH  10  23
ATOM     23  O   UNL     1     -60.432 -38.921 -33.766  1.00  0.00    -0.507 OA
ATOM     24  H   UNL     1     -61.043 -38.120 -33.886  1.00  0.00     0.293 HD
ENDBRANCH  10  23
BRANCH  11  25
ATOM     25  O   UNL     1     -59.782 -41.117 -29.523  1.00  0.00    -0.508 OA
ATOM     26  H   UNL     1     -59.526 -41.997 -29.091  1.00  0.00     0.293 HD
ENDBRANCH  11  25
ENDBRANCH   1   2
BRANCH   1  27
ATOM     27  C   UNL     1     -63.630 -41.694 -37.316  1.00  0.00     0.339 C 
ATOM     28  C   UNL     1     -62.402 -42.519 -37.730  1.00  0.00     0.214 C 
ATOM     29  O   UNL     1     -64.703 -41.797 -38.252  1.00  0.00    -0.332 OA
ATOM     30  C   UNL     1     -62.803 -43.986 -37.949  1.00  0.00     0.180 C 
ATOM     31  C   UNL     1     -65.132 -43.132 -38.515  1.00  0.00     0.179 C 
ATOM     32  C   UNL     1     -63.970 -44.067 -38.944  1.00  0.00     0.177 C 
BRANCH  28  33
ATOM     33  O   UNL     1     -61.851 -41.970 -38.902  1.00  0.00    -0.384 OA
ATOM     34  H   UNL     1     -60.863 -42.067 -38.834  1.00  0.00     0.211 HD
ENDBRANCH  28  33
BRANCH  30  35
ATOM     35  O   UNL     1     -61.703 -44.755 -38.375  1.00  0.00    -0.387 OA
ATOM     36  H   UNL     1     -62.032 -45.439 -39.014  1.00  0.00     0.211 HD
ENDBRANCH  30  35
BRANCH  31  37
ATOM     37  C   UNL     1     -66.020 -43.697 -37.384  1.00  0.00     0.191 C 
BRANCH  37  38
ATOM     38  O   UNL     1     -66.750 -44.799 -37.850  1.00  0.00    -0.394 OA
ATOM     39  H   UNL     1     -66.274 -45.613 -37.513  1.00  0.00     0.210 HD
ENDBRANCH  37  38
ENDBRANCH  31  37
BRANCH  32  40
ATOM     40  O   UNL     1     -64.401 -45.399 -39.045  1.00  0.00    -0.387 OA
ATOM     41  H   UNL     1     -65.276 -45.451 -38.575  1.00  0.00     0.211 HD
ENDBRANCH  32  40
ENDBRANCH   1  27
TORSDOF 12
ENDMDL
MODEL 8
REMARK VINA RESULT:    -6.650      3.171      7.217
REMARK INTER + INTRA:         -11.138
REMARK INTER:                  -9.442
REMARK INTRA:                  -1.696
REMARK UNBOUND:                -1.378
REMARK SMILES O=c1c(O[C@@H]2O[C@H](CO)[C@H](O)[C@@H](O)[C@H]2O)c(-c2ccc(O)c(O)c2)oc2cc(O)cc(O)c12
REMARK SMILES IDX 4 1 3 2 16 3 25 4 2 5 26 6 1 7 33 8 27 9 31 10 28 11 30 12
REMARK SMILES IDX 17 13 18 14 19 15 20 16 24 17 22 18 21 19 23 21 32 23 29 25
REMARK SMILES IDX 5 27 14 28 6 29 12 30 7 31 10 32 15 33 13 35 8 37 9 38 11 40
REMARK H PARENT 21 20 23 22 32 24 29 26 15 34 13 36 9 39 11 41
REMARK Flexibility Score: inf
ROOT
ATOM      1  O   UNL     1     -60.984 -45.274 -34.158  1.00  0.00    -0.454 OA
ENDROOT
BRANCH   1   2
ATOM      2  C   UNL     1     -61.757 -44.487 -35.035  1.00  0.00     0.214 A 
ATOM      3  C   UNL     1     -62.065 -43.172 -34.637  1.00  0.00     0.180 A 
ATOM      4  O   UNL     1     -62.841 -42.403 -35.393  1.00  0.00    -0.452 OA
ATOM      5  C   UNL     1     -62.266 -44.947 -36.271  1.00  0.00     0.239 A 
ATOM      6  C   UNL     1     -63.341 -42.798 -36.556  1.00  0.00     0.146 A 
ATOM      7  O   UNL     1     -62.016 -46.118 -36.667  1.00  0.00    -0.285 OA
ATOM      8  C   UNL     1     -63.066 -44.089 -37.058  1.00  0.00     0.111 A 
ATOM      9  C   UNL     1     -64.144 -41.912 -37.285  1.00  0.00     0.094 A 
ATOM     10  C   UNL     1     -63.603 -44.467 -38.313  1.00  0.00     0.134 A 
ATOM     11  C   UNL     1     -64.674 -42.295 -38.521  1.00  0.00     0.123 A 
ATOM     12  C   UNL     1     -64.403 -43.565 -39.030  1.00  0.00     0.093 A 
BRANCH   3  13
ATOM     13  C   UNL     1     -61.558 -42.612 -33.365  1.00  0.00     0.025 A 
ATOM     14  C   UNL     1     -60.255 -42.092 -33.302  1.00  0.00     0.016 A 
ATOM     15  C   UNL     1     -59.764 -41.558 -32.108  1.00  0.00     0.051 A 
ATOM     16  C   UNL     1     -60.559 -41.565 -30.954  1.00  0.00     0.157 A 
ATOM     17  C   UNL     1     -62.347 -42.628 -32.202  1.00  0.00     0.062 A 
ATOM     18  C   UNL     1     -61.849 -42.107 -31.000  1.00  0.00     0.158 A 
BRANCH  16  19
ATOM     19  O   UNL     1     -60.071 -41.042 -29.757  1.00  0.00    -0.504 OA
ATOM     20  H   UNL     1     -60.214 -41.515 -28.873  1.00  0.00     0.293 HD
ENDBRANCH  16  19
BRANCH  18  21
ATOM     21  O   UNL     1     -62.628 -42.133 -29.846  1.00  0.00    -0.504 OA
ATOM     22  H   UNL     1     -63.469 -42.695 -29.787  1.00  0.00     0.293 HD
ENDBRANCH  18  21
ENDBRANCH   3  13
BRANCH  10  23
ATOM     23  O   UNL     1     -63.344 -45.725 -38.856  1.00  0.00    -0.507 OA
ATOM     24  H   UNL     1     -62.518 -45.905 -39.418  1.00  0.00     0.293 HD
ENDBRANCH  10  23
BRANCH  11  25
ATOM     25  O   UNL     1     -65.468 -41.416 -39.254  1.00  0.00    -0.508 OA
ATOM     26  H   UNL     1     -66.370 -41.697 -39.622  1.00  0.00     0.293 HD
ENDBRANCH  11  25
ENDBRANCH   1   2
BRANCH   1  27
ATOM     27  C   UNL     1     -59.715 -45.875 -34.417  1.00  0.00     0.339 C 
ATOM     28  C   UNL     1     -58.712 -45.485 -33.320  1.00  0.00     0.214 C 
ATOM     29  O   UNL     1     -59.825 -47.287 -34.586  1.00  0.00    -0.332 OA
ATOM     30  C   UNL     1     -59.087 -46.171 -31.997  1.00  0.00     0.180 C 
ATOM     31  C   UNL     1     -60.166 -48.001 -33.398  1.00  0.00     0.179 C 
ATOM     32  C   UNL     1     -59.217 -47.686 -32.211  1.00  0.00     0.177 C 
BRANCH  28  33
ATOM     33  O   UNL     1     -57.417 -45.856 -33.727  1.00  0.00    -0.384 OA
ATOM     34  H   UNL     1     -57.182 -45.287 -34.508  1.00  0.00     0.211 HD
ENDBRANCH  28  33
BRANCH  30  35
ATOM     35  O   UNL     1     -58.155 -45.866 -30.986  1.00  0.00    -0.387 OA
ATOM     36  H   UNL     1     -58.271 -46.523 -30.250  1.00  0.00     0.211 HD
ENDBRANCH  30  35
BRANCH  31  37
ATOM     37  C   UNL     1     -61.669 -47.889 -33.058  1.00  0.00     0.191 C 
BRANCH  37  38
ATOM     38  O   UNL     1     -62.432 -47.927 -34.234  1.00  0.00    -0.394 OA
ATOM     39  H   UNL     1     -63.314 -47.509 -34.009  1.00  0.00     0.210 HD
ENDBRANCH  37  38
ENDBRANCH  31  37
BRANCH  32  40
ATOM     40  O   UNL     1     -59.673 -48.283 -31.025  1.00  0.00    -0.387 OA
ATOM     41  H   UNL     1     -59.201 -49.154 -30.946  1.00  0.00     0.211 HD
ENDBRANCH  32  40
ENDBRANCH   1  27
TORSDOF 12
ENDMDL
MODEL 9
REMARK VINA RESULT:    -6.632      2.215      7.572
REMARK INTER + INTRA:         -11.112
REMARK INTER:                  -9.677
REMARK INTRA:                  -1.435
REMARK UNBOUND:                -1.378
REMARK SMILES O=c1c(O[C@@H]2O[C@H](CO)[C@H](O)[C@@H](O)[C@H]2O)c(-c2ccc(O)c(O)c2)oc2cc(O)cc(O)c12
REMARK SMILES IDX 4 1 3 2 16 3 25 4 2 5 26 6 1 7 33 8 27 9 31 10 28 11 30 12
REMARK SMILES IDX 17 13 18 14 19 15 20 16 24 17 22 18 21 19 23 21 32 23 29 25
REMARK SMILES IDX 5 27 14 28 6 29 12 30 7 31 10 32 15 33 13 35 8 37 9 38 11 40
REMARK H PARENT 21 20 23 22 32 24 29 26 15 34 13 36 9 39 11 41
REMARK Flexibility Score: inf
ROOT
ATOM      1  O   UNL     1     -63.302 -43.158 -35.399  1.00  0.00    -0.454 OA
ENDROOT
BRANCH   1   2
ATOM      2  C   UNL     1     -63.396 -43.732 -36.683  1.00  0.00     0.214 A 
ATOM      3  C   UNL     1     -64.478 -44.596 -36.937  1.00  0.00     0.180 A 
ATOM      4  O   UNL     1     -64.586 -45.215 -38.108  1.00  0.00    -0.452 OA
ATOM      5  C   UNL     1     -62.457 -43.516 -37.717  1.00  0.00     0.239 A 
ATOM      6  C   UNL     1     -63.726 -45.043 -39.102  1.00  0.00     0.146 A 
ATOM      7  O   UNL     1     -61.472 -42.750 -37.534  1.00  0.00    -0.285 OA
ATOM      8  C   UNL     1     -62.623 -44.172 -38.957  1.00  0.00     0.111 A 
ATOM      9  C   UNL     1     -63.929 -45.734 -40.302  1.00  0.00     0.094 A 
ATOM     10  C   UNL     1     -61.736 -44.001 -40.048  1.00  0.00     0.134 A 
ATOM     11  C   UNL     1     -63.046 -45.563 -41.372  1.00  0.00     0.123 A 
ATOM     12  C   UNL     1     -61.957 -44.700 -41.244  1.00  0.00     0.093 A 
BRANCH   3  13
ATOM     13  C   UNL     1     -65.511 -44.862 -35.911  1.00  0.00     0.025 A 
ATOM     14  C   UNL     1     -66.723 -44.153 -35.942  1.00  0.00     0.016 A 
ATOM     15  C   UNL     1     -67.707 -44.395 -34.981  1.00  0.00     0.051 A 
ATOM     16  C   UNL     1     -67.481 -45.327 -33.959  1.00  0.00     0.157 A 
ATOM     17  C   UNL     1     -65.283 -45.788 -34.878  1.00  0.00     0.062 A 
ATOM     18  C   UNL     1     -66.265 -46.019 -33.904  1.00  0.00     0.158 A 
BRANCH  16  19
ATOM     19  O   UNL     1     -68.456 -45.566 -32.992  1.00  0.00    -0.504 OA
ATOM     20  H   UNL     1     -69.130 -46.317 -33.091  1.00  0.00     0.293 HD
ENDBRANCH  16  19
BRANCH  18  21
ATOM     21  O   UNL     1     -66.034 -46.928 -32.875  1.00  0.00    -0.504 OA
ATOM     22  H   UNL     1     -65.651 -46.633 -31.984  1.00  0.00     0.293 HD
ENDBRANCH  18  21
ENDBRANCH   3  13
BRANCH  10  23
ATOM     23  O   UNL     1     -60.643 -43.139 -39.958  1.00  0.00    -0.507 OA
ATOM     24  H   UNL     1     -60.078 -43.079 -39.117  1.00  0.00     0.293 HD
ENDBRANCH  10  23
BRANCH  11  25
ATOM     25  O   UNL     1     -63.246 -46.243 -42.572  1.00  0.00    -0.508 OA
ATOM     26  H   UNL     1     -62.827 -45.924 -43.438  1.00  0.00     0.293 HD
ENDBRANCH  11  25
ENDBRANCH   1   2
BRANCH   1  27
ATOM     27  C   UNL     1     -62.250 -43.322 -34.448  1.00  0.00     0.339 C 
ATOM     28  C   UNL     1     -61.437 -42.024 -34.329  1.00  0.00     0.214 C 
ATOM     29  O   UNL     1     -62.743 -43.780 -33.189  1.00  0.00    -0.332 OA
ATOM     30  C   UNL     1     -62.278 -40.938 -33.640  1.00  0.00     0.180 C 
ATOM     31  C   UNL     1     -63.532 -42.825 -32.481  1.00  0.00     0.179 C 
ATOM     32  C   UNL     1     -62.812 -41.462 -32.298  1.00  0.00     0.177 C 
BRANCH  28  33
ATOM     33  O   UNL     1     -60.260 -42.281 -33.604  1.00  0.00    -0.384 OA
ATOM     34  H   UNL     1     -60.349 -41.817 -32.728  1.00  0.00     0.211 HD
ENDBRANCH  28  33
BRANCH  30  35
ATOM     35  O   UNL     1     -61.540 -39.750 -33.477  1.00  0.00    -0.387 OA
ATOM     36  H   UNL     1     -61.831 -39.318 -32.633  1.00  0.00     0.211 HD
ENDBRANCH  30  35
BRANCH  31  37
ATOM     37  C   UNL     1     -64.967 -42.717 -33.043  1.00  0.00     0.191 C 
BRANCH  37  38
ATOM     38  O   UNL     1     -65.874 -42.476 -32.002  1.00  0.00    -0.394 OA
ATOM     39  H   UNL     1     -66.424 -43.308 -31.911  1.00  0.00     0.210 HD
ENDBRANCH  37  38
ENDBRANCH  31  37
BRANCH  32  40
ATOM     40  O   UNL     1     -63.672 -40.506 -31.736  1.00  0.00    -0.387 OA
ATOM     41  H   UNL     1     -64.508 -40.984 -31.492  1.00  0.00     0.211 HD
ENDBRANCH  32  40
ENDBRANCH   1  27
TORSDOF 12
ENDMDL
