MODEL 1
REMARK VINA RESULT:    -6.108      0.000      0.000
REMARK INTER + INTRA:          -7.919
REMARK INTER:                  -7.536
REMARK INTRA:                  -0.384
REMARK UNBOUND:                -0.384
REMARK SMILES Oc1cc(O)c2cc(O)c(-c3cc(O)c(O)c(O)c3)[o+]c2c1.[Cl-]
REMARK SMILES IDX 10 1 20 2 21 3 22 4 2 5 3 6 4 7 6 8 7 9 8 10 11 11 12 12
REMARK SMILES IDX 13 13 19 14 15 15 17 16 14 17 16 19 18 21 9 23 1 25 5 27
REMARK H PARENT 14 18 16 20 18 22 9 24 1 26 5 28
REMARK Flexibility Score: inf
ROOT
ATOM      1  C   UNL     1      28.022   9.422  27.478  1.00  0.00     0.402 A 
ATOM      2  O   UNL     1      26.916   8.867  27.968  1.00  0.00    -0.202 OA
ATOM      3  C   UNL     1      26.152   8.028  27.275  1.00  0.00     0.368 A 
ATOM      4  C   UNL     1      25.007   7.498  27.875  1.00  0.00     0.162 A 
ATOM      5  C   UNL     1      24.185   6.615  27.168  1.00  0.00     0.128 A 
ATOM      6  C   UNL     1      24.510   6.262  25.856  1.00  0.00     0.093 A 
ATOM      7  C   UNL     1      25.652   6.780  25.232  1.00  0.00     0.136 A 
ATOM      8  C   UNL     1      26.491   7.674  25.947  1.00  0.00     0.125 A 
ATOM      9  C   UNL     1      27.661   8.232  25.407  1.00  0.00     0.078 A 
ATOM     10  C   UNL     1      28.441   9.102  26.173  1.00  0.00     0.223 A 
ENDROOT
BRANCH   1  11
ATOM     11  C   UNL     1      28.782  10.351  28.345  1.00  0.00     0.091 A 
ATOM     12  C   UNL     1      29.758   9.839  29.216  1.00  0.00     0.068 A 
ATOM     13  C   UNL     1      30.477  10.693  30.063  1.00  0.00     0.162 A 
ATOM     14  C   UNL     1      28.511  11.729  28.357  1.00  0.00     0.068 A 
ATOM     15  C   UNL     1      30.214  12.073  30.053  1.00  0.00     0.200 A 
ATOM     16  C   UNL     1      29.227  12.588  29.202  1.00  0.00     0.162 A 
BRANCH  13  17
ATOM     17  O   UNL     1      31.453  10.174  30.913  1.00  0.00    -0.504 OA
ATOM     18  H   UNL     1      31.226   9.843  31.842  1.00  0.00     0.293 HD
ENDBRANCH  13  17
BRANCH  15  19
ATOM     19  O   UNL     1      30.920  12.943  30.884  1.00  0.00    -0.502 OA
ATOM     20  H   UNL     1      31.104  13.906  30.625  1.00  0.00     0.293 HD
ENDBRANCH  15  19
BRANCH  16  21
ATOM     21  O   UNL     1      28.959  13.956  29.207  1.00  0.00    -0.504 OA
ATOM     22  H   UNL     1      28.051  14.318  29.472  1.00  0.00     0.293 HD
ENDBRANCH  16  21
ENDBRANCH   1  11
BRANCH  10  23
ATOM     23  O   UNL     1      29.630   9.618  25.656  1.00  0.00    -0.500 OA
ATOM     24  H   UNL     1      30.534   9.268  25.950  1.00  0.00     0.294 HD
ENDBRANCH  10  23
BRANCH   5  25
ATOM     25  O   UNL     1      23.043   6.082  27.760  1.00  0.00    -0.507 OA
ATOM     26  H   UNL     1      22.512   6.601  28.449  1.00  0.00     0.293 HD
ENDBRANCH   5  25
BRANCH   7  27
ATOM     27  O   UNL     1      25.903   6.381  23.916  1.00  0.00    -0.507 OA
ATOM     28  H   UNL     1      26.822   6.187  23.545  1.00  0.00     0.293 HD
ENDBRANCH   7  27
TORSDOF 7
ENDMDL
MODEL 2
REMARK VINA RESULT:    -5.799      1.312      2.826
REMARK INTER + INTRA:          -7.539
REMARK INTER:                  -7.326
REMARK INTRA:                  -0.213
REMARK UNBOUND:                -0.384
REMARK SMILES Oc1cc(O)c2cc(O)c(-c3cc(O)c(O)c(O)c3)[o+]c2c1.[Cl-]
REMARK SMILES IDX 10 1 20 2 21 3 22 4 2 5 3 6 4 7 6 8 7 9 8 10 11 11 12 12
REMARK SMILES IDX 13 13 19 14 15 15 17 16 14 17 16 19 18 21 9 23 1 25 5 27
REMARK H PARENT 14 18 16 20 18 22 9 24 1 26 5 28
REMARK Flexibility Score: inf
ROOT
ATOM      1  C   UNL     1      27.986   9.295  27.292  1.00  0.00     0.402 A 
ATOM      2  O   UNL     1      28.661   8.647  26.346  1.00  0.00    -0.202 OA
ATOM      3  C   UNL     1      28.095   7.788  25.503  1.00  0.00     0.368 A 
ATOM      4  C   UNL     1      28.888   7.153  24.545  1.00  0.00     0.162 A 
ATOM      5  C   UNL     1      28.319   6.244  23.648  1.00  0.00     0.128 A 
ATOM      6  C   UNL     1      26.952   5.968  23.713  1.00  0.00     0.093 A 
ATOM      7  C   UNL     1      26.135   6.590  24.665  1.00  0.00     0.136 A 
ATOM      8  C   UNL     1      26.708   7.516  25.575  1.00  0.00     0.125 A 
ATOM      9  C   UNL     1      25.965   8.197  26.554  1.00  0.00     0.078 A 
ATOM     10  C   UNL     1      26.597   9.100  27.413  1.00  0.00     0.223 A 
ENDROOT
BRANCH   1  11
ATOM     11  C   UNL     1      28.732  10.219  28.176  1.00  0.00     0.091 A 
ATOM     12  C   UNL     1      29.684   9.701  29.069  1.00  0.00     0.068 A 
ATOM     13  C   UNL     1      30.390  10.552  29.931  1.00  0.00     0.162 A 
ATOM     14  C   UNL     1      28.470  11.599  28.181  1.00  0.00     0.068 A 
ATOM     15  C   UNL     1      30.135  11.933  29.915  1.00  0.00     0.200 A 
ATOM     16  C   UNL     1      29.171  12.454  29.042  1.00  0.00     0.162 A 
BRANCH  13  17
ATOM     17  O   UNL     1      31.343  10.028  30.804  1.00  0.00    -0.504 OA
ATOM     18  H   UNL     1      31.515   9.032  30.867  1.00  0.00     0.293 HD
ENDBRANCH  13  17
BRANCH  15  19
ATOM     19  O   UNL     1      30.827  12.800  30.762  1.00  0.00    -0.502 OA
ATOM     20  H   UNL     1      31.766  12.601  31.087  1.00  0.00     0.293 HD
ENDBRANCH  15  19
BRANCH  16  21
ATOM     21  O   UNL     1      28.911  13.823  29.040  1.00  0.00    -0.504 OA
ATOM     22  H   UNL     1      28.008  14.192  28.766  1.00  0.00     0.293 HD
ENDBRANCH  16  21
ENDBRANCH   1  11
BRANCH  10  23
ATOM     23  O   UNL     1      25.852   9.813  28.352  1.00  0.00    -0.500 OA
ATOM     24  H   UNL     1      25.294   9.344  29.055  1.00  0.00     0.294 HD
ENDBRANCH  10  23
BRANCH   5  25
ATOM     25  O   UNL     1      29.104   5.608  22.689  1.00  0.00    -0.507 OA
ATOM     26  H   UNL     1      28.689   5.096  21.919  1.00  0.00     0.293 HD
ENDBRANCH   5  25
BRANCH   7  27
ATOM     27  O   UNL     1      24.778   6.255  24.666  1.00  0.00    -0.507 OA
ATOM     28  H   UNL     1      24.422   5.318  24.552  1.00  0.00     0.293 HD
ENDBRANCH   7  27
TORSDOF 7
ENDMDL
MODEL 3
REMARK VINA RESULT:    -5.730      1.357      3.361
REMARK INTER + INTRA:          -7.454
REMARK INTER:                  -7.284
REMARK INTRA:                  -0.170
REMARK UNBOUND:                -0.384
REMARK SMILES Oc1cc(O)c2cc(O)c(-c3cc(O)c(O)c(O)c3)[o+]c2c1.[Cl-]
REMARK SMILES IDX 10 1 20 2 21 3 22 4 2 5 3 6 4 7 6 8 7 9 8 10 11 11 12 12
REMARK SMILES IDX 13 13 19 14 15 15 17 16 14 17 16 19 18 21 9 23 1 25 5 27
REMARK H PARENT 14 18 16 20 18 22 9 24 1 26 5 28
REMARK Flexibility Score: inf
ROOT
ATOM      1  C   UNL     1      28.012   9.255  27.336  1.00  0.00     0.402 A 
ATOM      2  O   UNL     1      28.728   8.581  26.440  1.00  0.00    -0.202 OA
ATOM      3  C   UNL     1      28.194   7.728  25.571  1.00  0.00     0.368 A 
ATOM      4  C   UNL     1      29.030   7.065  24.669  1.00  0.00     0.162 A 
ATOM      5  C   UNL     1      28.495   6.161  23.746  1.00  0.00     0.128 A 
ATOM      6  C   UNL     1      27.119   5.920  23.727  1.00  0.00     0.093 A 
ATOM      7  C   UNL     1      26.260   6.572  24.620  1.00  0.00     0.136 A 
ATOM      8  C   UNL     1      26.799   7.493  25.557  1.00  0.00     0.125 A 
ATOM      9  C   UNL     1      26.014   8.202  26.481  1.00  0.00     0.078 A 
ATOM     10  C   UNL     1      26.614   9.097  27.371  1.00  0.00     0.223 A 
ENDROOT
BRANCH   1  11
ATOM     11  C   UNL     1      28.725  10.169  28.258  1.00  0.00     0.091 A 
ATOM     12  C   UNL     1      28.450  11.545  28.215  1.00  0.00     0.068 A 
ATOM     13  C   UNL     1      29.125  12.434  29.062  1.00  0.00     0.162 A 
ATOM     14  C   UNL     1      29.713   9.697  29.139  1.00  0.00     0.068 A 
ATOM     15  C   UNL     1      30.097  11.950  29.955  1.00  0.00     0.200 A 
ATOM     16  C   UNL     1      30.392  10.581  29.987  1.00  0.00     0.162 A 
BRANCH  13  17
ATOM     17  O   UNL     1      28.833  13.797  29.020  1.00  0.00    -0.504 OA
ATOM     18  H   UNL     1      29.499  14.493  29.335  1.00  0.00     0.293 HD
ENDBRANCH  13  17
BRANCH  15  19
ATOM     19  O   UNL     1      30.780  12.815  30.810  1.00  0.00    -0.502 OA
ATOM     20  H   UNL     1      31.469  13.477  30.470  1.00  0.00     0.293 HD
ENDBRANCH  15  19
BRANCH  16  21
ATOM     21  O   UNL     1      31.367  10.108  30.864  1.00  0.00    -0.504 OA
ATOM     22  H   UNL     1      32.108   9.491  30.551  1.00  0.00     0.293 HD
ENDBRANCH  16  21
ENDBRANCH   1  11
BRANCH  10  23
ATOM     23  O   UNL     1      25.830   9.838  28.255  1.00  0.00    -0.500 OA
ATOM     24  H   UNL     1      26.236  10.525  28.879  1.00  0.00     0.294 HD
ENDBRANCH  10  23
BRANCH   5  25
ATOM     25  O   UNL     1      29.321   5.496  22.844  1.00  0.00    -0.507 OA
ATOM     26  H   UNL     1      29.302   4.487  22.751  1.00  0.00     0.293 HD
ENDBRANCH   5  25
BRANCH   7  27
ATOM     27  O   UNL     1      24.898   6.273  24.538  1.00  0.00    -0.507 OA
ATOM     28  H   UNL     1      24.266   6.269  25.327  1.00  0.00     0.293 HD
ENDBRANCH   7  27
TORSDOF 7
ENDMDL
MODEL 4
REMARK VINA RESULT:    -5.639      1.531      3.666
REMARK INTER + INTRA:          -7.341
REMARK INTER:                  -6.973
REMARK INTRA:                  -0.368
REMARK UNBOUND:                -0.384
REMARK SMILES Oc1cc(O)c2cc(O)c(-c3cc(O)c(O)c(O)c3)[o+]c2c1.[Cl-]
REMARK SMILES IDX 10 1 20 2 21 3 22 4 2 5 3 6 4 7 6 8 7 9 8 10 11 11 12 12
REMARK SMILES IDX 13 13 19 14 15 15 17 16 14 17 16 19 18 21 9 23 1 25 5 27
REMARK H PARENT 14 18 16 20 18 22 9 24 1 26 5 28
REMARK Flexibility Score: inf
ROOT
ATOM      1  C   UNL     1      28.208   9.230  27.053  1.00  0.00     0.402 A 
ATOM      2  O   UNL     1      28.685   9.299  25.813  1.00  0.00    -0.202 OA
ATOM      3  C   UNL     1      28.228   8.553  24.812  1.00  0.00     0.368 A 
ATOM      4  C   UNL     1      28.796   8.695  23.544  1.00  0.00     0.162 A 
ATOM      5  C   UNL     1      28.336   7.921  22.474  1.00  0.00     0.128 A 
ATOM      6  C   UNL     1      27.304   7.002  22.675  1.00  0.00     0.093 A 
ATOM      7  C   UNL     1      26.718   6.840  23.937  1.00  0.00     0.136 A 
ATOM      8  C   UNL     1      27.180   7.626  25.025  1.00  0.00     0.125 A 
ATOM      9  C   UNL     1      26.644   7.541  26.320  1.00  0.00     0.078 A 
ATOM     10  C   UNL     1      27.147   8.351  27.342  1.00  0.00     0.223 A 
ENDROOT
BRANCH   1  11
ATOM     11  C   UNL     1      28.808  10.106  28.085  1.00  0.00     0.091 A 
ATOM     12  C   UNL     1      28.465  11.467  28.119  1.00  0.00     0.068 A 
ATOM     13  C   UNL     1      29.035  12.323  29.071  1.00  0.00     0.162 A 
ATOM     14  C   UNL     1      29.758   9.618  28.998  1.00  0.00     0.068 A 
ATOM     15  C   UNL     1      29.968  11.821  29.994  1.00  0.00     0.200 A 
ATOM     16  C   UNL     1      30.331  10.469  29.952  1.00  0.00     0.162 A 
BRANCH  13  17
ATOM     17  O   UNL     1      28.676  13.670  29.104  1.00  0.00    -0.504 OA
ATOM     18  H   UNL     1      28.445  14.179  28.260  1.00  0.00     0.293 HD
ENDBRANCH  13  17
BRANCH  15  19
ATOM     19  O   UNL     1      30.546  12.652  30.954  1.00  0.00    -0.502 OA
ATOM     20  H   UNL     1      30.235  13.606  31.100  1.00  0.00     0.293 HD
ENDBRANCH  15  19
BRANCH  16  21
ATOM     21  O   UNL     1      31.269   9.979  30.860  1.00  0.00    -0.504 OA
ATOM     22  H   UNL     1      32.261  10.144  30.740  1.00  0.00     0.293 HD
ENDBRANCH  16  21
ENDBRANCH   1  11
BRANCH  10  23
ATOM     23  O   UNL     1      26.582   8.303  28.616  1.00  0.00    -0.500 OA
ATOM     24  H   UNL     1      27.052   7.849  29.390  1.00  0.00     0.294 HD
ENDBRANCH  10  23
BRANCH   5  25
ATOM     25  O   UNL     1      28.897   8.058  21.207  1.00  0.00    -0.507 OA
ATOM     26  H   UNL     1      28.471   8.644  20.499  1.00  0.00     0.293 HD
ENDBRANCH   5  25
BRANCH   7  27
ATOM     27  O   UNL     1      25.694   5.896  24.054  1.00  0.00    -0.507 OA
ATOM     28  H   UNL     1      25.820   4.901  23.940  1.00  0.00     0.293 HD
ENDBRANCH   7  27
TORSDOF 7
ENDMDL
MODEL 5
REMARK VINA RESULT:    -5.598      2.001      3.298
REMARK INTER + INTRA:          -7.291
REMARK INTER:                  -6.919
REMARK INTRA:                  -0.372
REMARK UNBOUND:                -0.384
REMARK SMILES Oc1cc(O)c2cc(O)c(-c3cc(O)c(O)c(O)c3)[o+]c2c1.[Cl-]
REMARK SMILES IDX 10 1 20 2 21 3 22 4 2 5 3 6 4 7 6 8 7 9 8 10 11 11 12 12
REMARK SMILES IDX 13 13 19 14 15 15 17 16 14 17 16 19 18 21 9 23 1 25 5 27
REMARK H PARENT 14 18 16 20 18 22 9 24 1 26 5 28
REMARK Flexibility Score: inf
ROOT
ATOM      1  C   UNL     1      29.815   9.529  26.913  1.00  0.00     0.402 A 
ATOM      2  O   UNL     1      28.752   8.759  26.692  1.00  0.00    -0.202 OA
ATOM      3  C   UNL     1      28.605   8.013  25.601  1.00  0.00     0.368 A 
ATOM      4  C   UNL     1      27.450   7.240  25.458  1.00  0.00     0.162 A 
ATOM      5  C   UNL     1      27.269   6.448  24.320  1.00  0.00     0.128 A 
ATOM      6  C   UNL     1      28.246   6.430  23.323  1.00  0.00     0.093 A 
ATOM      7  C   UNL     1      29.412   7.197  23.442  1.00  0.00     0.136 A 
ATOM      8  C   UNL     1      29.602   8.000  24.597  1.00  0.00     0.125 A 
ATOM      9  C   UNL     1      30.744   8.790  24.808  1.00  0.00     0.078 A 
ATOM     10  C   UNL     1      30.864   9.551  25.974  1.00  0.00     0.223 A 
ENDROOT
BRANCH   1  11
ATOM     11  C   UNL     1      29.858  10.322  28.162  1.00  0.00     0.091 A 
ATOM     12  C   UNL     1      29.289  11.606  28.183  1.00  0.00     0.068 A 
ATOM     13  C   UNL     1      29.334  12.387  29.346  1.00  0.00     0.162 A 
ATOM     14  C   UNL     1      30.504   9.842  29.313  1.00  0.00     0.068 A 
ATOM     15  C   UNL     1      29.964  11.890  30.499  1.00  0.00     0.200 A 
ATOM     16  C   UNL     1      30.553  10.619  30.478  1.00  0.00     0.162 A 
BRANCH  13  17
ATOM     17  O   UNL     1      28.753  13.654  29.360  1.00  0.00    -0.504 OA
ATOM     18  H   UNL     1      29.310  14.493  29.469  1.00  0.00     0.293 HD
ENDBRANCH  13  17
BRANCH  15  19
ATOM     19  O   UNL     1      30.019  12.647  31.670  1.00  0.00    -0.502 OA
ATOM     20  H   UNL     1      30.884  12.796  32.176  1.00  0.00     0.293 HD
ENDBRANCH  15  19
BRANCH  16  21
ATOM     21  O   UNL     1      31.191  10.136  31.620  1.00  0.00    -0.504 OA
ATOM     22  H   UNL     1      30.847  10.348  32.550  1.00  0.00     0.293 HD
ENDBRANCH  16  21
ENDBRANCH   1  11
BRANCH  10  23
ATOM     23  O   UNL     1      32.019  10.297  26.208  1.00  0.00    -0.500 OA
ATOM     24  H   UNL     1      32.337  11.004  25.556  1.00  0.00     0.294 HD
ENDBRANCH  10  23
BRANCH   5  25
ATOM     25  O   UNL     1      26.120   5.674  24.170  1.00  0.00    -0.507 OA
ATOM     26  H   UNL     1      26.146   4.771  23.710  1.00  0.00     0.293 HD
ENDBRANCH   5  25
BRANCH   7  27
ATOM     27  O   UNL     1      30.339   7.127  22.398  1.00  0.00    -0.507 OA
ATOM     28  H   UNL     1      31.250   6.698  22.473  1.00  0.00     0.293 HD
ENDBRANCH   7  27
TORSDOF 7
ENDMDL
MODEL 6
REMARK VINA RESULT:    -5.484      1.629      2.233
REMARK INTER + INTRA:          -7.150
REMARK INTER:                  -6.852
REMARK INTRA:                  -0.298
REMARK UNBOUND:                -0.384
REMARK SMILES Oc1cc(O)c2cc(O)c(-c3cc(O)c(O)c(O)c3)[o+]c2c1.[Cl-]
REMARK SMILES IDX 10 1 20 2 21 3 22 4 2 5 3 6 4 7 6 8 7 9 8 10 11 11 12 12
REMARK SMILES IDX 13 13 19 14 15 15 17 16 14 17 16 19 18 21 9 23 1 25 5 27
REMARK H PARENT 14 18 16 20 18 22 9 24 1 26 5 28
REMARK Flexibility Score: inf
ROOT
ATOM      1  C   UNL     1      29.347   9.470  26.777  1.00  0.00     0.402 A 
ATOM      2  O   UNL     1      28.142   8.932  26.601  1.00  0.00    -0.202 OA
ATOM      3  C   UNL     1      27.828   8.172  25.557  1.00  0.00     0.368 A 
ATOM      4  C   UNL     1      26.534   7.654  25.459  1.00  0.00     0.162 A 
ATOM      5  C   UNL     1      26.176   6.854  24.370  1.00  0.00     0.128 A 
ATOM      6  C   UNL     1      27.115   6.572  23.376  1.00  0.00     0.093 A 
ATOM      7  C   UNL     1      28.418   7.079  23.450  1.00  0.00     0.136 A 
ATOM      8  C   UNL     1      28.787   7.890  24.556  1.00  0.00     0.125 A 
ATOM      9  C   UNL     1      30.073   8.431  24.720  1.00  0.00     0.078 A 
ATOM     10  C   UNL     1      30.365   9.216  25.839  1.00  0.00     0.223 A 
ENDROOT
BRANCH   1  11
ATOM     11  C   UNL     1      29.571  10.308  27.976  1.00  0.00     0.091 A 
ATOM     12  C   UNL     1      30.315   9.791  29.050  1.00  0.00     0.068 A 
ATOM     13  C   UNL     1      30.524  10.556  30.206  1.00  0.00     0.162 A 
ATOM     14  C   UNL     1      29.010  11.591  28.089  1.00  0.00     0.068 A 
ATOM     15  C   UNL     1      29.977  11.846  30.301  1.00  0.00     0.200 A 
ATOM     16  C   UNL     1      29.216  12.359  29.242  1.00  0.00     0.162 A 
BRANCH  13  17
ATOM     17  O   UNL     1      31.276  10.037  31.259  1.00  0.00    -0.504 OA
ATOM     18  H   UNL     1      30.887   9.365  31.909  1.00  0.00     0.293 HD
ENDBRANCH  13  17
BRANCH  15  19
ATOM     19  O   UNL     1      30.175  12.627  31.440  1.00  0.00    -0.502 OA
ATOM     20  H   UNL     1      29.988  13.623  31.450  1.00  0.00     0.293 HD
ENDBRANCH  15  19
BRANCH  16  21
ATOM     21  O   UNL     1      28.662  13.634  29.348  1.00  0.00    -0.504 OA
ATOM     22  H   UNL     1      29.140  14.453  28.989  1.00  0.00     0.293 HD
ENDBRANCH  16  21
ENDBRANCH   1  11
BRANCH  10  23
ATOM     23  O   UNL     1      31.655   9.712  26.029  1.00  0.00    -0.500 OA
ATOM     24  H   UNL     1      32.131   9.630  26.919  1.00  0.00     0.294 HD
ENDBRANCH  10  23
BRANCH   5  25
ATOM     25  O   UNL     1      24.888   6.333  24.265  1.00  0.00    -0.507 OA
ATOM     26  H   UNL     1      24.171   6.797  23.719  1.00  0.00     0.293 HD
ENDBRANCH   5  25
BRANCH   7  27
ATOM     27  O   UNL     1      29.296   6.754  22.412  1.00  0.00    -0.507 OA
ATOM     28  H   UNL     1      29.868   5.923  22.390  1.00  0.00     0.293 HD
ENDBRANCH   7  27
TORSDOF 7
ENDMDL
MODEL 7
REMARK VINA RESULT:    -5.449      2.541      3.557
REMARK INTER + INTRA:          -7.107
REMARK INTER:                  -6.854
REMARK INTRA:                  -0.253
REMARK UNBOUND:                -0.384
REMARK SMILES Oc1cc(O)c2cc(O)c(-c3cc(O)c(O)c(O)c3)[o+]c2c1.[Cl-]
REMARK SMILES IDX 10 1 20 2 21 3 22 4 2 5 3 6 4 7 6 8 7 9 8 10 11 11 12 12
REMARK SMILES IDX 13 13 19 14 15 15 17 16 14 17 16 19 18 21 9 23 1 25 5 27
REMARK H PARENT 14 18 16 20 18 22 9 24 1 26 5 28
REMARK Flexibility Score: inf
ROOT
ATOM      1  C   UNL     1      29.561   9.906  26.556  1.00  0.00     0.402 A 
ATOM      2  O   UNL     1      28.709   8.930  26.250  1.00  0.00    -0.202 OA
ATOM      3  C   UNL     1      29.020   7.914  25.451  1.00  0.00     0.368 A 
ATOM      4  C   UNL     1      28.056   6.938  25.186  1.00  0.00     0.162 A 
ATOM      5  C   UNL     1      28.355   5.861  24.347  1.00  0.00     0.128 A 
ATOM      6  C   UNL     1      29.622   5.760  23.770  1.00  0.00     0.093 A 
ATOM      7  C   UNL     1      30.606   6.726  24.018  1.00  0.00     0.136 A 
ATOM      8  C   UNL     1      30.308   7.820  24.872  1.00  0.00     0.125 A 
ATOM      9  C   UNL     1      31.235   8.827  25.188  1.00  0.00     0.078 A 
ATOM     10  C   UNL     1      30.870   9.872  26.042  1.00  0.00     0.223 A 
ENDROOT
BRANCH   1  11
ATOM     11  C   UNL     1      29.092  10.989  27.450  1.00  0.00     0.091 A 
ATOM     12  C   UNL     1      29.603  11.076  28.755  1.00  0.00     0.068 A 
ATOM     13  C   UNL     1      29.162  12.079  29.629  1.00  0.00     0.162 A 
ATOM     14  C   UNL     1      28.106  11.902  27.040  1.00  0.00     0.068 A 
ATOM     15  C   UNL     1      28.190  13.000  29.203  1.00  0.00     0.200 A 
ATOM     16  C   UNL     1      27.660  12.906  27.910  1.00  0.00     0.162 A 
BRANCH  13  17
ATOM     17  O   UNL     1      29.687  12.164  30.918  1.00  0.00    -0.504 OA
ATOM     18  H   UNL     1      29.090  12.156  31.736  1.00  0.00     0.293 HD
ENDBRANCH  13  17
BRANCH  15  19
ATOM     19  O   UNL     1      27.737  14.009  30.054  1.00  0.00    -0.502 OA
ATOM     20  H   UNL     1      26.842  14.465  29.921  1.00  0.00     0.293 HD
ENDBRANCH  15  19
BRANCH  16  21
ATOM     21  O   UNL     1      26.685  13.813  27.498  1.00  0.00    -0.504 OA
ATOM     22  H   UNL     1      25.995  13.569  26.796  1.00  0.00     0.293 HD
ENDBRANCH  16  21
ENDBRANCH   1  11
BRANCH  10  23
ATOM     23  O   UNL     1      31.805  10.845  26.396  1.00  0.00    -0.500 OA
ATOM     24  H   UNL     1      32.543  10.656  27.063  1.00  0.00     0.294 HD
ENDBRANCH  10  23
BRANCH   5  25
ATOM     25  O   UNL     1      27.399   4.883  24.080  1.00  0.00    -0.507 OA
ATOM     26  H   UNL     1      27.624   4.055  23.541  1.00  0.00     0.293 HD
ENDBRANCH   5  25
BRANCH   7  27
ATOM     27  O   UNL     1      31.847   6.555  23.399  1.00  0.00    -0.507 OA
ATOM     28  H   UNL     1      32.414   5.723  23.478  1.00  0.00     0.293 HD
ENDBRANCH   7  27
TORSDOF 7
ENDMDL
MODEL 8
REMARK VINA RESULT:    -5.389      2.222      3.611
REMARK INTER + INTRA:          -7.032
REMARK INTER:                  -6.656
REMARK INTRA:                  -0.376
REMARK UNBOUND:                -0.384
REMARK SMILES Oc1cc(O)c2cc(O)c(-c3cc(O)c(O)c(O)c3)[o+]c2c1.[Cl-]
REMARK SMILES IDX 10 1 20 2 21 3 22 4 2 5 3 6 4 7 6 8 7 9 8 10 11 11 12 12
REMARK SMILES IDX 13 13 19 14 15 15 17 16 14 17 16 19 18 21 9 23 1 25 5 27
REMARK H PARENT 14 18 16 20 18 22 9 24 1 26 5 28
REMARK Flexibility Score: inf
ROOT
ATOM      1  C   UNL     1      27.397   8.121  27.013  1.00  0.00     0.402 A 
ATOM      2  O   UNL     1      27.430   6.996  27.724  1.00  0.00    -0.202 OA
ATOM      3  C   UNL     1      26.344   6.293  28.028  1.00  0.00     0.368 A 
ATOM      4  C   UNL     1      26.479   5.126  28.783  1.00  0.00     0.162 A 
ATOM      5  C   UNL     1      25.353   4.369  29.120  1.00  0.00     0.128 A 
ATOM      6  C   UNL     1      24.087   4.782  28.700  1.00  0.00     0.093 A 
ATOM      7  C   UNL     1      23.924   5.949  27.942  1.00  0.00     0.136 A 
ATOM      8  C   UNL     1      25.065   6.719  27.596  1.00  0.00     0.125 A 
ATOM      9  C   UNL     1      24.999   7.894  26.830  1.00  0.00     0.078 A 
ATOM     10  C   UNL     1      26.167   8.598  26.523  1.00  0.00     0.223 A 
ENDROOT
BRANCH   1  11
ATOM     11  C   UNL     1      28.675   8.819  26.748  1.00  0.00     0.091 A 
ATOM     12  C   UNL     1      29.522   8.348  25.732  1.00  0.00     0.068 A 
ATOM     13  C   UNL     1      30.747   8.978  25.475  1.00  0.00     0.162 A 
ATOM     14  C   UNL     1      29.087   9.913  27.528  1.00  0.00     0.068 A 
ATOM     15  C   UNL     1      31.142  10.084  26.246  1.00  0.00     0.200 A 
ATOM     16  C   UNL     1      30.311  10.546  27.276  1.00  0.00     0.162 A 
BRANCH  13  17
ATOM     17  O   UNL     1      31.574   8.509  24.454  1.00  0.00    -0.504 OA
ATOM     18  H   UNL     1      32.561   8.341  24.605  1.00  0.00     0.293 HD
ENDBRANCH  13  17
BRANCH  15  19
ATOM     19  O   UNL     1      32.355  10.730  26.007  1.00  0.00    -0.502 OA
ATOM     20  H   UNL     1      33.034  10.373  25.345  1.00  0.00     0.293 HD
ENDBRANCH  15  19
BRANCH  16  21
ATOM     21  O   UNL     1      30.714  11.635  28.048  1.00  0.00    -0.504 OA
ATOM     22  H   UNL     1      30.419  11.739  29.013  1.00  0.00     0.293 HD
ENDBRANCH  16  21
ENDBRANCH   1  11
BRANCH  10  23
ATOM     23  O   UNL     1      26.108   9.737  25.721  1.00  0.00    -0.500 OA
ATOM     24  H   UNL     1      25.748   9.704  24.774  1.00  0.00     0.294 HD
ENDBRANCH  10  23
BRANCH   5  25
ATOM     25  O   UNL     1      25.481   3.203  29.872  1.00  0.00    -0.507 OA
ATOM     26  H   UNL     1      25.724   2.319  29.441  1.00  0.00     0.293 HD
ENDBRANCH   5  25
BRANCH   7  27
ATOM     27  O   UNL     1      22.623   6.296  27.566  1.00  0.00    -0.507 OA
ATOM     28  H   UNL     1      22.045   5.748  26.945  1.00  0.00     0.293 HD
ENDBRANCH   7  27
TORSDOF 7
ENDMDL
