MODEL 1
REMARK VINA RESULT:    -5.254      0.000      0.000
REMARK INTER + INTRA:          -7.145
REMARK INTER:                  -6.790
REMARK INTRA:                  -0.355
REMARK UNBOUND:                -0.355
REMARK SMILES C=CC(=O)CCCCC
REMARK SMILES IDX 6 1 7 2 8 3 9 4 5 5 3 6 4 7 2 8 1 9
REMARK H PARENT
REMARK Flexibility Score: inf
ROOT
ATOM      1  C   UNL     1     104.277  47.905  53.620  1.00  0.00     0.008 C 
ENDROOT
BRANCH   1   2
ATOM      2  C   UNL     1     102.779  47.848  53.288  1.00  0.00     0.000 C 
BRANCH   2   3
ATOM      3  C   UNL     1     102.168  46.514  53.730  1.00  0.00    -0.003 C 
ATOM      4  C   UNL     1     101.907  46.498  55.234  1.00  0.00     0.004 C 
ENDBRANCH   2   3
ENDBRANCH   1   2
BRANCH   1   5
ATOM      5  C   UNL     1     104.576  48.817  54.817  1.00  0.00     0.080 C 
BRANCH   5   6
ATOM      6  C   UNL     1     103.703  50.041  54.819  1.00  0.00     0.155 C 
ATOM      7  O   UNL     1     103.901  50.939  53.956  1.00  0.00    -0.295 OA
BRANCH   6   8
ATOM      8  C   UNL     1     102.649  50.201  55.840  1.00  0.00     0.039 C 
ATOM      9  C   UNL     1     102.788  49.753  57.086  1.00  0.00     0.012 C 
ENDBRANCH   6   8
ENDBRANCH   5   6
ENDBRANCH   1   5
TORSDOF 5
ENDMDL
MODEL 2
REMARK VINA RESULT:    -5.195      1.966      3.114
REMARK INTER + INTRA:          -7.069
REMARK INTER:                  -6.638
REMARK INTRA:                  -0.430
REMARK UNBOUND:                -0.355
REMARK SMILES C=CC(=O)CCCCC
REMARK SMILES IDX 6 1 7 2 8 3 9 4 5 5 3 6 4 7 2 8 1 9
REMARK H PARENT
REMARK Flexibility Score: inf
ROOT
ATOM      1  C   UNL     1     102.474  47.140  54.012  1.00  0.00     0.008 C 
ENDROOT
BRANCH   1   2
ATOM      2  C   UNL     1     103.965  47.502  53.970  1.00  0.00     0.000 C 
BRANCH   2   3
ATOM      3  C   UNL     1     104.181  48.870  53.313  1.00  0.00    -0.003 C 
ATOM      4  C   UNL     1     105.084  49.756  54.168  1.00  0.00     0.004 C 
ENDBRANCH   2   3
ENDBRANCH   1   2
BRANCH   1   5
ATOM      5  C   UNL     1     102.016  46.711  55.412  1.00  0.00     0.080 C 
BRANCH   5   6
ATOM      6  C   UNL     1     102.515  47.649  56.475  1.00  0.00     0.155 C 
ATOM      7  O   UNL     1     103.207  47.191  57.425  1.00  0.00    -0.295 OA
BRANCH   6   8
ATOM      8  C   UNL     1     102.171  49.083  56.422  1.00  0.00     0.039 C 
ATOM      9  C   UNL     1     102.762  49.989  57.199  1.00  0.00     0.012 C 
ENDBRANCH   6   8
ENDBRANCH   5   6
ENDBRANCH   1   5
TORSDOF 5
ENDMDL
MODEL 3
REMARK VINA RESULT:    -5.175      9.552     10.833
REMARK INTER + INTRA:          -7.043
REMARK INTER:                  -6.591
REMARK INTRA:                  -0.452
REMARK UNBOUND:                -0.355
REMARK SMILES C=CC(=O)CCCCC
REMARK SMILES IDX 6 1 7 2 8 3 9 4 5 5 3 6 4 7 2 8 1 9
REMARK H PARENT
REMARK Flexibility Score: inf
ROOT
ATOM      1  C   UNL     1     108.367  47.048  65.071  1.00  0.00     0.008 C 
ENDROOT
BRANCH   1   2
ATOM      2  C   UNL     1     107.063  47.850  65.186  1.00  0.00     0.000 C 
BRANCH   2   3
ATOM      3  C   UNL     1     107.343  49.306  65.571  1.00  0.00    -0.003 C 
ATOM      4  C   UNL     1     106.451  50.265  64.788  1.00  0.00     0.004 C 
ENDBRANCH   2   3
ENDBRANCH   1   2
BRANCH   1   5
ATOM      5  C   UNL     1     108.432  46.219  63.781  1.00  0.00     0.080 C 
BRANCH   5   6
ATOM      6  C   UNL     1     108.620  47.087  62.568  1.00  0.00     0.155 C 
ATOM      7  O   UNL     1     108.099  46.736  61.474  1.00  0.00    -0.295 OA
BRANCH   6   8
ATOM      8  C   UNL     1     109.431  48.317  62.653  1.00  0.00     0.039 C 
ATOM      9  C   UNL     1     109.153  49.406  61.938  1.00  0.00     0.012 C 
ENDBRANCH   6   8
ENDBRANCH   5   6
ENDBRANCH   1   5
TORSDOF 5
ENDMDL
MODEL 4
REMARK VINA RESULT:    -5.148      1.257      1.470
REMARK INTER + INTRA:          -7.008
REMARK INTER:                  -6.460
REMARK INTRA:                  -0.548
REMARK UNBOUND:                -0.355
REMARK SMILES C=CC(=O)CCCCC
REMARK SMILES IDX 6 1 7 2 8 3 9 4 5 5 3 6 4 7 2 8 1 9
REMARK H PARENT
REMARK Flexibility Score: inf
ROOT
ATOM      1  C   UNL     1     103.997  49.032  53.727  1.00  0.00     0.008 C 
ENDROOT
BRANCH   1   2
ATOM      2  C   UNL     1     103.803  47.534  53.454  1.00  0.00     0.000 C 
BRANCH   2   3
ATOM      3  C   UNL     1     102.317  47.161  53.463  1.00  0.00    -0.003 C 
ATOM      4  C   UNL     1     101.962  46.336  54.698  1.00  0.00     0.004 C 
ENDBRANCH   2   3
ENDBRANCH   1   2
BRANCH   1   5
ATOM      5  C   UNL     1     104.425  49.312  55.174  1.00  0.00     0.080 C 
BRANCH   5   6
ATOM      6  C   UNL     1     103.250  49.653  56.048  1.00  0.00     0.155 C 
ATOM      7  O   UNL     1     102.353  50.419  55.603  1.00  0.00    -0.295 OA
BRANCH   6   8
ATOM      8  C   UNL     1     103.167  49.120  57.422  1.00  0.00     0.039 C 
ATOM      9  C   UNL     1     103.594  47.901  57.743  1.00  0.00     0.012 C 
ENDBRANCH   6   8
ENDBRANCH   5   6
ENDBRANCH   1   5
TORSDOF 5
ENDMDL
MODEL 5
REMARK VINA RESULT:    -5.052      1.409      3.465
REMARK INTER + INTRA:          -6.884
REMARK INTER:                  -6.453
REMARK INTRA:                  -0.430
REMARK UNBOUND:                -0.355
REMARK SMILES C=CC(=O)CCCCC
REMARK SMILES IDX 6 1 7 2 8 3 9 4 5 5 3 6 4 7 2 8 1 9
REMARK H PARENT
REMARK Flexibility Score: inf
ROOT
ATOM      1  C   UNL     1     104.459  49.047  54.894  1.00  0.00     0.008 C 
ENDROOT
BRANCH   1   2
ATOM      2  C   UNL     1     103.488  50.225  54.731  1.00  0.00     0.000 C 
BRANCH   2   3
ATOM      3  C   UNL     1     102.581  50.364  55.958  1.00  0.00    -0.003 C 
ATOM      4  C   UNL     1     103.041  49.450  57.091  1.00  0.00     0.004 C 
ENDBRANCH   2   3
ENDBRANCH   1   2
BRANCH   1   5
ATOM      5  C   UNL     1     104.366  48.048  53.733  1.00  0.00     0.080 C 
BRANCH   5   6
ATOM      6  C   UNL     1     102.984  47.471  53.601  1.00  0.00     0.155 C 
ATOM      7  O   UNL     1     102.352  47.625  52.521  1.00  0.00    -0.295 OA
BRANCH   6   8
ATOM      8  C   UNL     1     102.364  46.760  54.737  1.00  0.00     0.039 C 
ATOM      9  C   UNL     1     101.648  45.648  54.578  1.00  0.00     0.012 C 
ENDBRANCH   6   8
ENDBRANCH   5   6
ENDBRANCH   1   5
TORSDOF 5
ENDMDL
MODEL 6
REMARK VINA RESULT:    -5.042      9.688     11.303
REMARK INTER + INTRA:          -6.870
REMARK INTER:                  -6.434
REMARK INTRA:                  -0.436
REMARK UNBOUND:                -0.355
REMARK SMILES C=CC(=O)CCCCC
REMARK SMILES IDX 6 1 7 2 8 3 9 4 5 5 3 6 4 7 2 8 1 9
REMARK H PARENT
REMARK Flexibility Score: inf
ROOT
ATOM      1  C   UNL     1     106.920  48.210  65.012  1.00  0.00     0.008 C 
ENDROOT
BRANCH   1   2
ATOM      2  C   UNL     1     108.009  48.020  66.077  1.00  0.00     0.000 C 
BRANCH   2   3
ATOM      3  C   UNL     1     108.689  46.655  65.933  1.00  0.00    -0.003 C 
ATOM      4  C   UNL     1     108.389  46.030  64.573  1.00  0.00     0.004 C 
ENDBRANCH   2   3
ENDBRANCH   1   2
BRANCH   1   5
ATOM      5  C   UNL     1     106.951  49.610  64.386  1.00  0.00     0.080 C 
BRANCH   5   6
ATOM      6  C   UNL     1     108.356  50.067  64.109  1.00  0.00     0.155 C 
ATOM      7  O   UNL     1     108.805  51.079  64.713  1.00  0.00    -0.295 OA
BRANCH   6   8
ATOM      8  C   UNL     1     109.186  49.357  63.116  1.00  0.00     0.039 C 
ATOM      9  C   UNL     1     108.720  48.994  61.923  1.00  0.00     0.012 C 
ENDBRANCH   6   8
ENDBRANCH   5   6
ENDBRANCH   1   5
TORSDOF 5
ENDMDL
MODEL 7
REMARK VINA RESULT:    -5.030     10.262     11.443
REMARK INTER + INTRA:          -6.855
REMARK INTER:                  -6.575
REMARK INTRA:                  -0.280
REMARK UNBOUND:                -0.355
REMARK SMILES C=CC(=O)CCCCC
REMARK SMILES IDX 6 1 7 2 8 3 9 4 5 5 3 6 4 7 2 8 1 9
REMARK H PARENT
REMARK Flexibility Score: inf
ROOT
ATOM      1  C   UNL     1     106.916  48.101  65.374  1.00  0.00     0.008 C 
ENDROOT
BRANCH   1   2
ATOM      2  C   UNL     1     106.545  49.166  64.331  1.00  0.00     0.000 C 
BRANCH   2   3
ATOM      3  C   UNL     1     106.561  50.568  64.947  1.00  0.00    -0.003 C 
ATOM      4  C   UNL     1     107.963  51.172  64.910  1.00  0.00     0.004 C 
ENDBRANCH   2   3
ENDBRANCH   1   2
BRANCH   1   5
ATOM      5  C   UNL     1     108.355  47.597  65.208  1.00  0.00     0.080 C 
BRANCH   5   6
ATOM      6  C   UNL     1     108.444  46.479  64.207  1.00  0.00     0.155 C 
ATOM      7  O   UNL     1     108.288  45.290  64.597  1.00  0.00    -0.295 OA
BRANCH   6   8
ATOM      8  C   UNL     1     108.741  46.771  62.791  1.00  0.00     0.039 C 
ATOM      9  C   UNL     1     109.244  47.938  62.393  1.00  0.00     0.012 C 
ENDBRANCH   6   8
ENDBRANCH   5   6
ENDBRANCH   1   5
TORSDOF 5
ENDMDL
MODEL 8
REMARK VINA RESULT:    -4.982      1.713      3.738
REMARK INTER + INTRA:          -6.793
REMARK INTER:                  -6.367
REMARK INTRA:                  -0.427
REMARK UNBOUND:                -0.355
REMARK SMILES C=CC(=O)CCCCC
REMARK SMILES IDX 6 1 7 2 8 3 9 4 5 5 3 6 4 7 2 8 1 9
REMARK H PARENT
REMARK Flexibility Score: inf
ROOT
ATOM      1  C   UNL     1     101.971  47.489  56.145  1.00  0.00     0.008 C 
ENDROOT
BRANCH   1   2
ATOM      2  C   UNL     1     103.152  47.503  57.125  1.00  0.00     0.000 C 
BRANCH   2   3
ATOM      3  C   UNL     1     103.400  48.915  57.668  1.00  0.00    -0.003 C 
ATOM      4  C   UNL     1     102.660  49.962  56.841  1.00  0.00     0.004 C 
ENDBRANCH   2   3
ENDBRANCH   1   2
BRANCH   1   5
ATOM      5  C   UNL     1     102.236  46.598  54.924  1.00  0.00     0.080 C 
BRANCH   5   6
ATOM      6  C   UNL     1     102.887  47.361  53.805  1.00  0.00     0.155 C 
ATOM      7  O   UNL     1     102.256  47.531  52.726  1.00  0.00    -0.295 OA
BRANCH   6   8
ATOM      8  C   UNL     1     104.261  47.877  53.959  1.00  0.00     0.039 C 
ATOM      9  C   UNL     1     104.564  49.164  53.793  1.00  0.00     0.012 C 
ENDBRANCH   6   8
ENDBRANCH   5   6
ENDBRANCH   1   5
TORSDOF 5
ENDMDL
MODEL 9
REMARK VINA RESULT:    -4.908     10.063     10.779
REMARK INTER + INTRA:          -6.698
REMARK INTER:                  -6.334
REMARK INTRA:                  -0.364
REMARK UNBOUND:                -0.355
REMARK SMILES C=CC(=O)CCCCC
REMARK SMILES IDX 6 1 7 2 8 3 9 4 5 5 3 6 4 7 2 8 1 9
REMARK H PARENT
REMARK Flexibility Score: inf
ROOT
ATOM      1  C   UNL     1     107.984  47.910  63.083  1.00  0.00     0.008 C 
ENDROOT
BRANCH   1   2
ATOM      2  C   UNL     1     108.810  46.619  62.989  1.00  0.00     0.000 C 
BRANCH   2   3
ATOM      3  C   UNL     1     108.466  45.660  64.133  1.00  0.00    -0.003 C 
ATOM      4  C   UNL     1     108.457  46.385  65.477  1.00  0.00     0.004 C 
ENDBRANCH   2   3
ENDBRANCH   1   2
BRANCH   1   5
ATOM      5  C   UNL     1     108.864  49.167  63.096  1.00  0.00     0.080 C 
BRANCH   5   6
ATOM      6  C   UNL     1     108.459  50.121  64.184  1.00  0.00     0.155 C 
ATOM      7  O   UNL     1     109.164  51.145  64.398  1.00  0.00    -0.295 OA
BRANCH   6   8
ATOM      8  C   UNL     1     107.268  49.845  65.010  1.00  0.00     0.039 C 
ATOM      9  C   UNL     1     106.178  50.610  64.969  1.00  0.00     0.012 C 
ENDBRANCH   6   8
ENDBRANCH   5   6
ENDBRANCH   1   5
TORSDOF 5
ENDMDL
