MODEL 1
REMARK VINA RESULT:    -5.365      0.000      0.000
REMARK INTER + INTRA:         -11.520
REMARK INTER:                 -10.069
REMARK INTRA:                  -1.451
REMARK UNBOUND:                -1.451
REMARK SMILES O=C([O-])CCCCCCCCCCCCCCC(=O)[O-]
REMARK SMILES IDX 10 1 9 2 8 3 7 4 6 5 5 6 4 7 2 8 1 9 3 10 11 11 12 12 13 13
REMARK SMILES IDX 14 14 15 15 16 16 17 17 18 18 19 19 20 20
REMARK H PARENT
REMARK Flexibility Score: inf
ROOT
ATOM      1  C   UNL     1      41.938  40.205  15.386  1.00  0.00     0.000 C 
ENDROOT
BRANCH   1   2
ATOM      2  C   UNL     1      40.800  41.248  15.368  1.00  0.00     0.000 C 
BRANCH   2   3
ATOM      3  C   UNL     1      41.287  42.703  15.506  1.00  0.00     0.000 C 
BRANCH   3   4
ATOM      4  C   UNL     1      41.346  43.234  16.950  1.00  0.00     0.000 C 
BRANCH   4   5
ATOM      5  C   UNL     1      42.778  43.568  17.402  1.00  0.00     0.000 C 
BRANCH   5   6
ATOM      6  C   UNL     1      43.230  42.728  18.611  1.00  0.00     0.006 C 
BRANCH   6   7
ATOM      7  C   UNL     1      42.501  41.383  18.757  1.00  0.00     0.053 C 
BRANCH   7   8
ATOM      8  C   UNL     1      41.864  41.236  20.105  1.00  0.00     0.041 C 
ATOM      9  O   UNL     1      41.680  40.091  20.598  1.00  0.00    -0.550 OA
ATOM     10  O   UNL     1      41.502  42.363  20.831  1.00  0.00    -0.550 OA
ENDBRANCH   7   8
ENDBRANCH   6   7
ENDBRANCH   5   6
ENDBRANCH   4   5
ENDBRANCH   3   4
ENDBRANCH   2   3
ENDBRANCH   1   2
BRANCH   1  11
ATOM     11  C   UNL     1      43.291  40.816  14.978  1.00  0.00     0.000 C 
BRANCH  11  12
ATOM     12  C   UNL     1      44.254  39.780  14.379  1.00  0.00     0.000 C 
BRANCH  12  13
ATOM     13  C   UNL     1      43.889  38.337  14.770  1.00  0.00     0.000 C 
BRANCH  13  14
ATOM     14  C   UNL     1      43.743  37.415  13.548  1.00  0.00     0.000 C 
BRANCH  14  15
ATOM     15  C   UNL     1      42.408  36.651  13.542  1.00  0.00     0.000 C 
BRANCH  15  16
ATOM     16  C   UNL     1      41.186  37.587  13.508  1.00  0.00     0.006 C 
BRANCH  16  17
ATOM     17  C   UNL     1      39.938  36.980  12.849  1.00  0.00     0.053 C 
BRANCH  17  18
ATOM     18  C   UNL     1      39.069  38.025  12.219  1.00  0.00     0.041 C 
ATOM     19  O   UNL     1      39.317  39.246  12.397  1.00  0.00    -0.550 OA
ATOM     20  O   UNL     1      38.005  37.649  11.409  1.00  0.00    -0.550 OA
ENDBRANCH  17  18
ENDBRANCH  16  17
ENDBRANCH  15  16
ENDBRANCH  14  15
ENDBRANCH  13  14
ENDBRANCH  12  13
ENDBRANCH  11  12
ENDBRANCH   1  11
TORSDOF 15
ENDMDL
MODEL 2
REMARK VINA RESULT:    -5.204      2.364      6.949
REMARK INTER + INTRA:         -11.218
REMARK INTER:                  -9.455
REMARK INTRA:                  -1.763
REMARK UNBOUND:                -1.451
REMARK SMILES O=C([O-])CCCCCCCCCCCCCCC(=O)[O-]
REMARK SMILES IDX 10 1 9 2 8 3 7 4 6 5 5 6 4 7 2 8 1 9 3 10 11 11 12 12 13 13
REMARK SMILES IDX 14 14 15 15 16 16 17 17 18 18 19 19 20 20
REMARK H PARENT
REMARK Flexibility Score: inf
ROOT
ATOM      1  C   UNL     1      42.652  40.237  16.085  1.00  0.00     0.000 C 
ENDROOT
BRANCH   1   2
ATOM      2  C   UNL     1      43.511  40.585  14.851  1.00  0.00     0.000 C 
BRANCH   2   3
ATOM      3  C   UNL     1      44.234  39.372  14.234  1.00  0.00     0.000 C 
BRANCH   3   4
ATOM      4  C   UNL     1      43.646  38.002  14.616  1.00  0.00     0.000 C 
BRANCH   4   5
ATOM      5  C   UNL     1      42.965  37.296  13.430  1.00  0.00     0.000 C 
BRANCH   5   6
ATOM      6  C   UNL     1      41.461  37.062  13.664  1.00  0.00     0.006 C 
BRANCH   6   7
ATOM      7  C   UNL     1      40.593  38.322  13.524  1.00  0.00     0.053 C 
BRANCH   7   8
ATOM      8  C   UNL     1      39.485  38.132  12.534  1.00  0.00     0.041 C 
ATOM      9  O   UNL     1      38.958  36.999  12.382  1.00  0.00    -0.550 OA
ATOM     10  O   UNL     1      39.013  39.214  11.802  1.00  0.00    -0.550 OA
ENDBRANCH   7   8
ENDBRANCH   6   7
ENDBRANCH   5   6
ENDBRANCH   4   5
ENDBRANCH   3   4
ENDBRANCH   2   3
ENDBRANCH   1   2
BRANCH   1  11
ATOM     11  C   UNL     1      41.189  40.684  15.918  1.00  0.00     0.000 C 
BRANCH  11  12
ATOM     12  C   UNL     1      40.424  40.726  17.250  1.00  0.00     0.000 C 
BRANCH  12  13
ATOM     13  C   UNL     1      41.361  40.769  18.469  1.00  0.00     0.000 C 
BRANCH  13  14
ATOM     14  C   UNL     1      41.600  42.201  18.977  1.00  0.00     0.000 C 
BRANCH  14  15
ATOM     15  C   UNL     1      43.032  42.692  18.703  1.00  0.00     0.000 C 
BRANCH  15  16
ATOM     16  C   UNL     1      43.119  43.620  17.477  1.00  0.00     0.006 C 
BRANCH  16  17
ATOM     17  C   UNL     1      41.758  44.049  16.908  1.00  0.00     0.053 C 
BRANCH  17  18
ATOM     18  C   UNL     1      41.878  44.614  15.526  1.00  0.00     0.041 C 
ATOM     19  O   UNL     1      41.492  45.789  15.286  1.00  0.00    -0.550 OA
ATOM     20  O   UNL     1      42.448  43.856  14.511  1.00  0.00    -0.550 OA
ENDBRANCH  17  18
ENDBRANCH  16  17
ENDBRANCH  15  16
ENDBRANCH  14  15
ENDBRANCH  13  14
ENDBRANCH  12  13
ENDBRANCH  11  12
ENDBRANCH   1  11
TORSDOF 15
ENDMDL
MODEL 3
REMARK VINA RESULT:    -5.155      1.045      7.176
REMARK INTER + INTRA:         -11.126
REMARK INTER:                  -9.531
REMARK INTRA:                  -1.595
REMARK UNBOUND:                -1.451
REMARK SMILES O=C([O-])CCCCCCCCCCCCCCC(=O)[O-]
REMARK SMILES IDX 10 1 9 2 8 3 7 4 6 5 5 6 4 7 2 8 1 9 3 10 11 11 12 12 13 13
REMARK SMILES IDX 14 14 15 15 16 16 17 17 18 18 19 19 20 20
REMARK H PARENT
REMARK Flexibility Score: inf
ROOT
ATOM      1  C   UNL     1      41.012  40.649  15.654  1.00  0.00     0.000 C 
ENDROOT
BRANCH   1   2
ATOM      2  C   UNL     1      42.415  40.066  15.928  1.00  0.00     0.000 C 
BRANCH   2   3
ATOM      3  C   UNL     1      43.329  40.038  14.688  1.00  0.00     0.000 C 
BRANCH   3   4
ATOM      4  C   UNL     1      44.003  38.684  14.408  1.00  0.00     0.000 C 
BRANCH   4   5
ATOM      5  C   UNL     1      42.993  37.529  14.287  1.00  0.00     0.000 C 
BRANCH   5   6
ATOM      6  C   UNL     1      41.987  37.739  13.140  1.00  0.00     0.006 C 
BRANCH   6   7
ATOM      7  C   UNL     1      40.537  37.376  13.493  1.00  0.00     0.053 C 
BRANCH   7   8
ATOM      8  C   UNL     1      39.550  38.185  12.707  1.00  0.00     0.041 C 
ATOM      9  O   UNL     1      39.568  39.443  12.770  1.00  0.00    -0.550 OA
ATOM     10  O   UNL     1      38.632  37.550  11.881  1.00  0.00    -0.550 OA
ENDBRANCH   7   8
ENDBRANCH   6   7
ENDBRANCH   5   6
ENDBRANCH   4   5
ENDBRANCH   3   4
ENDBRANCH   2   3
ENDBRANCH   1   2
BRANCH   1  11
ATOM     11  C   UNL     1      41.056  42.165  15.389  1.00  0.00     0.000 C 
BRANCH  11  12
ATOM     12  C   UNL     1      40.969  42.997  16.678  1.00  0.00     0.000 C 
BRANCH  12  13
ATOM     13  C   UNL     1      41.898  44.223  16.655  1.00  0.00     0.000 C 
BRANCH  13  14
ATOM     14  C   UNL     1      43.220  43.974  17.402  1.00  0.00     0.000 C 
BRANCH  14  15
ATOM     15  C   UNL     1      43.246  42.611  18.114  1.00  0.00     0.000 C 
BRANCH  15  16
ATOM     16  C   UNL     1      43.061  42.731  19.638  1.00  0.00     0.006 C 
BRANCH  16  17
ATOM     17  C   UNL     1      41.798  42.044  20.181  1.00  0.00     0.053 C 
BRANCH  17  18
ATOM     18  C   UNL     1      41.854  40.555  20.020  1.00  0.00     0.041 C 
ATOM     19  O   UNL     1      41.139  39.985  19.154  1.00  0.00    -0.550 OA
ATOM     20  O   UNL     1      42.719  39.802  20.803  1.00  0.00    -0.550 OA
ENDBRANCH  17  18
ENDBRANCH  16  17
ENDBRANCH  15  16
ENDBRANCH  14  15
ENDBRANCH  13  14
ENDBRANCH  12  13
ENDBRANCH  11  12
ENDBRANCH   1  11
TORSDOF 15
ENDMDL
MODEL 4
REMARK VINA RESULT:    -5.086      2.429      3.671
REMARK INTER + INTRA:         -10.996
REMARK INTER:                  -9.039
REMARK INTRA:                  -1.957
REMARK UNBOUND:                -1.451
REMARK SMILES O=C([O-])CCCCCCCCCCCCCCC(=O)[O-]
REMARK SMILES IDX 10 1 9 2 8 3 7 4 6 5 5 6 4 7 2 8 1 9 3 10 11 11 12 12 13 13
REMARK SMILES IDX 14 14 15 15 16 16 17 17 18 18 19 19 20 20
REMARK H PARENT
REMARK Flexibility Score: inf
ROOT
ATOM      1  C   UNL     1      40.452  40.985  17.533  1.00  0.00     0.000 C 
ENDROOT
BRANCH   1   2
ATOM      2  C   UNL     1      41.366  40.312  18.578  1.00  0.00     0.000 C 
BRANCH   2   3
ATOM      3  C   UNL     1      42.019  41.301  19.562  1.00  0.00     0.000 C 
BRANCH   3   4
ATOM      4  C   UNL     1      42.039  42.767  19.093  1.00  0.00     0.000 C 
BRANCH   4   5
ATOM      5  C   UNL     1      43.346  43.144  18.375  1.00  0.00     0.000 C 
BRANCH   5   6
ATOM      6  C   UNL     1      43.101  43.817  17.011  1.00  0.00     0.006 C 
BRANCH   6   7
ATOM      7  C   UNL     1      41.666  44.326  16.804  1.00  0.00     0.053 C 
BRANCH   7   8
ATOM      8  C   UNL     1      41.640  45.678  16.158  1.00  0.00     0.041 C 
ATOM      9  O   UNL     1      42.606  46.473  16.312  1.00  0.00    -0.550 OA
ATOM     10  O   UNL     1      40.565  46.048  15.360  1.00  0.00    -0.550 OA
ENDBRANCH   7   8
ENDBRANCH   6   7
ENDBRANCH   5   6
ENDBRANCH   4   5
ENDBRANCH   3   4
ENDBRANCH   2   3
ENDBRANCH   1   2
BRANCH   1  11
ATOM     11  C   UNL     1      40.974  40.795  16.097  1.00  0.00     0.000 C 
BRANCH  11  12
ATOM     12  C   UNL     1      42.399  40.221  16.054  1.00  0.00     0.000 C 
BRANCH  12  13
ATOM     13  C   UNL     1      43.247  40.828  14.922  1.00  0.00     0.000 C 
BRANCH  13  14
ATOM     14  C   UNL     1      44.414  39.916  14.506  1.00  0.00     0.000 C 
BRANCH  14  15
ATOM     15  C   UNL     1      44.063  38.423  14.622  1.00  0.00     0.000 C 
BRANCH  15  16
ATOM     16  C   UNL     1      43.284  37.898  13.402  1.00  0.00     0.006 C 
BRANCH  16  17
ATOM     17  C   UNL     1      42.148  36.922  13.746  1.00  0.00     0.053 C 
BRANCH  17  18
ATOM     18  C   UNL     1      40.807  37.452  13.338  1.00  0.00     0.041 C 
ATOM     19  O   UNL     1      39.908  36.664  12.944  1.00  0.00    -0.550 OA
ATOM     20  O   UNL     1      40.541  38.813  13.424  1.00  0.00    -0.550 OA
ENDBRANCH  17  18
ENDBRANCH  16  17
ENDBRANCH  15  16
ENDBRANCH  14  15
ENDBRANCH  13  14
ENDBRANCH  12  13
ENDBRANCH  11  12
ENDBRANCH   1  11
TORSDOF 15
ENDMDL
MODEL 5
REMARK VINA RESULT:    -5.075      2.756      3.766
REMARK INTER + INTRA:         -10.976
REMARK INTER:                  -9.446
REMARK INTRA:                  -1.530
REMARK UNBOUND:                -1.451
REMARK SMILES O=C([O-])CCCCCCCCCCCCCCC(=O)[O-]
REMARK SMILES IDX 10 1 9 2 8 3 7 4 6 5 5 6 4 7 2 8 1 9 3 10 11 11 12 12 13 13
REMARK SMILES IDX 14 14 15 15 16 16 17 17 18 18 19 19 20 20
REMARK H PARENT
REMARK Flexibility Score: inf
ROOT
ATOM      1  C   UNL     1      40.551  40.964  17.242  1.00  0.00     0.000 C 
ENDROOT
BRANCH   1   2
ATOM      2  C   UNL     1      41.494  40.633  18.418  1.00  0.00     0.000 C 
BRANCH   2   3
ATOM      3  C   UNL     1      42.039  41.875  19.147  1.00  0.00     0.000 C 
BRANCH   3   4
ATOM      4  C   UNL     1      43.198  42.592  18.432  1.00  0.00     0.000 C 
BRANCH   4   5
ATOM      5  C   UNL     1      42.729  43.799  17.601  1.00  0.00     0.000 C 
BRANCH   5   6
ATOM      6  C   UNL     1      43.175  43.715  16.129  1.00  0.00     0.006 C 
BRANCH   6   7
ATOM      7  C   UNL     1      42.318  44.541  15.158  1.00  0.00     0.053 C 
BRANCH   7   8
ATOM      8  C   UNL     1      43.131  45.565  14.425  1.00  0.00     0.041 C 
ATOM      9  O   UNL     1      42.566  46.399  13.669  1.00  0.00    -0.550 OA
ATOM     10  O   UNL     1      44.507  45.617  14.602  1.00  0.00    -0.550 OA
ENDBRANCH   7   8
ENDBRANCH   6   7
ENDBRANCH   5   6
ENDBRANCH   4   5
ENDBRANCH   3   4
ENDBRANCH   2   3
ENDBRANCH   1   2
BRANCH   1  11
ATOM     11  C   UNL     1      41.198  40.664  15.878  1.00  0.00     0.000 C 
BRANCH  11  12
ATOM     12  C   UNL     1      42.627  40.114  16.005  1.00  0.00     0.000 C 
BRANCH  12  13
ATOM     13  C   UNL     1      43.254  39.772  14.642  1.00  0.00     0.000 C 
BRANCH  13  14
ATOM     14  C   UNL     1      43.758  38.320  14.573  1.00  0.00     0.000 C 
BRANCH  14  15
ATOM     15  C   UNL     1      42.708  37.360  13.988  1.00  0.00     0.000 C 
BRANCH  15  16
ATOM     16  C   UNL     1      41.616  38.089  13.184  1.00  0.00     0.006 C 
BRANCH  16  17
ATOM     17  C   UNL     1      40.219  37.458  13.293  1.00  0.00     0.053 C 
BRANCH  17  18
ATOM     18  C   UNL     1      39.215  38.162  12.432  1.00  0.00     0.041 C 
ATOM     19  O   UNL     1      39.239  39.416  12.327  1.00  0.00    -0.550 OA
ATOM     20  O   UNL     1      38.274  37.429  11.719  1.00  0.00    -0.550 OA
ENDBRANCH  17  18
ENDBRANCH  16  17
ENDBRANCH  15  16
ENDBRANCH  14  15
ENDBRANCH  13  14
ENDBRANCH  12  13
ENDBRANCH  11  12
ENDBRANCH   1  11
TORSDOF 15
ENDMDL
MODEL 6
REMARK VINA RESULT:    -5.056      1.556      7.611
REMARK INTER + INTRA:         -10.941
REMARK INTER:                  -9.683
REMARK INTRA:                  -1.258
REMARK UNBOUND:                -1.451
REMARK SMILES O=C([O-])CCCCCCCCCCCCCCC(=O)[O-]
REMARK SMILES IDX 10 1 9 2 8 3 7 4 6 5 5 6 4 7 2 8 1 9 3 10 11 11 12 12 13 13
REMARK SMILES IDX 14 14 15 15 16 16 17 17 18 18 19 19 20 20
REMARK H PARENT
REMARK Flexibility Score: inf
ROOT
ATOM      1  C   UNL     1      43.365  40.458  15.538  1.00  0.00     0.000 C 
ENDROOT
BRANCH   1   2
ATOM      2  C   UNL     1      44.341  40.132  14.388  1.00  0.00     0.000 C 
BRANCH   2   3
ATOM      3  C   UNL     1      44.162  38.719  13.802  1.00  0.00     0.000 C 
BRANCH   3   4
ATOM      4  C   UNL     1      43.102  37.853  14.506  1.00  0.00     0.000 C 
BRANCH   4   5
ATOM      5  C   UNL     1      42.128  37.186  13.519  1.00  0.00     0.000 C 
BRANCH   5   6
ATOM      6  C   UNL     1      40.659  37.560  13.791  1.00  0.00     0.006 C 
BRANCH   6   7
ATOM      7  C   UNL     1      39.653  36.936  12.811  1.00  0.00     0.053 C 
BRANCH   7   8
ATOM      8  C   UNL     1      38.921  37.979  12.021  1.00  0.00     0.041 C 
ATOM      9  O   UNL     1      39.268  39.188  12.093  1.00  0.00    -0.550 OA
ATOM     10  O   UNL     1      37.878  37.611  11.181  1.00  0.00    -0.550 OA
ENDBRANCH   7   8
ENDBRANCH   6   7
ENDBRANCH   5   6
ENDBRANCH   4   5
ENDBRANCH   3   4
ENDBRANCH   2   3
ENDBRANCH   1   2
BRANCH   1  11
ATOM     11  C   UNL     1      42.656  41.809  15.334  1.00  0.00     0.000 C 
BRANCH  11  12
ATOM     12  C   UNL     1      41.130  41.708  15.475  1.00  0.00     0.000 C 
BRANCH  12  13
ATOM     13  C   UNL     1      40.701  40.682  16.538  1.00  0.00     0.000 C 
BRANCH  13  14
ATOM     14  C   UNL     1      40.911  41.197  17.972  1.00  0.00     0.000 C 
BRANCH  14  15
ATOM     15  C   UNL     1      41.381  40.091  18.933  1.00  0.00     0.000 C 
BRANCH  15  16
ATOM     16  C   UNL     1      42.336  40.614  20.022  1.00  0.00     0.006 C 
BRANCH  16  17
ATOM     17  C   UNL     1      42.117  42.087  20.404  1.00  0.00     0.053 C 
BRANCH  17  18
ATOM     18  C   UNL     1      43.331  42.924  20.138  1.00  0.00     0.041 C 
ATOM     19  O   UNL     1      43.723  43.112  18.956  1.00  0.00    -0.550 OA
ATOM     20  O   UNL     1      44.008  43.523  21.192  1.00  0.00    -0.550 OA
ENDBRANCH  17  18
ENDBRANCH  16  17
ENDBRANCH  15  16
ENDBRANCH  14  15
ENDBRANCH  13  14
ENDBRANCH  12  13
ENDBRANCH  11  12
ENDBRANCH   1  11
TORSDOF 15
ENDMDL
MODEL 7
REMARK VINA RESULT:    -4.977      1.326      2.073
REMARK INTER + INTRA:         -10.792
REMARK INTER:                  -9.581
REMARK INTRA:                  -1.211
REMARK UNBOUND:                -1.451
REMARK SMILES O=C([O-])CCCCCCCCCCCCCCC(=O)[O-]
REMARK SMILES IDX 10 1 9 2 8 3 7 4 6 5 5 6 4 7 2 8 1 9 3 10 11 11 12 12 13 13
REMARK SMILES IDX 14 14 15 15 16 16 17 17 18 18 19 19 20 20
REMARK H PARENT
REMARK Flexibility Score: inf
ROOT
ATOM      1  C   UNL     1      42.359  43.479  15.059  1.00  0.00     0.000 C 
ENDROOT
BRANCH   1   2
ATOM      2  C   UNL     1      41.267  43.859  16.082  1.00  0.00     0.000 C 
BRANCH   2   3
ATOM      3  C   UNL     1      41.354  43.075  17.405  1.00  0.00     0.000 C 
BRANCH   3   4
ATOM      4  C   UNL     1      40.538  41.771  17.444  1.00  0.00     0.000 C 
BRANCH   4   5
ATOM      5  C   UNL     1      41.378  40.555  17.873  1.00  0.00     0.000 C 
BRANCH   5   6
ATOM      6  C   UNL     1      41.367  40.335  19.397  1.00  0.00     0.006 C 
BRANCH   6   7
ATOM      7  C   UNL     1      42.635  40.818  20.117  1.00  0.00     0.053 C 
BRANCH   7   8
ATOM      8  C   UNL     1      42.481  42.210  20.649  1.00  0.00     0.041 C 
ATOM      9  O   UNL     1      43.461  43.002  20.647  1.00  0.00    -0.550 OA
ATOM     10  O   UNL     1      41.247  42.643  21.118  1.00  0.00    -0.550 OA
ENDBRANCH   7   8
ENDBRANCH   6   7
ENDBRANCH   5   6
ENDBRANCH   4   5
ENDBRANCH   3   4
ENDBRANCH   2   3
ENDBRANCH   1   2
BRANCH   1  11
ATOM     11  C   UNL     1      42.243  42.012  14.606  1.00  0.00     0.000 C 
BRANCH  11  12
ATOM     12  C   UNL     1      43.570  41.246  14.727  1.00  0.00     0.000 C 
BRANCH  12  13
ATOM     13  C   UNL     1      43.364  39.754  15.040  1.00  0.00     0.000 C 
BRANCH  13  14
ATOM     14  C   UNL     1      44.269  38.844  14.191  1.00  0.00     0.000 C 
BRANCH  14  15
ATOM     15  C   UNL     1      43.486  37.716  13.497  1.00  0.00     0.000 C 
BRANCH  15  16
ATOM     16  C   UNL     1      42.150  37.403  14.195  1.00  0.00     0.006 C 
BRANCH  16  17
ATOM     17  C   UNL     1      40.963  37.212  13.238  1.00  0.00     0.053 C 
BRANCH  17  18
ATOM     18  C   UNL     1      40.124  38.449  13.128  1.00  0.00     0.041 C 
ATOM     19  O   UNL     1      40.223  39.360  13.991  1.00  0.00    -0.550 OA
ATOM     20  O   UNL     1      39.258  38.609  12.053  1.00  0.00    -0.550 OA
ENDBRANCH  17  18
ENDBRANCH  16  17
ENDBRANCH  15  16
ENDBRANCH  14  15
ENDBRANCH  13  14
ENDBRANCH  12  13
ENDBRANCH  11  12
ENDBRANCH   1  11
TORSDOF 15
ENDMDL
MODEL 8
REMARK VINA RESULT:    -4.934      2.493      6.774
REMARK INTER + INTRA:         -10.711
REMARK INTER:                  -8.680
REMARK INTRA:                  -2.031
REMARK UNBOUND:                -1.451
REMARK SMILES O=C([O-])CCCCCCCCCCCCCCC(=O)[O-]
REMARK SMILES IDX 10 1 9 2 8 3 7 4 6 5 5 6 4 7 2 8 1 9 3 10 11 11 12 12 13 13
REMARK SMILES IDX 14 14 15 15 16 16 17 17 18 18 19 19 20 20
REMARK H PARENT
REMARK Flexibility Score: inf
ROOT
ATOM      1  C   UNL     1      40.722  40.655  16.436  1.00  0.00     0.000 C 
ENDROOT
BRANCH   1   2
ATOM      2  C   UNL     1      41.032  41.845  15.503  1.00  0.00     0.000 C 
BRANCH   2   3
ATOM      3  C   UNL     1      42.388  41.731  14.781  1.00  0.00     0.000 C 
BRANCH   3   4
ATOM      4  C   UNL     1      43.389  40.756  15.426  1.00  0.00     0.000 C 
BRANCH   4   5
ATOM      5  C   UNL     1      43.848  39.650  14.460  1.00  0.00     0.000 C 
BRANCH   5   6
ATOM      6  C   UNL     1      43.121  38.313  14.701  1.00  0.00     0.006 C 
BRANCH   6   7
ATOM      7  C   UNL     1      42.553  37.662  13.431  1.00  0.00     0.053 C 
BRANCH   7   8
ATOM      8  C   UNL     1      41.058  37.752  13.377  1.00  0.00     0.041 C 
ATOM      9  O   UNL     1      40.363  36.706  13.280  1.00  0.00    -0.550 OA
ATOM     10  O   UNL     1      40.431  38.988  13.467  1.00  0.00    -0.550 OA
ENDBRANCH   7   8
ENDBRANCH   6   7
ENDBRANCH   5   6
ENDBRANCH   4   5
ENDBRANCH   3   4
ENDBRANCH   2   3
ENDBRANCH   1   2
BRANCH   1  11
ATOM     11  C   UNL     1      40.608  41.087  17.909  1.00  0.00     0.000 C 
BRANCH  11  12
ATOM     12  C   UNL     1      41.777  40.580  18.769  1.00  0.00     0.000 C 
BRANCH  12  13
ATOM     13  C   UNL     1      42.522  41.720  19.484  1.00  0.00     0.000 C 
BRANCH  13  14
ATOM     14  C   UNL     1      43.399  42.543  18.525  1.00  0.00     0.000 C 
BRANCH  14  15
ATOM     15  C   UNL     1      42.667  43.778  17.972  1.00  0.00     0.000 C 
BRANCH  15  16
ATOM     16  C   UNL     1      43.597  44.719  17.184  1.00  0.00     0.006 C 
BRANCH  16  17
ATOM     17  C   UNL     1      43.018  45.213  15.849  1.00  0.00     0.053 C 
BRANCH  17  18
ATOM     18  C   UNL     1      41.703  45.910  16.030  1.00  0.00     0.041 C 
ATOM     19  O   UNL     1      41.649  47.012  16.635  1.00  0.00    -0.550 OA
ATOM     20  O   UNL     1      40.544  45.356  15.500  1.00  0.00    -0.550 OA
ENDBRANCH  17  18
ENDBRANCH  16  17
ENDBRANCH  15  16
ENDBRANCH  14  15
ENDBRANCH  13  14
ENDBRANCH  12  13
ENDBRANCH  11  12
ENDBRANCH   1  11
TORSDOF 15
ENDMDL
MODEL 9
REMARK VINA RESULT:    -4.913      3.063      6.858
REMARK INTER + INTRA:         -10.672
REMARK INTER:                  -8.461
REMARK INTRA:                  -2.211
REMARK UNBOUND:                -1.451
REMARK SMILES O=C([O-])CCCCCCCCCCCCCCC(=O)[O-]
REMARK SMILES IDX 10 1 9 2 8 3 7 4 6 5 5 6 4 7 2 8 1 9 3 10 11 11 12 12 13 13
REMARK SMILES IDX 14 14 15 15 16 16 17 17 18 18 19 19 20 20
REMARK H PARENT
REMARK Flexibility Score: inf
ROOT
ATOM      1  C   UNL     1      41.639  41.011  19.747  1.00  0.00     0.000 C 
ENDROOT
BRANCH   1   2
ATOM      2  C   UNL     1      41.690  40.228  18.417  1.00  0.00     0.000 C 
BRANCH   2   3
ATOM      3  C   UNL     1      40.631  40.677  17.391  1.00  0.00     0.000 C 
BRANCH   3   4
ATOM      4  C   UNL     1      41.029  40.478  15.918  1.00  0.00     0.000 C 
BRANCH   4   5
ATOM      5  C   UNL     1      42.541  40.255  15.735  1.00  0.00     0.000 C 
BRANCH   5   6
ATOM      6  C   UNL     1      42.886  39.619  14.375  1.00  0.00     0.006 C 
BRANCH   6   7
ATOM      7  C   UNL     1      43.019  38.089  14.406  1.00  0.00     0.053 C 
BRANCH   7   8
ATOM      8  C   UNL     1      41.983  37.420  13.554  1.00  0.00     0.041 C 
ATOM      9  O   UNL     1      42.158  36.239  13.153  1.00  0.00    -0.550 OA
ATOM     10  O   UNL     1      40.810  38.090  13.231  1.00  0.00    -0.550 OA
ENDBRANCH   7   8
ENDBRANCH   6   7
ENDBRANCH   5   6
ENDBRANCH   4   5
ENDBRANCH   3   4
ENDBRANCH   2   3
ENDBRANCH   1   2
BRANCH   1  11
ATOM     11  C   UNL     1      41.948  42.506  19.552  1.00  0.00     0.000 C 
BRANCH  11  12
ATOM     12  C   UNL     1      43.322  42.751  18.908  1.00  0.00     0.000 C 
BRANCH  12  13
ATOM     13  C   UNL     1      43.217  43.403  17.519  1.00  0.00     0.000 C 
BRANCH  13  14
ATOM     14  C   UNL     1      41.853  44.074  17.285  1.00  0.00     0.000 C 
BRANCH  14  15
ATOM     15  C   UNL     1      41.467  44.121  15.797  1.00  0.00     0.000 C 
BRANCH  15  16
ATOM     16  C   UNL     1      42.608  43.660  14.871  1.00  0.00     0.006 C 
BRANCH  16  17
ATOM     17  C   UNL     1      43.032  44.699  13.821  1.00  0.00     0.053 C 
BRANCH  17  18
ATOM     18  C   UNL     1      43.533  45.963  14.449  1.00  0.00     0.041 C 
ATOM     19  O   UNL     1      43.032  47.073  14.126  1.00  0.00    -0.550 OA
ATOM     20  O   UNL     1      44.530  45.913  15.416  1.00  0.00    -0.550 OA
ENDBRANCH  17  18
ENDBRANCH  16  17
ENDBRANCH  15  16
ENDBRANCH  14  15
ENDBRANCH  13  14
ENDBRANCH  12  13
ENDBRANCH  11  12
ENDBRANCH   1  11
TORSDOF 15
ENDMDL
