MODEL 1
REMARK VINA RESULT:    -4.740      0.000      0.000
REMARK INTER + INTRA:          -8.018
REMARK INTER:                  -7.234
REMARK INTRA:                  -0.783
REMARK UNBOUND:                -0.783
REMARK SMILES O=C([O-])CCCCCCCCC(=O)[O-]
REMARK SMILES IDX 7 1 6 2 5 3 4 4 2 5 1 6 3 7 8 8 9 9 10 10 11 11 12 12 13 13
REMARK SMILES IDX 14 14
REMARK H PARENT
REMARK Flexibility Score: inf
ROOT
ATOM      1  C   UNL     1      49.501  11.913  -5.338  1.00  0.00     0.000 C 
ENDROOT
BRANCH   1   2
ATOM      2  C   UNL     1      50.033  10.600  -4.743  1.00  0.00     0.000 C 
BRANCH   2   3
ATOM      3  C   UNL     1      49.715   9.379  -5.620  1.00  0.00     0.006 C 
BRANCH   3   4
ATOM      4  C   UNL     1      49.818   9.732  -7.107  1.00  0.00     0.053 C 
BRANCH   4   5
ATOM      5  C   UNL     1      48.933   8.841  -7.921  1.00  0.00     0.041 C 
ATOM      6  O   UNL     1      47.860   9.286  -8.405  1.00  0.00    -0.550 OA
ATOM      7  O   UNL     1      49.269   7.505  -8.101  1.00  0.00    -0.550 OA
ENDBRANCH   4   5
ENDBRANCH   3   4
ENDBRANCH   2   3
ENDBRANCH   1   2
BRANCH   1   8
ATOM      8  C   UNL     1      48.152  12.333  -4.734  1.00  0.00     0.000 C 
BRANCH   8   9
ATOM      9  C   UNL     1      46.992  11.971  -5.671  1.00  0.00     0.000 C 
BRANCH   9  10
ATOM     10  C   UNL     1      47.202  12.472  -7.112  1.00  0.00     0.006 C 
BRANCH  10  11
ATOM     11  C   UNL     1      45.900  12.854  -7.838  1.00  0.00     0.053 C 
BRANCH  11  12
ATOM     12  C   UNL     1      45.797  12.244  -9.203  1.00  0.00     0.041 C 
ATOM     13  O   UNL     1      44.680  11.869  -9.649  1.00  0.00    -0.550 OA
ATOM     14  O   UNL     1      46.930  12.119  -9.997  1.00  0.00    -0.550 OA
ENDBRANCH  11  12
ENDBRANCH  10  11
ENDBRANCH   9  10
ENDBRANCH   8   9
ENDBRANCH   1   8
TORSDOF 9
ENDMDL
MODEL 2
REMARK VINA RESULT:    -4.702     19.428     20.418
REMARK INTER + INTRA:          -7.959
REMARK INTER:                  -6.788
REMARK INTRA:                  -1.171
REMARK UNBOUND:                -0.783
REMARK SMILES O=C([O-])CCCCCCCCC(=O)[O-]
REMARK SMILES IDX 7 1 6 2 5 3 4 4 2 5 1 6 3 7 8 8 9 9 10 10 11 11 12 12 13 13
REMARK SMILES IDX 14 14
REMARK H PARENT
REMARK Flexibility Score: inf
ROOT
ATOM      1  C   UNL     1      33.502   3.872   6.744  1.00  0.00     0.000 C 
ENDROOT
BRANCH   1   2
ATOM      2  C   UNL     1      33.549   3.612   5.230  1.00  0.00     0.000 C 
BRANCH   2   3
ATOM      3  C   UNL     1      33.975   2.175   4.888  1.00  0.00     0.006 C 
BRANCH   3   4
ATOM      4  C   UNL     1      34.176   1.347   6.160  1.00  0.00     0.053 C 
BRANCH   4   5
ATOM      5  C   UNL     1      34.874   0.061   5.844  1.00  0.00     0.041 C 
ATOM      6  O   UNL     1      34.405  -0.716   4.972  1.00  0.00    -0.550 OA
ATOM      7  O   UNL     1      36.014  -0.303   6.550  1.00  0.00    -0.550 OA
ENDBRANCH   4   5
ENDBRANCH   3   4
ENDBRANCH   2   3
ENDBRANCH   1   2
BRANCH   1   8
ATOM      8  C   UNL     1      34.400   5.043   7.171  1.00  0.00     0.000 C 
BRANCH   8   9
ATOM      9  C   UNL     1      35.378   4.612   8.273  1.00  0.00     0.000 C 
BRANCH   9  10
ATOM     10  C   UNL     1      36.842   4.569   7.797  1.00  0.00     0.006 C 
BRANCH  10  11
ATOM     11  C   UNL     1      37.281   3.202   7.244  1.00  0.00     0.053 C 
BRANCH  11  12
ATOM     12  C   UNL     1      37.418   3.198   5.751  1.00  0.00     0.041 C 
ATOM     13  O   UNL     1      37.137   4.229   5.084  1.00  0.00    -0.550 OA
ATOM     14  O   UNL     1      37.886   2.064   5.098  1.00  0.00    -0.550 OA
ENDBRANCH  11  12
ENDBRANCH  10  11
ENDBRANCH   9  10
ENDBRANCH   8   9
ENDBRANCH   1   8
TORSDOF 9
ENDMDL
MODEL 3
REMARK VINA RESULT:    -4.686      1.786      2.602
REMARK INTER + INTRA:          -7.935
REMARK INTER:                  -7.257
REMARK INTRA:                  -0.679
REMARK UNBOUND:                -0.783
REMARK SMILES O=C([O-])CCCCCCCCC(=O)[O-]
REMARK SMILES IDX 7 1 6 2 5 3 4 4 2 5 1 6 3 7 8 8 9 9 10 10 11 11 12 12 13 13
REMARK SMILES IDX 14 14
REMARK H PARENT
REMARK Flexibility Score: inf
ROOT
ATOM      1  C   UNL     1      46.841  11.919  -5.516  1.00  0.00     0.000 C 
ENDROOT
BRANCH   1   2
ATOM      2  C   UNL     1      48.114  12.347  -4.769  1.00  0.00     0.000 C 
BRANCH   2   3
ATOM      3  C   UNL     1      49.171  11.233  -4.712  1.00  0.00     0.006 C 
BRANCH   3   4
ATOM      4  C   UNL     1      50.298  11.496  -5.715  1.00  0.00     0.053 C 
BRANCH   4   5
ATOM      5  C   UNL     1      50.055  10.749  -6.988  1.00  0.00     0.041 C 
ATOM      6  O   UNL     1      50.102   9.491  -7.002  1.00  0.00    -0.550 OA
ATOM      7  O   UNL     1      49.826  11.443  -8.169  1.00  0.00    -0.550 OA
ENDBRANCH   4   5
ENDBRANCH   3   4
ENDBRANCH   2   3
ENDBRANCH   1   2
BRANCH   1   8
ATOM      8  C   UNL     1      45.883  13.093  -5.772  1.00  0.00     0.000 C 
BRANCH   8   9
ATOM      9  C   UNL     1      45.888  13.493  -7.254  1.00  0.00     0.000 C 
BRANCH   9  10
ATOM     10  C   UNL     1      46.279  12.335  -8.191  1.00  0.00     0.006 C 
BRANCH  10  11
ATOM     11  C   UNL     1      45.214  12.001  -9.250  1.00  0.00     0.053 C 
BRANCH  11  12
ATOM     12  C   UNL     1      43.985  11.376  -8.661  1.00  0.00     0.041 C 
ATOM     13  O   UNL     1      42.842  11.719  -9.064  1.00  0.00    -0.550 OA
ATOM     14  O   UNL     1      44.103  10.393  -7.687  1.00  0.00    -0.550 OA
ENDBRANCH  11  12
ENDBRANCH  10  11
ENDBRANCH   9  10
ENDBRANCH   8   9
ENDBRANCH   1   8
TORSDOF 9
ENDMDL
MODEL 4
REMARK VINA RESULT:    -4.679      1.790      4.269
REMARK INTER + INTRA:          -7.923
REMARK INTER:                  -6.898
REMARK INTRA:                  -1.025
REMARK UNBOUND:                -0.783
REMARK SMILES O=C([O-])CCCCCCCCC(=O)[O-]
REMARK SMILES IDX 7 1 6 2 5 3 4 4 2 5 1 6 3 7 8 8 9 9 10 10 11 11 12 12 13 13
REMARK SMILES IDX 14 14
REMARK H PARENT
REMARK Flexibility Score: inf
ROOT
ATOM      1  C   UNL     1      46.010  13.093  -6.186  1.00  0.00     0.000 C 
ENDROOT
BRANCH   1   2
ATOM      2  C   UNL     1      45.838  13.134  -7.713  1.00  0.00     0.000 C 
BRANCH   2   3
ATOM      3  C   UNL     1      44.926  12.013  -8.237  1.00  0.00     0.006 C 
BRANCH   3   4
ATOM      4  C   UNL     1      45.347  11.579  -9.645  1.00  0.00     0.053 C 
BRANCH   4   5
ATOM      5  C   UNL     1      46.699  10.939  -9.615  1.00  0.00     0.041 C 
ATOM      6  O   UNL     1      46.956  10.042  -8.769  1.00  0.00    -0.550 OA
ATOM      7  O   UNL     1      47.692  11.369 -10.486  1.00  0.00    -0.550 OA
ENDBRANCH   4   5
ENDBRANCH   3   4
ENDBRANCH   2   3
ENDBRANCH   1   2
BRANCH   1   8
ATOM      8  C   UNL     1      45.806  11.685  -5.606  1.00  0.00     0.000 C 
BRANCH   8   9
ATOM      9  C   UNL     1      47.134  11.097  -5.108  1.00  0.00     0.000 C 
BRANCH   9  10
ATOM     10  C   UNL     1      48.199  12.172  -4.821  1.00  0.00     0.006 C 
BRANCH  10  11
ATOM     11  C   UNL     1      49.611  11.799  -5.308  1.00  0.00     0.053 C 
BRANCH  11  12
ATOM     12  C   UNL     1      49.643  11.422  -6.759  1.00  0.00     0.041 C 
ATOM     13  O   UNL     1      49.939  10.248  -7.104  1.00  0.00    -0.550 OA
ATOM     14  O   UNL     1      49.315  12.361  -7.729  1.00  0.00    -0.550 OA
ENDBRANCH  11  12
ENDBRANCH  10  11
ENDBRANCH   9  10
ENDBRANCH   8   9
ENDBRANCH   1   8
TORSDOF 9
ENDMDL
MODEL 5
REMARK VINA RESULT:    -4.677     20.171     21.048
REMARK INTER + INTRA:          -7.921
REMARK INTER:                  -6.920
REMARK INTRA:                  -1.000
REMARK UNBOUND:                -0.783
REMARK SMILES O=C([O-])CCCCCCCCC(=O)[O-]
REMARK SMILES IDX 7 1 6 2 5 3 4 4 2 5 1 6 3 7 8 8 9 9 10 10 11 11 12 12 13 13
REMARK SMILES IDX 14 14
REMARK H PARENT
REMARK Flexibility Score: inf
ROOT
ATOM      1  C   UNL     1      35.300   2.659   3.504  1.00  0.00     0.000 C 
ENDROOT
BRANCH   1   2
ATOM      2  C   UNL     1      35.768   1.199   3.396  1.00  0.00     0.000 C 
BRANCH   2   3
ATOM      3  C   UNL     1      34.603   0.216   3.201  1.00  0.00     0.006 C 
BRANCH   3   4
ATOM      4  C   UNL     1      34.688  -0.938   4.204  1.00  0.00     0.053 C 
BRANCH   4   5
ATOM      5  C   UNL     1      34.623  -0.422   5.607  1.00  0.00     0.041 C 
ATOM      6  O   UNL     1      33.575   0.135   6.028  1.00  0.00    -0.550 OA
ATOM      7  O   UNL     1      35.737  -0.508   6.432  1.00  0.00    -0.550 OA
ENDBRANCH   4   5
ENDBRANCH   3   4
ENDBRANCH   2   3
ENDBRANCH   1   2
BRANCH   1   8
ATOM      8  C   UNL     1      33.770   2.792   3.508  1.00  0.00     0.000 C 
BRANCH   8   9
ATOM      9  C   UNL     1      33.292   3.611   4.715  1.00  0.00     0.000 C 
BRANCH   9  10
ATOM     10  C   UNL     1      34.362   3.744   5.815  1.00  0.00     0.006 C 
BRANCH  10  11
ATOM     11  C   UNL     1      33.833   3.482   7.236  1.00  0.00     0.053 C 
BRANCH  11  12
ATOM     12  C   UNL     1      34.754   2.622   8.049  1.00  0.00     0.041 C 
ATOM     13  O   UNL     1      34.304   1.930   8.999  1.00  0.00    -0.550 OA
ATOM     14  O   UNL     1      36.106   2.562   7.735  1.00  0.00    -0.550 OA
ENDBRANCH  11  12
ENDBRANCH  10  11
ENDBRANCH   9  10
ENDBRANCH   8   9
ENDBRANCH   1   8
TORSDOF 9
ENDMDL
MODEL 6
REMARK VINA RESULT:    -4.665     19.930     21.059
REMARK INTER + INTRA:          -7.902
REMARK INTER:                  -6.958
REMARK INTRA:                  -0.944
REMARK UNBOUND:                -0.783
REMARK SMILES O=C([O-])CCCCCCCCC(=O)[O-]
REMARK SMILES IDX 7 1 6 2 5 3 4 4 2 5 1 6 3 7 8 8 9 9 10 10 11 11 12 12 13 13
REMARK SMILES IDX 14 14
REMARK H PARENT
REMARK Flexibility Score: inf
ROOT
ATOM      1  C   UNL     1      34.534   1.908   3.507  1.00  0.00     0.000 C 
ENDROOT
BRANCH   1   2
ATOM      2  C   UNL     1      33.902   2.093   4.896  1.00  0.00     0.000 C 
BRANCH   2   3
ATOM      3  C   UNL     1      34.133   3.500   5.469  1.00  0.00     0.006 C 
BRANCH   3   4
ATOM      4  C   UNL     1      33.746   3.557   6.950  1.00  0.00     0.053 C 
BRANCH   4   5
ATOM      5  C   UNL     1      34.849   3.013   7.802  1.00  0.00     0.041 C 
ATOM      6  O   UNL     1      35.914   3.668   7.953  1.00  0.00    -0.550 OA
ATOM      7  O   UNL     1      34.722   1.760   8.388  1.00  0.00    -0.550 OA
ENDBRANCH   4   5
ENDBRANCH   3   4
ENDBRANCH   2   3
ENDBRANCH   1   2
BRANCH   1   8
ATOM      8  C   UNL     1      34.555   0.439   3.057  1.00  0.00     0.000 C 
BRANCH   8   9
ATOM      9  C   UNL     1      34.500  -0.507   4.266  1.00  0.00     0.000 C 
BRANCH   9  10
ATOM     10  C   UNL     1      35.881  -1.067   4.656  1.00  0.00     0.006 C 
BRANCH  10  11
ATOM     11  C   UNL     1      36.335  -0.679   6.074  1.00  0.00     0.053 C 
BRANCH  11  12
ATOM     12  C   UNL     1      37.302   0.467   6.080  1.00  0.00     0.041 C 
ATOM     13  O   UNL     1      37.621   1.035   5.002  1.00  0.00    -0.550 OA
ATOM     14  O   UNL     1      37.827   0.928   7.280  1.00  0.00    -0.550 OA
ENDBRANCH  11  12
ENDBRANCH  10  11
ENDBRANCH   9  10
ENDBRANCH   8   9
ENDBRANCH   1   8
TORSDOF 9
ENDMDL
MODEL 7
REMARK VINA RESULT:    -4.648     19.310     20.433
REMARK INTER + INTRA:          -7.877
REMARK INTER:                  -7.031
REMARK INTRA:                  -0.846
REMARK UNBOUND:                -0.783
REMARK SMILES O=C([O-])CCCCCCCCC(=O)[O-]
REMARK SMILES IDX 7 1 6 2 5 3 4 4 2 5 1 6 3 7 8 8 9 9 10 10 11 11 12 12 13 13
REMARK SMILES IDX 14 14
REMARK H PARENT
REMARK Flexibility Score: inf
ROOT
ATOM      1  C   UNL     1      36.156   5.112   6.647  1.00  0.00     0.000 C 
ENDROOT
BRANCH   1   2
ATOM      2  C   UNL     1      34.656   5.334   6.901  1.00  0.00     0.000 C 
BRANCH   2   3
ATOM      3  C   UNL     1      33.847   4.028   6.856  1.00  0.00     0.006 C 
BRANCH   3   4
ATOM      4  C   UNL     1      33.425   3.695   5.422  1.00  0.00     0.053 C 
BRANCH   4   5
ATOM      5  C   UNL     1      33.950   2.353   5.018  1.00  0.00     0.041 C 
ATOM      6  O   UNL     1      34.637   2.233   3.970  1.00  0.00    -0.550 OA
ATOM      7  O   UNL     1      33.637   1.229   5.770  1.00  0.00    -0.550 OA
ENDBRANCH   4   5
ENDBRANCH   3   4
ENDBRANCH   2   3
ENDBRANCH   1   2
BRANCH   1   8
ATOM      8  C   UNL     1      36.829   4.293   7.759  1.00  0.00     0.000 C 
BRANCH   8   9
ATOM      9  C   UNL     1      37.600   3.102   7.174  1.00  0.00     0.000 C 
BRANCH   9  10
ATOM     10  C   UNL     1      36.803   1.785   7.221  1.00  0.00     0.006 C 
BRANCH  10  11
ATOM     11  C   UNL     1      37.611   0.548   6.791  1.00  0.00     0.053 C 
BRANCH  11  12
ATOM     12  C   UNL     1      37.141  -0.028   5.489  1.00  0.00     0.041 C 
ATOM     13  O   UNL     1      37.581   0.424   4.399  1.00  0.00    -0.550 OA
ATOM     14  O   UNL     1      36.240  -1.085   5.481  1.00  0.00    -0.550 OA
ENDBRANCH  11  12
ENDBRANCH  10  11
ENDBRANCH   9  10
ENDBRANCH   8   9
ENDBRANCH   1   8
TORSDOF 9
ENDMDL
MODEL 8
REMARK VINA RESULT:    -4.645     19.437     20.399
REMARK INTER + INTRA:          -7.872
REMARK INTER:                  -6.773
REMARK INTRA:                  -1.099
REMARK UNBOUND:                -0.783
REMARK SMILES O=C([O-])CCCCCCCCC(=O)[O-]
REMARK SMILES IDX 7 1 6 2 5 3 4 4 2 5 1 6 3 7 8 8 9 9 10 10 11 11 12 12 13 13
REMARK SMILES IDX 14 14
REMARK H PARENT
REMARK Flexibility Score: inf
ROOT
ATOM      1  C   UNL     1      34.588   4.964   7.168  1.00  0.00     0.000 C 
ENDROOT
BRANCH   1   2
ATOM      2  C   UNL     1      35.531   4.525   8.299  1.00  0.00     0.000 C 
BRANCH   2   3
ATOM      3  C   UNL     1      36.974   4.308   7.816  1.00  0.00     0.006 C 
BRANCH   3   4
ATOM      4  C   UNL     1      37.141   2.915   7.201  1.00  0.00     0.053 C 
BRANCH   4   5
ATOM      5  C   UNL     1      37.504   3.021   5.753  1.00  0.00     0.041 C 
ATOM      6  O   UNL     1      37.342   4.107   5.138  1.00  0.00    -0.550 OA
ATOM      7  O   UNL     1      37.973   1.906   5.070  1.00  0.00    -0.550 OA
ENDBRANCH   4   5
ENDBRANCH   3   4
ENDBRANCH   2   3
ENDBRANCH   1   2
BRANCH   1   8
ATOM      8  C   UNL     1      33.514   3.911   6.852  1.00  0.00     0.000 C 
BRANCH   8   9
ATOM      9  C   UNL     1      33.428   3.650   5.341  1.00  0.00     0.000 C 
BRANCH   9  10
ATOM     10  C   UNL     1      34.014   2.286   4.931  1.00  0.00     0.006 C 
BRANCH  10  11
ATOM     11  C   UNL     1      34.021   1.242   6.061  1.00  0.00     0.053 C 
BRANCH  11  12
ATOM     12  C   UNL     1      34.772  -0.003   5.696  1.00  0.00     0.041 C 
ATOM     13  O   UNL     1      34.389  -0.715   4.730  1.00  0.00    -0.550 OA
ATOM     14  O   UNL     1      35.913  -0.360   6.402  1.00  0.00    -0.550 OA
ENDBRANCH  11  12
ENDBRANCH  10  11
ENDBRANCH   9  10
ENDBRANCH   8   9
ENDBRANCH   1   8
TORSDOF 9
ENDMDL
MODEL 9
REMARK VINA RESULT:    -4.639      2.182      4.913
REMARK INTER + INTRA:          -7.864
REMARK INTER:                  -7.195
REMARK INTRA:                  -0.669
REMARK UNBOUND:                -0.783
REMARK SMILES O=C([O-])CCCCCCCCC(=O)[O-]
REMARK SMILES IDX 7 1 6 2 5 3 4 4 2 5 1 6 3 7 8 8 9 9 10 10 11 11 12 12 13 13
REMARK SMILES IDX 14 14
REMARK H PARENT
REMARK Flexibility Score: inf
ROOT
ATOM      1  C   UNL     1      47.368   8.130  -8.081  1.00  0.00     0.000 C 
ENDROOT
BRANCH   1   2
ATOM      2  C   UNL     1      46.833   9.290  -8.936  1.00  0.00     0.000 C 
BRANCH   2   3
ATOM      3  C   UNL     1      45.491   8.960  -9.609  1.00  0.00     0.006 C 
BRANCH   3   4
ATOM      4  C   UNL     1      45.010  10.130 -10.473  1.00  0.00     0.053 C 
BRANCH   4   5
ATOM      5  C   UNL     1      44.674  11.310  -9.618  1.00  0.00     0.041 C 
ATOM      6  O   UNL     1      43.588  11.342  -8.981  1.00  0.00    -0.550 OA
ATOM      7  O   UNL     1      45.536  12.398  -9.564  1.00  0.00    -0.550 OA
ENDBRANCH   4   5
ENDBRANCH   3   4
ENDBRANCH   2   3
ENDBRANCH   1   2
BRANCH   1   8
ATOM      8  C   UNL     1      48.893   8.180  -7.904  1.00  0.00     0.000 C 
BRANCH   8   9
ATOM      9  C   UNL     1      49.272   8.894  -6.599  1.00  0.00     0.000 C 
BRANCH   9  10
ATOM     10  C   UNL     1      50.353   9.973  -6.793  1.00  0.00     0.006 C 
BRANCH  10  11
ATOM     11  C   UNL     1      49.894  11.394  -6.420  1.00  0.00     0.053 C 
BRANCH  11  12
ATOM     12  C   UNL     1      48.841  11.925  -7.345  1.00  0.00     0.041 C 
ATOM     13  O   UNL     1      49.096  12.093  -8.568  1.00  0.00    -0.550 OA
ATOM     14  O   UNL     1      47.569  12.205  -6.864  1.00  0.00    -0.550 OA
ENDBRANCH  11  12
ENDBRANCH  10  11
ENDBRANCH   9  10
ENDBRANCH   8   9
ENDBRANCH   1   8
TORSDOF 9
ENDMDL
