MODEL 1
REMARK VINA RESULT:    -6.307      0.000      0.000
REMARK INTER + INTRA:         -10.477
REMARK INTER:                  -9.810
REMARK INTRA:                  -0.667
REMARK UNBOUND:                -0.667
REMARK SMILES COc1cc(CNC(=O)CCCCC=CC(C)C)ccc1O
REMARK SMILES IDX 11 1 12 2 13 3 14 4 15 5 16 6 17 7 18 8 10 9 8 10 9 11 7 12
REMARK SMILES IDX 6 14 5 15 4 16 19 17 3 18 20 19 21 20 2 21 1 22 22 23
REMARK H PARENT 7 13 22 24
REMARK Flexibility Score: inf
ROOT
ATOM      1  C   UNL     1       9.145  14.163 -20.238  1.00  0.00     0.010 C 
ENDROOT
BRANCH   1   2
ATOM      2  C   UNL     1       8.391  14.917 -21.354  1.00  0.00     0.005 C 
BRANCH   2   3
ATOM      3  C   UNL     1       8.735  16.415 -21.378  1.00  0.00     0.027 C 
BRANCH   3   4
ATOM      4  C   UNL     1       9.104  16.869 -22.764  1.00  0.00    -0.031 C 
ATOM      5  C   UNL     1       9.541  16.005 -23.695  1.00  0.00    -0.028 C 
BRANCH   5   6
ATOM      6  C   UNL     1       9.895  16.462 -25.093  1.00  0.00     0.005 C 
ATOM      7  C   UNL     1       8.951  15.824 -26.125  1.00  0.00     0.012 C 
ATOM      8  C   UNL     1      11.357  16.115 -25.424  1.00  0.00     0.012 C 
ENDBRANCH   5   6
ENDBRANCH   3   4
ENDBRANCH   2   3
ENDBRANCH   1   2
BRANCH   1   9
ATOM      9  C   UNL     1       9.316  12.662 -20.525  1.00  0.00     0.100 C 
BRANCH   9  10
ATOM     10  C   UNL     1       8.780  11.810 -19.411  1.00  0.00     0.220 C 
ATOM     11  O   UNL     1       7.532  11.733 -19.238  1.00  0.00    -0.275 OA
ATOM     12  N   UNL     1       9.674  11.049 -18.587  1.00  0.00    -0.352 N 
ATOM     13  H   UNL     1      10.703  11.121 -18.752  1.00  0.00     0.163 HD
BRANCH  12  14
ATOM     14  C   UNL     1       9.202  10.105 -17.575  1.00  0.00     0.151 C 
BRANCH  14  15
ATOM     15  C   UNL     1       9.047  10.795 -16.246  1.00  0.00    -0.025 A 
ATOM     16  C   UNL     1       9.638  12.048 -16.018  1.00  0.00     0.056 A 
ATOM     17  C   UNL     1       8.339  10.170 -15.210  1.00  0.00     0.009 A 
ATOM     18  C   UNL     1       9.521  12.680 -14.762  1.00  0.00     0.160 A 
ATOM     19  C   UNL     1       8.213  10.793 -13.965  1.00  0.00     0.050 A 
ATOM     20  C   UNL     1       8.801  12.042 -13.736  1.00  0.00     0.157 A 
BRANCH  18  21
ATOM     21  O   UNL     1      10.107  13.931 -14.502  1.00  0.00    -0.493 OA
ATOM     22  C   UNL     1      11.043  14.577 -15.358  1.00  0.00     0.278 C 
ENDBRANCH  18  21
BRANCH  20  23
ATOM     23  O   UNL     1       8.658  12.631 -12.479  1.00  0.00    -0.504 OA
ATOM     24  H   UNL     1       8.882  13.604 -12.311  1.00  0.00     0.293 HD
ENDBRANCH  20  23
ENDBRANCH  14  15
ENDBRANCH  12  14
ENDBRANCH   9  10
ENDBRANCH   1   9
TORSDOF 10
ENDMDL
MODEL 2
REMARK VINA RESULT:    -6.284      2.045      3.135
REMARK INTER + INTRA:         -10.441
REMARK INTER:                  -9.652
REMARK INTRA:                  -0.789
REMARK UNBOUND:                -0.667
REMARK SMILES COc1cc(CNC(=O)CCCCC=CC(C)C)ccc1O
REMARK SMILES IDX 11 1 12 2 13 3 14 4 15 5 16 6 17 7 18 8 10 9 8 10 9 11 7 12
REMARK SMILES IDX 6 14 5 15 4 16 19 17 3 18 20 19 21 20 2 21 1 22 22 23
REMARK H PARENT 7 13 22 24
REMARK Flexibility Score: inf
ROOT
ATOM      1  C   UNL     1       9.546  14.810 -20.305  1.00  0.00     0.010 C 
ENDROOT
BRANCH   1   2
ATOM      2  C   UNL     1       8.397  15.390 -21.156  1.00  0.00     0.005 C 
BRANCH   2   3
ATOM      3  C   UNL     1       8.717  16.798 -21.683  1.00  0.00     0.027 C 
BRANCH   3   4
ATOM      4  C   UNL     1       8.840  16.807 -23.182  1.00  0.00    -0.031 C 
ATOM      5  C   UNL     1      10.013  16.572 -23.794  1.00  0.00    -0.028 C 
BRANCH   5   6
ATOM      6  C   UNL     1      10.129  16.564 -25.302  1.00  0.00     0.005 C 
ATOM      7  C   UNL     1       8.913  15.868 -25.934  1.00  0.00     0.012 C 
ATOM      8  C   UNL     1      11.429  15.868 -25.743  1.00  0.00     0.012 C 
ENDBRANCH   5   6
ENDBRANCH   3   4
ENDBRANCH   2   3
ENDBRANCH   1   2
BRANCH   1   9
ATOM      9  C   UNL     1      10.193  15.843 -19.368  1.00  0.00     0.100 C 
BRANCH   9  10
ATOM     10  C   UNL     1      10.036  15.470 -17.922  1.00  0.00     0.220 C 
ATOM     11  O   UNL     1       8.891  15.509 -17.395  1.00  0.00    -0.275 OA
ATOM     12  N   UNL     1      11.169  15.023 -17.163  1.00  0.00    -0.352 N 
ATOM     13  H   UNL     1      12.108  14.992 -17.621  1.00  0.00     0.163 HD
BRANCH  12  14
ATOM     14  C   UNL     1      11.053  14.527 -15.793  1.00  0.00     0.151 C 
BRANCH  14  15
ATOM     15  C   UNL     1      10.635  13.080 -15.793  1.00  0.00    -0.025 A 
ATOM     16  C   UNL     1       9.448  12.679 -15.160  1.00  0.00     0.056 A 
ATOM     17  C   UNL     1      11.453  12.114 -16.396  1.00  0.00     0.009 A 
ATOM     18  C   UNL     1       9.073  11.320 -15.131  1.00  0.00     0.160 A 
ATOM     19  C   UNL     1      11.085  10.767 -16.378  1.00  0.00     0.050 A 
ATOM     20  C   UNL     1       9.902  10.364 -15.748  1.00  0.00     0.157 A 
BRANCH  18  21
ATOM     21  O   UNL     1       7.894  10.886 -14.500  1.00  0.00    -0.493 OA
ATOM     22  C   UNL     1       7.795  10.547 -13.120  1.00  0.00     0.278 C 
ENDBRANCH  18  21
BRANCH  20  23
ATOM     23  O   UNL     1       9.569   9.009 -15.745  1.00  0.00    -0.504 OA
ATOM     24  H   UNL     1       8.744   8.657 -15.274  1.00  0.00     0.293 HD
ENDBRANCH  20  23
ENDBRANCH  14  15
ENDBRANCH  12  14
ENDBRANCH   9  10
ENDBRANCH   1   9
TORSDOF 10
ENDMDL
MODEL 3
REMARK VINA RESULT:    -6.262      2.020      3.055
REMARK INTER + INTRA:         -10.407
REMARK INTER:                  -9.730
REMARK INTRA:                  -0.676
REMARK UNBOUND:                -0.667
REMARK SMILES COc1cc(CNC(=O)CCCCC=CC(C)C)ccc1O
REMARK SMILES IDX 11 1 12 2 13 3 14 4 15 5 16 6 17 7 18 8 10 9 8 10 9 11 7 12
REMARK SMILES IDX 6 14 5 15 4 16 19 17 3 18 20 19 21 20 2 21 1 22 22 23
REMARK H PARENT 7 13 22 24
REMARK Flexibility Score: inf
ROOT
ATOM      1  C   UNL     1       8.928  15.012 -19.705  1.00  0.00     0.010 C 
ENDROOT
BRANCH   1   2
ATOM      2  C   UNL     1       8.738  15.168 -21.229  1.00  0.00     0.005 C 
BRANCH   2   3
ATOM      3  C   UNL     1       8.829  16.634 -21.680  1.00  0.00     0.027 C 
BRANCH   3   4
ATOM      4  C   UNL     1       8.913  16.742 -23.178  1.00  0.00    -0.031 C 
ATOM      5  C   UNL     1      10.040  16.436 -23.844  1.00  0.00    -0.028 C 
BRANCH   5   6
ATOM      6  C   UNL     1      10.115  16.528 -25.352  1.00  0.00     0.005 C 
ATOM      7  C   UNL     1       8.913  15.820 -25.997  1.00  0.00     0.012 C 
ATOM      8  C   UNL     1      11.431  15.917 -25.868  1.00  0.00     0.012 C 
ENDBRANCH   5   6
ENDBRANCH   3   4
ENDBRANCH   2   3
ENDBRANCH   1   2
BRANCH   1   9
ATOM      9  C   UNL     1      10.179  15.728 -19.171  1.00  0.00     0.100 C 
BRANCH   9  10
ATOM     10  C   UNL     1      10.558  15.253 -17.798  1.00  0.00     0.220 C 
ATOM     11  O   UNL     1      11.732  15.448 -17.379  1.00  0.00    -0.275 OA
ATOM     12  N   UNL     1       9.579  14.633 -16.950  1.00  0.00    -0.352 N 
ATOM     13  H   UNL     1       8.611  14.489 -17.314  1.00  0.00     0.163 HD
BRANCH  12  14
ATOM     14  C   UNL     1       9.857  14.270 -15.562  1.00  0.00     0.151 C 
BRANCH  14  15
ATOM     15  C   UNL     1       9.549  12.815 -15.329  1.00  0.00    -0.025 A 
ATOM     16  C   UNL     1       9.932  11.844 -16.268  1.00  0.00     0.056 A 
ATOM     17  C   UNL     1       8.841  12.422 -14.184  1.00  0.00     0.009 A 
ATOM     18  C   UNL     1       9.614  10.485 -16.066  1.00  0.00     0.160 A 
ATOM     19  C   UNL     1       8.528  11.077 -13.975  1.00  0.00     0.050 A 
ATOM     20  C   UNL     1       8.909  10.107 -14.908  1.00  0.00     0.157 A 
BRANCH  18  21
ATOM     21  O   UNL     1       9.979   9.491 -16.991  1.00  0.00    -0.493 OA
ATOM     22  C   UNL     1      11.243   9.419 -17.642  1.00  0.00     0.278 C 
ENDBRANCH  18  21
BRANCH  20  23
ATOM     23  O   UNL     1       8.576   8.774 -14.668  1.00  0.00    -0.504 OA
ATOM     24  H   UNL     1       8.351   8.432 -13.742  1.00  0.00     0.293 HD
ENDBRANCH  20  23
ENDBRANCH  14  15
ENDBRANCH  12  14
ENDBRANCH   9  10
ENDBRANCH   1   9
TORSDOF 10
ENDMDL
MODEL 4
REMARK VINA RESULT:    -6.241      2.329      3.706
REMARK INTER + INTRA:         -10.375
REMARK INTER:                  -9.510
REMARK INTRA:                  -0.865
REMARK UNBOUND:                -0.667
REMARK SMILES COc1cc(CNC(=O)CCCCC=CC(C)C)ccc1O
REMARK SMILES IDX 11 1 12 2 13 3 14 4 15 5 16 6 17 7 18 8 10 9 8 10 9 11 7 12
REMARK SMILES IDX 6 14 5 15 4 16 19 17 3 18 20 19 21 20 2 21 1 22 22 23
REMARK H PARENT 7 13 22 24
REMARK Flexibility Score: inf
ROOT
ATOM      1  C   UNL     1       9.993  16.760 -19.682  1.00  0.00     0.010 C 
ENDROOT
BRANCH   1   2
ATOM      2  C   UNL     1       9.751  16.215 -21.106  1.00  0.00     0.005 C 
BRANCH   2   3
ATOM      3  C   UNL     1       8.585  16.926 -21.810  1.00  0.00     0.027 C 
BRANCH   3   4
ATOM      4  C   UNL     1       8.757  16.910 -23.305  1.00  0.00    -0.031 C 
ATOM      5  C   UNL     1       9.939  16.619 -23.874  1.00  0.00    -0.028 C 
BRANCH   5   6
ATOM      6  C   UNL     1      10.104  16.585 -25.378  1.00  0.00     0.005 C 
ATOM      7  C   UNL     1       8.914  15.868 -26.036  1.00  0.00     0.012 C 
ATOM      8  C   UNL     1      11.422  15.892 -25.764  1.00  0.00     0.012 C 
ENDBRANCH   5   6
ENDBRANCH   3   4
ENDBRANCH   2   3
ENDBRANCH   1   2
BRANCH   1   9
ATOM      9  C   UNL     1       8.702  17.180 -18.962  1.00  0.00     0.100 C 
BRANCH   9  10
ATOM     10  C   UNL     1       8.333  16.228 -17.861  1.00  0.00     0.220 C 
ATOM     11  O   UNL     1       7.124  16.119 -17.518  1.00  0.00    -0.275 OA
ATOM     12  N   UNL     1       9.339  15.413 -17.243  1.00  0.00    -0.352 N 
ATOM     13  H   UNL     1      10.334  15.514 -17.547  1.00  0.00     0.163 HD
BRANCH  12  14
ATOM     14  C   UNL     1       9.020  14.379 -16.259  1.00  0.00     0.151 C 
BRANCH  14  15
ATOM     15  C   UNL     1       9.379  13.018 -16.792  1.00  0.00    -0.025 A 
ATOM     16  C   UNL     1       9.602  11.943 -15.917  1.00  0.00     0.056 A 
ATOM     17  C   UNL     1       9.533  12.824 -18.172  1.00  0.00     0.009 A 
ATOM     18  C   UNL     1       9.971  10.676 -16.414  1.00  0.00     0.160 A 
ATOM     19  C   UNL     1       9.892  11.570 -18.673  1.00  0.00     0.050 A 
ATOM     20  C   UNL     1      10.113  10.497 -17.803  1.00  0.00     0.157 A 
BRANCH  18  21
ATOM     21  O   UNL     1      10.206   9.583 -15.563  1.00  0.00    -0.493 OA
ATOM     22  C   UNL     1       9.204   8.938 -14.783  1.00  0.00     0.278 C 
ENDBRANCH  18  21
BRANCH  20  23
ATOM     23  O   UNL     1      10.476   9.260 -18.338  1.00  0.00    -0.504 OA
ATOM     24  H   UNL     1      11.163   8.662 -17.897  1.00  0.00     0.293 HD
ENDBRANCH  20  23
ENDBRANCH  14  15
ENDBRANCH  12  14
ENDBRANCH   9  10
ENDBRANCH   1   9
TORSDOF 10
ENDMDL
MODEL 5
REMARK VINA RESULT:    -6.146      2.366      3.860
REMARK INTER + INTRA:         -10.227
REMARK INTER:                  -9.231
REMARK INTRA:                  -0.996
REMARK UNBOUND:                -0.667
REMARK SMILES COc1cc(CNC(=O)CCCCC=CC(C)C)ccc1O
REMARK SMILES IDX 11 1 12 2 13 3 14 4 15 5 16 6 17 7 18 8 10 9 8 10 9 11 7 12
REMARK SMILES IDX 6 14 5 15 4 16 19 17 3 18 20 19 21 20 2 21 1 22 22 23
REMARK H PARENT 7 13 22 24
REMARK Flexibility Score: inf
ROOT
ATOM      1  C   UNL     1       9.850  17.308 -19.216  1.00  0.00     0.010 C 
ENDROOT
BRANCH   1   2
ATOM      2  C   UNL     1       9.877  16.484 -20.521  1.00  0.00     0.005 C 
BRANCH   2   3
ATOM      3  C   UNL     1       8.526  16.508 -21.252  1.00  0.00     0.027 C 
BRANCH   3   4
ATOM      4  C   UNL     1       8.708  16.715 -22.732  1.00  0.00    -0.031 C 
ATOM      5  C   UNL     1       9.888  16.490 -23.334  1.00  0.00    -0.028 C 
BRANCH   5   6
ATOM      6  C   UNL     1      10.062  16.681 -24.824  1.00  0.00     0.005 C 
ATOM      7  C   UNL     1       8.860  16.103 -25.588  1.00  0.00     0.012 C 
ATOM      8  C   UNL     1      11.366  16.020 -25.307  1.00  0.00     0.012 C 
ENDBRANCH   5   6
ENDBRANCH   3   4
ENDBRANCH   2   3
ENDBRANCH   1   2
BRANCH   1   9
ATOM      9  C   UNL     1       8.474  17.321 -18.532  1.00  0.00     0.100 C 
BRANCH   9  10
ATOM     10  C   UNL     1       8.370  16.282 -17.453  1.00  0.00     0.220 C 
ATOM     11  O   UNL     1       7.231  15.876 -17.094  1.00  0.00    -0.275 OA
ATOM     12  N   UNL     1       9.556  15.717 -16.875  1.00  0.00    -0.352 N 
ATOM     13  H   UNL     1      10.490  16.061 -17.193  1.00  0.00     0.163 HD
BRANCH  12  14
ATOM     14  C   UNL     1       9.516  14.613 -15.917  1.00  0.00     0.151 C 
BRANCH  14  15
ATOM     15  C   UNL     1       9.819  13.309 -16.606  1.00  0.00    -0.025 A 
ATOM     16  C   UNL     1       9.669  13.184 -17.996  1.00  0.00     0.056 A 
ATOM     17  C   UNL     1      10.217  12.195 -15.854  1.00  0.00     0.009 A 
ATOM     18  C   UNL     1       9.919  11.953 -18.638  1.00  0.00     0.160 A 
ATOM     19  C   UNL     1      10.474  10.974 -16.483  1.00  0.00     0.050 A 
ATOM     20  C   UNL     1      10.326  10.847 -17.869  1.00  0.00     0.157 A 
BRANCH  18  21
ATOM     21  O   UNL     1       9.773  11.795 -20.027  1.00  0.00    -0.493 OA
ATOM     22  C   UNL     1       9.193  12.766 -20.892  1.00  0.00     0.278 C 
ENDBRANCH  18  21
BRANCH  20  23
ATOM     23  O   UNL     1      10.587   9.611 -18.463  1.00  0.00    -0.504 OA
ATOM     24  H   UNL     1      11.177   8.916 -18.024  1.00  0.00     0.293 HD
ENDBRANCH  20  23
ENDBRANCH  14  15
ENDBRANCH  12  14
ENDBRANCH   9  10
ENDBRANCH   1   9
TORSDOF 10
ENDMDL
MODEL 6
REMARK VINA RESULT:    -6.100      1.010      2.222
REMARK INTER + INTRA:         -10.155
REMARK INTER:                  -9.428
REMARK INTRA:                  -0.727
REMARK UNBOUND:                -0.667
REMARK SMILES COc1cc(CNC(=O)CCCCC=CC(C)C)ccc1O
REMARK SMILES IDX 11 1 12 2 13 3 14 4 15 5 16 6 17 7 18 8 10 9 8 10 9 11 7 12
REMARK SMILES IDX 6 14 5 15 4 16 19 17 3 18 20 19 21 20 2 21 1 22 22 23
REMARK H PARENT 7 13 22 24
REMARK Flexibility Score: inf
ROOT
ATOM      1  C   UNL     1       8.413  14.405 -21.139  1.00  0.00     0.010 C 
ENDROOT
BRANCH   1   2
ATOM      2  C   UNL     1       9.214  15.689 -20.836  1.00  0.00     0.005 C 
BRANCH   2   3
ATOM      3  C   UNL     1       8.658  16.912 -21.582  1.00  0.00     0.027 C 
BRANCH   3   4
ATOM      4  C   UNL     1       8.761  16.736 -23.073  1.00  0.00    -0.031 C 
ATOM      5  C   UNL     1       9.945  16.773 -23.706  1.00  0.00    -0.028 C 
BRANCH   5   6
ATOM      6  C   UNL     1      10.047  16.578 -25.203  1.00  0.00     0.005 C 
ATOM      7  C   UNL     1       8.831  15.801 -25.730  1.00  0.00     0.012 C 
ATOM      8  C   UNL     1      11.348  15.841 -25.567  1.00  0.00     0.012 C 
ENDBRANCH   5   6
ENDBRANCH   3   4
ENDBRANCH   2   3
ENDBRANCH   1   2
BRANCH   1   9
ATOM      9  C   UNL     1       9.133  13.120 -20.701  1.00  0.00     0.100 C 
BRANCH   9  10
ATOM     10  C   UNL     1       8.350  12.357 -19.671  1.00  0.00     0.220 C 
ATOM     11  O   UNL     1       7.101  12.519 -19.599  1.00  0.00    -0.275 OA
ATOM     12  N   UNL     1       9.010  11.415 -18.813  1.00  0.00    -0.352 N 
ATOM     13  H   UNL     1      10.044  11.290 -18.894  1.00  0.00     0.163 HD
BRANCH  12  14
ATOM     14  C   UNL     1       8.281  10.553 -17.883  1.00  0.00     0.151 C 
BRANCH  14  15
ATOM     15  C   UNL     1       8.418  11.068 -16.474  1.00  0.00    -0.025 A 
ATOM     16  C   UNL     1       7.620  10.549 -15.443  1.00  0.00     0.056 A 
ATOM     17  C   UNL     1       9.322  12.101 -16.190  1.00  0.00     0.009 A 
ATOM     18  C   UNL     1       7.723  11.054 -14.130  1.00  0.00     0.160 A 
ATOM     19  C   UNL     1       9.435  12.602 -14.891  1.00  0.00     0.050 A 
ATOM     20  C   UNL     1       8.641  12.086 -13.861  1.00  0.00     0.157 A 
BRANCH  18  21
ATOM     21  O   UNL     1       6.934  10.559 -13.078  1.00  0.00    -0.493 OA
ATOM     22  C   UNL     1       7.048   9.249 -12.530  1.00  0.00     0.278 C 
ENDBRANCH  18  21
BRANCH  20  23
ATOM     23  O   UNL     1       8.778  12.614 -12.577  1.00  0.00    -0.504 OA
ATOM     24  H   UNL     1       9.068  13.571 -12.415  1.00  0.00     0.293 HD
ENDBRANCH  20  23
ENDBRANCH  14  15
ENDBRANCH  12  14
ENDBRANCH   9  10
ENDBRANCH   1   9
TORSDOF 10
ENDMDL
MODEL 7
REMARK VINA RESULT:    -6.072      1.851      2.821
REMARK INTER + INTRA:         -10.112
REMARK INTER:                  -9.445
REMARK INTRA:                  -0.666
REMARK UNBOUND:                -0.667
REMARK SMILES COc1cc(CNC(=O)CCCCC=CC(C)C)ccc1O
REMARK SMILES IDX 11 1 12 2 13 3 14 4 15 5 16 6 17 7 18 8 10 9 8 10 9 11 7 12
REMARK SMILES IDX 6 14 5 15 4 16 19 17 3 18 20 19 21 20 2 21 1 22 22 23
REMARK H PARENT 7 13 22 24
REMARK Flexibility Score: inf
ROOT
ATOM      1  C   UNL     1       9.154  13.434 -20.879  1.00  0.00     0.010 C 
ENDROOT
BRANCH   1   2
ATOM      2  C   UNL     1       8.265  14.678 -21.084  1.00  0.00     0.005 C 
BRANCH   2   3
ATOM      3  C   UNL     1       9.084  15.977 -21.136  1.00  0.00     0.027 C 
BRANCH   3   4
ATOM      4  C   UNL     1       9.178  16.510 -22.540  1.00  0.00    -0.031 C 
ATOM      5  C   UNL     1       9.917  15.895 -23.478  1.00  0.00    -0.028 C 
BRANCH   5   6
ATOM      6  C   UNL     1       9.995  16.423 -24.893  1.00  0.00     0.005 C 
ATOM      7  C   UNL     1       8.844  15.862 -25.743  1.00  0.00     0.012 C 
ATOM      8  C   UNL     1      11.350  16.068 -25.532  1.00  0.00     0.012 C 
ENDBRANCH   5   6
ENDBRANCH   3   4
ENDBRANCH   2   3
ENDBRANCH   1   2
BRANCH   1   9
ATOM      9  C   UNL     1       8.629  12.482 -19.792  1.00  0.00     0.100 C 
BRANCH   9  10
ATOM     10  C   UNL     1       9.557  12.405 -18.613  1.00  0.00     0.220 C 
ATOM     11  O   UNL     1       9.963  13.472 -18.076  1.00  0.00    -0.275 OA
ATOM     12  N   UNL     1       9.933  11.131 -18.071  1.00  0.00    -0.352 N 
ATOM     13  H   UNL     1       9.579  10.260 -18.526  1.00  0.00     0.163 HD
BRANCH  12  14
ATOM     14  C   UNL     1      10.726  10.999 -16.850  1.00  0.00     0.151 C 
BRANCH  14  15
ATOM     15  C   UNL     1       9.839  10.656 -15.682  1.00  0.00    -0.025 A 
ATOM     16  C   UNL     1       9.665   9.322 -15.284  1.00  0.00     0.056 A 
ATOM     17  C   UNL     1       9.148  11.671 -15.006  1.00  0.00     0.009 A 
ATOM     18  C   UNL     1       8.807   8.997 -14.212  1.00  0.00     0.160 A 
ATOM     19  C   UNL     1       8.302  11.359 -13.939  1.00  0.00     0.050 A 
ATOM     20  C   UNL     1       8.127  10.029 -13.539  1.00  0.00     0.157 A 
BRANCH  18  21
ATOM     21  O   UNL     1       8.608   7.670 -13.795  1.00  0.00    -0.493 OA
ATOM     22  C   UNL     1       7.870   6.696 -14.526  1.00  0.00     0.278 C 
ENDBRANCH  18  21
BRANCH  20  23
ATOM     23  O   UNL     1       7.271   9.754 -12.473  1.00  0.00    -0.504 OA
ATOM     24  H   UNL     1       6.335  10.137 -12.419  1.00  0.00     0.293 HD
ENDBRANCH  20  23
ENDBRANCH  14  15
ENDBRANCH  12  14
ENDBRANCH   9  10
ENDBRANCH   1   9
TORSDOF 10
ENDMDL
MODEL 8
REMARK VINA RESULT:    -6.055      2.331      4.002
REMARK INTER + INTRA:         -10.085
REMARK INTER:                  -9.346
REMARK INTRA:                  -0.739
REMARK UNBOUND:                -0.667
REMARK SMILES COc1cc(CNC(=O)CCCCC=CC(C)C)ccc1O
REMARK SMILES IDX 11 1 12 2 13 3 14 4 15 5 16 6 17 7 18 8 10 9 8 10 9 11 7 12
REMARK SMILES IDX 6 14 5 15 4 16 19 17 3 18 20 19 21 20 2 21 1 22 22 23
REMARK H PARENT 7 13 22 24
REMARK Flexibility Score: inf
ROOT
ATOM      1  C   UNL     1       9.796  13.681 -18.370  1.00  0.00     0.010 C 
ENDROOT
BRANCH   1   2
ATOM      2  C   UNL     1       8.884  14.358 -19.415  1.00  0.00     0.005 C 
BRANCH   2   3
ATOM      3  C   UNL     1       9.165  15.863 -19.545  1.00  0.00     0.027 C 
BRANCH   3   4
ATOM      4  C   UNL     1       8.914  16.347 -20.947  1.00  0.00    -0.031 C 
ATOM      5  C   UNL     1       9.236  15.601 -22.017  1.00  0.00    -0.028 C 
BRANCH   5   6
ATOM      6  C   UNL     1       8.966  16.084 -23.426  1.00  0.00     0.005 C 
ATOM      7  C   UNL     1      10.276  16.180 -24.224  1.00  0.00     0.012 C 
ATOM      8  C   UNL     1       8.254  17.449 -23.405  1.00  0.00     0.012 C 
ENDBRANCH   5   6
ENDBRANCH   3   4
ENDBRANCH   2   3
ENDBRANCH   1   2
BRANCH   1   9
ATOM      9  C   UNL     1      10.196  14.613 -17.215  1.00  0.00     0.100 C 
BRANCH   9  10
ATOM     10  C   UNL     1       9.800  14.058 -15.877  1.00  0.00     0.220 C 
ATOM     11  O   UNL     1      10.337  14.520 -14.833  1.00  0.00    -0.275 OA
ATOM     12  N   UNL     1       8.782  13.050 -15.785  1.00  0.00    -0.352 N 
ATOM     13  H   UNL     1       8.345  12.687 -16.661  1.00  0.00     0.163 HD
BRANCH  12  14
ATOM     14  C   UNL     1       8.267  12.567 -14.505  1.00  0.00     0.151 C 
BRANCH  14  15
ATOM     15  C   UNL     1       8.450  11.077 -14.394  1.00  0.00    -0.025 A 
ATOM     16  C   UNL     1       7.706  10.332 -13.465  1.00  0.00     0.056 A 
ATOM     17  C   UNL     1       9.397  10.425 -15.196  1.00  0.00     0.009 A 
ATOM     18  C   UNL     1       7.901   8.942 -13.338  1.00  0.00     0.160 A 
ATOM     19  C   UNL     1       9.592   9.047 -15.081  1.00  0.00     0.050 A 
ATOM     20  C   UNL     1       8.851   8.302 -14.156  1.00  0.00     0.157 A 
BRANCH  18  21
ATOM     21  O   UNL     1       7.176   8.170 -12.413  1.00  0.00    -0.493 OA
ATOM     22  C   UNL     1       6.987   8.518 -11.045  1.00  0.00     0.278 C 
ENDBRANCH  18  21
BRANCH  20  23
ATOM     23  O   UNL     1       9.075   6.928 -14.065  1.00  0.00    -0.504 OA
ATOM     24  H   UNL     1       8.317   6.258 -14.031  1.00  0.00     0.293 HD
ENDBRANCH  20  23
ENDBRANCH  14  15
ENDBRANCH  12  14
ENDBRANCH   9  10
ENDBRANCH   1   9
TORSDOF 10
ENDMDL
MODEL 9
REMARK VINA RESULT:    -6.004      3.981      5.567
REMARK INTER + INTRA:         -10.006
REMARK INTER:                  -9.065
REMARK INTRA:                  -0.941
REMARK UNBOUND:                -0.667
REMARK SMILES COc1cc(CNC(=O)CCCCC=CC(C)C)ccc1O
REMARK SMILES IDX 11 1 12 2 13 3 14 4 15 5 16 6 17 7 18 8 10 9 8 10 9 11 7 12
REMARK SMILES IDX 6 14 5 15 4 16 19 17 3 18 20 19 21 20 2 21 1 22 22 23
REMARK H PARENT 7 13 22 24
REMARK Flexibility Score: inf
ROOT
ATOM      1  C   UNL     1       8.276  13.427 -20.234  1.00  0.00     0.010 C 
ENDROOT
BRANCH   1   2
ATOM      2  C   UNL     1       9.174  14.120 -21.281  1.00  0.00     0.005 C 
BRANCH   2   3
ATOM      3  C   UNL     1       8.801  15.596 -21.481  1.00  0.00     0.027 C 
BRANCH   3   4
ATOM      4  C   UNL     1       8.857  15.983 -22.934  1.00  0.00    -0.031 C 
ATOM      5  C   UNL     1      10.026  16.098 -23.587  1.00  0.00    -0.028 C 
BRANCH   5   6
ATOM      6  C   UNL     1      10.078  16.469 -25.053  1.00  0.00     0.005 C 
ATOM      7  C   UNL     1       8.876  15.875 -25.803  1.00  0.00     0.012 C 
ATOM      8  C   UNL     1      11.394  15.985 -25.688  1.00  0.00     0.012 C 
ENDBRANCH   5   6
ENDBRANCH   3   4
ENDBRANCH   2   3
ENDBRANCH   1   2
BRANCH   1   9
ATOM      9  C   UNL     1       8.997  13.137 -18.908  1.00  0.00     0.100 C 
BRANCH   9  10
ATOM     10  C   UNL     1       8.570  14.075 -17.816  1.00  0.00     0.220 C 
ATOM     11  O   UNL     1       9.254  14.143 -16.758  1.00  0.00    -0.275 OA
ATOM     12  N   UNL     1       7.427  14.924 -17.996  1.00  0.00    -0.352 N 
ATOM     13  H   UNL     1       6.879  14.857 -18.883  1.00  0.00     0.163 HD
BRANCH  12  14
ATOM     14  C   UNL     1       7.043  15.945 -17.023  1.00  0.00     0.151 C 
BRANCH  14  15
ATOM     15  C   UNL     1       7.624  17.280 -17.407  1.00  0.00    -0.025 A 
ATOM     16  C   UNL     1       7.400  18.413 -16.609  1.00  0.00     0.056 A 
ATOM     17  C   UNL     1       8.365  17.409 -18.590  1.00  0.00     0.009 A 
ATOM     18  C   UNL     1       7.915  19.671 -16.986  1.00  0.00     0.160 A 
ATOM     19  C   UNL     1       8.884  18.649 -18.967  1.00  0.00     0.050 A 
ATOM     20  C   UNL     1       8.663  19.780 -18.173  1.00  0.00     0.157 A 
BRANCH  18  21
ATOM     21  O   UNL     1       7.702  20.824 -16.211  1.00  0.00    -0.493 OA
ATOM     22  C   UNL     1       7.981  20.923 -14.818  1.00  0.00     0.278 C 
ENDBRANCH  18  21
BRANCH  20  23
ATOM     23  O   UNL     1       9.193  21.004 -18.582  1.00  0.00    -0.504 OA
ATOM     24  H   UNL     1       8.933  21.879 -18.143  1.00  0.00     0.293 HD
ENDBRANCH  20  23
ENDBRANCH  14  15
ENDBRANCH  12  14
ENDBRANCH   9  10
ENDBRANCH   1   9
TORSDOF 10
ENDMDL
