MODEL 1
REMARK VINA RESULT:    -4.831      0.000      0.000
REMARK INTER + INTRA:          -4.831
REMARK INTER:                  -4.831
REMARK INTRA:                   0.000
REMARK UNBOUND:                 0.000
REMARK SMILES O=c1ccc2ccccc2o1
REMARK SMILES IDX 7 1 8 2 9 3 10 4 5 5 6 6 4 7 3 8 2 9 1 10 11 11
REMARK H PARENT
REMARK Flexibility Score: inf
ROOT
ATOM      1  C   UNL     1       6.590 -19.661   8.021  1.00  0.00     0.001 A 
ATOM      2  C   UNL     1       6.435 -18.386   8.576  1.00  0.00     0.004 A 
ATOM      3  C   UNL     1       7.524 -17.510   8.643  1.00  0.00     0.048 A 
ATOM      4  C   UNL     1       8.773 -17.907   8.154  1.00  0.00     0.138 A 
ATOM      5  C   UNL     1       8.931 -19.195   7.595  1.00  0.00     0.018 A 
ATOM      6  C   UNL     1       7.835 -20.069   7.530  1.00  0.00     0.012 A 
ATOM      7  C   UNL     1      10.191 -19.563   7.114  1.00  0.00     0.019 A 
ATOM      8  C   UNL     1      11.248 -18.659   7.202  1.00  0.00     0.094 A 
ATOM      9  C   UNL     1      11.018 -17.399   7.769  1.00  0.00     0.336 A 
ATOM     10  O   UNL     1      11.960 -16.569   7.856  1.00  0.00    -0.246 OA
ATOM     11  O   UNL     1       9.809 -17.074   8.218  1.00  0.00    -0.423 OA
ENDROOT
TORSDOF 0
ENDMDL
MODEL 2
REMARK VINA RESULT:    -4.560      1.362      1.565
REMARK INTER + INTRA:          -4.560
REMARK INTER:                  -4.560
REMARK INTRA:                   0.000
REMARK UNBOUND:                 0.000
REMARK SMILES O=c1ccc2ccccc2o1
REMARK SMILES IDX 7 1 8 2 9 3 10 4 5 5 6 6 4 7 3 8 2 9 1 10 11 11
REMARK H PARENT
REMARK Flexibility Score: inf
ROOT
ATOM      1  C   UNL     1       7.890 -20.000   7.954  1.00  0.00     0.001 A 
ATOM      2  C   UNL     1       7.504 -18.953   7.110  1.00  0.00     0.004 A 
ATOM      3  C   UNL     1       8.381 -17.892   6.860  1.00  0.00     0.048 A 
ATOM      4  C   UNL     1       9.647 -17.874   7.452  1.00  0.00     0.138 A 
ATOM      5  C   UNL     1      10.037 -18.931   8.306  1.00  0.00     0.018 A 
ATOM      6  C   UNL     1       9.154 -19.993   8.553  1.00  0.00     0.012 A 
ATOM      7  C   UNL     1      11.309 -18.886   8.884  1.00  0.00     0.019 A 
ATOM      8  C   UNL     1      12.150 -17.809   8.606  1.00  0.00     0.094 A 
ATOM      9  C   UNL     1      11.696 -16.797   7.751  1.00  0.00     0.336 A 
ATOM     10  O   UNL     1      12.441 -15.817   7.488  1.00  0.00    -0.246 OA
ATOM     11  O   UNL     1      10.481 -16.864   7.214  1.00  0.00    -0.423 OA
ENDROOT
TORSDOF 0
ENDMDL
MODEL 3
REMARK VINA RESULT:    -4.397      1.719      2.260
REMARK INTER + INTRA:          -4.397
REMARK INTER:                  -4.397
REMARK INTRA:                   0.000
REMARK UNBOUND:                 0.000
REMARK SMILES O=c1ccc2ccccc2o1
REMARK SMILES IDX 7 1 8 2 9 3 10 4 5 5 6 6 4 7 3 8 2 9 1 10 11 11
REMARK H PARENT
REMARK Flexibility Score: inf
ROOT
ATOM      1  C   UNL     1       7.836 -19.150   7.032  1.00  0.00     0.001 A 
ATOM      2  C   UNL     1       8.253 -20.077   7.994  1.00  0.00     0.004 A 
ATOM      3  C   UNL     1       9.465 -19.894   8.668  1.00  0.00     0.048 A 
ATOM      4  C   UNL     1      10.265 -18.783   8.383  1.00  0.00     0.138 A 
ATOM      5  C   UNL     1       9.844 -17.846   7.410  1.00  0.00     0.018 A 
ATOM      6  C   UNL     1       8.627 -18.035   6.738  1.00  0.00     0.012 A 
ATOM      7  C   UNL     1      10.664 -16.746   7.147  1.00  0.00     0.019 A 
ATOM      8  C   UNL     1      11.864 -16.604   7.842  1.00  0.00     0.094 A 
ATOM      9  C   UNL     1      12.217 -17.570   8.791  1.00  0.00     0.336 A 
ATOM     10  O   UNL     1      13.296 -17.459   9.430  1.00  0.00    -0.246 OA
ATOM     11  O   UNL     1      11.418 -18.608   9.024  1.00  0.00    -0.423 OA
ENDROOT
TORSDOF 0
ENDMDL
MODEL 4
REMARK VINA RESULT:    -4.361      2.055      4.367
REMARK INTER + INTRA:          -4.361
REMARK INTER:                  -4.361
REMARK INTRA:                   0.000
REMARK UNBOUND:                 0.000
REMARK SMILES O=c1ccc2ccccc2o1
REMARK SMILES IDX 7 1 8 2 9 3 10 4 5 5 6 6 4 7 3 8 2 9 1 10 11 11
REMARK H PARENT
REMARK Flexibility Score: inf
ROOT
ATOM      1  C   UNL     1      11.364 -18.090   7.489  1.00  0.00     0.001 A 
ATOM      2  C   UNL     1      11.210 -19.385   6.980  1.00  0.00     0.004 A 
ATOM      3  C   UNL     1       9.961 -20.013   7.021  1.00  0.00     0.048 A 
ATOM      4  C   UNL     1       8.860 -19.349   7.571  1.00  0.00     0.138 A 
ATOM      5  C   UNL     1       9.015 -18.042   8.086  1.00  0.00     0.018 A 
ATOM      6  C   UNL     1      10.270 -17.417   8.042  1.00  0.00     0.012 A 
ATOM      7  C   UNL     1       7.896 -17.403   8.629  1.00  0.00     0.019 A 
ATOM      8  C   UNL     1       6.671 -18.067   8.649  1.00  0.00     0.094 A 
ATOM      9  C   UNL     1       6.592 -19.361   8.121  1.00  0.00     0.336 A 
ATOM     10  O   UNL     1       5.494 -19.977   8.129  1.00  0.00    -0.246 OA
ATOM     11  O   UNL     1       7.671 -19.947   7.609  1.00  0.00    -0.423 OA
ENDROOT
TORSDOF 0
ENDMDL
MODEL 5
REMARK VINA RESULT:    -4.308      1.613      2.352
REMARK INTER + INTRA:          -4.308
REMARK INTER:                  -4.308
REMARK INTRA:                   0.000
REMARK UNBOUND:                 0.000
REMARK SMILES O=c1ccc2ccccc2o1
REMARK SMILES IDX 7 1 8 2 9 3 10 4 5 5 6 6 4 7 3 8 2 9 1 10 11 11
REMARK H PARENT
REMARK Flexibility Score: inf
ROOT
ATOM      1  C   UNL     1       6.158 -18.184   8.674  1.00  0.00     0.001 A 
ATOM      2  C   UNL     1       6.039 -19.481   8.161  1.00  0.00     0.004 A 
ATOM      3  C   UNL     1       7.151 -20.120   7.602  1.00  0.00     0.048 A 
ATOM      4  C   UNL     1       8.386 -19.466   7.556  1.00  0.00     0.138 A 
ATOM      5  C   UNL     1       8.506 -18.156   8.074  1.00  0.00     0.018 A 
ATOM      6  C   UNL     1       7.387 -17.520   8.633  1.00  0.00     0.012 A 
ATOM      7  C   UNL     1       9.753 -17.528   8.014  1.00  0.00     0.019 A 
ATOM      8  C   UNL     1      10.834 -18.203   7.448  1.00  0.00     0.094 A 
ATOM      9  C   UNL     1      10.641 -19.499   6.955  1.00  0.00     0.336 A 
ATOM     10  O   UNL     1      11.605 -20.125   6.442  1.00  0.00    -0.246 OA
ATOM     11  O   UNL     1       9.444 -20.075   7.025  1.00  0.00    -0.423 OA
ENDROOT
TORSDOF 0
ENDMDL
MODEL 6
REMARK VINA RESULT:    -4.016      1.913      4.467
REMARK INTER + INTRA:          -4.016
REMARK INTER:                  -4.016
REMARK INTRA:                   0.000
REMARK UNBOUND:                 0.000
REMARK SMILES O=c1ccc2ccccc2o1
REMARK SMILES IDX 7 1 8 2 9 3 10 4 5 5 6 6 4 7 3 8 2 9 1 10 11 11
REMARK H PARENT
REMARK Flexibility Score: inf
ROOT
ATOM      1  C   UNL     1      13.577 -16.774   8.976  1.00  0.00     0.001 A 
ATOM      2  C   UNL     1      13.319 -15.873   7.937  1.00  0.00     0.004 A 
ATOM      3  C   UNL     1      12.120 -15.952   7.220  1.00  0.00     0.048 A 
ATOM      4  C   UNL     1      11.174 -16.931   7.540  1.00  0.00     0.138 A 
ATOM      5  C   UNL     1      11.435 -17.842   8.589  1.00  0.00     0.018 A 
ATOM      6  C   UNL     1      12.639 -17.758   9.305  1.00  0.00     0.012 A 
ATOM      7  C   UNL     1      10.471 -18.809   8.886  1.00  0.00     0.019 A 
ATOM      8  C   UNL     1       9.291 -18.851   8.145  1.00  0.00     0.094 A 
ATOM      9  C   UNL     1       9.101 -17.916   7.120  1.00  0.00     0.336 A 
ATOM     10  O   UNL     1       8.041 -17.937   6.441  1.00  0.00    -0.246 OA
ATOM     11  O   UNL     1      10.034 -17.005   6.858  1.00  0.00    -0.423 OA
ENDROOT
TORSDOF 0
ENDMDL
MODEL 7
REMARK VINA RESULT:    -3.732      1.961      4.203
REMARK INTER + INTRA:          -3.732
REMARK INTER:                  -3.732
REMARK INTRA:                   0.000
REMARK UNBOUND:                 0.000
REMARK SMILES O=c1ccc2ccccc2o1
REMARK SMILES IDX 7 1 8 2 9 3 10 4 5 5 6 6 4 7 3 8 2 9 1 10 11 11
REMARK H PARENT
REMARK Flexibility Score: inf
ROOT
ATOM      1  C   UNL     1      12.289 -16.722   7.918  1.00  0.00     0.001 A 
ATOM      2  C   UNL     1      12.380 -17.664   8.949  1.00  0.00     0.004 A 
ATOM      3  C   UNL     1      11.320 -18.543   9.194  1.00  0.00     0.048 A 
ATOM      4  C   UNL     1      10.165 -18.484   8.409  1.00  0.00     0.138 A 
ATOM      5  C   UNL     1      10.072 -17.532   7.368  1.00  0.00     0.018 A 
ATOM      6  C   UNL     1      11.138 -16.653   7.127  1.00  0.00     0.012 A 
ATOM      7  C   UNL     1       8.905 -17.498   6.599  1.00  0.00     0.019 A 
ATOM      8  C   UNL     1       7.873 -18.393   6.880  1.00  0.00     0.094 A 
ATOM      9  C   UNL     1       8.035 -19.308   7.927  1.00  0.00     0.336 A 
ATOM     10  O   UNL     1       7.116 -20.125   8.194  1.00  0.00    -0.246 OA
ATOM     11  O   UNL     1       9.156 -19.321   8.642  1.00  0.00    -0.423 OA
ENDROOT
TORSDOF 0
ENDMDL
MODEL 8
REMARK VINA RESULT:    -3.681      1.258      3.648
REMARK INTER + INTRA:          -3.681
REMARK INTER:                  -3.681
REMARK INTRA:                   0.000
REMARK UNBOUND:                 0.000
REMARK SMILES O=c1ccc2ccccc2o1
REMARK SMILES IDX 7 1 8 2 9 3 10 4 5 5 6 6 4 7 3 8 2 9 1 10 11 11
REMARK H PARENT
REMARK Flexibility Score: inf
ROOT
ATOM      1  C   UNL     1      11.340 -19.701   6.831  1.00  0.00     0.001 A 
ATOM      2  C   UNL     1      11.706 -18.413   7.238  1.00  0.00     0.004 A 
ATOM      3  C   UNL     1      10.744 -17.541   7.761  1.00  0.00     0.048 A 
ATOM      4  C   UNL     1       9.414 -17.954   7.879  1.00  0.00     0.138 A 
ATOM      5  C   UNL     1       9.044 -19.255   7.467  1.00  0.00     0.018 A 
ATOM      6  C   UNL     1      10.012 -20.125   6.943  1.00  0.00     0.012 A 
ATOM      7  C   UNL     1       7.706 -19.640   7.597  1.00  0.00     0.019 A 
ATOM      8  C   UNL     1       6.782 -18.738   8.124  1.00  0.00     0.094 A 
ATOM      9  C   UNL     1       7.221 -17.466   8.511  1.00  0.00     0.336 A 
ATOM     10  O   UNL     1       6.402 -16.638   8.989  1.00  0.00    -0.246 OA
ATOM     11  O   UNL     1       8.499 -17.125   8.377  1.00  0.00    -0.423 OA
ENDROOT
TORSDOF 0
ENDMDL
MODEL 9
REMARK VINA RESULT:    -3.602      1.916      3.940
REMARK INTER + INTRA:          -3.602
REMARK INTER:                  -3.602
REMARK INTRA:                   0.000
REMARK UNBOUND:                 0.000
REMARK SMILES O=c1ccc2ccccc2o1
REMARK SMILES IDX 7 1 8 2 9 3 10 4 5 5 6 6 4 7 3 8 2 9 1 10 11 11
REMARK H PARENT
REMARK Flexibility Score: inf
ROOT
ATOM      1  C   UNL     1      10.973 -18.118   7.313  1.00  0.00     0.001 A 
ATOM      2  C   UNL     1      10.535 -17.152   8.226  1.00  0.00     0.004 A 
ATOM      3  C   UNL     1       9.219 -17.177   8.699  1.00  0.00     0.048 A 
ATOM      4  C   UNL     1       8.336 -18.169   8.263  1.00  0.00     0.138 A 
ATOM      5  C   UNL     1       8.777 -19.145   7.340  1.00  0.00     0.018 A 
ATOM      6  C   UNL     1      10.098 -19.115   6.869  1.00  0.00     0.012 A 
ATOM      7  C   UNL     1       7.872 -20.125   6.923  1.00  0.00     0.019 A 
ATOM      8  C   UNL     1       6.570 -20.112   7.421  1.00  0.00     0.094 A 
ATOM      9  C   UNL     1       6.203 -19.114   8.333  1.00  0.00     0.336 A 
ATOM     10  O   UNL     1       5.032 -19.086   8.794  1.00  0.00    -0.246 OA
ATOM     11  O   UNL     1       7.084 -18.194   8.715  1.00  0.00    -0.423 OA
ENDROOT
TORSDOF 0
ENDMDL
