MODEL 1
REMARK VINA RESULT:    -6.715      0.000      0.000
REMARK INTER + INTRA:          -7.733
REMARK INTER:                  -7.696
REMARK INTRA:                  -0.036
REMARK UNBOUND:                -0.036
REMARK SMILES C=C(C)[C@H]1CC[C@@]2(C(=O)[O-])CC[C@]3(C)[C@@H](CC[C@@H]4[C@@]5(C)CC[C@@H](O)C(C)(C)[C@H]5CC[C@@]43C)[C@H]12
REMARK SMILES IDX 7 1 6 2 33 3 11 4 5 5 15 6 4 7 12 8 16 9 13 10 17 11 31 12
REMARK SMILES IDX 14 13 18 14 30 15 32 16 19 17 29 18 21 19 20 20 28 21 22 22
REMARK SMILES IDX 25 23 23 24 26 25 27 26 8 27 9 28 10 29 2 30 3 31 1 32 24 33
REMARK H PARENT 24 34
REMARK Flexibility Score: inf
ROOT
ATOM      1  C   UNL     1      24.781  30.941  30.225  1.00  0.00     0.014 C 
ATOM      2  C   UNL     1      25.609  30.365  29.070  1.00  0.00     0.014 C 
ATOM      3  C   UNL     1      23.459  30.171  30.096  1.00  0.00     0.012 C 
ATOM      4  C   UNL     1      24.472  32.440  30.052  1.00  0.00     0.014 C 
ATOM      5  C   UNL     1      25.243  28.880  29.011  1.00  0.00     0.009 C 
ATOM      6  C   UNL     1      22.565  30.391  31.338  1.00  0.00     0.000 C 
ATOM      7  C   UNL     1      23.892  28.728  29.738  1.00  0.00     0.018 C 
ATOM      8  C   UNL     1      23.180  32.931  30.762  1.00  0.00     0.008 C 
ATOM      9  C   UNL     1      21.310  29.513  31.286  1.00  0.00     0.005 C 
ATOM     10  C   UNL     1      22.282  31.936  31.644  1.00  0.00    -0.024 C 
ATOM     11  C   UNL     1      20.336  29.865  32.394  1.00  0.00     0.005 C 
ATOM     12  C   UNL     1      20.701  32.319  31.514  1.00  0.00    -0.024 C 
ATOM     13  C   UNL     1      22.742  32.171  33.125  1.00  0.00     0.012 C 
ATOM     14  C   UNL     1      19.800  31.352  32.405  1.00  0.00     0.002 C 
ATOM     15  C   UNL     1      20.219  32.230  30.027  1.00  0.00     0.008 C 
ATOM     16  C   UNL     1      20.518  33.815  31.972  1.00  0.00     0.012 C 
ATOM     17  C   UNL     1      18.204  31.418  32.212  1.00  0.00    -0.026 C 
ATOM     18  C   UNL     1      18.699  32.218  29.812  1.00  0.00     0.005 C 
ATOM     19  C   UNL     1      17.585  32.763  32.715  1.00  0.00     0.010 C 
ATOM     20  C   UNL     1      17.582  30.297  33.125  1.00  0.00     0.012 C 
ATOM     21  C   UNL     1      17.848  31.242  30.688  1.00  0.00     0.003 C 
ATOM     22  C   UNL     1      16.070  32.905  32.469  1.00  0.00     0.033 C 
ATOM     23  C   UNL     1      16.284  31.401  30.357  1.00  0.00    -0.006 C 
ATOM     24  C   UNL     1      15.679  32.701  30.992  1.00  0.00     0.120 C 
ATOM     25  C   UNL     1      16.034  31.426  28.823  1.00  0.00     0.014 C 
ATOM     26  C   UNL     1      15.471  30.171  30.857  1.00  0.00     0.014 C 
ENDROOT
BRANCH   1  27
ATOM     27  C   UNL     1      25.576  30.692  31.516  1.00  0.00     0.048 C 
ATOM     28  O   UNL     1      26.723  31.192  31.656  1.00  0.00    -0.550 OA
ATOM     29  O   UNL     1      25.132  29.802  32.484  1.00  0.00    -0.550 OA
ENDBRANCH   1  27
BRANCH   7  30
ATOM     30  C   UNL     1      22.883  27.944  28.901  1.00  0.00    -0.077 C 
ATOM     31  C   UNL     1      23.078  26.464  28.709  1.00  0.00     0.039 C 
ATOM     32  C   UNL     1      21.908  28.563  28.208  1.00  0.00     0.008 C 
ENDBRANCH   7  30
BRANCH  24  33
ATOM     33  O   UNL     1      16.052  33.842  30.259  1.00  0.00    -0.393 OA
ATOM     34  H   UNL     1      16.061  34.611  30.894  1.00  0.00     0.210 HD
ENDBRANCH  24  33
TORSDOF 3
ENDMDL
MODEL 2
REMARK VINA RESULT:    -5.673      3.770      7.406
REMARK INTER + INTRA:          -6.539
REMARK INTER:                  -6.192
REMARK INTRA:                  -0.347
REMARK UNBOUND:                -0.036
REMARK SMILES C=C(C)[C@H]1CC[C@@]2(C(=O)[O-])CC[C@]3(C)[C@@H](CC[C@@H]4[C@@]5(C)CC[C@@H](O)C(C)(C)[C@H]5CC[C@@]43C)[C@H]12
REMARK SMILES IDX 7 1 6 2 33 3 11 4 5 5 15 6 4 7 12 8 16 9 13 10 17 11 31 12
REMARK SMILES IDX 14 13 18 14 30 15 32 16 19 17 29 18 21 19 20 20 28 21 22 22
REMARK SMILES IDX 25 23 23 24 26 25 27 26 8 27 9 28 10 29 2 30 3 31 1 32 24 33
REMARK H PARENT 24 34
REMARK Flexibility Score: inf
ROOT
ATOM      1  C   UNL     1      16.174  26.261  28.199  1.00  0.00     0.014 C 
ATOM      2  C   UNL     1      14.730  26.294  27.685  1.00  0.00     0.014 C 
ATOM      3  C   UNL     1      16.192  27.426  29.199  1.00  0.00     0.012 C 
ATOM      4  C   UNL     1      17.209  26.569  27.100  1.00  0.00     0.014 C 
ATOM      5  C   UNL     1      13.877  26.668  28.899  1.00  0.00     0.009 C 
ATOM      6  C   UNL     1      17.482  27.405  30.051  1.00  0.00     0.000 C 
ATOM      7  C   UNL     1      14.825  27.331  29.919  1.00  0.00     0.018 C 
ATOM      8  C   UNL     1      18.546  27.175  27.606  1.00  0.00     0.008 C 
ATOM      9  C   UNL     1      17.444  28.473  31.150  1.00  0.00     0.005 C 
ATOM     10  C   UNL     1      18.818  27.406  29.170  1.00  0.00    -0.024 C 
ATOM     11  C   UNL     1      18.779  28.591  31.860  1.00  0.00     0.005 C 
ATOM     12  C   UNL     1      19.720  28.746  29.406  1.00  0.00    -0.024 C 
ATOM     13  C   UNL     1      19.639  26.154  29.635  1.00  0.00     0.012 C 
ATOM     14  C   UNL     1      20.017  28.974  30.956  1.00  0.00     0.002 C 
ATOM     15  C   UNL     1      19.003  30.017  28.838  1.00  0.00     0.008 C 
ATOM     16  C   UNL     1      21.067  28.579  28.609  1.00  0.00     0.012 C 
ATOM     17  C   UNL     1      20.678  30.372  31.399  1.00  0.00    -0.026 C 
ATOM     18  C   UNL     1      19.564  31.369  29.300  1.00  0.00     0.005 C 
ATOM     19  C   UNL     1      22.152  30.533  30.903  1.00  0.00     0.010 C 
ATOM     20  C   UNL     1      20.759  30.367  32.971  1.00  0.00     0.012 C 
ATOM     21  C   UNL     1      19.823  31.566  30.829  1.00  0.00     0.003 C 
ATOM     22  C   UNL     1      22.795  31.895  31.230  1.00  0.00     0.033 C 
ATOM     23  C   UNL     1      20.450  33.016  31.116  1.00  0.00    -0.006 C 
ATOM     24  C   UNL     1      21.965  33.090  30.719  1.00  0.00     0.120 C 
ATOM     25  C   UNL     1      19.674  34.125  30.349  1.00  0.00     0.014 C 
ATOM     26  C   UNL     1      20.301  33.413  32.614  1.00  0.00     0.014 C 
ENDROOT
BRANCH   1  27
ATOM     27  C   UNL     1      16.408  24.865  28.794  1.00  0.00     0.048 C 
ATOM     28  O   UNL     1      16.690  23.898  28.039  1.00  0.00    -0.550 OA
ATOM     29  O   UNL     1      16.169  24.596  30.135  1.00  0.00    -0.550 OA
ENDBRANCH   1  27
BRANCH   7  30
ATOM     30  C   UNL     1      14.271  28.663  30.424  1.00  0.00    -0.077 C 
ATOM     31  C   UNL     1      14.295  29.861  29.515  1.00  0.00     0.039 C 
ATOM     32  C   UNL     1      13.900  28.831  31.708  1.00  0.00     0.008 C 
ENDBRANCH   7  30
BRANCH  24  33
ATOM     33  O   UNL     1      22.119  33.190  29.325  1.00  0.00    -0.393 OA
ATOM     34  H   UNL     1      22.682  32.419  29.034  1.00  0.00     0.210 HD
ENDBRANCH  24  33
TORSDOF 3
ENDMDL
MODEL 3
REMARK VINA RESULT:    -5.592      2.884      7.350
REMARK INTER + INTRA:          -6.445
REMARK INTER:                  -6.202
REMARK INTRA:                  -0.243
REMARK UNBOUND:                -0.036
REMARK SMILES C=C(C)[C@H]1CC[C@@]2(C(=O)[O-])CC[C@]3(C)[C@@H](CC[C@@H]4[C@@]5(C)CC[C@@H](O)C(C)(C)[C@H]5CC[C@@]43C)[C@H]12
REMARK SMILES IDX 7 1 6 2 33 3 11 4 5 5 15 6 4 7 12 8 16 9 13 10 17 11 31 12
REMARK SMILES IDX 14 13 18 14 30 15 32 16 19 17 29 18 21 19 20 20 28 21 22 22
REMARK SMILES IDX 25 23 23 24 26 25 27 26 8 27 9 28 10 29 2 30 3 31 1 32 24 33
REMARK H PARENT 24 34
REMARK Flexibility Score: inf
ROOT
ATOM      1  C   UNL     1      16.744  27.740  29.065  1.00  0.00     0.014 C 
ATOM      2  C   UNL     1      15.298  28.203  28.855  1.00  0.00     0.014 C 
ATOM      3  C   UNL     1      17.257  28.732  30.118  1.00  0.00     0.012 C 
ATOM      4  C   UNL     1      17.615  27.900  27.804  1.00  0.00     0.014 C 
ATOM      5  C   UNL     1      14.807  28.636  30.238  1.00  0.00     0.009 C 
ATOM      6  C   UNL     1      18.620  28.279  30.690  1.00  0.00     0.000 C 
ATOM      7  C   UNL     1      16.064  28.907  31.090  1.00  0.00     0.018 C 
ATOM      8  C   UNL     1      19.135  28.078  28.072  1.00  0.00     0.008 C 
ATOM      9  C   UNL     1      19.070  29.181  31.845  1.00  0.00     0.005 C 
ATOM     10  C   UNL     1      19.729  28.042  29.561  1.00  0.00    -0.024 C 
ATOM     11  C   UNL     1      20.488  28.867  32.278  1.00  0.00     0.005 C 
ATOM     12  C   UNL     1      20.991  29.068  29.702  1.00  0.00    -0.024 C 
ATOM     13  C   UNL     1      20.242  26.575  29.765  1.00  0.00     0.012 C 
ATOM     14  C   UNL     1      21.606  29.024  31.172  1.00  0.00     0.002 C 
ATOM     15  C   UNL     1      20.563  30.539  29.377  1.00  0.00     0.008 C 
ATOM     16  C   UNL     1      22.079  28.657  28.640  1.00  0.00     0.012 C 
ATOM     17  C   UNL     1      22.693  30.142  31.568  1.00  0.00    -0.026 C 
ATOM     18  C   UNL     1      21.547  31.635  29.808  1.00  0.00     0.005 C 
ATOM     19  C   UNL     1      24.044  29.978  30.798  1.00  0.00     0.010 C 
ATOM     20  C   UNL     1      23.043  29.928  33.088  1.00  0.00     0.012 C 
ATOM     21  C   UNL     1      22.114  31.575  31.264  1.00  0.00     0.003 C 
ATOM     22  C   UNL     1      25.084  31.080  31.081  1.00  0.00     0.033 C 
ATOM     23  C   UNL     1      23.155  32.771  31.517  1.00  0.00    -0.006 C 
ATOM     24  C   UNL     1      24.539  32.500  30.830  1.00  0.00     0.120 C 
ATOM     25  C   UNL     1      22.592  34.125  30.999  1.00  0.00     0.014 C 
ATOM     26  C   UNL     1      23.386  33.010  33.038  1.00  0.00     0.014 C 
ENDROOT
BRANCH   1  27
ATOM     27  C   UNL     1      16.686  26.269  29.504  1.00  0.00     0.048 C 
ATOM     28  O   UNL     1      17.285  25.388  28.835  1.00  0.00    -0.550 OA
ATOM     29  O   UNL     1      15.862  25.851  30.541  1.00  0.00    -0.550 OA
ENDBRANCH   1  27
BRANCH   7  30
ATOM     30  C   UNL     1      15.996  30.265  31.785  1.00  0.00    -0.077 C 
ATOM     31  C   UNL     1      16.341  31.507  31.009  1.00  0.00     0.039 C 
ATOM     32  C   UNL     1      15.779  30.369  33.110  1.00  0.00     0.008 C 
ENDBRANCH   7  30
BRANCH  24  33
ATOM     33  O   UNL     1      24.467  32.723  29.443  1.00  0.00    -0.393 OA
ATOM     34  H   UNL     1      24.158  31.872  29.023  1.00  0.00     0.210 HD
ENDBRANCH  24  33
TORSDOF 3
ENDMDL
MODEL 4
REMARK VINA RESULT:    -5.502      3.313      5.843
REMARK INTER + INTRA:          -6.342
REMARK INTER:                  -6.738
REMARK INTRA:                   0.396
REMARK UNBOUND:                -0.036
REMARK SMILES C=C(C)[C@H]1CC[C@@]2(C(=O)[O-])CC[C@]3(C)[C@@H](CC[C@@H]4[C@@]5(C)CC[C@@H](O)C(C)(C)[C@H]5CC[C@@]43C)[C@H]12
REMARK SMILES IDX 7 1 6 2 33 3 11 4 5 5 15 6 4 7 12 8 16 9 13 10 17 11 31 12
REMARK SMILES IDX 14 13 18 14 30 15 32 16 19 17 29 18 21 19 20 20 28 21 22 22
REMARK SMILES IDX 25 23 23 24 26 25 27 26 8 27 9 28 10 29 2 30 3 31 1 32 24 33
REMARK H PARENT 24 34
REMARK Flexibility Score: inf
ROOT
ATOM      1  C   UNL     1      19.593  32.953  30.649  1.00  0.00     0.014 C 
ATOM      2  C   UNL     1      21.051  33.368  30.424  1.00  0.00     0.014 C 
ATOM      3  C   UNL     1      19.712  31.437  30.860  1.00  0.00     0.012 C 
ATOM      4  C   UNL     1      18.705  33.188  29.412  1.00  0.00     0.014 C 
ATOM      5  C   UNL     1      21.873  32.486  31.367  1.00  0.00     0.009 C 
ATOM      6  C   UNL     1      18.383  30.844  31.383  1.00  0.00     0.000 C 
ATOM      7  C   UNL     1      20.989  31.271  31.718  1.00  0.00     0.018 C 
ATOM      8  C   UNL     1      17.463  32.260  29.307  1.00  0.00     0.008 C 
ATOM      9  C   UNL     1      18.534  29.360  31.737  1.00  0.00     0.005 C 
ATOM     10  C   UNL     1      17.131  31.179  30.445  1.00  0.00    -0.024 C 
ATOM     11  C   UNL     1      17.196  28.725  32.061  1.00  0.00     0.005 C 
ATOM     12  C   UNL     1      16.465  29.841  29.791  1.00  0.00    -0.024 C 
ATOM     13  C   UNL     1      16.073  31.871  31.373  1.00  0.00     0.012 C 
ATOM     14  C   UNL     1      16.108  28.767  30.915  1.00  0.00     0.002 C 
ATOM     15  C   UNL     1      17.431  29.179  28.751  1.00  0.00     0.008 C 
ATOM     16  C   UNL     1      15.166  30.268  29.010  1.00  0.00     0.012 C 
ATOM     17  C   UNL     1      15.675  27.293  30.440  1.00  0.00    -0.026 C 
ATOM     18  C   UNL     1      17.086  27.744  28.331  1.00  0.00     0.005 C 
ATOM     19  C   UNL     1      14.289  27.270  29.716  1.00  0.00     0.010 C 
ATOM     20  C   UNL     1      15.488  26.425  31.740  1.00  0.00     0.012 C 
ATOM     21  C   UNL     1      16.763  26.712  29.460  1.00  0.00     0.003 C 
ATOM     22  C   UNL     1      13.875  25.891  29.165  1.00  0.00     0.033 C 
ATOM     23  C   UNL     1      16.383  25.284  28.832  1.00  0.00    -0.006 C 
ATOM     24  C   UNL     1      14.935  25.273  28.231  1.00  0.00     0.120 C 
ATOM     25  C   UNL     1      17.392  24.872  27.722  1.00  0.00     0.014 C 
ATOM     26  C   UNL     1      16.497  24.149  29.891  1.00  0.00     0.014 C 
ENDROOT
BRANCH   1  27
ATOM     27  C   UNL     1      19.077  33.757  31.852  1.00  0.00     0.048 C 
ATOM     28  O   UNL     1      19.834  33.978  32.833  1.00  0.00    -0.550 OA
ATOM     29  O   UNL     1      17.743  34.125  31.964  1.00  0.00    -0.550 OA
ENDBRANCH   1  27
BRANCH   7  30
ATOM     30  C   UNL     1      21.732  29.952  31.515  1.00  0.00    -0.077 C 
ATOM     31  C   UNL     1      22.019  29.477  30.116  1.00  0.00     0.039 C 
ATOM     32  C   UNL     1      22.007  29.131  32.547  1.00  0.00     0.008 C 
ENDBRANCH   7  30
BRANCH  24  33
ATOM     33  O   UNL     1      14.896  25.940  26.993  1.00  0.00    -0.393 OA
ATOM     34  H   UNL     1      15.613  26.633  27.008  1.00  0.00     0.210 HD
ENDBRANCH  24  33
TORSDOF 3
ENDMDL
MODEL 5
REMARK VINA RESULT:    -5.279      1.888      7.125
REMARK INTER + INTRA:          -6.087
REMARK INTER:                  -5.740
REMARK INTRA:                  -0.347
REMARK UNBOUND:                -0.036
REMARK SMILES C=C(C)[C@H]1CC[C@@]2(C(=O)[O-])CC[C@]3(C)[C@@H](CC[C@@H]4[C@@]5(C)CC[C@@H](O)C(C)(C)[C@H]5CC[C@@]43C)[C@H]12
REMARK SMILES IDX 7 1 6 2 33 3 11 4 5 5 15 6 4 7 12 8 16 9 13 10 17 11 31 12
REMARK SMILES IDX 14 13 18 14 30 15 32 16 19 17 29 18 21 19 20 20 28 21 22 22
REMARK SMILES IDX 25 23 23 24 26 25 27 26 8 27 9 28 10 29 2 30 3 31 1 32 24 33
REMARK H PARENT 24 34
REMARK Flexibility Score: inf
ROOT
ATOM      1  C   UNL     1      16.126  29.645  31.238  1.00  0.00     0.014 C 
ATOM      2  C   UNL     1      15.460  28.276  31.062  1.00  0.00     0.014 C 
ATOM      3  C   UNL     1      17.401  29.499  30.395  1.00  0.00     0.012 C 
ATOM      4  C   UNL     1      16.553  29.922  32.692  1.00  0.00     0.014 C 
ATOM      5  C   UNL     1      15.736  27.875  29.611  1.00  0.00     0.009 C 
ATOM      6  C   UNL     1      18.097  30.867  30.201  1.00  0.00     0.000 C 
ATOM      7  C   UNL     1      16.942  28.715  29.142  1.00  0.00     0.018 C 
ATOM      8  C   UNL     1      17.743  30.909  32.853  1.00  0.00     0.008 C 
ATOM      9  C   UNL     1      19.286  30.758  29.240  1.00  0.00     0.005 C 
ATOM     10  C   UNL     1      18.423  31.609  31.580  1.00  0.00    -0.024 C 
ATOM     11  C   UNL     1      20.089  32.043  29.198  1.00  0.00     0.005 C 
ATOM     12  C   UNL     1      20.026  31.805  31.819  1.00  0.00    -0.024 C 
ATOM     13  C   UNL     1      17.748  33.020  31.478  1.00  0.00     0.012 C 
ATOM     14  C   UNL     1      20.710  32.522  30.570  1.00  0.00     0.002 C 
ATOM     15  C   UNL     1      20.733  30.430  32.061  1.00  0.00     0.008 C 
ATOM     16  C   UNL     1      20.227  32.665  33.122  1.00  0.00     0.012 C 
ATOM     17  C   UNL     1      22.317  32.576  30.519  1.00  0.00    -0.026 C 
ATOM     18  C   UNL     1      22.264  30.432  31.948  1.00  0.00     0.005 C 
ATOM     19  C   UNL     1      22.930  33.500  31.621  1.00  0.00     0.010 C 
ATOM     20  C   UNL     1      22.713  33.235  29.145  1.00  0.00     0.012 C 
ATOM     21  C   UNL     1      22.901  31.125  30.699  1.00  0.00     0.003 C 
ATOM     22  C   UNL     1      24.471  33.513  31.665  1.00  0.00     0.033 C 
ATOM     23  C   UNL     1      24.504  31.068  30.775  1.00  0.00    -0.006 C 
ATOM     24  C   UNL     1      25.080  32.103  31.803  1.00  0.00     0.120 C 
ATOM     25  C   UNL     1      24.998  29.646  31.162  1.00  0.00     0.014 C 
ATOM     26  C   UNL     1      25.148  31.330  29.382  1.00  0.00     0.014 C 
ENDROOT
BRANCH   1  27
ATOM     27  C   UNL     1      15.121  30.700  30.754  1.00  0.00     0.048 C 
ATOM     28  O   UNL     1      14.573  31.475  31.581  1.00  0.00    -0.550 OA
ATOM     29  O   UNL     1      14.677  30.733  29.439  1.00  0.00    -0.550 OA
ENDBRANCH   1  27
BRANCH   7  30
ATOM     30  C   UNL     1      18.020  27.847  28.497  1.00  0.00    -0.077 C 
ATOM     31  C   UNL     1      19.026  27.150  29.373  1.00  0.00     0.039 C 
ATOM     32  C   UNL     1      18.188  27.806  27.161  1.00  0.00     0.008 C 
ENDBRANCH   7  30
BRANCH  24  33
ATOM     33  O   UNL     1      24.902  31.656  33.124  1.00  0.00    -0.393 OA
ATOM     34  H   UNL     1      24.747  32.463  33.691  1.00  0.00     0.210 HD
ENDBRANCH  24  33
TORSDOF 3
ENDMDL
MODEL 6
REMARK VINA RESULT:    -4.991      3.544      6.060
REMARK INTER + INTRA:          -5.757
REMARK INTER:                  -5.477
REMARK INTRA:                  -0.280
REMARK UNBOUND:                -0.036
REMARK SMILES C=C(C)[C@H]1CC[C@@]2(C(=O)[O-])CC[C@]3(C)[C@@H](CC[C@@H]4[C@@]5(C)CC[C@@H](O)C(C)(C)[C@H]5CC[C@@]43C)[C@H]12
REMARK SMILES IDX 7 1 6 2 33 3 11 4 5 5 15 6 4 7 12 8 16 9 13 10 17 11 31 12
REMARK SMILES IDX 14 13 18 14 30 15 32 16 19 17 29 18 21 19 20 20 28 21 22 22
REMARK SMILES IDX 25 23 23 24 26 25 27 26 8 27 9 28 10 29 2 30 3 31 1 32 24 33
REMARK H PARENT 24 34
REMARK Flexibility Score: inf
ROOT
ATOM      1  C   UNL     1      21.101  32.058  31.676  1.00  0.00     0.014 C 
ATOM      2  C   UNL     1      20.739  33.244  32.578  1.00  0.00     0.014 C 
ATOM      3  C   UNL     1      19.790  31.811  30.918  1.00  0.00     0.012 C 
ATOM      4  C   UNL     1      21.435  30.781  32.469  1.00  0.00     0.014 C 
ATOM      5  C   UNL     1      19.814  34.125  31.736  1.00  0.00     0.009 C 
ATOM      6  C   UNL     1      20.005  30.829  29.742  1.00  0.00     0.000 C 
ATOM      7  C   UNL     1      19.252  33.230  30.612  1.00  0.00     0.018 C 
ATOM      8  C   UNL     1      21.182  29.449  31.710  1.00  0.00     0.008 C 
ATOM      9  C   UNL     1      18.738  30.690  28.891  1.00  0.00     0.005 C 
ATOM     10  C   UNL     1      20.659  29.440  30.193  1.00  0.00    -0.024 C 
ATOM     11  C   UNL     1      18.877  29.586  27.860  1.00  0.00     0.005 C 
ATOM     12  C   UNL     1      19.667  28.171  29.934  1.00  0.00    -0.024 C 
ATOM     13  C   UNL     1      21.946  29.267  29.315  1.00  0.00     0.012 C 
ATOM     14  C   UNL     1      19.158  28.137  28.423  1.00  0.00     0.002 C 
ATOM     15  C   UNL     1      18.423  28.223  30.884  1.00  0.00     0.008 C 
ATOM     16  C   UNL     1      20.456  26.852  30.276  1.00  0.00     0.012 C 
ATOM     17  C   UNL     1      17.982  27.106  28.047  1.00  0.00    -0.026 C 
ATOM     18  C   UNL     1      17.253  27.302  30.511  1.00  0.00     0.005 C 
ATOM     19  C   UNL     1      18.436  25.611  28.122  1.00  0.00     0.010 C 
ATOM     20  C   UNL     1      17.611  27.360  26.538  1.00  0.00     0.012 C 
ATOM     21  C   UNL     1      16.765  27.310  29.025  1.00  0.00     0.003 C 
ATOM     22  C   UNL     1      17.317  24.585  27.854  1.00  0.00     0.033 C 
ATOM     23  C   UNL     1      15.571  26.258  28.814  1.00  0.00    -0.006 C 
ATOM     24  C   UNL     1      16.091  24.779  28.769  1.00  0.00     0.120 C 
ATOM     25  C   UNL     1      14.506  26.383  29.942  1.00  0.00     0.014 C 
ATOM     26  C   UNL     1      14.778  26.553  27.507  1.00  0.00     0.014 C 
ENDROOT
BRANCH   1  27
ATOM     27  C   UNL     1      22.297  32.496  30.817  1.00  0.00     0.048 C 
ATOM     28  O   UNL     1      23.442  32.025  31.046  1.00  0.00    -0.550 OA
ATOM     29  O   UNL     1      22.188  33.517  29.883  1.00  0.00    -0.550 OA
ENDBRANCH   1  27
BRANCH   7  30
ATOM     30  C   UNL     1      17.731  33.333  30.511  1.00  0.00    -0.077 C 
ATOM     31  C   UNL     1      16.882  32.804  31.636  1.00  0.00     0.039 C 
ATOM     32  C   UNL     1      17.125  33.748  29.383  1.00  0.00     0.008 C 
ENDBRANCH   7  30
BRANCH  24  33
ATOM     33  O   UNL     1      16.407  24.315  30.059  1.00  0.00    -0.393 OA
ATOM     34  H   UNL     1      17.129  24.903  30.416  1.00  0.00     0.210 HD
ENDBRANCH  24  33
TORSDOF 3
ENDMDL
MODEL 7
REMARK VINA RESULT:    -4.663      3.507      5.187
REMARK INTER + INTRA:          -5.381
REMARK INTER:                  -5.561
REMARK INTRA:                   0.180
REMARK UNBOUND:                -0.036
REMARK SMILES C=C(C)[C@H]1CC[C@@]2(C(=O)[O-])CC[C@]3(C)[C@@H](CC[C@@H]4[C@@]5(C)CC[C@@H](O)C(C)(C)[C@H]5CC[C@@]43C)[C@H]12
REMARK SMILES IDX 7 1 6 2 33 3 11 4 5 5 15 6 4 7 12 8 16 9 13 10 17 11 31 12
REMARK SMILES IDX 14 13 18 14 30 15 32 16 19 17 29 18 21 19 20 20 28 21 22 22
REMARK SMILES IDX 25 23 23 24 26 25 27 26 8 27 9 28 10 29 2 30 3 31 1 32 24 33
REMARK H PARENT 24 34
REMARK Flexibility Score: inf
ROOT
ATOM      1  C   UNL     1      20.569  25.539  27.631  1.00  0.00     0.014 C 
ATOM      2  C   UNL     1      20.169  24.705  26.409  1.00  0.00     0.014 C 
ATOM      3  C   UNL     1      19.223  26.125  28.082  1.00  0.00     0.012 C 
ATOM      4  C   UNL     1      21.499  26.715  27.277  1.00  0.00     0.014 C 
ATOM      5  C   UNL     1      18.809  24.098  26.761  1.00  0.00     0.009 C 
ATOM      6  C   UNL     1      19.344  26.784  29.476  1.00  0.00     0.000 C 
ATOM      7  C   UNL     1      18.219  24.962  27.895  1.00  0.00     0.018 C 
ATOM      8  C   UNL     1      21.432  27.924  28.250  1.00  0.00     0.008 C 
ATOM      9  C   UNL     1      17.977  27.240  29.999  1.00  0.00     0.005 C 
ATOM     10  C   UNL     1      20.489  27.899  29.548  1.00  0.00    -0.024 C 
ATOM     11  C   UNL     1      18.111  28.060  31.268  1.00  0.00     0.005 C 
ATOM     12  C   UNL     1      19.893  29.387  29.856  1.00  0.00    -0.024 C 
ATOM     13  C   UNL     1      21.428  27.474  30.730  1.00  0.00     0.012 C 
ATOM     14  C   UNL     1      18.973  29.380  31.158  1.00  0.00     0.002 C 
ATOM     15  C   UNL     1      19.052  29.919  28.647  1.00  0.00     0.008 C 
ATOM     16  C   UNL     1      21.105  30.373  30.047  1.00  0.00     0.012 C 
ATOM     17  C   UNL     1      18.103  30.696  31.473  1.00  0.00    -0.026 C 
ATOM     18  C   UNL     1      18.155  31.131  28.934  1.00  0.00     0.005 C 
ATOM     19  C   UNL     1      18.983  31.925  31.875  1.00  0.00     0.010 C 
ATOM     20  C   UNL     1      17.222  30.375  32.738  1.00  0.00     0.012 C 
ATOM     21  C   UNL     1      17.250  31.082  30.207  1.00  0.00     0.003 C 
ATOM     22  C   UNL     1      18.196  33.231  32.101  1.00  0.00     0.033 C 
ATOM     23  C   UNL     1      16.421  32.448  30.368  1.00  0.00    -0.006 C 
ATOM     24  C   UNL     1      17.318  33.621  30.895  1.00  0.00     0.120 C 
ATOM     25  C   UNL     1      15.776  32.875  29.018  1.00  0.00     0.014 C 
ATOM     26  C   UNL     1      15.210  32.269  31.330  1.00  0.00     0.014 C 
ENDROOT
BRANCH   1  27
ATOM     27  C   UNL     1      21.249  24.585  28.625  1.00  0.00     0.048 C 
ATOM     28  O   UNL     1      22.125  23.776  28.221  1.00  0.00    -0.550 OA
ATOM     29  O   UNL     1      20.820  24.478  29.941  1.00  0.00    -0.550 OA
ENDBRANCH   1  27
BRANCH   7  30
ATOM     30  C   UNL     1      16.785  25.393  27.592  1.00  0.00    -0.077 C 
ATOM     31  C   UNL     1      15.685  24.367  27.625  1.00  0.00     0.039 C 
ATOM     32  C   UNL     1      16.500  26.634  27.152  1.00  0.00     0.008 C 
ENDBRANCH   7  30
BRANCH  24  33
ATOM     33  O   UNL     1      18.144  34.125  29.873  1.00  0.00    -0.393 OA
ATOM     34  H   UNL     1      18.409  35.049  30.136  1.00  0.00     0.210 HD
ENDBRANCH  24  33
TORSDOF 3
ENDMDL
