MODEL 1
REMARK VINA RESULT:    -3.332      0.000      0.000
REMARK INTER + INTRA:          -5.217
REMARK INTER:                  -4.890
REMARK INTRA:                  -0.327
REMARK UNBOUND:                -0.327
REMARK SMILES O=C([O-])CCCCCCCC(=O)[O-]
REMARK SMILES IDX 7 1 6 2 5 3 4 4 2 5 1 6 3 7 8 8 9 9 10 10 11 11 12 12 13 13
REMARK H PARENT
REMARK Flexibility Score: inf
ROOT
ATOM      1  C   UNL     1      -4.266   6.043   1.562  1.00  0.00     0.000 C 
ENDROOT
BRANCH   1   2
ATOM      2  C   UNL     1      -4.183   6.701   0.180  1.00  0.00     0.000 C 
BRANCH   2   3
ATOM      3  C   UNL     1      -5.574   7.110  -0.320  1.00  0.00     0.006 C 
BRANCH   3   4
ATOM      4  C   UNL     1      -6.270   5.941  -1.024  1.00  0.00     0.053 C 
BRANCH   4   5
ATOM      5  C   UNL     1      -7.443   5.469  -0.221  1.00  0.00     0.041 C 
ATOM      6  O   UNL     1      -8.514   6.128  -0.219  1.00  0.00    -0.550 OA
ATOM      7  O   UNL     1      -7.334   4.328   0.562  1.00  0.00    -0.550 OA
ENDBRANCH   4   5
ENDBRANCH   3   4
ENDBRANCH   2   3
ENDBRANCH   1   2
BRANCH   1   8
ATOM      8  C   UNL     1      -3.505   4.712   1.583  1.00  0.00     0.000 C 
BRANCH   8   9
ATOM      9  C   UNL     1      -3.478   4.116   2.996  1.00  0.00     0.006 C 
BRANCH   9  10
ATOM     10  C   UNL     1      -3.631   2.593   2.954  1.00  0.00     0.053 C 
BRANCH  10  11
ATOM     11  C   UNL     1      -3.349   2.001   4.299  1.00  0.00     0.041 C 
ATOM     12  O   UNL     1      -3.957   2.423   5.317  1.00  0.00    -0.550 OA
ATOM     13  O   UNL     1      -2.379   1.015   4.434  1.00  0.00    -0.550 OA
ENDBRANCH  10  11
ENDBRANCH   9  10
ENDBRANCH   8   9
ENDBRANCH   1   8
TORSDOF 8
ENDMDL
MODEL 2
REMARK VINA RESULT:    -3.331      1.104      5.993
REMARK INTER + INTRA:          -5.216
REMARK INTER:                  -4.838
REMARK INTRA:                  -0.379
REMARK UNBOUND:                -0.327
REMARK SMILES O=C([O-])CCCCCCCC(=O)[O-]
REMARK SMILES IDX 7 1 6 2 5 3 4 4 2 5 1 6 3 7 8 8 9 9 10 10 11 11 12 12 13 13
REMARK H PARENT
REMARK Flexibility Score: inf
ROOT
ATOM      1  C   UNL     1      -3.991   5.979   1.498  1.00  0.00     0.000 C 
ENDROOT
BRANCH   1   2
ATOM      2  C   UNL     1      -3.256   4.967   2.384  1.00  0.00     0.000 C 
BRANCH   2   3
ATOM      3  C   UNL     1      -4.166   3.787   2.743  1.00  0.00     0.006 C 
BRANCH   3   4
ATOM      4  C   UNL     1      -3.360   2.492   2.879  1.00  0.00     0.053 C 
BRANCH   4   5
ATOM      5  C   UNL     1      -3.320   2.047   4.308  1.00  0.00     0.041 C 
ATOM      6  O   UNL     1      -4.015   2.638   5.175  1.00  0.00    -0.550 OA
ATOM      7  O   UNL     1      -2.477   1.011   4.690  1.00  0.00    -0.550 OA
ENDBRANCH   4   5
ENDBRANCH   3   4
ENDBRANCH   2   3
ENDBRANCH   1   2
BRANCH   1   8
ATOM      8  C   UNL     1      -5.391   5.474   1.131  1.00  0.00     0.000 C 
BRANCH   8   9
ATOM      9  C   UNL     1      -6.164   6.527   0.328  1.00  0.00     0.006 C 
BRANCH   9  10
ATOM     10  C   UNL     1      -7.586   6.050   0.021  1.00  0.00     0.053 C 
BRANCH  10  11
ATOM     11  C   UNL     1      -7.555   4.746  -0.712  1.00  0.00     0.041 C 
ATOM     12  O   UNL     1      -7.087   4.686  -1.879  1.00  0.00    -0.550 OA
ATOM     13  O   UNL     1      -8.087   3.605  -0.123  1.00  0.00    -0.550 OA
ENDBRANCH  10  11
ENDBRANCH   9  10
ENDBRANCH   8   9
ENDBRANCH   1   8
TORSDOF 8
ENDMDL
MODEL 3
REMARK VINA RESULT:    -3.211      3.222      3.959
REMARK INTER + INTRA:          -5.039
REMARK INTER:                  -4.707
REMARK INTRA:                  -0.333
REMARK UNBOUND:                -0.327
REMARK SMILES O=C([O-])CCCCCCCC(=O)[O-]
REMARK SMILES IDX 7 1 6 2 5 3 4 4 2 5 1 6 3 7 8 8 9 9 10 10 11 11 12 12 13 13
REMARK H PARENT
REMARK Flexibility Score: inf
ROOT
ATOM      1  C   UNL     1      -3.403   6.171   1.568  1.00  0.00     0.000 C 
ENDROOT
BRANCH   1   2
ATOM      2  C   UNL     1      -3.632   7.292   2.588  1.00  0.00     0.000 C 
BRANCH   2   3
ATOM      3  C   UNL     1      -2.472   8.295   2.574  1.00  0.00     0.006 C 
BRANCH   3   4
ATOM      4  C   UNL     1      -2.991   9.734   2.510  1.00  0.00     0.053 C 
BRANCH   4   5
ATOM      5  C   UNL     1      -3.393  10.085   1.112  1.00  0.00     0.041 C 
ATOM      6  O   UNL     1      -4.477  10.688   0.897  1.00  0.00    -0.550 OA
ATOM      7  O   UNL     1      -2.595   9.702   0.042  1.00  0.00    -0.550 OA
ENDBRANCH   4   5
ENDBRANCH   3   4
ENDBRANCH   2   3
ENDBRANCH   1   2
BRANCH   1   8
ATOM      8  C   UNL     1      -4.244   4.935   1.911  1.00  0.00     0.000 C 
BRANCH   8   9
ATOM      9  C   UNL     1      -3.352   3.757   2.319  1.00  0.00     0.006 C 
BRANCH   9  10
ATOM     10  C   UNL     1      -3.615   3.345   3.770  1.00  0.00     0.053 C 
BRANCH  10  11
ATOM     11  C   UNL     1      -3.276   1.902   3.975  1.00  0.00     0.041 C 
ATOM     12  O   UNL     1      -3.672   1.035   3.152  1.00  0.00    -0.550 OA
ATOM     13  O   UNL     1      -2.564   1.508   5.101  1.00  0.00    -0.550 OA
ENDBRANCH  10  11
ENDBRANCH   9  10
ENDBRANCH   8   9
ENDBRANCH   1   8
TORSDOF 8
ENDMDL
MODEL 4
REMARK VINA RESULT:    -3.174      2.778      5.644
REMARK INTER + INTRA:          -4.985
REMARK INTER:                  -4.397
REMARK INTRA:                  -0.588
REMARK UNBOUND:                -0.327
REMARK SMILES O=C([O-])CCCCCCCC(=O)[O-]
REMARK SMILES IDX 7 1 6 2 5 3 4 4 2 5 1 6 3 7 8 8 9 9 10 10 11 11 12 12 13 13
REMARK H PARENT
REMARK Flexibility Score: inf
ROOT
ATOM      1  C   UNL     1      -4.315   5.551   0.657  1.00  0.00     0.000 C 
ENDROOT
BRANCH   1   2
ATOM      2  C   UNL     1      -3.277   5.548   1.785  1.00  0.00     0.000 C 
BRANCH   2   3
ATOM      3  C   UNL     1      -3.729   4.655   2.947  1.00  0.00     0.006 C 
BRANCH   3   4
ATOM      4  C   UNL     1      -3.470   3.178   2.637  1.00  0.00     0.053 C 
BRANCH   4   5
ATOM      5  C   UNL     1      -3.389   2.383   3.903  1.00  0.00     0.041 C 
ATOM      6  O   UNL     1      -3.956   2.798   4.948  1.00  0.00    -0.550 OA
ATOM      7  O   UNL     1      -2.646   1.210   3.941  1.00  0.00    -0.550 OA
ENDBRANCH   4   5
ENDBRANCH   3   4
ENDBRANCH   2   3
ENDBRANCH   1   2
BRANCH   1   8
ATOM      8  C   UNL     1      -5.673   6.055   1.161  1.00  0.00     0.000 C 
BRANCH   8   9
ATOM      9  C   UNL     1      -5.755   7.584   1.085  1.00  0.00     0.006 C 
BRANCH   9  10
ATOM     10  C   UNL     1      -6.208   8.178   2.421  1.00  0.00     0.053 C 
BRANCH  10  11
ATOM     11  C   UNL     1      -5.030   8.438   3.306  1.00  0.00     0.041 C 
ATOM     12  O   UNL     1      -5.104   8.210   4.542  1.00  0.00    -0.550 OA
ATOM     13  O   UNL     1      -3.866   8.979   2.773  1.00  0.00    -0.550 OA
ENDBRANCH  10  11
ENDBRANCH   9  10
ENDBRANCH   8   9
ENDBRANCH   1   8
TORSDOF 8
ENDMDL
MODEL 5
REMARK VINA RESULT:    -3.165      1.531      2.042
REMARK INTER + INTRA:          -4.973
REMARK INTER:                  -4.546
REMARK INTRA:                  -0.427
REMARK UNBOUND:                -0.327
REMARK SMILES O=C([O-])CCCCCCCC(=O)[O-]
REMARK SMILES IDX 7 1 6 2 5 3 4 4 2 5 1 6 3 7 8 8 9 9 10 10 11 11 12 12 13 13
REMARK H PARENT
REMARK Flexibility Score: inf
ROOT
ATOM      1  C   UNL     1      -5.465   5.744   1.062  1.00  0.00     0.000 C 
ENDROOT
BRANCH   1   2
ATOM      2  C   UNL     1      -5.973   6.402  -0.226  1.00  0.00     0.000 C 
BRANCH   2   3
ATOM      3  C   UNL     1      -6.964   5.488  -0.956  1.00  0.00     0.006 C 
BRANCH   3   4
ATOM      4  C   UNL     1      -7.639   4.518   0.019  1.00  0.00     0.053 C 
BRANCH   4   5
ATOM      5  C   UNL     1      -8.337   3.425  -0.728  1.00  0.00     0.041 C 
ATOM      6  O   UNL     1      -8.881   3.664  -1.838  1.00  0.00    -0.550 OA
ATOM      7  O   UNL     1      -8.430   2.154  -0.175  1.00  0.00    -0.550 OA
ENDBRANCH   4   5
ENDBRANCH   3   4
ENDBRANCH   2   3
ENDBRANCH   1   2
BRANCH   1   8
ATOM      8  C   UNL     1      -3.932   5.759   1.119  1.00  0.00     0.000 C 
BRANCH   8   9
ATOM      9  C   UNL     1      -3.413   4.840   2.232  1.00  0.00     0.006 C 
BRANCH   9  10
ATOM     10  C   UNL     1      -4.362   3.659   2.456  1.00  0.00     0.053 C 
BRANCH  10  11
ATOM     11  C   UNL     1      -3.754   2.671   3.401  1.00  0.00     0.041 C 
ATOM     12  O   UNL     1      -3.177   1.644   2.959  1.00  0.00    -0.550 OA
ATOM     13  O   UNL     1      -3.870   2.860   4.773  1.00  0.00    -0.550 OA
ENDBRANCH  10  11
ENDBRANCH   9  10
ENDBRANCH   8   9
ENDBRANCH   1   8
TORSDOF 8
ENDMDL
MODEL 6
REMARK VINA RESULT:    -3.086      3.675      4.640
REMARK INTER + INTRA:          -4.856
REMARK INTER:                  -4.442
REMARK INTRA:                  -0.414
REMARK UNBOUND:                -0.327
REMARK SMILES O=C([O-])CCCCCCCC(=O)[O-]
REMARK SMILES IDX 7 1 6 2 5 3 4 4 2 5 1 6 3 7 8 8 9 9 10 10 11 11 12 12 13 13
REMARK H PARENT
REMARK Flexibility Score: inf
ROOT
ATOM      1  C   UNL     1      -2.475   7.737   2.102  1.00  0.00     0.000 C 
ENDROOT
BRANCH   1   2
ATOM      2  C   UNL     1      -3.527   8.690   2.680  1.00  0.00     0.000 C 
BRANCH   2   3
ATOM      3  C   UNL     1      -3.095   9.220   4.052  1.00  0.00     0.006 C 
BRANCH   3   4
ATOM      4  C   UNL     1      -3.482   8.242   5.165  1.00  0.00     0.053 C 
BRANCH   4   5
ATOM      5  C   UNL     1      -4.775   8.652   5.799  1.00  0.00     0.041 C 
ATOM      6  O   UNL     1      -5.208   9.824   5.650  1.00  0.00    -0.550 OA
ATOM      7  O   UNL     1      -5.475   7.754   6.594  1.00  0.00    -0.550 OA
ENDBRANCH   4   5
ENDBRANCH   3   4
ENDBRANCH   2   3
ENDBRANCH   1   2
BRANCH   1   8
ATOM      8  C   UNL     1      -3.133   6.482   1.516  1.00  0.00     0.000 C 
BRANCH   8   9
ATOM      9  C   UNL     1      -3.563   5.516   2.626  1.00  0.00     0.006 C 
BRANCH   9  10
ATOM     10  C   UNL     1      -3.910   4.139   2.054  1.00  0.00     0.053 C 
BRANCH  10  11
ATOM     11  C   UNL     1      -3.735   3.078   3.094  1.00  0.00     0.041 C 
ATOM     12  O   UNL     1      -3.944   3.341   4.308  1.00  0.00    -0.550 OA
ATOM     13  O   UNL     1      -3.292   1.813   2.729  1.00  0.00    -0.550 OA
ENDBRANCH  10  11
ENDBRANCH   9  10
ENDBRANCH   8   9
ENDBRANCH   1   8
TORSDOF 8
ENDMDL
MODEL 7
REMARK VINA RESULT:    -3.035      2.517      6.025
REMARK INTER + INTRA:          -4.782
REMARK INTER:                  -4.453
REMARK INTRA:                  -0.329
REMARK UNBOUND:                -0.327
REMARK SMILES O=C([O-])CCCCCCCC(=O)[O-]
REMARK SMILES IDX 7 1 6 2 5 3 4 4 2 5 1 6 3 7 8 8 9 9 10 10 11 11 12 12 13 13
REMARK H PARENT
REMARK Flexibility Score: inf
ROOT
ATOM      1  C   UNL     1      -3.261   6.396   1.718  1.00  0.00     0.000 C 
ENDROOT
BRANCH   1   2
ATOM      2  C   UNL     1      -4.171   5.166   1.819  1.00  0.00     0.000 C 
BRANCH   2   3
ATOM      3  C   UNL     1      -3.361   3.910   2.161  1.00  0.00     0.006 C 
BRANCH   3   4
ATOM      4  C   UNL     1      -3.511   3.546   3.642  1.00  0.00     0.053 C 
BRANCH   4   5
ATOM      5  C   UNL     1      -3.270   2.084   3.849  1.00  0.00     0.041 C 
ATOM      6  O   UNL     1      -3.657   1.250   2.990  1.00  0.00    -0.550 OA
ATOM      7  O   UNL     1      -2.662   1.638   5.016  1.00  0.00    -0.550 OA
ENDBRANCH   4   5
ENDBRANCH   3   4
ENDBRANCH   2   3
ENDBRANCH   1   2
BRANCH   1   8
ATOM      8  C   UNL     1      -4.087   7.680   1.568  1.00  0.00     0.000 C 
BRANCH   8   9
ATOM      9  C   UNL     1      -4.759   8.060   2.893  1.00  0.00     0.006 C 
BRANCH   9  10
ATOM     10  C   UNL     1      -5.943   9.002   2.658  1.00  0.00     0.053 C 
BRANCH  10  11
ATOM     11  C   UNL     1      -7.213   8.378   3.143  1.00  0.00     0.041 C 
ATOM     12  O   UNL     1      -7.975   9.012   3.919  1.00  0.00    -0.550 OA
ATOM     13  O   UNL     1      -7.533   7.076   2.776  1.00  0.00    -0.550 OA
ENDBRANCH  10  11
ENDBRANCH   9  10
ENDBRANCH   8   9
ENDBRANCH   1   8
TORSDOF 8
ENDMDL
MODEL 8
REMARK VINA RESULT:    -2.854      7.033      8.399
REMARK INTER + INTRA:          -4.515
REMARK INTER:                  -4.106
REMARK INTRA:                  -0.409
REMARK UNBOUND:                -0.327
REMARK SMILES O=C([O-])CCCCCCCC(=O)[O-]
REMARK SMILES IDX 7 1 6 2 5 3 4 4 2 5 1 6 3 7 8 8 9 9 10 10 11 11 12 12 13 13
REMARK H PARENT
REMARK Flexibility Score: inf
ROOT
ATOM      1  C   UNL     1      -1.424   4.541   9.595  1.00  0.00     0.000 C 
ENDROOT
BRANCH   1   2
ATOM      2  C   UNL     1      -2.381   5.330   8.694  1.00  0.00     0.000 C 
BRANCH   2   3
ATOM      3  C   UNL     1      -1.733   6.633   8.212  1.00  0.00     0.006 C 
BRANCH   3   4
ATOM      4  C   UNL     1      -2.717   7.803   8.305  1.00  0.00     0.053 C 
BRANCH   4   5
ATOM      5  C   UNL     1      -3.950   7.517   7.506  1.00  0.00     0.041 C 
ATOM      6  O   UNL     1      -5.078   7.516   8.062  1.00  0.00    -0.550 OA
ATOM      7  O   UNL     1      -3.846   7.204   6.157  1.00  0.00    -0.550 OA
ENDBRANCH   4   5
ENDBRANCH   3   4
ENDBRANCH   2   3
ENDBRANCH   1   2
BRANCH   1   8
ATOM      8  C   UNL     1      -0.034   5.187   9.620  1.00  0.00     0.000 C 
BRANCH   8   9
ATOM      9  C   UNL     1       1.059   4.134   9.844  1.00  0.00     0.006 C 
BRANCH   9  10
ATOM     10  C   UNL     1       0.447   2.761  10.134  1.00  0.00     0.053 C 
BRANCH  10  11
ATOM     11  C   UNL     1       1.391   1.672   9.732  1.00  0.00     0.041 C 
ATOM     12  O   UNL     1       2.468   1.952   9.143  1.00  0.00    -0.550 OA
ATOM     13  O   UNL     1       1.058   0.342   9.964  1.00  0.00    -0.550 OA
ENDBRANCH  10  11
ENDBRANCH   9  10
ENDBRANCH   8   9
ENDBRANCH   1   8
TORSDOF 8
ENDMDL
MODEL 9
REMARK VINA RESULT:    -2.740      6.507      8.056
REMARK INTER + INTRA:          -4.349
REMARK INTER:                  -3.871
REMARK INTRA:                  -0.478
REMARK UNBOUND:                -0.327
REMARK SMILES O=C([O-])CCCCCCCC(=O)[O-]
REMARK SMILES IDX 7 1 6 2 5 3 4 4 2 5 1 6 3 7 8 8 9 9 10 10 11 11 12 12 13 13
REMARK H PARENT
REMARK Flexibility Score: inf
ROOT
ATOM      1  C   UNL     1      -0.220   5.760   9.258  1.00  0.00     0.000 C 
ENDROOT
BRANCH   1   2
ATOM      2  C   UNL     1      -0.866   7.073   8.802  1.00  0.00     0.000 C 
BRANCH   2   3
ATOM      3  C   UNL     1      -2.202   6.813   8.096  1.00  0.00     0.006 C 
BRANCH   3   4
ATOM      4  C   UNL     1      -2.604   8.006   7.223  1.00  0.00     0.053 C 
BRANCH   4   5
ATOM      5  C   UNL     1      -3.895   7.729   6.519  1.00  0.00     0.041 C 
ATOM      6  O   UNL     1      -3.907   7.526   5.277  1.00  0.00    -0.550 OA
ATOM      7  O   UNL     1      -5.090   7.744   7.227  1.00  0.00    -0.550 OA
ENDBRANCH   4   5
ENDBRANCH   3   4
ENDBRANCH   2   3
ENDBRANCH   1   2
BRANCH   1   8
ATOM      8  C   UNL     1      -1.251   4.624   9.296  1.00  0.00     0.000 C 
BRANCH   8   9
ATOM      9  C   UNL     1      -1.571   4.220  10.741  1.00  0.00     0.006 C 
BRANCH   9  10
ATOM     10  C   UNL     1      -2.806   4.963  11.258  1.00  0.00     0.053 C 
BRANCH  10  11
ATOM     11  C   UNL     1      -4.057   4.290  10.789  1.00  0.00     0.041 C 
ATOM     12  O   UNL     1      -4.627   4.677   9.735  1.00  0.00    -0.550 OA
ATOM     13  O   UNL     1      -4.621   3.267  11.542  1.00  0.00    -0.550 OA
ENDBRANCH  10  11
ENDBRANCH   9  10
ENDBRANCH   8   9
ENDBRANCH   1   8
TORSDOF 8
ENDMDL
