MODEL 1
REMARK VINA RESULT:     8.526      0.000      0.000
REMARK INTER + INTRA:          14.555
REMARK INTER:                  15.505
REMARK INTRA:                  -0.950
REMARK UNBOUND:                -0.950
REMARK SMILES CCCCCCCCCCCCCC[C@H](C)C(=O)[O-]
REMARK SMILES IDX 9 1 10 2 11 3 12 4 13 5 14 6 15 7 16 8 17 9 18 10 19 11 8 12
REMARK SMILES IDX 7 13 6 14 5 15 4 16 3 17 2 18 1 19
REMARK H PARENT
REMARK Flexibility Score: inf
ROOT
ATOM      1  C   UNL     1      17.468 -19.109  25.079  1.00  0.00     0.000 C 
ENDROOT
BRANCH   1   2
ATOM      2  C   UNL     1      18.593 -18.672  26.032  1.00  0.00     0.000 C 
BRANCH   2   3
ATOM      3  C   UNL     1      19.291 -19.864  26.706  1.00  0.00     0.000 C 
BRANCH   3   4
ATOM      4  C   UNL     1      20.822 -19.812  26.555  1.00  0.00     0.000 C 
BRANCH   4   5
ATOM      5  C   UNL     1      21.326 -20.625  25.351  1.00  0.00     0.001 C 
BRANCH   5   6
ATOM      6  C   UNL     1      22.603 -21.424  25.666  1.00  0.00     0.009 C 
BRANCH   6   7
ATOM      7  C   UNL     1      23.811 -20.936  24.840  1.00  0.00     0.032 C 
ATOM      8  C   UNL     1      23.360 -20.445  23.460  1.00  0.00     0.014 C 
BRANCH   7   9
ATOM      9  C   UNL     1      24.839 -22.024  24.677  1.00  0.00     0.044 C 
ATOM     10  O   UNL     1      24.992 -22.588  23.561  1.00  0.00    -0.550 OA
ATOM     11  O   UNL     1      25.624 -22.418  25.755  1.00  0.00    -0.550 OA
ENDBRANCH   7   9
ENDBRANCH   6   7
ENDBRANCH   5   6
ENDBRANCH   4   5
ENDBRANCH   3   4
ENDBRANCH   2   3
ENDBRANCH   1   2
BRANCH   1  12
ATOM     12  C   UNL     1      17.908 -19.128  23.605  1.00  0.00     0.000 C 
BRANCH  12  13
ATOM     13  C   UNL     1      16.930 -19.874  22.673  1.00  0.00    -0.000 C 
BRANCH  13  14
ATOM     14  C   UNL     1      17.438 -21.277  22.295  1.00  0.00    -0.000 C 
BRANCH  14  15
ATOM     15  C   UNL     1      16.312 -22.334  22.291  1.00  0.00    -0.000 C 
BRANCH  15  16
ATOM     16  C   UNL     1      16.595 -23.544  21.381  1.00  0.00    -0.000 C 
BRANCH  16  17
ATOM     17  C   UNL     1      18.085 -23.876  21.177  1.00  0.00    -0.000 C 
BRANCH  17  18
ATOM     18  C   UNL     1      18.514 -24.057  19.709  1.00  0.00    -0.003 C 
ATOM     19  C   UNL     1      18.466 -22.756  18.909  1.00  0.00     0.004 C 
ENDBRANCH  17  18
ENDBRANCH  16  17
ENDBRANCH  15  16
ENDBRANCH  14  15
ENDBRANCH  13  14
ENDBRANCH  12  13
ENDBRANCH   1  12
TORSDOF 14
ENDMDL
MODEL 2
REMARK VINA RESULT:     8.934      2.893      6.671
REMARK INTER + INTRA:          15.297
REMARK INTER:                  16.243
REMARK INTRA:                  -0.946
REMARK UNBOUND:                -0.950
REMARK SMILES CCCCCCCCCCCCCC[C@H](C)C(=O)[O-]
REMARK SMILES IDX 9 1 10 2 11 3 12 4 13 5 14 6 15 7 16 8 17 9 18 10 19 11 8 12
REMARK SMILES IDX 7 13 6 14 5 15 4 16 3 17 2 18 1 19
REMARK H PARENT
REMARK Flexibility Score: inf
ROOT
ATOM      1  C   UNL     1      18.511 -18.694  25.746  1.00  0.00     0.000 C 
ENDROOT
BRANCH   1   2
ATOM      2  C   UNL     1      17.376 -19.116  24.799  1.00  0.00     0.000 C 
BRANCH   2   3
ATOM      3  C   UNL     1      17.881 -19.454  23.387  1.00  0.00     0.000 C 
BRANCH   3   4
ATOM      4  C   UNL     1      16.908 -20.364  22.616  1.00  0.00     0.000 C 
BRANCH   4   5
ATOM      5  C   UNL     1      17.394 -21.821  22.540  1.00  0.00     0.001 C 
BRANCH   5   6
ATOM      6  C   UNL     1      16.629 -22.649  21.492  1.00  0.00     0.009 C 
BRANCH   6   7
ATOM      7  C   UNL     1      17.465 -23.834  20.966  1.00  0.00     0.032 C 
ATOM      8  C   UNL     1      18.543 -24.229  21.982  1.00  0.00     0.014 C 
BRANCH   7   9
ATOM      9  C   UNL     1      18.111 -23.506  19.646  1.00  0.00     0.044 C 
ATOM     10  O   UNL     1      18.263 -24.404  18.777  1.00  0.00    -0.550 OA
ATOM     11  O   UNL     1      18.547 -22.213  19.378  1.00  0.00    -0.550 OA
ENDBRANCH   7   9
ENDBRANCH   6   7
ENDBRANCH   5   6
ENDBRANCH   4   5
ENDBRANCH   3   4
ENDBRANCH   2   3
ENDBRANCH   1   2
BRANCH   1  12
ATOM     12  C   UNL     1      19.241 -19.894  26.374  1.00  0.00     0.000 C 
BRANCH  12  13
ATOM     13  C   UNL     1      20.762 -19.684  26.532  1.00  0.00    -0.000 C 
BRANCH  13  14
ATOM     14  C   UNL     1      21.570 -20.926  26.113  1.00  0.00    -0.000 C 
BRANCH  14  15
ATOM     15  C   UNL     1      21.921 -20.925  24.610  1.00  0.00    -0.000 C 
BRANCH  15  16
ATOM     16  C   UNL     1      23.367 -20.490  24.306  1.00  0.00    -0.000 C 
BRANCH  16  17
ATOM     17  C   UNL     1      24.166 -21.452  23.407  1.00  0.00    -0.000 C 
BRANCH  17  18
ATOM     18  C   UNL     1      25.008 -22.496  24.163  1.00  0.00    -0.003 C 
ATOM     19  C   UNL     1      25.327 -22.080  25.598  1.00  0.00     0.004 C 
ENDBRANCH  17  18
ENDBRANCH  16  17
ENDBRANCH  15  16
ENDBRANCH  14  15
ENDBRANCH  13  14
ENDBRANCH  12  13
ENDBRANCH   1  12
TORSDOF 14
ENDMDL
MODEL 3
REMARK VINA RESULT:     9.327      1.069      2.312
REMARK INTER + INTRA:          16.010
REMARK INTER:                  16.914
REMARK INTRA:                  -0.904
REMARK UNBOUND:                -0.950
REMARK SMILES CCCCCCCCCCCCCC[C@H](C)C(=O)[O-]
REMARK SMILES IDX 9 1 10 2 11 3 12 4 13 5 14 6 15 7 16 8 17 9 18 10 19 11 8 12
REMARK SMILES IDX 7 13 6 14 5 15 4 16 3 17 2 18 1 19
REMARK H PARENT
REMARK Flexibility Score: inf
ROOT
ATOM      1  C   UNL     1      19.374 -19.890  26.376  1.00  0.00     0.000 C 
ENDROOT
BRANCH   1   2
ATOM      2  C   UNL     1      20.891 -19.648  26.410  1.00  0.00     0.000 C 
BRANCH   2   3
ATOM      3  C   UNL     1      21.695 -20.880  25.962  1.00  0.00     0.000 C 
BRANCH   3   4
ATOM      4  C   UNL     1      21.796 -20.992  24.431  1.00  0.00     0.000 C 
BRANCH   4   5
ATOM      5  C   UNL     1      23.249 -20.969  23.930  1.00  0.00     0.001 C 
BRANCH   5   6
ATOM      6  C   UNL     1      24.272 -20.900  25.078  1.00  0.00     0.009 C 
BRANCH   6   7
ATOM      7  C   UNL     1      25.450 -21.873  24.865  1.00  0.00     0.032 C 
ATOM      8  C   UNL     1      25.048 -23.010  23.918  1.00  0.00     0.014 C 
BRANCH   7   9
ATOM      9  C   UNL     1      25.929 -22.449  26.171  1.00  0.00     0.044 C 
ATOM     10  O   UNL     1      27.064 -22.990  26.245  1.00  0.00    -0.550 OA
ATOM     11  O   UNL     1      25.122 -22.393  27.302  1.00  0.00    -0.550 OA
ENDBRANCH   7   9
ENDBRANCH   6   7
ENDBRANCH   5   6
ENDBRANCH   4   5
ENDBRANCH   3   4
ENDBRANCH   2   3
ENDBRANCH   1   2
BRANCH   1  12
ATOM     12  C   UNL     1      18.597 -18.719  25.748  1.00  0.00     0.000 C 
BRANCH  12  13
ATOM     13  C   UNL     1      17.386 -19.161  24.899  1.00  0.00    -0.000 C 
BRANCH  13  14
ATOM     14  C   UNL     1      17.711 -19.202  23.395  1.00  0.00    -0.000 C 
BRANCH  14  15
ATOM     15  C   UNL     1      16.909 -20.286  22.644  1.00  0.00    -0.000 C 
BRANCH  15  16
ATOM     16  C   UNL     1      17.762 -21.481  22.174  1.00  0.00    -0.000 C 
BRANCH  16  17
ATOM     17  C   UNL     1      16.973 -22.765  21.862  1.00  0.00    -0.000 C 
BRANCH  17  18
ATOM     18  C   UNL     1      17.801 -23.896  21.223  1.00  0.00    -0.003 C 
ATOM     19  C   UNL     1      18.199 -23.600  19.778  1.00  0.00     0.004 C 
ENDBRANCH  17  18
ENDBRANCH  16  17
ENDBRANCH  15  16
ENDBRANCH  14  15
ENDBRANCH  13  14
ENDBRANCH  12  13
ENDBRANCH   1  12
TORSDOF 14
ENDMDL
MODEL 4
REMARK VINA RESULT:    10.793      9.765     12.733
REMARK INTER + INTRA:          18.677
REMARK INTER:                  19.733
REMARK INTRA:                  -1.055
REMARK UNBOUND:                -0.950
REMARK SMILES CCCCCCCCCCCCCC[C@H](C)C(=O)[O-]
REMARK SMILES IDX 9 1 10 2 11 3 12 4 13 5 14 6 15 7 16 8 17 9 18 10 19 11 8 12
REMARK SMILES IDX 7 13 6 14 5 15 4 16 3 17 2 18 1 19
REMARK H PARENT
REMARK Flexibility Score: inf
ROOT
ATOM      1  C   UNL     1      28.562 -16.431  18.648  1.00  0.00     0.000 C 
ENDROOT
BRANCH   1   2
ATOM      2  C   UNL     1      27.865 -17.792  18.490  1.00  0.00     0.000 C 
BRANCH   2   3
ATOM      3  C   UNL     1      27.211 -17.962  17.108  1.00  0.00     0.000 C 
BRANCH   3   4
ATOM      4  C   UNL     1      25.816 -18.605  17.193  1.00  0.00     0.000 C 
BRANCH   4   5
ATOM      5  C   UNL     1      25.279 -19.038  15.818  1.00  0.00     0.001 C 
BRANCH   5   6
ATOM      6  C   UNL     1      24.833 -20.510  15.790  1.00  0.00     0.009 C 
BRANCH   6   7
ATOM      7  C   UNL     1      25.823 -21.403  15.015  1.00  0.00     0.032 C 
ATOM      8  C   UNL     1      25.975 -20.914  13.570  1.00  0.00     0.014 C 
BRANCH   7   9
ATOM      9  C   UNL     1      25.382 -22.842  15.016  1.00  0.00     0.044 C 
ATOM     10  O   UNL     1      26.238 -23.766  15.003  1.00  0.00    -0.550 OA
ATOM     11  O   UNL     1      24.029 -23.163  15.029  1.00  0.00    -0.550 OA
ENDBRANCH   7   9
ENDBRANCH   6   7
ENDBRANCH   5   6
ENDBRANCH   4   5
ENDBRANCH   3   4
ENDBRANCH   2   3
ENDBRANCH   1   2
BRANCH   1  12
ATOM     12  C   UNL     1      29.248 -15.959  17.355  1.00  0.00     0.000 C 
BRANCH  12  13
ATOM     13  C   UNL     1      28.782 -14.567  16.875  1.00  0.00    -0.000 C 
BRANCH  13  14
ATOM     14  C   UNL     1      28.497 -14.536  15.362  1.00  0.00    -0.000 C 
BRANCH  14  15
ATOM     15  C   UNL     1      27.673 -15.752  14.890  1.00  0.00    -0.000 C 
BRANCH  15  16
ATOM     16  C   UNL     1      28.412 -16.655  13.883  1.00  0.00    -0.000 C 
BRANCH  16  17
ATOM     17  C   UNL     1      29.949 -16.575  13.937  1.00  0.00    -0.000 C 
BRANCH  17  18
ATOM     18  C   UNL     1      30.683 -17.759  13.283  1.00  0.00    -0.003 C 
ATOM     19  C   UNL     1      32.201 -17.683  13.444  1.00  0.00     0.004 C 
ENDBRANCH  17  18
ENDBRANCH  16  17
ENDBRANCH  15  16
ENDBRANCH  14  15
ENDBRANCH  13  14
ENDBRANCH  12  13
ENDBRANCH   1  12
TORSDOF 14
ENDMDL
MODEL 5
REMARK VINA RESULT:    11.500     10.391     12.537
REMARK INTER + INTRA:          19.963
REMARK INTER:                  20.646
REMARK INTRA:                  -0.684
REMARK UNBOUND:                -0.950
REMARK SMILES CCCCCCCCCCCCCC[C@H](C)C(=O)[O-]
REMARK SMILES IDX 9 1 10 2 11 3 12 4 13 5 14 6 15 7 16 8 17 9 18 10 19 11 8 12
REMARK SMILES IDX 7 13 6 14 5 15 4 16 3 17 2 18 1 19
REMARK H PARENT
REMARK Flexibility Score: inf
ROOT
ATOM      1  C   UNL     1      27.429 -18.029  13.370  1.00  0.00     0.000 C 
ENDROOT
BRANCH   1   2
ATOM      2  C   UNL     1      28.512 -17.253  12.601  1.00  0.00     0.000 C 
BRANCH   2   3
ATOM      3  C   UNL     1      29.908 -17.414  13.225  1.00  0.00     0.000 C 
BRANCH   3   4
ATOM      4  C   UNL     1      30.110 -16.512  14.456  1.00  0.00     0.000 C 
BRANCH   4   5
ATOM      5  C   UNL     1      28.926 -15.562  14.694  1.00  0.00     0.001 C 
BRANCH   5   6
ATOM      6  C   UNL     1      28.169 -15.869  15.999  1.00  0.00     0.009 C 
BRANCH   6   7
ATOM      7  C   UNL     1      29.106 -15.880  17.224  1.00  0.00     0.032 C 
ATOM      8  C   UNL     1      28.482 -16.675  18.376  1.00  0.00     0.014 C 
BRANCH   7   9
ATOM      9  C   UNL     1      29.419 -14.482  17.688  1.00  0.00     0.044 C 
ATOM     10  O   UNL     1      28.618 -13.541  17.444  1.00  0.00    -0.550 OA
ATOM     11  O   UNL     1      30.593 -14.218  18.383  1.00  0.00    -0.550 OA
ENDBRANCH   7   9
ENDBRANCH   6   7
ENDBRANCH   5   6
ENDBRANCH   4   5
ENDBRANCH   3   4
ENDBRANCH   2   3
ENDBRANCH   1   2
BRANCH   1  12
ATOM     12  C   UNL     1      26.980 -19.307  12.640  1.00  0.00     0.000 C 
BRANCH  12  13
ATOM     13  C   UNL     1      26.305 -20.345  13.562  1.00  0.00    -0.000 C 
BRANCH  13  14
ATOM     14  C   UNL     1      25.501 -19.684  14.696  1.00  0.00    -0.000 C 
BRANCH  14  15
ATOM     15  C   UNL     1      24.917 -20.714  15.686  1.00  0.00    -0.000 C 
BRANCH  15  16
ATOM     16  C   UNL     1      25.613 -22.088  15.641  1.00  0.00    -0.000 C 
BRANCH  16  17
ATOM     17  C   UNL     1      24.757 -23.238  15.078  1.00  0.00    -0.000 C 
BRANCH  17  18
ATOM     18  C   UNL     1      25.544 -24.504  14.694  1.00  0.00    -0.003 C 
ATOM     19  C   UNL     1      27.015 -24.222  14.389  1.00  0.00     0.004 C 
ENDBRANCH  17  18
ENDBRANCH  16  17
ENDBRANCH  15  16
ENDBRANCH  14  15
ENDBRANCH  13  14
ENDBRANCH  12  13
ENDBRANCH   1  12
TORSDOF 14
ENDMDL
