MODEL 1
REMARK VINA RESULT:    -6.214      0.000      0.000
REMARK INTER + INTRA:          -6.214
REMARK INTER:                  -6.214
REMARK INTRA:                   0.000
REMARK UNBOUND:                 0.000
REMARK SMILES C=C1CCC[C@]2(C)CC(=O)C(=C(C)C)C[C@H]12
REMARK SMILES IDX 13 1 12 2 11 3 15 4 16 5 2 6 1 7 3 8 4 9 5 10 6 11 8 12 9 13
REMARK SMILES IDX 10 14 7 15 14 16
REMARK H PARENT
REMARK Flexibility Score: inf
ROOT
ATOM      1  C   UNL     1     -23.406  -2.906  -2.864  1.00  0.00     0.039 C 
ATOM      2  C   UNL     1     -24.723  -2.231  -3.177  1.00  0.00    -0.070 C 
ATOM      3  C   UNL     1     -24.824  -0.872  -3.245  1.00  0.00    -0.006 C 
ATOM      4  C   UNL     1     -23.628   0.029  -2.984  1.00  0.00     0.047 C 
ATOM      5  C   UNL     1     -24.012   1.389  -2.345  1.00  0.00     0.025 C 
ATOM      6  C   UNL     1     -24.337   1.342  -0.847  1.00  0.00    -0.073 C 
ATOM      7  C   UNL     1     -24.356   0.214  -0.112  1.00  0.00     0.008 C 
ATOM      8  C   UNL     1     -24.708   2.640  -0.165  1.00  0.00     0.031 C 
ATOM      9  C   UNL     1     -24.746   3.808  -1.154  1.00  0.00     0.005 C 
ATOM     10  C   UNL     1     -25.590   3.460  -2.389  1.00  0.00     0.008 C 
ATOM     11  C   UNL     1     -25.171   2.120  -3.111  1.00  0.00    -0.018 C 
ATOM     12  C   UNL     1     -26.405   1.178  -3.171  1.00  0.00     0.088 C 
ATOM     13  C   UNL     1     -26.066  -0.187  -3.694  1.00  0.00     0.159 C 
ATOM     14  O   UNL     1     -26.848  -0.730  -4.522  1.00  0.00    -0.295 OA
ATOM     15  C   UNL     1     -24.723   2.468  -4.554  1.00  0.00     0.012 C 
ATOM     16  C   UNL     1     -25.924  -3.127  -3.374  1.00  0.00     0.039 C 
ENDROOT
TORSDOF 0
ENDMDL
MODEL 2
REMARK VINA RESULT:    -6.074      1.907      4.324
REMARK INTER + INTRA:          -6.074
REMARK INTER:                  -6.074
REMARK INTRA:                   0.000
REMARK UNBOUND:                 0.000
REMARK SMILES C=C1CCC[C@]2(C)CC(=O)C(=C(C)C)C[C@H]12
REMARK SMILES IDX 13 1 12 2 11 3 15 4 16 5 2 6 1 7 3 8 4 9 5 10 6 11 8 12 9 13
REMARK SMILES IDX 10 14 7 15 14 16
REMARK H PARENT
REMARK Flexibility Score: inf
ROOT
ATOM      1  C   UNL     1     -22.821   0.885  -0.164  1.00  0.00     0.039 C 
ATOM      2  C   UNL     1     -24.324   0.737  -0.231  1.00  0.00    -0.070 C 
ATOM      3  C   UNL     1     -24.927   0.093  -1.272  1.00  0.00    -0.006 C 
ATOM      4  C   UNL     1     -24.121  -0.482  -2.426  1.00  0.00     0.047 C 
ATOM      5  C   UNL     1     -24.878  -0.448  -3.780  1.00  0.00     0.025 C 
ATOM      6  C   UNL     1     -24.935   0.922  -4.467  1.00  0.00    -0.073 C 
ATOM      7  C   UNL     1     -24.426   2.053  -3.941  1.00  0.00     0.008 C 
ATOM      8  C   UNL     1     -25.649   1.015  -5.795  1.00  0.00     0.031 C 
ATOM      9  C   UNL     1     -26.263  -0.326  -6.204  1.00  0.00     0.005 C 
ATOM     10  C   UNL     1     -27.095  -0.926  -5.060  1.00  0.00     0.008 C 
ATOM     11  C   UNL     1     -26.325  -1.049  -3.687  1.00  0.00    -0.018 C 
ATOM     12  C   UNL     1     -27.121  -0.276  -2.599  1.00  0.00     0.088 C 
ATOM     13  C   UNL     1     -26.387  -0.197  -1.292  1.00  0.00     0.159 C 
ATOM     14  O   UNL     1     -27.028  -0.388  -0.223  1.00  0.00    -0.295 OA
ATOM     15  C   UNL     1     -26.260  -2.549  -3.302  1.00  0.00     0.012 C 
ATOM     16  C   UNL     1     -25.127   1.364   0.885  1.00  0.00     0.039 C 
ENDROOT
TORSDOF 0
ENDMDL
MODEL 3
REMARK VINA RESULT:    -6.010      2.176      3.883
REMARK INTER + INTRA:          -6.010
REMARK INTER:                  -6.010
REMARK INTRA:                   0.000
REMARK UNBOUND:                 0.000
REMARK SMILES C=C1CCC[C@]2(C)CC(=O)C(=C(C)C)C[C@H]12
REMARK SMILES IDX 13 1 12 2 11 3 15 4 16 5 2 6 1 7 3 8 4 9 5 10 6 11 8 12 9 13
REMARK SMILES IDX 10 14 7 15 14 16
REMARK H PARENT
REMARK Flexibility Score: inf
ROOT
ATOM      1  C   UNL     1     -28.692  -2.137  -6.579  1.00  0.00     0.039 C 
ATOM      2  C   UNL     1     -27.633  -2.686  -5.651  1.00  0.00    -0.070 C 
ATOM      3  C   UNL     1     -27.170  -1.957  -4.594  1.00  0.00    -0.006 C 
ATOM      4  C   UNL     1     -27.675  -0.550  -4.316  1.00  0.00     0.047 C 
ATOM      5  C   UNL     1     -26.604   0.371  -3.675  1.00  0.00     0.025 C 
ATOM      6  C   UNL     1     -25.543   0.914  -4.641  1.00  0.00    -0.073 C 
ATOM      7  C   UNL     1     -25.475   0.595  -5.947  1.00  0.00     0.008 C 
ATOM      8  C   UNL     1     -24.479   1.827  -4.077  1.00  0.00     0.031 C 
ATOM      9  C   UNL     1     -24.629   2.006  -2.564  1.00  0.00     0.005 C 
ATOM     10  C   UNL     1     -24.761   0.649  -1.857  1.00  0.00     0.008 C 
ATOM     11  C   UNL     1     -25.899  -0.281  -2.434  1.00  0.00    -0.018 C 
ATOM     12  C   UNL     1     -25.266  -1.632  -2.868  1.00  0.00     0.088 C 
ATOM     13  C   UNL     1     -26.240  -2.525  -3.580  1.00  0.00     0.159 C 
ATOM     14  O   UNL     1     -26.257  -3.753  -3.296  1.00  0.00    -0.295 OA
ATOM     15  C   UNL     1     -26.930  -0.539  -1.306  1.00  0.00     0.012 C 
ATOM     16  C   UNL     1     -27.087  -4.060  -5.966  1.00  0.00     0.039 C 
ENDROOT
TORSDOF 0
ENDMDL
MODEL 4
REMARK VINA RESULT:    -5.966      2.044      3.789
REMARK INTER + INTRA:          -5.966
REMARK INTER:                  -5.966
REMARK INTRA:                   0.000
REMARK UNBOUND:                 0.000
REMARK SMILES C=C1CCC[C@]2(C)CC(=O)C(=C(C)C)C[C@H]12
REMARK SMILES IDX 13 1 12 2 11 3 15 4 16 5 2 6 1 7 3 8 4 9 5 10 6 11 8 12 9 13
REMARK SMILES IDX 10 14 7 15 14 16
REMARK H PARENT
REMARK Flexibility Score: inf
ROOT
ATOM      1  C   UNL     1     -27.482  -0.114  -2.269  1.00  0.00     0.039 C 
ATOM      2  C   UNL     1     -26.006  -0.302  -2.533  1.00  0.00    -0.070 C 
ATOM      3  C   UNL     1     -25.075  -0.051  -1.567  1.00  0.00    -0.006 C 
ATOM      4  C   UNL     1     -25.475   0.454  -0.190  1.00  0.00     0.047 C 
ATOM      5  C   UNL     1     -24.412   1.383   0.455  1.00  0.00     0.025 C 
ATOM      6  C   UNL     1     -24.376   2.816  -0.090  1.00  0.00    -0.073 C 
ATOM      7  C   UNL     1     -25.153   3.263  -1.094  1.00  0.00     0.008 C 
ATOM      8  C   UNL     1     -23.369   3.771   0.508  1.00  0.00     0.031 C 
ATOM      9  C   UNL     1     -22.491   3.085   1.558  1.00  0.00     0.005 C 
ATOM     10  C   UNL     1     -21.900   1.775   1.015  1.00  0.00     0.008 C 
ATOM     11  C   UNL     1     -22.967   0.773   0.424  1.00  0.00    -0.018 C 
ATOM     12  C   UNL     1     -22.588   0.452  -1.048  1.00  0.00     0.088 C 
ATOM     13  C   UNL     1     -23.632  -0.367  -1.749  1.00  0.00     0.159 C 
ATOM     14  O   UNL     1     -23.262  -1.325  -2.481  1.00  0.00    -0.295 OA
ATOM     15  C   UNL     1     -22.918  -0.532   1.260  1.00  0.00     0.012 C 
ATOM     16  C   UNL     1     -25.607  -0.744  -3.923  1.00  0.00     0.039 C 
ENDROOT
TORSDOF 0
ENDMDL
MODEL 5
REMARK VINA RESULT:    -5.776      2.787      6.014
REMARK INTER + INTRA:          -5.776
REMARK INTER:                  -5.776
REMARK INTRA:                   0.000
REMARK UNBOUND:                 0.000
REMARK SMILES C=C1CCC[C@]2(C)CC(=O)C(=C(C)C)C[C@H]12
REMARK SMILES IDX 13 1 12 2 11 3 15 4 16 5 2 6 1 7 3 8 4 9 5 10 6 11 8 12 9 13
REMARK SMILES IDX 10 14 7 15 14 16
REMARK H PARENT
REMARK Flexibility Score: inf
ROOT
ATOM      1  C   UNL     1     -25.451   1.096  -3.253  1.00  0.00     0.039 C 
ATOM      2  C   UNL     1     -25.488   0.698  -4.711  1.00  0.00    -0.070 C 
ATOM      3  C   UNL     1     -26.395  -0.210  -5.175  1.00  0.00    -0.006 C 
ATOM      4  C   UNL     1     -27.392  -0.884  -4.247  1.00  0.00     0.047 C 
ATOM      5  C   UNL     1     -27.758  -2.327  -4.683  1.00  0.00     0.025 C 
ATOM      6  C   UNL     1     -26.703  -3.395  -4.368  1.00  0.00    -0.073 C 
ATOM      7  C   UNL     1     -25.507  -3.135  -3.807  1.00  0.00     0.008 C 
ATOM      8  C   UNL     1     -27.008  -4.823  -4.759  1.00  0.00     0.031 C 
ATOM      9  C   UNL     1     -28.353  -4.938  -5.481  1.00  0.00     0.005 C 
ATOM     10  C   UNL     1     -28.457  -3.916  -6.624  1.00  0.00     0.008 C 
ATOM     11  C   UNL     1     -28.169  -2.424  -6.194  1.00  0.00    -0.018 C 
ATOM     12  C   UNL     1     -27.009  -1.869  -7.066  1.00  0.00     0.088 C 
ATOM     13  C   UNL     1     -26.552  -0.510  -6.624  1.00  0.00     0.159 C 
ATOM     14  O   UNL     1     -26.315   0.365  -7.501  1.00  0.00    -0.295 OA
ATOM     15  C   UNL     1     -29.449  -1.591  -6.456  1.00  0.00     0.012 C 
ATOM     16  C   UNL     1     -24.454   1.322  -5.621  1.00  0.00     0.039 C 
ENDROOT
TORSDOF 0
ENDMDL
MODEL 6
REMARK VINA RESULT:    -5.767      1.950      3.546
REMARK INTER + INTRA:          -5.767
REMARK INTER:                  -5.767
REMARK INTRA:                   0.000
REMARK UNBOUND:                 0.000
REMARK SMILES C=C1CCC[C@]2(C)CC(=O)C(=C(C)C)C[C@H]12
REMARK SMILES IDX 13 1 12 2 11 3 15 4 16 5 2 6 1 7 3 8 4 9 5 10 6 11 8 12 9 13
REMARK SMILES IDX 10 14 7 15 14 16
REMARK H PARENT
REMARK Flexibility Score: inf
ROOT
ATOM      1  C   UNL     1     -25.746  -1.322  -3.421  1.00  0.00     0.039 C 
ATOM      2  C   UNL     1     -24.489  -1.051  -2.626  1.00  0.00    -0.070 C 
ATOM      3  C   UNL     1     -24.468  -0.119  -1.629  1.00  0.00    -0.006 C 
ATOM      4  C   UNL     1     -25.697   0.709  -1.288  1.00  0.00     0.047 C 
ATOM      5  C   UNL     1     -25.355   2.133  -0.775  1.00  0.00     0.025 C 
ATOM      6  C   UNL     1     -24.944   3.139  -1.857  1.00  0.00    -0.073 C 
ATOM      7  C   UNL     1     -24.821   2.836  -3.164  1.00  0.00     0.008 C 
ATOM      8  C   UNL     1     -24.610   4.547  -1.420  1.00  0.00     0.031 C 
ATOM      9  C   UNL     1     -24.692   4.702   0.100  1.00  0.00     0.005 C 
ATOM     10  C   UNL     1     -23.900   3.596   0.814  1.00  0.00     0.008 C 
ATOM     11  C   UNL     1     -24.283   2.129   0.372  1.00  0.00    -0.018 C 
ATOM     12  C   UNL     1     -23.004   1.411  -0.139  1.00  0.00     0.088 C 
ATOM     13  C   UNL     1     -23.293   0.065  -0.734  1.00  0.00     0.159 C 
ATOM     14  O   UNL     1     -22.530  -0.899  -0.454  1.00  0.00    -0.295 OA
ATOM     15  C   UNL     1     -24.829   1.377   1.613  1.00  0.00     0.012 C 
ATOM     16  C   UNL     1     -23.252  -1.830  -3.009  1.00  0.00     0.039 C 
ENDROOT
TORSDOF 0
ENDMDL
MODEL 7
REMARK VINA RESULT:    -5.703      1.952      3.323
REMARK INTER + INTRA:          -5.703
REMARK INTER:                  -5.703
REMARK INTRA:                   0.000
REMARK UNBOUND:                 0.000
REMARK SMILES C=C1CCC[C@]2(C)CC(=O)C(=C(C)C)C[C@H]12
REMARK SMILES IDX 13 1 12 2 11 3 15 4 16 5 2 6 1 7 3 8 4 9 5 10 6 11 8 12 9 13
REMARK SMILES IDX 10 14 7 15 14 16
REMARK H PARENT
REMARK Flexibility Score: inf
ROOT
ATOM      1  C   UNL     1     -26.996  -1.499  -7.042  1.00  0.00     0.039 C 
ATOM      2  C   UNL     1     -27.681  -1.169  -5.736  1.00  0.00    -0.070 C 
ATOM      3  C   UNL     1     -27.045  -0.451  -4.764  1.00  0.00    -0.006 C 
ATOM      4  C   UNL     1     -25.613   0.027  -4.937  1.00  0.00     0.047 C 
ATOM      5  C   UNL     1     -24.823   0.093  -3.603  1.00  0.00     0.025 C 
ATOM      6  C   UNL     1     -24.336  -1.256  -3.062  1.00  0.00    -0.073 C 
ATOM      7  C   UNL     1     -24.600  -2.444  -3.639  1.00  0.00     0.008 C 
ATOM      8  C   UNL     1     -23.550  -1.255  -1.770  1.00  0.00     0.031 C 
ATOM      9  C   UNL     1     -23.427   0.153  -1.184  1.00  0.00     0.005 C 
ATOM     10  C   UNL     1     -24.797   0.844  -1.110  1.00  0.00     0.008 C 
ATOM     11  C   UNL     1     -25.592   0.865  -2.474  1.00  0.00    -0.018 C 
ATOM     12  C   UNL     1     -26.974   0.189  -2.256  1.00  0.00     0.088 C 
ATOM     13  C   UNL     1     -27.741   0.015  -3.534  1.00  0.00     0.159 C 
ATOM     14  O   UNL     1     -28.975   0.277  -3.542  1.00  0.00    -0.295 OA
ATOM     15  C   UNL     1     -25.806   2.344  -2.886  1.00  0.00     0.012 C 
ATOM     16  C   UNL     1     -29.083  -1.699  -5.541  1.00  0.00     0.039 C 
ENDROOT
TORSDOF 0
ENDMDL
MODEL 8
REMARK VINA RESULT:    -5.692      2.361      5.297
REMARK INTER + INTRA:          -5.692
REMARK INTER:                  -5.692
REMARK INTRA:                   0.000
REMARK UNBOUND:                 0.000
REMARK SMILES C=C1CCC[C@]2(C)CC(=O)C(=C(C)C)C[C@H]12
REMARK SMILES IDX 13 1 12 2 11 3 15 4 16 5 2 6 1 7 3 8 4 9 5 10 6 11 8 12 9 13
REMARK SMILES IDX 10 14 7 15 14 16
REMARK H PARENT
REMARK Flexibility Score: inf
ROOT
ATOM      1  C   UNL     1     -22.506   4.988   0.221  1.00  0.00     0.039 C 
ATOM      2  C   UNL     1     -23.386   3.911   0.812  1.00  0.00    -0.070 C 
ATOM      3  C   UNL     1     -23.631   2.747   0.141  1.00  0.00    -0.006 C 
ATOM      4  C   UNL     1     -23.054   2.490  -1.242  1.00  0.00     0.047 C 
ATOM      5  C   UNL     1     -23.970   1.612  -2.135  1.00  0.00     0.025 C 
ATOM      6  C   UNL     1     -25.179   2.332  -2.744  1.00  0.00    -0.073 C 
ATOM      7  C   UNL     1     -25.494   3.619  -2.502  1.00  0.00     0.008 C 
ATOM      8  C   UNL     1     -26.102   1.531  -3.633  1.00  0.00     0.031 C 
ATOM      9  C   UNL     1     -25.671   0.065  -3.722  1.00  0.00     0.005 C 
ATOM     10  C   UNL     1     -25.439  -0.529  -2.324  1.00  0.00     0.008 C 
ATOM     11  C   UNL     1     -24.447   0.300  -1.418  1.00  0.00    -0.018 C 
ATOM     12  C   UNL     1     -25.176   0.683  -0.101  1.00  0.00     0.088 C 
ATOM     13  C   UNL     1     -24.369   1.612   0.758  1.00  0.00     0.159 C 
ATOM     14  O   UNL     1     -24.325   1.404   2.001  1.00  0.00    -0.295 OA
ATOM     15  C   UNL     1     -23.230  -0.601  -1.085  1.00  0.00     0.012 C 
ATOM     16  C   UNL     1     -24.009   4.195   2.160  1.00  0.00     0.039 C 
ENDROOT
TORSDOF 0
ENDMDL
MODEL 9
REMARK VINA RESULT:    -5.512      3.224      6.331
REMARK INTER + INTRA:          -5.512
REMARK INTER:                  -5.512
REMARK INTRA:                   0.000
REMARK UNBOUND:                 0.000
REMARK SMILES C=C1CCC[C@]2(C)CC(=O)C(=C(C)C)C[C@H]12
REMARK SMILES IDX 13 1 12 2 11 3 15 4 16 5 2 6 1 7 3 8 4 9 5 10 6 11 8 12 9 13
REMARK SMILES IDX 10 14 7 15 14 16
REMARK H PARENT
REMARK Flexibility Score: inf
ROOT
ATOM      1  C   UNL     1     -22.275   6.569  -0.221  1.00  0.00     0.039 C 
ATOM      2  C   UNL     1     -22.930   5.676   0.808  1.00  0.00    -0.070 C 
ATOM      3  C   UNL     1     -23.006   4.325   0.629  1.00  0.00    -0.006 C 
ATOM      4  C   UNL     1     -22.459   3.657  -0.623  1.00  0.00     0.047 C 
ATOM      5  C   UNL     1     -23.253   2.391  -1.039  1.00  0.00     0.025 C 
ATOM      6  C   UNL     1     -24.595   2.656  -1.734  1.00  0.00    -0.073 C 
ATOM      7  C   UNL     1     -25.112   3.883  -1.938  1.00  0.00     0.008 C 
ATOM      8  C   UNL     1     -25.409   1.461  -2.173  1.00  0.00     0.031 C 
ATOM      9  C   UNL     1     -24.740   0.143  -1.776  1.00  0.00     0.005 C 
ATOM     10  C   UNL     1     -24.345   0.148  -0.291  1.00  0.00     0.008 C 
ATOM     11  C   UNL     1     -23.466   1.385   0.147  1.00  0.00    -0.018 C 
ATOM     12  C   UNL     1     -24.187   2.123   1.308  1.00  0.00     0.088 C 
ATOM     13  C   UNL     1     -23.510   3.408   1.686  1.00  0.00     0.159 C 
ATOM     14  O   UNL     1     -23.374   3.685   2.909  1.00  0.00    -0.295 OA
ATOM     15  C   UNL     1     -22.100   0.853   0.650  1.00  0.00     0.012 C 
ATOM     16  C   UNL     1     -23.529   6.350   2.021  1.00  0.00     0.039 C 
ENDROOT
TORSDOF 0
ENDMDL
