MODEL 1
REMARK VINA RESULT:    -4.160      0.000      0.000
REMARK INTER + INTRA:          -4.590
REMARK INTER:                  -4.524
REMARK INTRA:                  -0.065
REMARK UNBOUND:                -0.065
REMARK SMILES COc1cc2ccc(=O)oc2cc1O
REMARK SMILES IDX 3 1 13 2 12 3 11 4 5 5 4 6 6 7 7 8 8 9 9 10 10 11 2 12 1 13
REMARK SMILES IDX 14 14
REMARK H PARENT 14 15
REMARK Flexibility Score: inf
ROOT
ATOM      1  C   UNL     1      85.828  25.655  27.117  1.00  0.00     0.161 A 
ATOM      2  C   UNL     1      86.024  25.648  28.508  1.00  0.00     0.161 A 
ATOM      3  C   UNL     1      86.751  26.677  29.126  1.00  0.00     0.098 A 
ATOM      4  C   UNL     1      87.286  27.717  28.363  1.00  0.00     0.142 A 
ATOM      5  C   UNL     1      87.095  27.732  26.966  1.00  0.00     0.022 A 
ATOM      6  C   UNL     1      86.368  26.705  26.346  1.00  0.00     0.062 A 
ATOM      7  C   UNL     1      87.643  28.787  26.229  1.00  0.00     0.019 A 
ATOM      8  C   UNL     1      88.357  29.786  26.891  1.00  0.00     0.094 A 
ATOM      9  C   UNL     1      88.507  29.705  28.279  1.00  0.00     0.336 A 
ATOM     10  O   UNL     1      89.148  30.595  28.895  1.00  0.00    -0.246 OA
ATOM     11  O   UNL     1      87.975  28.690  28.956  1.00  0.00    -0.423 OA
ENDROOT
BRANCH   1  12
ATOM     12  O   UNL     1      85.095  24.607  26.541  1.00  0.00    -0.493 OA
ATOM     13  C   UNL     1      85.667  23.532  25.802  1.00  0.00     0.278 C 
ENDBRANCH   1  12
BRANCH   2  14
ATOM     14  O   UNL     1      85.490  24.611  29.271  1.00  0.00    -0.504 OA
ATOM     15  H   UNL     1      85.915  23.691  29.286  1.00  0.00     0.293 HD
ENDBRANCH   2  14
TORSDOF 2
ENDMDL
MODEL 2
REMARK VINA RESULT:    -4.128     13.944     16.333
REMARK INTER + INTRA:          -4.555
REMARK INTER:                  -4.508
REMARK INTRA:                  -0.047
REMARK UNBOUND:                -0.065
REMARK SMILES COc1cc2ccc(=O)oc2cc1O
REMARK SMILES IDX 3 1 13 2 12 3 11 4 5 5 4 6 6 7 7 8 8 9 9 10 10 11 2 12 1 13
REMARK SMILES IDX 14 14
REMARK H PARENT 14 15
REMARK Flexibility Score: inf
ROOT
ATOM      1  C   UNL     1      87.587  37.252  38.113  1.00  0.00     0.161 A 
ATOM      2  C   UNL     1      88.903  36.785  38.261  1.00  0.00     0.161 A 
ATOM      3  C   UNL     1      89.867  37.577  38.905  1.00  0.00     0.098 A 
ATOM      4  C   UNL     1      89.525  38.836  39.403  1.00  0.00     0.142 A 
ATOM      5  C   UNL     1      88.206  39.313  39.258  1.00  0.00     0.022 A 
ATOM      6  C   UNL     1      87.241  38.523  38.616  1.00  0.00     0.062 A 
ATOM      7  C   UNL     1      87.894  40.578  39.768  1.00  0.00     0.019 A 
ATOM      8  C   UNL     1      88.888  41.326  40.399  1.00  0.00     0.094 A 
ATOM      9  C   UNL     1      90.175  40.788  40.506  1.00  0.00     0.336 A 
ATOM     10  O   UNL     1      91.086  41.447  41.071  1.00  0.00    -0.246 OA
ATOM     11  O   UNL     1      90.444  39.582  40.012  1.00  0.00    -0.423 OA
ENDROOT
BRANCH   1  12
ATOM     12  O   UNL     1      86.656  36.428  37.464  1.00  0.00    -0.493 OA
ATOM     13  C   UNL     1      85.494  36.898  36.789  1.00  0.00     0.278 C 
ENDBRANCH   1  12
BRANCH   2  14
ATOM     14  O   UNL     1      89.246  35.529  37.765  1.00  0.00    -0.504 OA
ATOM     15  H   UNL     1      89.613  35.412  36.828  1.00  0.00     0.293 HD
ENDBRANCH   2  14
TORSDOF 2
ENDMDL
MODEL 3
REMARK VINA RESULT:    -4.036      1.501      4.913
REMARK INTER + INTRA:          -4.455
REMARK INTER:                  -4.409
REMARK INTRA:                  -0.046
REMARK UNBOUND:                -0.065
REMARK SMILES COc1cc2ccc(=O)oc2cc1O
REMARK SMILES IDX 3 1 13 2 12 3 11 4 5 5 4 6 6 7 7 8 8 9 9 10 10 11 2 12 1 13
REMARK SMILES IDX 14 14
REMARK H PARENT 14 15
REMARK Flexibility Score: inf
ROOT
ATOM      1  C   UNL     1      89.026  29.592  26.877  1.00  0.00     0.161 A 
ATOM      2  C   UNL     1      88.777  29.941  28.214  1.00  0.00     0.161 A 
ATOM      3  C   UNL     1      87.805  29.253  28.956  1.00  0.00     0.098 A 
ATOM      4  C   UNL     1      87.076  28.215  28.370  1.00  0.00     0.142 A 
ATOM      5  C   UNL     1      87.319  27.858  27.028  1.00  0.00     0.022 A 
ATOM      6  C   UNL     1      88.291  28.544  26.285  1.00  0.00     0.062 A 
ATOM      7  C   UNL     1      86.574  26.815  26.470  1.00  0.00     0.019 A 
ATOM      8  C   UNL     1      85.618  26.163  27.249  1.00  0.00     0.094 A 
ATOM      9  C   UNL     1      85.431  26.571  28.574  1.00  0.00     0.336 A 
ATOM     10  O   UNL     1      84.574  25.996  29.294  1.00  0.00    -0.246 OA
ATOM     11  O   UNL     1      86.154  27.567  29.080  1.00  0.00    -0.423 OA
ENDROOT
BRANCH   1  12
ATOM     12  O   UNL     1      90.008  30.306  26.173  1.00  0.00    -0.493 OA
ATOM     13  C   UNL     1      90.591  29.879  24.946  1.00  0.00     0.278 C 
ENDBRANCH   1  12
BRANCH   2  14
ATOM     14  O   UNL     1      89.503  30.976  28.801  1.00  0.00    -0.504 OA
ATOM     15  H   UNL     1      90.291  30.791  29.411  1.00  0.00     0.293 HD
ENDBRANCH   2  14
TORSDOF 2
ENDMDL
MODEL 4
REMARK VINA RESULT:    -3.995      1.296      4.917
REMARK INTER + INTRA:          -4.410
REMARK INTER:                  -4.345
REMARK INTRA:                  -0.065
REMARK UNBOUND:                -0.065
REMARK SMILES COc1cc2ccc(=O)oc2cc1O
REMARK SMILES IDX 3 1 13 2 12 3 11 4 5 5 4 6 6 7 7 8 8 9 9 10 10 11 2 12 1 13
REMARK SMILES IDX 14 14
REMARK H PARENT 14 15
REMARK Flexibility Score: inf
ROOT
ATOM      1  C   UNL     1      87.203  28.588  27.311  1.00  0.00     0.161 A 
ATOM      2  C   UNL     1      87.247  28.269  28.677  1.00  0.00     0.161 A 
ATOM      3  C   UNL     1      86.791  27.021  29.127  1.00  0.00     0.098 A 
ATOM      4  C   UNL     1      86.289  26.085  28.219  1.00  0.00     0.142 A 
ATOM      5  C   UNL     1      86.241  26.398  26.845  1.00  0.00     0.022 A 
ATOM      6  C   UNL     1      86.697  27.645  26.393  1.00  0.00     0.062 A 
ATOM      7  C   UNL     1      85.733  25.441  25.961  1.00  0.00     0.019 A 
ATOM      8  C   UNL     1      85.292  24.215  26.458  1.00  0.00     0.094 A 
ATOM      9  C   UNL     1      85.370  23.975  27.834  1.00  0.00     0.336 A 
ATOM     10  O   UNL     1      84.977  22.875  28.303  1.00  0.00    -0.246 OA
ATOM     11  O   UNL     1      85.857  24.903  28.654  1.00  0.00    -0.423 OA
ENDROOT
BRANCH   1  12
ATOM     12  O   UNL     1      87.670  29.848  26.905  1.00  0.00    -0.493 OA
ATOM     13  C   UNL     1      86.833  30.956  26.591  1.00  0.00     0.278 C 
ENDBRANCH   1  12
BRANCH   2  14
ATOM     14  O   UNL     1      87.748  29.201  29.585  1.00  0.00    -0.504 OA
ATOM     15  H   UNL     1      88.743  29.364  29.682  1.00  0.00     0.293 HD
ENDBRANCH   2  14
TORSDOF 2
ENDMDL
MODEL 5
REMARK VINA RESULT:    -3.933      1.946      2.699
REMARK INTER + INTRA:          -4.343
REMARK INTER:                  -4.280
REMARK INTRA:                  -0.062
REMARK UNBOUND:                -0.065
REMARK SMILES COc1cc2ccc(=O)oc2cc1O
REMARK SMILES IDX 3 1 13 2 12 3 11 4 5 5 4 6 6 7 7 8 8 9 9 10 10 11 2 12 1 13
REMARK SMILES IDX 14 14
REMARK H PARENT 14 15
REMARK Flexibility Score: inf
ROOT
ATOM      1  C   UNL     1      86.751  27.275  27.564  1.00  0.00     0.161 A 
ATOM      2  C   UNL     1      87.600  27.750  28.577  1.00  0.00     0.161 A 
ATOM      3  C   UNL     1      88.662  28.611  28.263  1.00  0.00     0.098 A 
ATOM      4  C   UNL     1      88.885  29.002  26.941  1.00  0.00     0.142 A 
ATOM      5  C   UNL     1      88.038  28.528  25.918  1.00  0.00     0.022 A 
ATOM      6  C   UNL     1      86.975  27.668  26.229  1.00  0.00     0.062 A 
ATOM      7  C   UNL     1      88.287  28.937  24.604  1.00  0.00     0.019 A 
ATOM      8  C   UNL     1      89.356  29.794  24.344  1.00  0.00     0.094 A 
ATOM      9  C   UNL     1      90.155  30.223  25.409  1.00  0.00     0.336 A 
ATOM     10  O   UNL     1      91.125  30.996  25.196  1.00  0.00    -0.246 OA
ATOM     11  O   UNL     1      89.896  29.818  26.650  1.00  0.00    -0.423 OA
ENDROOT
BRANCH   1  12
ATOM     12  O   UNL     1      85.700  26.416  27.923  1.00  0.00    -0.493 OA
ATOM     13  C   UNL     1      85.746  24.997  27.818  1.00  0.00     0.278 C 
ENDBRANCH   1  12
BRANCH   2  14
ATOM     14  O   UNL     1      87.379  27.362  29.897  1.00  0.00    -0.504 OA
ATOM     15  H   UNL     1      86.483  27.000  30.200  1.00  0.00     0.293 HD
ENDBRANCH   2  14
TORSDOF 2
ENDMDL
MODEL 6
REMARK VINA RESULT:    -3.862      4.030      5.539
REMARK INTER + INTRA:          -4.265
REMARK INTER:                  -4.206
REMARK INTRA:                  -0.059
REMARK UNBOUND:                -0.065
REMARK SMILES COc1cc2ccc(=O)oc2cc1O
REMARK SMILES IDX 3 1 13 2 12 3 11 4 5 5 4 6 6 7 7 8 8 9 9 10 10 11 2 12 1 13
REMARK SMILES IDX 14 14
REMARK H PARENT 14 15
REMARK Flexibility Score: inf
ROOT
ATOM      1  C   UNL     1      85.591  31.489  28.881  1.00  0.00     0.161 A 
ATOM      2  C   UNL     1      85.506  31.631  27.487  1.00  0.00     0.161 A 
ATOM      3  C   UNL     1      86.460  31.025  26.654  1.00  0.00     0.098 A 
ATOM      4  C   UNL     1      87.502  30.276  27.206  1.00  0.00     0.142 A 
ATOM      5  C   UNL     1      87.595  30.129  28.606  1.00  0.00     0.022 A 
ATOM      6  C   UNL     1      86.642  30.733  29.439  1.00  0.00     0.062 A 
ATOM      7  C   UNL     1      88.649  29.373  29.128  1.00  0.00     0.019 A 
ATOM      8  C   UNL     1      89.571  28.791  28.258  1.00  0.00     0.094 A 
ATOM      9  C   UNL     1      89.416  28.980  26.881  1.00  0.00     0.336 A 
ATOM     10  O   UNL     1      90.237  28.463  26.079  1.00  0.00    -0.246 OA
ATOM     11  O   UNL     1      88.403  29.704  26.410  1.00  0.00    -0.423 OA
ENDROOT
BRANCH   1  12
ATOM     12  O   UNL     1      84.616  32.112  29.675  1.00  0.00    -0.493 OA
ATOM     13  C   UNL     1      84.893  33.083  30.679  1.00  0.00     0.278 C 
ENDBRANCH   1  12
BRANCH   2  14
ATOM     14  O   UNL     1      84.467  32.377  26.934  1.00  0.00    -0.504 OA
ATOM     15  H   UNL     1      83.785  31.958  26.314  1.00  0.00     0.293 HD
ENDBRANCH   2  14
TORSDOF 2
ENDMDL
MODEL 7
REMARK VINA RESULT:    -3.850      1.433      2.575
REMARK INTER + INTRA:          -4.253
REMARK INTER:                  -4.200
REMARK INTRA:                  -0.053
REMARK UNBOUND:                -0.065
REMARK SMILES COc1cc2ccc(=O)oc2cc1O
REMARK SMILES IDX 3 1 13 2 12 3 11 4 5 5 4 6 6 7 7 8 8 9 9 10 10 11 2 12 1 13
REMARK SMILES IDX 14 14
REMARK H PARENT 14 15
REMARK Flexibility Score: inf
ROOT
ATOM      1  C   UNL     1      85.735  26.128  28.415  1.00  0.00     0.161 A 
ATOM      2  C   UNL     1      85.703  26.137  27.012  1.00  0.00     0.161 A 
ATOM      3  C   UNL     1      86.553  26.989  26.290  1.00  0.00     0.098 A 
ATOM      4  C   UNL     1      87.438  27.835  26.962  1.00  0.00     0.142 A 
ATOM      5  C   UNL     1      87.476  27.833  28.372  1.00  0.00     0.022 A 
ATOM      6  C   UNL     1      86.628  26.982  29.095  1.00  0.00     0.062 A 
ATOM      7  C   UNL     1      88.373  28.691  29.015  1.00  0.00     0.019 A 
ATOM      8  C   UNL     1      89.197  29.519  28.253  1.00  0.00     0.094 A 
ATOM      9  C   UNL     1      89.104  29.467  26.858  1.00  0.00     0.336 A 
ATOM     10  O   UNL     1      89.838  30.206  26.152  1.00  0.00    -0.246 OA
ATOM     11  O   UNL     1      88.242  28.641  26.271  1.00  0.00    -0.423 OA
ENDROOT
BRANCH   1  12
ATOM     12  O   UNL     1      84.868  25.260  29.097  1.00  0.00    -0.493 OA
ATOM     13  C   UNL     1      83.579  25.623  29.581  1.00  0.00     0.278 C 
ENDBRANCH   1  12
BRANCH   2  14
ATOM     14  O   UNL     1      84.822  25.293  26.339  1.00  0.00    -0.504 OA
ATOM     15  H   UNL     1      84.890  25.143  25.340  1.00  0.00     0.293 HD
ENDBRANCH   2  14
TORSDOF 2
ENDMDL
MODEL 8
REMARK VINA RESULT:    -3.824      1.853      2.381
REMARK INTER + INTRA:          -4.224
REMARK INTER:                  -4.160
REMARK INTRA:                  -0.064
REMARK UNBOUND:                -0.065
REMARK SMILES COc1cc2ccc(=O)oc2cc1O
REMARK SMILES IDX 3 1 13 2 12 3 11 4 5 5 4 6 6 7 7 8 8 9 9 10 10 11 2 12 1 13
REMARK SMILES IDX 14 14
REMARK H PARENT 14 15
REMARK Flexibility Score: inf
ROOT
ATOM      1  C   UNL     1      84.576  26.427  28.772  1.00  0.00     0.161 A 
ATOM      2  C   UNL     1      85.841  25.825  28.861  1.00  0.00     0.161 A 
ATOM      3  C   UNL     1      87.000  26.615  28.886  1.00  0.00     0.098 A 
ATOM      4  C   UNL     1      86.905  28.007  28.821  1.00  0.00     0.142 A 
ATOM      5  C   UNL     1      85.638  28.620  28.731  1.00  0.00     0.022 A 
ATOM      6  C   UNL     1      84.478  27.832  28.707  1.00  0.00     0.062 A 
ATOM      7  C   UNL     1      85.576  30.015  28.667  1.00  0.00     0.019 A 
ATOM      8  C   UNL     1      86.757  30.756  28.695  1.00  0.00     0.094 A 
ATOM      9  C   UNL     1      87.979  30.079  28.786  1.00  0.00     0.336 A 
ATOM     10  O   UNL     1      89.056  30.729  28.812  1.00  0.00    -0.246 OA
ATOM     11  O   UNL     1      88.010  28.750  28.844  1.00  0.00    -0.423 OA
ENDROOT
BRANCH   1  12
ATOM     12  O   UNL     1      83.443  25.599  28.751  1.00  0.00    -0.493 OA
ATOM     13  C   UNL     1      82.622  25.326  29.882  1.00  0.00     0.278 C 
ENDBRANCH   1  12
BRANCH   2  14
ATOM     14  O   UNL     1      85.938  24.436  28.927  1.00  0.00    -0.504 OA
ATOM     15  H   UNL     1      86.445  23.907  28.227  1.00  0.00     0.293 HD
ENDBRANCH   2  14
TORSDOF 2
ENDMDL
MODEL 9
REMARK VINA RESULT:    -3.798      9.254     11.842
REMARK INTER + INTRA:          -4.197
REMARK INTER:                  -4.152
REMARK INTRA:                  -0.045
REMARK UNBOUND:                -0.065
REMARK SMILES COc1cc2ccc(=O)oc2cc1O
REMARK SMILES IDX 3 1 13 2 12 3 11 4 5 5 4 6 6 7 7 8 8 9 9 10 10 11 2 12 1 13
REMARK SMILES IDX 14 14
REMARK H PARENT 14 15
REMARK Flexibility Score: inf
ROOT
ATOM      1  C   UNL     1      84.950  39.018  30.454  1.00  0.00     0.161 A 
ATOM      2  C   UNL     1      86.293  38.977  30.863  1.00  0.00     0.161 A 
ATOM      3  C   UNL     1      86.798  37.844  31.519  1.00  0.00     0.098 A 
ATOM      4  C   UNL     1      85.969  36.748  31.771  1.00  0.00     0.142 A 
ATOM      5  C   UNL     1      84.619  36.782  31.364  1.00  0.00     0.022 A 
ATOM      6  C   UNL     1      84.113  37.913  30.707  1.00  0.00     0.062 A 
ATOM      7  C   UNL     1      83.814  35.669  31.630  1.00  0.00     0.019 A 
ATOM      8  C   UNL     1      84.364  34.567  32.285  1.00  0.00     0.094 A 
ATOM      9  C   UNL     1      85.711  34.605  32.660  1.00  0.00     0.336 A 
ATOM     10  O   UNL     1      86.226  33.621  33.252  1.00  0.00    -0.246 OA
ATOM     11  O   UNL     1      86.454  35.676  32.395  1.00  0.00    -0.423 OA
ENDROOT
BRANCH   1  12
ATOM     12  O   UNL     1      84.488  40.171  29.801  1.00  0.00    -0.493 OA
ATOM     13  C   UNL     1      83.167  40.336  29.294  1.00  0.00     0.278 C 
ENDBRANCH   1  12
BRANCH   2  14
ATOM     14  O   UNL     1      87.122  40.069  30.613  1.00  0.00    -0.504 OA
ATOM     15  H   UNL     1      87.385  40.713  31.349  1.00  0.00     0.293 HD
ENDBRANCH   2  14
TORSDOF 2
ENDMDL
