MODEL 1
REMARK VINA RESULT:    -3.514      0.000      0.000
REMARK INTER + INTRA:          -5.946
REMARK INTER:                  -4.747
REMARK INTRA:                  -1.199
REMARK UNBOUND:                -1.199
REMARK SMILES CC(=O)CCC=C(C)CCC=C(C)C
REMARK SMILES IDX 7 1 6 2 8 3 9 4 10 5 11 6 13 7 12 8 14 9 5 10 4 11 2 12 3 13
REMARK SMILES IDX 1 14
REMARK H PARENT
REMARK Flexibility Score: inf
ROOT
ATOM      1  C   UNL     1      61.325  15.828   0.743  1.00  0.00    -0.077 C 
ATOM      2  C   UNL     1      60.423  16.665   0.182  1.00  0.00    -0.028 C 
ATOM      3  C   UNL     1      60.885  14.433   1.100  1.00  0.00     0.039 C 
ENDROOT
BRANCH   1   4
ATOM      4  C   UNL     1      62.769  16.225   0.983  1.00  0.00     0.034 C 
BRANCH   4   5
ATOM      5  C   UNL     1      63.719  15.319   0.193  1.00  0.00     0.032 C 
BRANCH   5   6
ATOM      6  C   UNL     1      63.766  15.724  -1.260  1.00  0.00    -0.028 C 
ATOM      7  C   UNL     1      63.400  15.518  -3.680  1.00  0.00     0.039 C 
ATOM      8  C   UNL     1      63.300  14.970  -2.280  1.00  0.00    -0.080 C 
ATOM      9  C   UNL     1      62.703  13.599  -2.058  1.00  0.00     0.039 C 
ENDBRANCH   5   6
ENDBRANCH   4   5
ENDBRANCH   1   4
BRANCH   2  10
ATOM     10  C   UNL     1      60.739  18.086  -0.226  1.00  0.00     0.035 C 
BRANCH  10  11
ATOM     11  C   UNL     1      59.803  19.102   0.441  1.00  0.00     0.079 C 
BRANCH  11  12
ATOM     12  C   UNL     1      60.482  19.838   1.567  1.00  0.00     0.130 C 
ATOM     13  O   UNL     1      60.836  20.997   1.409  1.00  0.00    -0.300 OA
ATOM     14  C   UNL     1      60.759  19.148   2.870  1.00  0.00     0.087 C 
ENDBRANCH  11  12
ENDBRANCH  10  11
ENDBRANCH   2  10
TORSDOF 6
ENDMDL
MODEL 2
REMARK VINA RESULT:    -3.429      3.864      6.286
REMARK INTER + INTRA:          -5.830
REMARK INTER:                  -4.684
REMARK INTRA:                  -1.147
REMARK UNBOUND:                -1.199
REMARK SMILES CC(=O)CCC=C(C)CCC=C(C)C
REMARK SMILES IDX 7 1 6 2 8 3 9 4 10 5 11 6 13 7 12 8 14 9 5 10 4 11 2 12 3 13
REMARK SMILES IDX 1 14
REMARK H PARENT
REMARK Flexibility Score: inf
ROOT
ATOM      1  C   UNL     1      62.696  14.724  -2.086  1.00  0.00    -0.077 C 
ATOM      2  C   UNL     1      63.124  13.473  -1.803  1.00  0.00    -0.028 C 
ATOM      3  C   UNL     1      63.195  15.386  -3.344  1.00  0.00     0.039 C 
ENDROOT
BRANCH   1   4
ATOM      4  C   UNL     1      61.703  15.465  -1.213  1.00  0.00     0.034 C 
BRANCH   4   5
ATOM      5  C   UNL     1      62.374  16.653  -0.515  1.00  0.00     0.032 C 
BRANCH   5   6
ATOM      6  C   UNL     1      63.319  16.182   0.562  1.00  0.00    -0.028 C 
ATOM      7  C   UNL     1      65.479  15.780   1.661  1.00  0.00     0.039 C 
ATOM      8  C   UNL     1      64.666  16.278   0.495  1.00  0.00    -0.080 C 
ATOM      9  C   UNL     1      65.370  16.851  -0.714  1.00  0.00     0.039 C 
ENDBRANCH   5   6
ENDBRANCH   4   5
ENDBRANCH   1   4
BRANCH   2  10
ATOM     10  C   UNL     1      62.697  12.698  -0.578  1.00  0.00     0.035 C 
BRANCH  10  11
ATOM     11  C   UNL     1      61.394  11.921  -0.809  1.00  0.00     0.079 C 
BRANCH  11  12
ATOM     12  C   UNL     1      61.529  10.917  -1.926  1.00  0.00     0.130 C 
ATOM     13  O   UNL     1      62.432  10.095  -1.897  1.00  0.00    -0.300 OA
ATOM     14  C   UNL     1      60.584  10.943  -3.090  1.00  0.00     0.087 C 
ENDBRANCH  11  12
ENDBRANCH  10  11
ENDBRANCH   2  10
TORSDOF 6
ENDMDL
MODEL 3
REMARK VINA RESULT:    -3.409      1.500      3.089
REMARK INTER + INTRA:          -5.803
REMARK INTER:                  -4.633
REMARK INTRA:                  -1.170
REMARK UNBOUND:                -1.199
REMARK SMILES CC(=O)CCC=C(C)CCC=C(C)C
REMARK SMILES IDX 7 1 6 2 8 3 9 4 10 5 11 6 13 7 12 8 14 9 5 10 4 11 2 12 3 13
REMARK SMILES IDX 1 14
REMARK H PARENT
REMARK Flexibility Score: inf
ROOT
ATOM      1  C   UNL     1      63.612  15.923  -0.720  1.00  0.00    -0.077 C 
ATOM      2  C   UNL     1      62.619  16.531  -0.031  1.00  0.00    -0.028 C 
ATOM      3  C   UNL     1      64.975  15.834  -0.087  1.00  0.00     0.039 C 
ENDROOT
BRANCH   1   4
ATOM      4  C   UNL     1      63.393  15.290  -2.081  1.00  0.00     0.034 C 
BRANCH   4   5
ATOM      5  C   UNL     1      63.271  13.768  -1.958  1.00  0.00     0.032 C 
BRANCH   5   6
ATOM      6  C   UNL     1      61.829  13.333  -2.038  1.00  0.00    -0.028 C 
ATOM      7  C   UNL     1      59.642  12.581  -1.210  1.00  0.00     0.039 C 
ATOM      8  C   UNL     1      61.077  12.975  -0.973  1.00  0.00    -0.080 C 
ATOM      9  C   UNL     1      61.637  12.941   0.430  1.00  0.00     0.039 C 
ENDBRANCH   5   6
ENDBRANCH   4   5
ENDBRANCH   1   4
BRANCH   2  10
ATOM     10  C   UNL     1      61.209  16.682  -0.551  1.00  0.00     0.035 C 
BRANCH  10  11
ATOM     11  C   UNL     1      60.244  17.187   0.529  1.00  0.00     0.079 C 
BRANCH  11  12
ATOM     12  C   UNL     1      59.787  18.598   0.261  1.00  0.00     0.130 C 
ATOM     13  O   UNL     1      60.580  19.420  -0.174  1.00  0.00    -0.300 OA
ATOM     14  C   UNL     1      58.376  19.011   0.557  1.00  0.00     0.087 C 
ENDBRANCH  11  12
ENDBRANCH  10  11
ENDBRANCH   2  10
TORSDOF 6
ENDMDL
MODEL 4
REMARK VINA RESULT:    -3.226      2.496      6.057
REMARK INTER + INTRA:          -5.556
REMARK INTER:                  -4.698
REMARK INTRA:                  -0.858
REMARK UNBOUND:                -1.199
REMARK SMILES CC(=O)CCC=C(C)CCC=C(C)C
REMARK SMILES IDX 7 1 6 2 8 3 9 4 10 5 11 6 13 7 12 8 14 9 5 10 4 11 2 12 3 13
REMARK SMILES IDX 1 14
REMARK H PARENT
REMARK Flexibility Score: inf
ROOT
ATOM      1  C   UNL     1      61.767  16.676   1.155  1.00  0.00    -0.077 C 
ATOM      2  C   UNL     1      63.062  16.399   0.882  1.00  0.00    -0.028 C 
ATOM      3  C   UNL     1      61.336  16.749   2.596  1.00  0.00     0.039 C 
ENDROOT
BRANCH   1   4
ATOM      4  C   UNL     1      60.745  16.959   0.070  1.00  0.00     0.034 C 
BRANCH   4   5
ATOM      5  C   UNL     1      60.571  18.468  -0.131  1.00  0.00     0.032 C 
BRANCH   5   6
ATOM      6  C   UNL     1      59.331  18.966   0.567  1.00  0.00    -0.028 C 
ATOM      7  C   UNL     1      58.002  20.299   2.146  1.00  0.00     0.039 C 
ATOM      8  C   UNL     1      59.326  19.886   1.557  1.00  0.00    -0.080 C 
ATOM      9  C   UNL     1      60.601  20.493   2.094  1.00  0.00     0.039 C 
ENDBRANCH   5   6
ENDBRANCH   4   5
ENDBRANCH   1   4
BRANCH   2  10
ATOM     10  C   UNL     1      63.621  16.302  -0.519  1.00  0.00     0.035 C 
BRANCH  10  11
ATOM     11  C   UNL     1      63.791  14.847  -0.975  1.00  0.00     0.079 C 
BRANCH  11  12
ATOM     12  C   UNL     1      63.099  14.585  -2.288  1.00  0.00     0.130 C 
ATOM     13  O   UNL     1      62.305  13.661  -2.382  1.00  0.00    -0.300 OA
ATOM     14  C   UNL     1      63.404  15.428  -3.491  1.00  0.00     0.087 C 
ENDBRANCH  11  12
ENDBRANCH  10  11
ENDBRANCH   2  10
TORSDOF 6
ENDMDL
MODEL 5
REMARK VINA RESULT:    -3.196      3.173      5.174
REMARK INTER + INTRA:          -5.516
REMARK INTER:                  -3.992
REMARK INTRA:                  -1.524
REMARK UNBOUND:                -1.199
REMARK SMILES CC(=O)CCC=C(C)CCC=C(C)C
REMARK SMILES IDX 7 1 6 2 8 3 9 4 10 5 11 6 13 7 12 8 14 9 5 10 4 11 2 12 3 13
REMARK SMILES IDX 1 14
REMARK H PARENT
REMARK Flexibility Score: inf
ROOT
ATOM      1  C   UNL     1      62.485  14.606  -2.010  1.00  0.00    -0.077 C 
ATOM      2  C   UNL     1      62.636  13.277  -1.804  1.00  0.00    -0.028 C 
ATOM      3  C   UNL     1      63.237  15.247  -3.146  1.00  0.00     0.039 C 
ENDROOT
BRANCH   1   4
ATOM      4  C   UNL     1      61.554  15.461  -1.173  1.00  0.00     0.034 C 
BRANCH   4   5
ATOM      5  C   UNL     1      62.328  16.587  -0.480  1.00  0.00     0.032 C 
BRANCH   5   6
ATOM      6  C   UNL     1      63.273  16.034   0.558  1.00  0.00    -0.028 C 
ATOM      7  C   UNL     1      65.431  15.548   1.625  1.00  0.00     0.039 C 
ATOM      8  C   UNL     1      64.619  16.135   0.500  1.00  0.00    -0.080 C 
ATOM      9  C   UNL     1      65.325  16.798  -0.660  1.00  0.00     0.039 C 
ENDBRANCH   5   6
ENDBRANCH   4   5
ENDBRANCH   1   4
BRANCH   2  10
ATOM     10  C   UNL     1      61.935  12.514  -0.705  1.00  0.00     0.035 C 
BRANCH  10  11
ATOM     11  C   UNL     1      62.839  12.296   0.516  1.00  0.00     0.079 C 
BRANCH  11  12
ATOM     12  C   UNL     1      62.264  12.923   1.760  1.00  0.00     0.130 C 
ATOM     13  O   UNL     1      62.971  13.073   2.746  1.00  0.00    -0.300 OA
ATOM     14  C   UNL     1      60.822  13.333   1.810  1.00  0.00     0.087 C 
ENDBRANCH  11  12
ENDBRANCH  10  11
ENDBRANCH   2  10
TORSDOF 6
ENDMDL
MODEL 6
REMARK VINA RESULT:    -3.186      2.463      5.007
REMARK INTER + INTRA:          -5.502
REMARK INTER:                  -3.750
REMARK INTRA:                  -1.753
REMARK UNBOUND:                -1.199
REMARK SMILES CC(=O)CCC=C(C)CCC=C(C)C
REMARK SMILES IDX 7 1 6 2 8 3 9 4 10 5 11 6 13 7 12 8 14 9 5 10 4 11 2 12 3 13
REMARK SMILES IDX 1 14
REMARK H PARENT
REMARK Flexibility Score: inf
ROOT
ATOM      1  C   UNL     1      63.165  14.528  -2.214  1.00  0.00    -0.077 C 
ATOM      2  C   UNL     1      62.159  13.626  -2.262  1.00  0.00    -0.028 C 
ATOM      3  C   UNL     1      63.450  15.351  -3.443  1.00  0.00     0.039 C 
ENDROOT
BRANCH   1   4
ATOM      4  C   UNL     1      63.983  14.774  -0.962  1.00  0.00     0.034 C 
BRANCH   4   5
ATOM      5  C   UNL     1      63.938  16.254  -0.565  1.00  0.00     0.032 C 
BRANCH   5   6
ATOM      6  C   UNL     1      63.184  16.443   0.727  1.00  0.00    -0.028 C 
ATOM      7  C   UNL     1      61.256  16.907   2.177  1.00  0.00     0.039 C 
ATOM      8  C   UNL     1      61.876  16.771   0.810  1.00  0.00    -0.080 C 
ATOM      9  C   UNL     1      61.031  17.019  -0.418  1.00  0.00     0.039 C 
ENDBRANCH   5   6
ENDBRANCH   4   5
ENDBRANCH   1   4
BRANCH   2  10
ATOM     10  C   UNL     1      61.769  12.743  -1.099  1.00  0.00     0.035 C 
BRANCH  10  11
ATOM     11  C   UNL     1      60.508  13.248  -0.385  1.00  0.00     0.079 C 
BRANCH  11  12
ATOM     12  C   UNL     1      60.698  13.318   1.109  1.00  0.00     0.130 C 
ATOM     13  O   UNL     1      59.765  13.653   1.824  1.00  0.00    -0.300 OA
ATOM     14  C   UNL     1      62.033  13.016   1.722  1.00  0.00     0.087 C 
ENDBRANCH  11  12
ENDBRANCH  10  11
ENDBRANCH   2  10
TORSDOF 6
ENDMDL
MODEL 7
REMARK VINA RESULT:    -3.078      2.305      5.570
REMARK INTER + INTRA:          -5.357
REMARK INTER:                  -4.434
REMARK INTRA:                  -0.923
REMARK UNBOUND:                -1.199
REMARK SMILES CC(=O)CCC=C(C)CCC=C(C)C
REMARK SMILES IDX 7 1 6 2 8 3 9 4 10 5 11 6 13 7 12 8 14 9 5 10 4 11 2 12 3 13
REMARK SMILES IDX 1 14
REMARK H PARENT
REMARK Flexibility Score: inf
ROOT
ATOM      1  C   UNL     1      60.657  16.225   0.112  1.00  0.00    -0.077 C 
ATOM      2  C   UNL     1      61.216  15.409  -0.811  1.00  0.00    -0.028 C 
ATOM      3  C   UNL     1      59.392  15.776   0.796  1.00  0.00     0.039 C 
ENDROOT
BRANCH   1   4
ATOM      4  C   UNL     1      61.277  17.549   0.515  1.00  0.00     0.034 C 
BRANCH   4   5
ATOM      5  C   UNL     1      60.500  18.720  -0.094  1.00  0.00     0.032 C 
BRANCH   5   6
ATOM      6  C   UNL     1      60.240  19.790   0.938  1.00  0.00    -0.028 C 
ATOM      7  C   UNL     1      58.953  21.085   2.582  1.00  0.00     0.039 C 
ATOM      8  C   UNL     1      59.054  19.985   1.557  1.00  0.00    -0.080 C 
ATOM      9  C   UNL     1      57.836  19.150   1.238  1.00  0.00     0.039 C 
ENDBRANCH   5   6
ENDBRANCH   4   5
ENDBRANCH   1   4
BRANCH   2  10
ATOM     10  C   UNL     1      62.484  15.740  -1.563  1.00  0.00     0.035 C 
BRANCH  10  11
ATOM     11  C   UNL     1      63.724  15.111  -0.914  1.00  0.00     0.079 C 
BRANCH  11  12
ATOM     12  C   UNL     1      64.708  16.154  -0.453  1.00  0.00     0.130 C 
ATOM     13  O   UNL     1      65.334  16.805  -1.277  1.00  0.00    -0.300 OA
ATOM     14  C   UNL     1      64.953  16.376   1.010  1.00  0.00     0.087 C 
ENDBRANCH  11  12
ENDBRANCH  10  11
ENDBRANCH   2  10
TORSDOF 6
ENDMDL
MODEL 8
REMARK VINA RESULT:    -3.055      2.853      4.948
REMARK INTER + INTRA:          -5.325
REMARK INTER:                  -3.632
REMARK INTRA:                  -1.692
REMARK UNBOUND:                -1.199
REMARK SMILES CC(=O)CCC=C(C)CCC=C(C)C
REMARK SMILES IDX 7 1 6 2 8 3 9 4 10 5 11 6 13 7 12 8 14 9 5 10 4 11 2 12 3 13
REMARK SMILES IDX 1 14
REMARK H PARENT
REMARK Flexibility Score: inf
ROOT
ATOM      1  C   UNL     1      62.372  12.211  -1.463  1.00  0.00    -0.077 C 
ATOM      2  C   UNL     1      63.218  13.264  -1.541  1.00  0.00    -0.028 C 
ATOM      3  C   UNL     1      62.715  11.083  -0.525  1.00  0.00     0.039 C 
ENDROOT
BRANCH   1   4
ATOM      4  C   UNL     1      61.076  12.145  -2.246  1.00  0.00     0.034 C 
BRANCH   4   5
ATOM      5  C   UNL     1      59.870  12.143  -1.300  1.00  0.00     0.032 C 
BRANCH   5   6
ATOM      6  C   UNL     1      59.465  13.550  -0.940  1.00  0.00    -0.028 C 
ATOM      7  C   UNL     1      59.249  15.555   0.464  1.00  0.00     0.039 C 
ATOM      8  C   UNL     1      59.697  14.131   0.259  1.00  0.00    -0.080 C 
ATOM      9  C   UNL     1      60.372  13.392   1.391  1.00  0.00     0.039 C 
ENDBRANCH   5   6
ENDBRANCH   4   5
ENDBRANCH   1   4
BRANCH   2  10
ATOM     10  C   UNL     1      62.988  14.459  -2.437  1.00  0.00     0.035 C 
BRANCH  10  11
ATOM     11  C   UNL     1      62.467  15.675  -1.660  1.00  0.00     0.079 C 
BRANCH  11  12
ATOM     12  C   UNL     1      63.419  16.095  -0.569  1.00  0.00     0.130 C 
ATOM     13  O   UNL     1      64.564  16.413  -0.852  1.00  0.00    -0.300 OA
ATOM     14  C   UNL     1      62.982  16.091   0.866  1.00  0.00     0.087 C 
ENDBRANCH  11  12
ENDBRANCH  10  11
ENDBRANCH   2  10
TORSDOF 6
ENDMDL
MODEL 9
REMARK VINA RESULT:    -3.027      1.417      2.723
REMARK INTER + INTRA:          -5.287
REMARK INTER:                  -4.063
REMARK INTRA:                  -1.224
REMARK UNBOUND:                -1.199
REMARK SMILES CC(=O)CCC=C(C)CCC=C(C)C
REMARK SMILES IDX 7 1 6 2 8 3 9 4 10 5 11 6 13 7 12 8 14 9 5 10 4 11 2 12 3 13
REMARK SMILES IDX 1 14
REMARK H PARENT
REMARK Flexibility Score: inf
ROOT
ATOM      1  C   UNL     1      61.620  15.061  -1.119  1.00  0.00    -0.077 C 
ATOM      2  C   UNL     1      60.884  15.956  -0.421  1.00  0.00    -0.028 C 
ATOM      3  C   UNL     1      61.233  13.607  -1.055  1.00  0.00     0.039 C 
ENDROOT
BRANCH   1   4
ATOM      4  C   UNL     1      62.787  15.471  -1.996  1.00  0.00     0.034 C 
BRANCH   4   5
ATOM      5  C   UNL     1      64.112  14.991  -1.394  1.00  0.00     0.032 C 
BRANCH   5   6
ATOM      6  C   UNL     1      64.700  16.038  -0.480  1.00  0.00    -0.028 C 
ATOM      7  C   UNL     1      65.356  17.074   1.648  1.00  0.00     0.039 C 
ATOM      8  C   UNL     1      64.714  15.956   0.869  1.00  0.00    -0.080 C 
ATOM      9  C   UNL     1      64.094  14.793   1.609  1.00  0.00     0.039 C 
ENDBRANCH   5   6
ENDBRANCH   4   5
ENDBRANCH   1   4
BRANCH   2  10
ATOM     10  C   UNL     1      61.164  17.440  -0.405  1.00  0.00     0.035 C 
BRANCH  10  11
ATOM     11  C   UNL     1      60.861  18.072   0.960  1.00  0.00     0.079 C 
BRANCH  11  12
ATOM     12  C   UNL     1      59.974  19.284   0.834  1.00  0.00     0.130 C 
ATOM     13  O   UNL     1      60.458  20.403   0.921  1.00  0.00    -0.300 OA
ATOM     14  C   UNL     1      58.495  19.128   0.639  1.00  0.00     0.087 C 
ENDBRANCH  11  12
ENDBRANCH  10  11
ENDBRANCH   2  10
TORSDOF 6
ENDMDL
