MODEL 1
REMARK VINA RESULT:    -3.320      0.000      0.000
REMARK INTER + INTRA:          -5.325
REMARK INTER:                  -4.873
REMARK INTRA:                  -0.453
REMARK UNBOUND:                -0.453
REMARK SMILES O=C([O-])CCCCCCCC(=O)[O-]
REMARK SMILES IDX 7 1 6 2 5 3 4 4 2 5 1 6 3 7 8 8 9 9 10 10 11 11 12 12 13 13
REMARK H PARENT
REMARK Flexibility Score: inf
ROOT
ATOM      1  C   UNL     1      71.779  31.271  58.988  1.00  0.00     0.000 C 
ENDROOT
BRANCH   1   2
ATOM      2  C   UNL     1      72.761  30.194  59.481  1.00  0.00     0.000 C 
BRANCH   2   3
ATOM      3  C   UNL     1      72.824  30.104  61.014  1.00  0.00     0.006 C 
BRANCH   3   4
ATOM      4  C   UNL     1      72.479  28.691  61.492  1.00  0.00     0.053 C 
BRANCH   4   5
ATOM      5  C   UNL     1      71.114  28.297  61.019  1.00  0.00     0.041 C 
ATOM      6  O   UNL     1      70.978  27.360  60.190  1.00  0.00    -0.550 OA
ATOM      7  O   UNL     1      69.998  28.998  61.457  1.00  0.00    -0.550 OA
ENDBRANCH   4   5
ENDBRANCH   3   4
ENDBRANCH   2   3
ENDBRANCH   1   2
BRANCH   1   8
ATOM      8  C   UNL     1      71.295  32.191  60.123  1.00  0.00     0.000 C 
BRANCH   8   9
ATOM      9  C   UNL     1      70.915  33.594  59.621  1.00  0.00     0.006 C 
BRANCH   9  10
ATOM     10  C   UNL     1      70.232  33.567  58.248  1.00  0.00     0.053 C 
BRANCH  10  11
ATOM     11  C   UNL     1      69.616  34.897  57.946  1.00  0.00     0.041 C 
ATOM     12  O   UNL     1      68.369  35.050  58.020  1.00  0.00    -0.550 OA
ATOM     13  O   UNL     1      70.418  35.957  57.536  1.00  0.00    -0.550 OA
ENDBRANCH  10  11
ENDBRANCH   9  10
ENDBRANCH   8   9
ENDBRANCH   1   8
TORSDOF 8
ENDMDL
MODEL 2
REMARK VINA RESULT:    -3.295      1.728      2.547
REMARK INTER + INTRA:          -5.289
REMARK INTER:                  -4.602
REMARK INTRA:                  -0.687
REMARK UNBOUND:                -0.453
REMARK SMILES O=C([O-])CCCCCCCC(=O)[O-]
REMARK SMILES IDX 7 1 6 2 5 3 4 4 2 5 1 6 3 7 8 8 9 9 10 10 11 11 12 12 13 13
REMARK H PARENT
REMARK Flexibility Score: inf
ROOT
ATOM      1  C   UNL     1      72.769  29.014  58.153  1.00  0.00     0.000 C 
ENDROOT
BRANCH   1   2
ATOM      2  C   UNL     1      73.004  29.444  59.612  1.00  0.00     0.000 C 
BRANCH   2   3
ATOM      3  C   UNL     1      72.435  28.440  60.626  1.00  0.00     0.006 C 
BRANCH   3   4
ATOM      4  C   UNL     1      71.216  29.024  61.346  1.00  0.00     0.053 C 
BRANCH   4   5
ATOM      5  C   UNL     1      69.971  28.299  60.940  1.00  0.00     0.041 C 
ATOM      6  O   UNL     1      68.947  28.340  61.671  1.00  0.00    -0.550 OA
ATOM      7  O   UNL     1      69.957  27.539  59.777  1.00  0.00    -0.550 OA
ENDBRANCH   4   5
ENDBRANCH   3   4
ENDBRANCH   2   3
ENDBRANCH   1   2
BRANCH   1   8
ATOM      8  C   UNL     1      72.096  30.115  57.315  1.00  0.00     0.000 C 
BRANCH   8   9
ATOM      9  C   UNL     1      70.958  30.820  58.074  1.00  0.00     0.006 C 
BRANCH   9  10
ATOM     10  C   UNL     1      70.948  32.338  57.848  1.00  0.00     0.053 C 
BRANCH  10  11
ATOM     11  C   UNL     1      70.865  33.058  59.157  1.00  0.00     0.041 C 
ATOM     12  O   UNL     1      70.410  34.231  59.207  1.00  0.00    -0.550 OA
ATOM     13  O   UNL     1      71.336  32.451  60.315  1.00  0.00    -0.550 OA
ENDBRANCH  10  11
ENDBRANCH   9  10
ENDBRANCH   8   9
ENDBRANCH   1   8
TORSDOF 8
ENDMDL
MODEL 3
REMARK VINA RESULT:    -3.261      7.541      8.350
REMARK INTER + INTRA:          -5.239
REMARK INTER:                  -4.824
REMARK INTRA:                  -0.415
REMARK UNBOUND:                -0.453
REMARK SMILES O=C([O-])CCCCCCCC(=O)[O-]
REMARK SMILES IDX 7 1 6 2 5 3 4 4 2 5 1 6 3 7 8 8 9 9 10 10 11 11 12 12 13 13
REMARK H PARENT
REMARK Flexibility Score: inf
ROOT
ATOM      1  C   UNL     1      64.171  31.550  60.287  1.00  0.00     0.000 C 
ENDROOT
BRANCH   1   2
ATOM      2  C   UNL     1      64.646  30.183  59.767  1.00  0.00     0.000 C 
BRANCH   2   3
ATOM      3  C   UNL     1      64.060  29.008  60.564  1.00  0.00     0.006 C 
BRANCH   3   4
ATOM      4  C   UNL     1      62.694  29.374  61.151  1.00  0.00     0.053 C 
BRANCH   4   5
ATOM      5  C   UNL     1      61.593  28.839  60.289  1.00  0.00     0.041 C 
ATOM      6  O   UNL     1      60.428  29.305  60.390  1.00  0.00    -0.550 OA
ATOM      7  O   UNL     1      61.844  27.795  59.409  1.00  0.00    -0.550 OA
ENDBRANCH   4   5
ENDBRANCH   3   4
ENDBRANCH   2   3
ENDBRANCH   1   2
BRANCH   1   8
ATOM      8  C   UNL     1      63.606  32.442  59.167  1.00  0.00     0.000 C 
BRANCH   8   9
ATOM      9  C   UNL     1      63.439  33.906  59.608  1.00  0.00     0.006 C 
BRANCH   9  10
ATOM     10  C   UNL     1      64.326  34.267  60.807  1.00  0.00     0.053 C 
BRANCH  10  11
ATOM     11  C   UNL     1      63.625  35.247  61.695  1.00  0.00     0.041 C 
ATOM     12  O   UNL     1      64.083  35.505  62.839  1.00  0.00    -0.550 OA
ATOM     13  O   UNL     1      62.438  35.839  61.279  1.00  0.00    -0.550 OA
ENDBRANCH  10  11
ENDBRANCH   9  10
ENDBRANCH   8   9
ENDBRANCH   1   8
TORSDOF 8
ENDMDL
MODEL 4
REMARK VINA RESULT:    -3.249      7.461      9.892
REMARK INTER + INTRA:          -5.221
REMARK INTER:                  -4.867
REMARK INTRA:                  -0.353
REMARK UNBOUND:                -0.453
REMARK SMILES O=C([O-])CCCCCCCC(=O)[O-]
REMARK SMILES IDX 7 1 6 2 5 3 4 4 2 5 1 6 3 7 8 8 9 9 10 10 11 11 12 12 13 13
REMARK H PARENT
REMARK Flexibility Score: inf
ROOT
ATOM      1  C   UNL     1      63.080  31.033  59.152  1.00  0.00     0.000 C 
ENDROOT
BRANCH   1   2
ATOM      2  C   UNL     1      63.254  32.526  58.825  1.00  0.00     0.000 C 
BRANCH   2   3
ATOM      3  C   UNL     1      64.244  33.229  59.768  1.00  0.00     0.006 C 
BRANCH   3   4
ATOM      4  C   UNL     1      63.567  34.390  60.502  1.00  0.00     0.053 C 
BRANCH   4   5
ATOM      5  C   UNL     1      64.536  35.062  61.424  1.00  0.00     0.041 C 
ATOM      6  O   UNL     1      64.168  35.429  62.571  1.00  0.00    -0.550 OA
ATOM      7  O   UNL     1      65.831  35.324  61.000  1.00  0.00    -0.550 OA
ENDBRANCH   4   5
ENDBRANCH   3   4
ENDBRANCH   2   3
ENDBRANCH   1   2
BRANCH   1   8
ATOM      8  C   UNL     1      63.979  30.575  60.313  1.00  0.00     0.000 C 
BRANCH   8   9
ATOM      9  C   UNL     1      63.562  29.206  60.876  1.00  0.00     0.006 C 
BRANCH   9  10
ATOM     10  C   UNL     1      62.061  29.126  61.186  1.00  0.00     0.053 C 
BRANCH  10  11
ATOM     11  C   UNL     1      61.503  27.818  60.720  1.00  0.00     0.041 C 
ATOM     12  O   UNL     1      60.500  27.792  59.960  1.00  0.00    -0.550 OA
ATOM     13  O   UNL     1      62.061  26.625  61.166  1.00  0.00    -0.550 OA
ENDBRANCH  10  11
ENDBRANCH   9  10
ENDBRANCH   8   9
ENDBRANCH   1   8
TORSDOF 8
ENDMDL
MODEL 5
REMARK VINA RESULT:    -3.240      1.499      2.204
REMARK INTER + INTRA:          -5.207
REMARK INTER:                  -4.543
REMARK INTRA:                  -0.664
REMARK UNBOUND:                -0.453
REMARK SMILES O=C([O-])CCCCCCCC(=O)[O-]
REMARK SMILES IDX 7 1 6 2 5 3 4 4 2 5 1 6 3 7 8 8 9 9 10 10 11 11 12 12 13 13
REMARK H PARENT
REMARK Flexibility Score: inf
ROOT
ATOM      1  C   UNL     1      72.700  30.085  61.360  1.00  0.00     0.000 C 
ENDROOT
BRANCH   1   2
ATOM      2  C   UNL     1      72.517  28.558  61.341  1.00  0.00     0.000 C 
BRANCH   2   3
ATOM      3  C   UNL     1      72.030  28.035  59.980  1.00  0.00     0.006 C 
BRANCH   3   4
ATOM      4  C   UNL     1      70.713  27.270  60.130  1.00  0.00     0.053 C 
BRANCH   4   5
ATOM      5  C   UNL     1      69.576  28.221  60.342  1.00  0.00     0.041 C 
ATOM      6  O   UNL     1      69.152  28.923  59.386  1.00  0.00    -0.550 OA
ATOM      7  O   UNL     1      69.017  28.365  61.604  1.00  0.00    -0.550 OA
ENDBRANCH   4   5
ENDBRANCH   3   4
ENDBRANCH   2   3
ENDBRANCH   1   2
BRANCH   1   8
ATOM      8  C   UNL     1      72.503  30.721  59.972  1.00  0.00     0.000 C 
BRANCH   8   9
ATOM      9  C   UNL     1      71.297  31.675  59.928  1.00  0.00     0.006 C 
BRANCH   9  10
ATOM     10  C   UNL     1      70.775  31.902  58.503  1.00  0.00     0.053 C 
BRANCH  10  11
ATOM     11  C   UNL     1      70.676  33.367  58.212  1.00  0.00     0.041 C 
ATOM     12  O   UNL     1      70.397  34.178  59.134  1.00  0.00    -0.550 OA
ATOM     13  O   UNL     1      70.844  33.831  56.913  1.00  0.00    -0.550 OA
ENDBRANCH  10  11
ENDBRANCH   9  10
ENDBRANCH   8   9
ENDBRANCH   1   8
TORSDOF 8
ENDMDL
MODEL 6
REMARK VINA RESULT:    -3.233      1.399      5.806
REMARK INTER + INTRA:          -5.197
REMARK INTER:                  -4.708
REMARK INTRA:                  -0.489
REMARK UNBOUND:                -0.453
REMARK SMILES O=C([O-])CCCCCCCC(=O)[O-]
REMARK SMILES IDX 7 1 6 2 5 3 4 4 2 5 1 6 3 7 8 8 9 9 10 10 11 11 12 12 13 13
REMARK H PARENT
REMARK Flexibility Score: inf
ROOT
ATOM      1  C   UNL     1      72.408  30.562  59.541  1.00  0.00     0.000 C 
ENDROOT
BRANCH   1   2
ATOM      2  C   UNL     1      71.769  30.496  58.144  1.00  0.00     0.000 C 
BRANCH   2   3
ATOM      3  C   UNL     1      70.553  31.424  58.001  1.00  0.00     0.006 C 
BRANCH   3   4
ATOM      4  C   UNL     1      70.994  32.862  57.713  1.00  0.00     0.053 C 
BRANCH   4   5
ATOM      5  C   UNL     1      70.479  33.789  58.770  1.00  0.00     0.041 C 
ATOM      6  O   UNL     1      70.885  33.684  59.957  1.00  0.00    -0.550 OA
ATOM      7  O   UNL     1      69.515  34.737  58.453  1.00  0.00    -0.550 OA
ENDBRANCH   4   5
ENDBRANCH   3   4
ENDBRANCH   2   3
ENDBRANCH   1   2
BRANCH   1   8
ATOM      8  C   UNL     1      73.032  29.222  59.968  1.00  0.00     0.000 C 
BRANCH   8   9
ATOM      9  C   UNL     1      72.340  28.615  61.200  1.00  0.00     0.006 C 
BRANCH   9  10
ATOM     10  C   UNL     1      70.961  29.233  61.468  1.00  0.00     0.053 C 
BRANCH  10  11
ATOM     11  C   UNL     1      69.878  28.264  61.112  1.00  0.00     0.041 C 
ATOM     12  O   UNL     1      68.756  28.331  61.679  1.00  0.00    -0.550 OA
ATOM     13  O   UNL     1      70.124  27.255  60.188  1.00  0.00    -0.550 OA
ENDBRANCH  10  11
ENDBRANCH   9  10
ENDBRANCH   8   9
ENDBRANCH   1   8
TORSDOF 8
ENDMDL
MODEL 7
REMARK VINA RESULT:    -3.185     16.158     17.067
REMARK INTER + INTRA:          -5.127
REMARK INTER:                  -4.779
REMARK INTRA:                  -0.348
REMARK UNBOUND:                -0.453
REMARK SMILES O=C([O-])CCCCCCCC(=O)[O-]
REMARK SMILES IDX 7 1 6 2 5 3 4 4 2 5 1 6 3 7 8 8 9 9 10 10 11 11 12 12 13 13
REMARK H PARENT
REMARK Flexibility Score: inf
ROOT
ATOM      1  C   UNL     1      57.785  28.100  50.177  1.00  0.00     0.000 C 
ENDROOT
BRANCH   1   2
ATOM      2  C   UNL     1      58.648  28.447  48.952  1.00  0.00     0.000 C 
BRANCH   2   3
ATOM      3  C   UNL     1      59.679  27.356  48.622  1.00  0.00     0.006 C 
BRANCH   3   4
ATOM      4  C   UNL     1      59.161  25.975  49.032  1.00  0.00     0.053 C 
BRANCH   4   5
ATOM      5  C   UNL     1      60.303  25.060  49.348  1.00  0.00     0.041 C 
ATOM      6  O   UNL     1      61.486  25.489  49.309  1.00  0.00    -0.550 OA
ATOM      7  O   UNL     1      60.064  23.724  49.640  1.00  0.00    -0.550 OA
ENDBRANCH   4   5
ENDBRANCH   3   4
ENDBRANCH   2   3
ENDBRANCH   1   2
BRANCH   1   8
ATOM      8  C   UNL     1      56.282  28.297  49.914  1.00  0.00     0.000 C 
BRANCH   8   9
ATOM      9  C   UNL     1      55.914  29.771  49.674  1.00  0.00     0.006 C 
BRANCH   9  10
ATOM     10  C   UNL     1      54.669  30.204  50.459  1.00  0.00     0.053 C 
BRANCH  10  11
ATOM     11  C   UNL     1      55.057  31.081  51.608  1.00  0.00     0.041 C 
ATOM     12  O   UNL     1      56.271  31.323  51.838  1.00  0.00    -0.550 OA
ATOM     13  O   UNL     1      54.080  31.592  52.454  1.00  0.00    -0.550 OA
ENDBRANCH  10  11
ENDBRANCH   9  10
ENDBRANCH   8   9
ENDBRANCH   1   8
TORSDOF 8
ENDMDL
MODEL 8
REMARK VINA RESULT:    -3.148      1.743      2.206
REMARK INTER + INTRA:          -5.073
REMARK INTER:                  -4.338
REMARK INTRA:                  -0.735
REMARK UNBOUND:                -0.453
REMARK SMILES O=C([O-])CCCCCCCC(=O)[O-]
REMARK SMILES IDX 7 1 6 2 5 3 4 4 2 5 1 6 3 7 8 8 9 9 10 10 11 11 12 12 13 13
REMARK H PARENT
REMARK Flexibility Score: inf
ROOT
ATOM      1  C   UNL     1      71.197  30.042  57.645  1.00  0.00     0.000 C 
ENDROOT
BRANCH   1   2
ATOM      2  C   UNL     1      72.414  29.560  58.453  1.00  0.00     0.000 C 
BRANCH   2   3
ATOM      3  C   UNL     1      72.729  30.468  59.652  1.00  0.00     0.006 C 
BRANCH   3   4
ATOM      4  C   UNL     1      71.594  30.429  60.679  1.00  0.00     0.053 C 
BRANCH   4   5
ATOM      5  C   UNL     1      71.503  29.073  61.308  1.00  0.00     0.041 C 
ATOM      6  O   UNL     1      70.409  28.452  61.315  1.00  0.00    -0.550 OA
ATOM      7  O   UNL     1      72.616  28.518  61.926  1.00  0.00    -0.550 OA
ENDBRANCH   4   5
ENDBRANCH   3   4
ENDBRANCH   2   3
ENDBRANCH   1   2
BRANCH   1   8
ATOM      8  C   UNL     1      71.588  31.006  56.511  1.00  0.00     0.000 C 
BRANCH   8   9
ATOM      9  C   UNL     1      71.261  32.471  56.845  1.00  0.00     0.006 C 
BRANCH   9  10
ATOM     10  C   UNL     1      70.168  32.605  57.913  1.00  0.00     0.053 C 
BRANCH  10  11
ATOM     11  C   UNL     1      70.355  33.868  58.694  1.00  0.00     0.041 C 
ATOM     12  O   UNL     1      70.106  34.983  58.164  1.00  0.00    -0.550 OA
ATOM     13  O   UNL     1      70.850  33.816  59.991  1.00  0.00    -0.550 OA
ENDBRANCH  10  11
ENDBRANCH   9  10
ENDBRANCH   8   9
ENDBRANCH   1   8
TORSDOF 8
ENDMDL
MODEL 9
REMARK VINA RESULT:    -3.142     19.211     20.841
REMARK INTER + INTRA:          -5.064
REMARK INTER:                  -4.301
REMARK INTRA:                  -0.763
REMARK UNBOUND:                -0.453
REMARK SMILES O=C([O-])CCCCCCCC(=O)[O-]
REMARK SMILES IDX 7 1 6 2 5 3 4 4 2 5 1 6 3 7 8 8 9 9 10 10 11 11 12 12 13 13
REMARK H PARENT
REMARK Flexibility Score: inf
ROOT
ATOM      1  C   UNL     1      58.429  16.552  51.486  1.00  0.00     0.000 C 
ENDROOT
BRANCH   1   2
ATOM      2  C   UNL     1      57.960  16.608  50.022  1.00  0.00     0.000 C 
BRANCH   2   3
ATOM      3  C   UNL     1      56.977  17.758  49.756  1.00  0.00     0.006 C 
BRANCH   3   4
ATOM      4  C   UNL     1      56.460  18.349  51.071  1.00  0.00     0.053 C 
BRANCH   4   5
ATOM      5  C   UNL     1      55.058  18.847  50.905  1.00  0.00     0.041 C 
ATOM      6  O   UNL     1      54.504  18.815  49.775  1.00  0.00    -0.550 OA
ATOM      7  O   UNL     1      54.381  19.389  51.989  1.00  0.00    -0.550 OA
ENDBRANCH   4   5
ENDBRANCH   3   4
ENDBRANCH   2   3
ENDBRANCH   1   2
BRANCH   1   8
ATOM      8  C   UNL     1      59.957  16.418  51.611  1.00  0.00     0.000 C 
BRANCH   8   9
ATOM      9  C   UNL     1      60.708  17.564  50.913  1.00  0.00     0.006 C 
BRANCH   9  10
ATOM     10  C   UNL     1      60.538  18.908  51.634  1.00  0.00     0.053 C 
BRANCH  10  11
ATOM     11  C   UNL     1      60.012  19.942  50.688  1.00  0.00     0.041 C 
ATOM     12  O   UNL     1      59.657  21.071  51.118  1.00  0.00    -0.550 OA
ATOM     13  O   UNL     1      59.869  19.642  49.338  1.00  0.00    -0.550 OA
ENDBRANCH  10  11
ENDBRANCH   9  10
ENDBRANCH   8   9
ENDBRANCH   1   8
TORSDOF 8
ENDMDL
