MODEL 1
REMARK VINA RESULT:    -4.306      0.000      0.000
REMARK INTER + INTRA:          -5.988
REMARK INTER:                  -5.565
REMARK INTRA:                  -0.423
REMARK UNBOUND:                -0.423
REMARK SMILES CCO[C@H]1O[C@@H](CO)[C@@H](O)[C@@H](O)[C@H]1O
REMARK SMILES IDX 4 1 13 2 11 3 9 4 6 5 5 6 3 7 2 8 1 9 14 10 12 12 7 14 8 15
REMARK SMILES IDX 10 17
REMARK H PARENT 14 11 12 13 8 16 10 18
REMARK Flexibility Score: inf
ROOT
ATOM      1  C   UNL     1      10.914   3.393  37.530  1.00  0.00     0.281 C 
ATOM      2  C   UNL     1      11.002   4.581  38.507  1.00  0.00     0.202 C 
ATOM      3  C   UNL     1      11.956   4.271  39.671  1.00  0.00     0.179 C 
ATOM      4  C   UNL     1      11.543   2.946  40.320  1.00  0.00     0.177 C 
ATOM      5  C   UNL     1      11.353   1.812  39.276  1.00  0.00     0.178 C 
ATOM      6  O   UNL     1      10.524   2.189  38.180  1.00  0.00    -0.341 OA
ENDROOT
BRANCH   1   7
ATOM      7  O   UNL     1      12.148   3.219  36.845  1.00  0.00    -0.350 OA
BRANCH   7   8
ATOM      8  C   UNL     1      11.974   2.654  35.559  1.00  0.00     0.160 C 
ATOM      9  C   UNL     1      13.039   1.599  35.270  1.00  0.00     0.035 C 
ENDBRANCH   7   8
ENDBRANCH   1   7
BRANCH   2  10
ATOM     10  O   UNL     1      11.420   5.729  37.815  1.00  0.00    -0.385 OA
ATOM     11  H   UNL     1      12.228   6.067  38.283  1.00  0.00     0.211 HD
ENDBRANCH   2  10
BRANCH   3  12
ATOM     12  O   UNL     1      13.289   4.210  39.232  1.00  0.00    -0.387 OA
ATOM     13  H   UNL     1      13.631   5.142  39.209  1.00  0.00     0.211 HD
ENDBRANCH   3  12
BRANCH   5  14
ATOM     14  C   UNL     1      12.659   1.125  38.825  1.00  0.00     0.191 C 
BRANCH  14  15
ATOM     15  O   UNL     1      13.032   0.155  39.765  1.00  0.00    -0.394 OA
ATOM     16  H   UNL     1      12.361  -0.572  39.694  1.00  0.00     0.210 HD
ENDBRANCH  14  15
ENDBRANCH   5  14
BRANCH   4  17
ATOM     17  O   UNL     1      12.482   2.585  41.301  1.00  0.00    -0.387 OA
ATOM     18  H   UNL     1      12.108   1.801  41.782  1.00  0.00     0.211 HD
ENDBRANCH   4  17
TORSDOF 7
ENDMDL
MODEL 2
REMARK VINA RESULT:    -4.238      1.608      3.756
REMARK INTER + INTRA:          -5.900
REMARK INTER:                  -5.760
REMARK INTRA:                  -0.140
REMARK UNBOUND:                -0.423
REMARK SMILES CCO[C@H]1O[C@@H](CO)[C@@H](O)[C@@H](O)[C@H]1O
REMARK SMILES IDX 4 1 13 2 11 3 9 4 6 5 5 6 3 7 2 8 1 9 14 10 12 12 7 14 8 15
REMARK SMILES IDX 10 17
REMARK H PARENT 14 11 12 13 8 16 10 18
REMARK Flexibility Score: inf
ROOT
ATOM      1  C   UNL     1      12.597   1.535  39.154  1.00  0.00     0.281 C 
ATOM      2  C   UNL     1      13.067   2.654  40.101  1.00  0.00     0.202 C 
ATOM      3  C   UNL     1      12.216   3.922  39.928  1.00  0.00     0.179 C 
ATOM      4  C   UNL     1      12.192   4.313  38.446  1.00  0.00     0.177 C 
ATOM      5  C   UNL     1      11.827   3.116  37.526  1.00  0.00     0.178 C 
ATOM      6  O   UNL     1      12.597   1.946  37.792  1.00  0.00    -0.341 OA
ENDROOT
BRANCH   1   7
ATOM      7  O   UNL     1      11.312   1.064  39.538  1.00  0.00    -0.350 OA
BRANCH   7   8
ATOM      8  C   UNL     1      11.363  -0.220  40.129  1.00  0.00     0.160 C 
ATOM      9  C   UNL     1      12.512  -1.047  39.559  1.00  0.00     0.035 C 
ENDBRANCH   7   8
ENDBRANCH   1   7
BRANCH   2  10
ATOM     10  O   UNL     1      13.016   2.200  41.429  1.00  0.00    -0.385 OA
ATOM     11  H   UNL     1      12.064   2.003  41.627  1.00  0.00     0.211 HD
ENDBRANCH   2  10
BRANCH   3  12
ATOM     12  O   UNL     1      10.909   3.723  40.406  1.00  0.00    -0.387 OA
ATOM     13  H   UNL     1      10.303   3.763  39.620  1.00  0.00     0.211 HD
ENDBRANCH   3  12
BRANCH   5  14
ATOM     14  C   UNL     1      10.316   2.822  37.419  1.00  0.00     0.191 C 
BRANCH  14  15
ATOM     15  O   UNL     1       9.925   2.837  36.074  1.00  0.00    -0.394 OA
ATOM     16  H   UNL     1       9.521   1.949  35.893  1.00  0.00     0.210 HD
ENDBRANCH  14  15
ENDBRANCH   5  14
BRANCH   4  17
ATOM     17  O   UNL     1      11.313   5.392  38.255  1.00  0.00    -0.387 OA
ATOM     18  H   UNL     1      10.613   5.318  38.955  1.00  0.00     0.211 HD
ENDBRANCH   4  17
TORSDOF 7
ENDMDL
MODEL 3
REMARK VINA RESULT:    -4.089     12.886     14.270
REMARK INTER + INTRA:          -5.707
REMARK INTER:                  -5.228
REMARK INTRA:                  -0.479
REMARK UNBOUND:                -0.423
REMARK SMILES CCO[C@H]1O[C@@H](CO)[C@@H](O)[C@@H](O)[C@H]1O
REMARK SMILES IDX 4 1 13 2 11 3 9 4 6 5 5 6 3 7 2 8 1 9 14 10 12 12 7 14 8 15
REMARK SMILES IDX 10 17
REMARK H PARENT 14 11 12 13 8 16 10 18
REMARK Flexibility Score: inf
ROOT
ATOM      1  C   UNL     1      23.280   9.612  44.163  1.00  0.00     0.281 C 
ATOM      2  C   UNL     1      23.866  10.416  45.339  1.00  0.00     0.202 C 
ATOM      3  C   UNL     1      23.364   9.874  46.686  1.00  0.00     0.179 C 
ATOM      4  C   UNL     1      21.833   9.810  46.663  1.00  0.00     0.177 C 
ATOM      5  C   UNL     1      21.292   9.092  45.396  1.00  0.00     0.178 C 
ATOM      6  O   UNL     1      21.858   9.586  44.185  1.00  0.00    -0.341 OA
ENDROOT
BRANCH   1   7
ATOM      7  O   UNL     1      23.807   8.292  44.149  1.00  0.00    -0.350 OA
BRANCH   7   8
ATOM      8  C   UNL     1      24.084   7.837  42.838  1.00  0.00     0.160 C 
ATOM      9  C   UNL     1      24.048   6.312  42.763  1.00  0.00     0.035 C 
ENDBRANCH   7   8
ENDBRANCH   1   7
BRANCH   2  10
ATOM     10  O   UNL     1      25.269  10.379  45.280  1.00  0.00    -0.385 OA
ATOM     11  H   UNL     1      25.553   9.556  45.758  1.00  0.00     0.211 HD
ENDBRANCH   2  10
BRANCH   3  12
ATOM     12  O   UNL     1      23.906   8.605  46.956  1.00  0.00    -0.387 OA
ATOM     13  H   UNL     1      23.907   8.102  46.100  1.00  0.00     0.211 HD
ENDBRANCH   3  12
BRANCH   5  14
ATOM     14  C   UNL     1      21.304   7.551  45.473  1.00  0.00     0.191 C 
BRANCH  14  15
ATOM     15  O   UNL     1      20.910   7.014  44.240  1.00  0.00    -0.394 OA
ATOM     16  H   UNL     1      21.623   7.257  43.592  1.00  0.00     0.210 HD
ENDBRANCH  14  15
ENDBRANCH   5  14
BRANCH   4  17
ATOM     17  O   UNL     1      21.367   9.195  47.837  1.00  0.00    -0.387 OA
ATOM     18  H   UNL     1      20.974   9.913  48.399  1.00  0.00     0.211 HD
ENDBRANCH   4  17
TORSDOF 7
ENDMDL
MODEL 4
REMARK VINA RESULT:    -4.069      1.736      4.379
REMARK INTER + INTRA:          -5.681
REMARK INTER:                  -5.193
REMARK INTRA:                  -0.488
REMARK UNBOUND:                -0.423
REMARK SMILES CCO[C@H]1O[C@@H](CO)[C@@H](O)[C@@H](O)[C@H]1O
REMARK SMILES IDX 4 1 13 2 11 3 9 4 6 5 5 6 3 7 2 8 1 9 14 10 12 12 7 14 8 15
REMARK SMILES IDX 10 17
REMARK H PARENT 14 11 12 13 8 16 10 18
REMARK Flexibility Score: inf
ROOT
ATOM      1  C   UNL     1      11.985   3.180  40.234  1.00  0.00     0.281 C 
ATOM      2  C   UNL     1      11.087   2.641  39.105  1.00  0.00     0.202 C 
ATOM      3  C   UNL     1      11.081   3.593  37.899  1.00  0.00     0.179 C 
ATOM      4  C   UNL     1      10.723   5.004  38.374  1.00  0.00     0.177 C 
ATOM      5  C   UNL     1      11.578   5.452  39.591  1.00  0.00     0.178 C 
ATOM      6  O   UNL     1      11.609   4.490  40.642  1.00  0.00    -0.341 OA
ENDROOT
BRANCH   1   7
ATOM      7  O   UNL     1      13.351   3.147  39.844  1.00  0.00    -0.350 OA
BRANCH   7   8
ATOM      8  C   UNL     1      14.185   2.598  40.846  1.00  0.00     0.160 C 
ATOM      9  C   UNL     1      13.399   1.676  41.776  1.00  0.00     0.035 C 
ENDBRANCH   7   8
ENDBRANCH   1   7
BRANCH   2  10
ATOM     10  O   UNL     1      11.526   1.362  38.725  1.00  0.00    -0.385 OA
ATOM     11  H   UNL     1      10.765   0.924  38.261  1.00  0.00     0.211 HD
ENDBRANCH   2  10
BRANCH   3  12
ATOM     12  O   UNL     1      12.327   3.594  37.248  1.00  0.00    -0.387 OA
ATOM     13  H   UNL     1      13.012   3.819  37.931  1.00  0.00     0.211 HD
ENDBRANCH   3  12
BRANCH   5  14
ATOM     14  C   UNL     1      12.981   5.986  39.232  1.00  0.00     0.191 C 
BRANCH  14  15
ATOM     15  O   UNL     1      12.891   7.331  38.850  1.00  0.00    -0.394 OA
ATOM     16  H   UNL     1      13.825   7.650  38.740  1.00  0.00     0.210 HD
ENDBRANCH  14  15
ENDBRANCH   5  14
BRANCH   4  17
ATOM     17  O   UNL     1      10.841   5.909  37.306  1.00  0.00    -0.387 OA
ATOM     18  H   UNL     1      11.646   6.462  37.486  1.00  0.00     0.211 HD
ENDBRANCH   4  17
TORSDOF 7
ENDMDL
MODEL 5
REMARK VINA RESULT:    -3.964     13.241     14.910
REMARK INTER + INTRA:          -5.546
REMARK INTER:                  -5.027
REMARK INTRA:                  -0.518
REMARK UNBOUND:                -0.423
REMARK SMILES CCO[C@H]1O[C@@H](CO)[C@@H](O)[C@@H](O)[C@H]1O
REMARK SMILES IDX 4 1 13 2 11 3 9 4 6 5 5 6 3 7 2 8 1 9 14 10 12 12 7 14 8 15
REMARK SMILES IDX 10 17
REMARK H PARENT 14 11 12 13 8 16 10 18
REMARK Flexibility Score: inf
ROOT
ATOM      1  C   UNL     1      23.801  10.144  45.524  1.00  0.00     0.281 C 
ATOM      2  C   UNL     1      23.806   9.128  46.681  1.00  0.00     0.202 C 
ATOM      3  C   UNL     1      22.442   8.433  46.814  1.00  0.00     0.179 C 
ATOM      4  C   UNL     1      21.343   9.497  46.910  1.00  0.00     0.177 C 
ATOM      5  C   UNL     1      21.457  10.565  45.788  1.00  0.00     0.178 C 
ATOM      6  O   UNL     1      22.767  11.112  45.662  1.00  0.00    -0.341 OA
ENDROOT
BRANCH   1   7
ATOM      7  O   UNL     1      23.703   9.476  44.273  1.00  0.00    -0.350 OA
BRANCH   7   8
ATOM      8  C   UNL     1      24.519  10.067  43.281  1.00  0.00     0.160 C 
ATOM      9  C   UNL     1      25.895  10.428  43.838  1.00  0.00     0.035 C 
ENDBRANCH   7   8
ENDBRANCH   1   7
BRANCH   2  10
ATOM     10  O   UNL     1      24.825   8.184  46.474  1.00  0.00    -0.385 OA
ATOM     11  H   UNL     1      24.641   7.751  45.599  1.00  0.00     0.211 HD
ENDBRANCH   2  10
BRANCH   3  12
ATOM     12  O   UNL     1      22.201   7.574  45.728  1.00  0.00    -0.387 OA
ATOM     13  H   UNL     1      23.020   7.027  45.604  1.00  0.00     0.211 HD
ENDBRANCH   3  12
BRANCH   5  14
ATOM     14  C   UNL     1      20.856  10.141  44.431  1.00  0.00     0.191 C 
BRANCH  14  15
ATOM     15  O   UNL     1      21.156  11.106  43.460  1.00  0.00    -0.394 OA
ATOM     16  H   UNL     1      21.473  11.907  43.953  1.00  0.00     0.210 HD
ENDBRANCH  14  15
ENDBRANCH   5  14
BRANCH   4  17
ATOM     17  O   UNL     1      20.081   8.879  46.901  1.00  0.00    -0.387 OA
ATOM     18  H   UNL     1      20.213   7.955  47.240  1.00  0.00     0.211 HD
ENDBRANCH   4  17
TORSDOF 7
ENDMDL
MODEL 6
REMARK VINA RESULT:    -3.903     12.899     14.260
REMARK INTER + INTRA:          -5.467
REMARK INTER:                  -5.018
REMARK INTRA:                  -0.449
REMARK UNBOUND:                -0.423
REMARK SMILES CCO[C@H]1O[C@@H](CO)[C@@H](O)[C@@H](O)[C@H]1O
REMARK SMILES IDX 4 1 13 2 11 3 9 4 6 5 5 6 3 7 2 8 1 9 14 10 12 12 7 14 8 15
REMARK SMILES IDX 10 17
REMARK H PARENT 14 11 12 13 8 16 10 18
REMARK Flexibility Score: inf
ROOT
ATOM      1  C   UNL     1      21.308   9.073  44.546  1.00  0.00     0.281 C 
ATOM      2  C   UNL     1      21.138   8.454  45.946  1.00  0.00     0.202 C 
ATOM      3  C   UNL     1      22.404   8.646  46.795  1.00  0.00     0.179 C 
ATOM      4  C   UNL     1      23.615   8.125  46.015  1.00  0.00     0.177 C 
ATOM      5  C   UNL     1      23.674   8.689  44.569  1.00  0.00     0.178 C 
ATOM      6  O   UNL     1      22.443   8.554  43.862  1.00  0.00    -0.341 OA
ENDROOT
BRANCH   1   7
ATOM      7  O   UNL     1      21.377  10.490  44.632  1.00  0.00    -0.350 OA
BRANCH   7   8
ATOM      8  C   UNL     1      20.352  11.125  43.890  1.00  0.00     0.160 C 
ATOM      9  C   UNL     1      20.662  11.112  42.395  1.00  0.00     0.035 C 
ENDBRANCH   7   8
ENDBRANCH   1   7
BRANCH   2  10
ATOM     10  O   UNL     1      20.023   9.026  46.580  1.00  0.00    -0.385 OA
ATOM     11  H   UNL     1      20.360   9.794  47.112  1.00  0.00     0.211 HD
ENDBRANCH   2  10
BRANCH   3  12
ATOM     12  O   UNL     1      22.583   9.997  47.139  1.00  0.00    -0.387 OA
ATOM     13  H   UNL     1      22.143  10.538  46.432  1.00  0.00     0.211 HD
ENDBRANCH   3  12
BRANCH   5  14
ATOM     14  C   UNL     1      24.273  10.107  44.453  1.00  0.00     0.191 C 
BRANCH  14  15
ATOM     15  O   UNL     1      24.099  10.588  43.148  1.00  0.00    -0.394 OA
ATOM     16  H   UNL     1      23.230  11.068  43.144  1.00  0.00     0.210 HD
ENDBRANCH  14  15
ENDBRANCH   5  14
BRANCH   4  17
ATOM     17  O   UNL     1      24.795   8.413  46.723  1.00  0.00    -0.387 OA
ATOM     18  H   UNL     1      25.190   9.222  46.304  1.00  0.00     0.211 HD
ENDBRANCH   4  17
TORSDOF 7
ENDMDL
MODEL 7
REMARK VINA RESULT:    -3.891     12.560     14.272
REMARK INTER + INTRA:          -5.451
REMARK INTER:                  -4.981
REMARK INTRA:                  -0.470
REMARK UNBOUND:                -0.423
REMARK SMILES CCO[C@H]1O[C@@H](CO)[C@@H](O)[C@@H](O)[C@H]1O
REMARK SMILES IDX 4 1 13 2 11 3 9 4 6 5 5 6 3 7 2 8 1 9 14 10 12 12 7 14 8 15
REMARK SMILES IDX 10 17
REMARK H PARENT 14 11 12 13 8 16 10 18
REMARK Flexibility Score: inf
ROOT
ATOM      1  C   UNL     1      22.359   7.615  46.018  1.00  0.00     0.281 C 
ATOM      2  C   UNL     1      21.281   7.424  44.935  1.00  0.00     0.202 C 
ATOM      3  C   UNL     1      21.047   8.725  44.151  1.00  0.00     0.179 C 
ATOM      4  C   UNL     1      20.760   9.861  45.137  1.00  0.00     0.177 C 
ATOM      5  C   UNL     1      21.813   9.934  46.276  1.00  0.00     0.178 C 
ATOM      6  O   UNL     1      22.044   8.678  46.909  1.00  0.00    -0.341 OA
ENDROOT
BRANCH   1   7
ATOM      7  O   UNL     1      23.634   7.818  45.423  1.00  0.00    -0.350 OA
BRANCH   7   8
ATOM      8  C   UNL     1      24.663   7.130  46.108  1.00  0.00     0.160 C 
ATOM      9  C   UNL     1      24.707   5.657  45.706  1.00  0.00     0.035 C 
ENDBRANCH   7   8
ENDBRANCH   1   7
BRANCH   2  10
ATOM     10  O   UNL     1      21.662   6.385  44.070  1.00  0.00    -0.385 OA
ATOM     11  H   UNL     1      22.067   5.677  44.636  1.00  0.00     0.211 HD
ENDBRANCH   2  10
BRANCH   3  12
ATOM     12  O   UNL     1      22.157   9.039  43.347  1.00  0.00    -0.387 OA
ATOM     13  H   UNL     1      22.921   8.501  43.683  1.00  0.00     0.211 HD
ENDBRANCH   3  12
BRANCH   5  14
ATOM     14  C   UNL     1      23.122  10.660  45.900  1.00  0.00     0.191 C 
BRANCH  14  15
ATOM     15  O   UNL     1      24.093  10.421  46.882  1.00  0.00    -0.394 OA
ATOM     16  H   UNL     1      24.294  11.302  47.292  1.00  0.00     0.210 HD
ENDBRANCH  14  15
ENDBRANCH   5  14
BRANCH   4  17
ATOM     17  O   UNL     1      20.673  11.081  44.443  1.00  0.00    -0.387 OA
ATOM     18  H   UNL     1      21.584  11.476  44.443  1.00  0.00     0.211 HD
ENDBRANCH   4  17
TORSDOF 7
ENDMDL
MODEL 8
REMARK VINA RESULT:    -3.870     13.106     14.155
REMARK INTER + INTRA:          -5.424
REMARK INTER:                  -4.914
REMARK INTRA:                  -0.510
REMARK UNBOUND:                -0.423
REMARK SMILES CCO[C@H]1O[C@@H](CO)[C@@H](O)[C@@H](O)[C@H]1O
REMARK SMILES IDX 4 1 13 2 11 3 9 4 6 5 5 6 3 7 2 8 1 9 14 10 12 12 7 14 8 15
REMARK SMILES IDX 10 17
REMARK H PARENT 14 11 12 13 8 16 10 18
REMARK Flexibility Score: inf
ROOT
ATOM      1  C   UNL     1      22.458   9.057  43.884  1.00  0.00     0.281 C 
ATOM      2  C   UNL     1      21.130   9.790  44.149  1.00  0.00     0.202 C 
ATOM      3  C   UNL     1      20.973  10.132  45.639  1.00  0.00     0.179 C 
ATOM      4  C   UNL     1      21.172   8.861  46.470  1.00  0.00     0.177 C 
ATOM      5  C   UNL     1      22.466   8.097  46.080  1.00  0.00     0.178 C 
ATOM      6  O   UNL     1      22.592   7.882  44.677  1.00  0.00    -0.341 OA
ENDROOT
BRANCH   1   7
ATOM      7  O   UNL     1      23.560   9.930  44.089  1.00  0.00    -0.350 OA
BRANCH   7   8
ATOM      8  C   UNL     1      24.579   9.748  43.124  1.00  0.00     0.160 C 
ATOM      9  C   UNL     1      24.038   9.932  41.708  1.00  0.00     0.035 C 
ENDBRANCH   7   8
ENDBRANCH   1   7
BRANCH   2  10
ATOM     10  O   UNL     1      21.070  10.953  43.364  1.00  0.00    -0.385 OA
ATOM     11  H   UNL     1      20.338  10.817  42.707  1.00  0.00     0.211 HD
ENDBRANCH   2  10
BRANCH   3  12
ATOM     12  O   UNL     1      21.889  11.125  46.030  1.00  0.00    -0.387 OA
ATOM     13  H   UNL     1      22.025  11.025  47.009  1.00  0.00     0.211 HD
ENDBRANCH   3  12
BRANCH   5  14
ATOM     14  C   UNL     1      23.759   8.652  46.715  1.00  0.00     0.191 C 
BRANCH  14  15
ATOM     15  O   UNL     1      24.871   7.995  46.171  1.00  0.00    -0.394 OA
ATOM     16  H   UNL     1      24.698   7.917  45.197  1.00  0.00     0.210 HD
ENDBRANCH  14  15
ENDBRANCH   5  14
BRANCH   4  17
ATOM     17  O   UNL     1      21.161   9.182  47.838  1.00  0.00    -0.387 OA
ATOM     18  H   UNL     1      22.059   9.546  48.054  1.00  0.00     0.211 HD
ENDBRANCH   4  17
TORSDOF 7
ENDMDL
MODEL 9
REMARK VINA RESULT:    -3.840     13.153     14.757
REMARK INTER + INTRA:          -5.386
REMARK INTER:                  -4.928
REMARK INTRA:                  -0.458
REMARK UNBOUND:                -0.423
REMARK SMILES CCO[C@H]1O[C@@H](CO)[C@@H](O)[C@@H](O)[C@H]1O
REMARK SMILES IDX 4 1 13 2 11 3 9 4 6 5 5 6 3 7 2 8 1 9 14 10 12 12 7 14 8 15
REMARK SMILES IDX 10 17
REMARK H PARENT 14 11 12 13 8 16 10 18
REMARK Flexibility Score: inf
ROOT
ATOM      1  C   UNL     1      23.289   9.514  46.575  1.00  0.00     0.281 C 
ATOM      2  C   UNL     1      21.818   9.824  46.912  1.00  0.00     0.202 C 
ATOM      3  C   UNL     1      20.926   9.697  45.667  1.00  0.00     0.179 C 
ATOM      4  C   UNL     1      21.512  10.552  44.539  1.00  0.00     0.177 C 
ATOM      5  C   UNL     1      23.026  10.284  44.321  1.00  0.00     0.178 C 
ATOM      6  O   UNL     1      23.786  10.336  45.525  1.00  0.00    -0.341 OA
ENDROOT
BRANCH   1   7
ATOM      7  O   UNL     1      23.447   8.138  46.255  1.00  0.00    -0.350 OA
BRANCH   7   8
ATOM      8  C   UNL     1      24.693   7.625  46.687  1.00  0.00     0.160 C 
ATOM      9  C   UNL     1      25.010   6.295  46.007  1.00  0.00     0.035 C 
ENDBRANCH   7   8
ENDBRANCH   1   7
BRANCH   2  10
ATOM     10  O   UNL     1      21.377   8.963  47.929  1.00  0.00    -0.385 OA
ATOM     11  H   UNL     1      22.153   8.807  48.529  1.00  0.00     0.211 HD
ENDBRANCH   2  10
BRANCH   3  12
ATOM     12  O   UNL     1      20.811   8.357  45.261  1.00  0.00    -0.387 OA
ATOM     13  H   UNL     1      20.127   8.328  44.542  1.00  0.00     0.211 HD
ENDBRANCH   3  12
BRANCH   5  14
ATOM     14  C   UNL     1      23.344   9.036  43.470  1.00  0.00     0.191 C 
BRANCH  14  15
ATOM     15  O   UNL     1      24.731   8.843  43.416  1.00  0.00    -0.394 OA
ATOM     16  H   UNL     1      24.977   8.371  44.254  1.00  0.00     0.210 HD
ENDBRANCH  14  15
ENDBRANCH   5  14
BRANCH   4  17
ATOM     17  O   UNL     1      20.780  10.344  43.357  1.00  0.00    -0.387 OA
ATOM     18  H   UNL     1      20.182   9.569  43.524  1.00  0.00     0.211 HD
ENDBRANCH   4  17
TORSDOF 7
ENDMDL
