MODEL 1
REMARK VINA RESULT:    -3.562      0.000      0.000
REMARK INTER + INTRA:          -4.301
REMARK INTER:                  -5.227
REMARK INTRA:                   0.927
REMARK UNBOUND:                 0.927
REMARK SMILES O=c1c(O[C@@H]2O[C@H](CO)[C@@H](O)[C@@H](O)[C@H]2O)c(-c2ccc(O)c(O)c2)oc2cc(O)cc(O)c12
REMARK SMILES IDX 4 1 3 2 16 3 25 4 2 5 26 6 1 7 33 8 27 9 31 10 28 11 30 12
REMARK SMILES IDX 17 13 18 14 19 15 20 16 24 17 22 18 21 19 23 21 32 23 29 25
REMARK SMILES IDX 5 27 14 28 6 29 12 30 7 31 10 32 15 33 13 35 8 37 9 38 11 40
REMARK H PARENT 21 20 23 22 32 24 29 26 15 34 13 36 9 39 11 41
REMARK Flexibility Score: inf
ROOT
ATOM      1  O   UNL     1      96.509 101.431 100.559  1.00  0.00    -0.454 OA
ENDROOT
BRANCH   1   2
ATOM      2  C   UNL     1      96.383 100.616  99.427  1.00  0.00     0.214 A 
ATOM      3  C   UNL     1      96.796 101.072  98.163  1.00  0.00     0.180 A 
ATOM      4  O   UNL     1      96.713 100.274  97.104  1.00  0.00    -0.452 OA
ATOM      5  C   UNL     1      95.902  99.306  99.546  1.00  0.00     0.239 A 
ATOM      6  C   UNL     1      96.239  99.034  97.167  1.00  0.00     0.146 A 
ATOM      7  O   UNL     1      95.579  98.867 100.682  1.00  0.00    -0.285 OA
ATOM      8  C   UNL     1      95.807  98.490  98.399  1.00  0.00     0.111 A 
ATOM      9  C   UNL     1      96.177  98.269  95.999  1.00  0.00     0.094 A 
ATOM     10  C   UNL     1      95.313  97.164  98.431  1.00  0.00     0.134 A 
ATOM     11  C   UNL     1      95.687  96.960  96.036  1.00  0.00     0.123 A 
ATOM     12  C   UNL     1      95.258  96.413  97.248  1.00  0.00     0.093 A 
BRANCH   3  13
ATOM     13  C   UNL     1      97.358 102.419  97.976  1.00  0.00     0.025 A 
ATOM     14  C   UNL     1      98.115 102.729  96.839  1.00  0.00     0.016 A 
ATOM     15  C   UNL     1      98.656 104.007  96.681  1.00  0.00     0.051 A 
ATOM     16  C   UNL     1      98.461 104.984  97.663  1.00  0.00     0.157 A 
ATOM     17  C   UNL     1      97.180 103.389  98.973  1.00  0.00     0.062 A 
ATOM     18  C   UNL     1      97.722 104.673  98.818  1.00  0.00     0.158 A 
BRANCH  16  19
ATOM     19  O   UNL     1      99.009 106.252  97.476  1.00  0.00    -0.504 OA
ATOM     20  H   UNL     1      99.014 106.708  96.572  1.00  0.00     0.293 HD
ENDBRANCH  16  19
BRANCH  18  21
ATOM     21  O   UNL     1      97.529 105.639  99.805  1.00  0.00    -0.504 OA
ATOM     22  H   UNL     1      96.848 106.381  99.696  1.00  0.00     0.293 HD
ENDBRANCH  18  21
ENDBRANCH   3  13
BRANCH  10  23
ATOM     23  O   UNL     1      94.875  96.590  99.625  1.00  0.00    -0.507 OA
ATOM     24  H   UNL     1      95.194  95.676  99.926  1.00  0.00     0.293 HD
ENDBRANCH  10  23
BRANCH  11  25
ATOM     25  O   UNL     1      95.622  96.192  94.875  1.00  0.00    -0.508 OA
ATOM     26  H   UNL     1      95.118  95.315  94.848  1.00  0.00     0.293 HD
ENDBRANCH  11  25
ENDBRANCH   1   2
BRANCH   1  27
ATOM     27  C   UNL     1      97.390 101.127 101.644  1.00  0.00     0.339 C 
ATOM     28  C   UNL     1      98.864 101.374 101.268  1.00  0.00     0.214 C 
ATOM     29  O   UNL     1      97.004 101.833 102.817  1.00  0.00    -0.332 OA
ATOM     30  C   UNL     1      99.121 102.875 101.110  1.00  0.00     0.180 C 
ATOM     31  C   UNL     1      97.214 103.243 102.752  1.00  0.00     0.179 C 
ATOM     32  C   UNL     1      98.662 103.633 102.367  1.00  0.00     0.177 C 
BRANCH  28  33
ATOM     33  O   UNL     1      99.706 100.843 102.260  1.00  0.00    -0.384 OA
ATOM     34  H   UNL     1      99.148 100.246 102.824  1.00  0.00     0.211 HD
ENDBRANCH  28  33
BRANCH  30  35
ATOM     35  O   UNL     1     100.488 103.096 100.874  1.00  0.00    -0.387 OA
ATOM     36  H   UNL     1     100.875 103.431 101.724  1.00  0.00     0.211 HD
ENDBRANCH  30  35
BRANCH  31  37
ATOM     37  C   UNL     1      96.152 103.975 101.910  1.00  0.00     0.191 C 
BRANCH  37  38
ATOM     38  O   UNL     1      94.875 103.509 102.242  1.00  0.00    -0.394 OA
ATOM     39  H   UNL     1      94.620 103.974 103.081  1.00  0.00     0.210 HD
ENDBRANCH  37  38
ENDBRANCH  31  37
BRANCH  32  40
ATOM     40  O   UNL     1      99.532 103.348 103.434  1.00  0.00    -0.387 OA
ATOM     41  H   UNL     1      98.996 102.882 104.128  1.00  0.00     0.211 HD
ENDBRANCH  32  40
ENDBRANCH   1  27
TORSDOF 12
ENDMDL
MODEL 2
REMARK VINA RESULT:    -2.160      1.646      4.398
REMARK INTER + INTRA:          -2.243
REMARK INTER:                  -3.296
REMARK INTRA:                   1.053
REMARK UNBOUND:                 0.927
REMARK SMILES O=c1c(O[C@@H]2O[C@H](CO)[C@@H](O)[C@@H](O)[C@H]2O)c(-c2ccc(O)c(O)c2)oc2cc(O)cc(O)c12
REMARK SMILES IDX 4 1 3 2 16 3 25 4 2 5 26 6 1 7 33 8 27 9 31 10 28 11 30 12
REMARK SMILES IDX 17 13 18 14 19 15 20 16 24 17 22 18 21 19 23 21 32 23 29 25
REMARK SMILES IDX 5 27 14 28 6 29 12 30 7 31 10 32 15 33 13 35 8 37 9 38 11 40
REMARK H PARENT 21 20 23 22 32 24 29 26 15 34 13 36 9 39 11 41
REMARK Flexibility Score: inf
ROOT
ATOM      1  O   UNL     1      98.220 102.553  99.081  1.00  0.00    -0.454 OA
ENDROOT
BRANCH   1   2
ATOM      2  C   UNL     1      97.564 101.338  98.843  1.00  0.00     0.214 A 
ATOM      3  C   UNL     1      96.678 100.802  99.795  1.00  0.00     0.180 A 
ATOM      4  O   UNL     1      96.027  99.673  99.540  1.00  0.00    -0.452 OA
ATOM      5  C   UNL     1      97.729 100.669  97.624  1.00  0.00     0.239 A 
ATOM      6  C   UNL     1      96.173  98.991  98.409  1.00  0.00     0.146 A 
ATOM      7  O   UNL     1      98.478 101.166  96.742  1.00  0.00    -0.285 OA
ATOM      8  C   UNL     1      97.039  99.460  97.393  1.00  0.00     0.111 A 
ATOM      9  C   UNL     1      95.456  97.805  98.231  1.00  0.00     0.094 A 
ATOM     10  C   UNL     1      97.166  98.712  96.197  1.00  0.00     0.134 A 
ATOM     11  C   UNL     1      95.587  97.070  97.049  1.00  0.00     0.123 A 
ATOM     12  C   UNL     1      96.439  97.524  96.039  1.00  0.00     0.093 A 
BRANCH   3  13
ATOM     13  C   UNL     1      96.420 101.481 101.074  1.00  0.00     0.025 A 
ATOM     14  C   UNL     1      95.115 101.603 101.570  1.00  0.00     0.016 A 
ATOM     15  C   UNL     1      94.881 102.263 102.779  1.00  0.00     0.051 A 
ATOM     16  C   UNL     1      95.944 102.822 103.497  1.00  0.00     0.157 A 
ATOM     17  C   UNL     1      97.484 102.060 101.780  1.00  0.00     0.062 A 
ATOM     18  C   UNL     1      97.253 102.725 102.993  1.00  0.00     0.158 A 
BRANCH  16  19
ATOM     19  O   UNL     1      95.681 103.472 104.702  1.00  0.00    -0.504 OA
ATOM     20  H   UNL     1      95.275 102.990 105.495  1.00  0.00     0.293 HD
ENDBRANCH  16  19
BRANCH  18  21
ATOM     21  O   UNL     1      98.317 103.285 103.698  1.00  0.00    -0.504 OA
ATOM     22  H   UNL     1      98.636 104.229 103.517  1.00  0.00     0.293 HD
ENDBRANCH  18  21
ENDBRANCH   3  13
BRANCH  10  23
ATOM     23  O   UNL     1      98.010  99.139  95.171  1.00  0.00    -0.507 OA
ATOM     24  H   UNL     1      98.635  98.499  94.695  1.00  0.00     0.293 HD
ENDBRANCH  10  23
BRANCH  11  25
ATOM     25  O   UNL     1      94.875  95.886  96.866  1.00  0.00    -0.508 OA
ATOM     26  H   UNL     1      94.196  95.567  97.546  1.00  0.00     0.293 HD
ENDBRANCH  11  25
ENDBRANCH   1   2
BRANCH   1  27
ATOM     27  C   UNL     1      97.682 103.819  98.689  1.00  0.00     0.339 C 
ATOM     28  C   UNL     1      96.863 104.464  99.824  1.00  0.00     0.214 C 
ATOM     29  O   UNL     1      98.711 104.675  98.209  1.00  0.00    -0.332 OA
ATOM     30  C   UNL     1      97.791 104.893 100.964  1.00  0.00     0.180 C 
ATOM     31  C   UNL     1      99.621 105.123  99.212  1.00  0.00     0.179 C 
ATOM     32  C   UNL     1      98.924 105.784 100.426  1.00  0.00     0.177 C 
BRANCH  28  33
ATOM     33  O   UNL     1      96.158 105.577  99.333  1.00  0.00    -0.384 OA
ATOM     34  H   UNL     1      95.971 105.400  98.374  1.00  0.00     0.211 HD
ENDBRANCH  28  33
BRANCH  30  35
ATOM     35  O   UNL     1      97.051 105.576 101.943  1.00  0.00    -0.387 OA
ATOM     36  H   UNL     1      96.651 106.368 101.498  1.00  0.00     0.211 HD
ENDBRANCH  30  35
BRANCH  31  37
ATOM     37  C   UNL     1     100.647 104.049  99.623  1.00  0.00     0.191 C 
BRANCH  37  38
ATOM     38  O   UNL     1     100.474 103.717 100.971  1.00  0.00    -0.394 OA
ATOM     39  H   UNL     1     101.317 103.278 101.259  1.00  0.00     0.210 HD
ENDBRANCH  37  38
ENDBRANCH  31  37
BRANCH  32  40
ATOM     40  O   UNL     1      98.403 107.036 100.053  1.00  0.00    -0.387 OA
ATOM     41  H   UNL     1      98.734 107.697 100.715  1.00  0.00     0.211 HD
ENDBRANCH  32  40
ENDBRANCH   1  27
TORSDOF 12
ENDMDL
MODEL 3
REMARK VINA RESULT:    -0.596      1.668      4.398
REMARK INTER + INTRA:           0.052
REMARK INTER:                  -2.930
REMARK INTRA:                   2.982
REMARK UNBOUND:                 0.927
REMARK SMILES O=c1c(O[C@@H]2O[C@H](CO)[C@@H](O)[C@@H](O)[C@H]2O)c(-c2ccc(O)c(O)c2)oc2cc(O)cc(O)c12
REMARK SMILES IDX 4 1 3 2 16 3 25 4 2 5 26 6 1 7 33 8 27 9 31 10 28 11 30 12
REMARK SMILES IDX 17 13 18 14 19 15 20 16 24 17 22 18 21 19 23 21 32 23 29 25
REMARK SMILES IDX 5 27 14 28 6 29 12 30 7 31 10 32 15 33 13 35 8 37 9 38 11 40
REMARK H PARENT 21 20 23 22 32 24 29 26 15 34 13 36 9 39 11 41
REMARK Flexibility Score: inf
ROOT
ATOM      1  O   UNL     1      96.749 103.394  99.252  1.00  0.00    -0.454 OA
ENDROOT
BRANCH   1   2
ATOM      2  C   UNL     1      96.395 102.039  99.270  1.00  0.00     0.214 A 
ATOM      3  C   UNL     1      95.802 101.467 100.409  1.00  0.00     0.180 A 
ATOM      4  O   UNL     1      95.428 100.192 100.399  1.00  0.00    -0.452 OA
ATOM      5  C   UNL     1      96.565 101.245  98.129  1.00  0.00     0.239 A 
ATOM      6  C   UNL     1      95.595  99.396  99.349  1.00  0.00     0.146 A 
ATOM      7  O   UNL     1      97.046 101.760  97.084  1.00  0.00    -0.285 OA
ATOM      8  C   UNL     1      96.177  99.889  98.157  1.00  0.00     0.111 A 
ATOM      9  C   UNL     1      95.182  98.063  99.431  1.00  0.00     0.094 A 
ATOM     10  C   UNL     1      96.335  99.016  97.054  1.00  0.00     0.134 A 
ATOM     11  C   UNL     1      95.342  97.205  98.339  1.00  0.00     0.123 A 
ATOM     12  C   UNL     1      95.915  97.682  97.158  1.00  0.00     0.093 A 
BRANCH   3  13
ATOM     13  C   UNL     1      95.547 102.257 101.624  1.00  0.00     0.025 A 
ATOM     14  C   UNL     1      95.569 103.657 101.586  1.00  0.00     0.016 A 
ATOM     15  C   UNL     1      95.341 104.396 102.749  1.00  0.00     0.051 A 
ATOM     16  C   UNL     1      95.104 103.746 103.965  1.00  0.00     0.157 A 
ATOM     17  C   UNL     1      95.332 101.602 102.845  1.00  0.00     0.062 A 
ATOM     18  C   UNL     1      95.104 102.341 104.016  1.00  0.00     0.158 A 
BRANCH  16  19
ATOM     19  O   UNL     1      94.875 104.509 105.109  1.00  0.00    -0.504 OA
ATOM     20  H   UNL     1      94.187 104.244 105.803  1.00  0.00     0.293 HD
ENDBRANCH  16  19
BRANCH  18  21
ATOM     21  O   UNL     1      94.876 101.685 105.224  1.00  0.00    -0.504 OA
ATOM     22  H   UNL     1      95.612 101.562 105.909  1.00  0.00     0.293 HD
ENDBRANCH  18  21
ENDBRANCH   3  13
BRANCH  10  23
ATOM     23  O   UNL     1      96.905  99.462  95.862  1.00  0.00    -0.507 OA
ATOM     24  H   UNL     1      97.233  98.815  95.153  1.00  0.00     0.293 HD
ENDBRANCH  10  23
BRANCH  11  25
ATOM     25  O   UNL     1      94.933  95.875  98.416  1.00  0.00    -0.508 OA
ATOM     26  H   UNL     1      94.691  95.347  97.587  1.00  0.00     0.293 HD
ENDBRANCH  11  25
ENDBRANCH   1   2
BRANCH   1  27
ATOM     27  C   UNL     1      98.014 103.862  98.775  1.00  0.00     0.339 C 
ATOM     28  C   UNL     1      98.287 105.313  99.217  1.00  0.00     0.214 C 
ATOM     29  O   UNL     1      99.056 102.974  99.159  1.00  0.00    -0.332 OA
ATOM     30  C   UNL     1      98.520 105.367 100.729  1.00  0.00     0.180 C 
ATOM     31  C   UNL     1      99.338 102.965 100.557  1.00  0.00     0.179 C 
ATOM     32  C   UNL     1      99.619 104.372 101.138  1.00  0.00     0.177 C 
BRANCH  28  33
ATOM     33  O   UNL     1      99.411 105.817  98.539  1.00  0.00    -0.384 OA
ATOM     34  H   UNL     1      99.402 106.803  98.658  1.00  0.00     0.211 HD
ENDBRANCH  28  33
BRANCH  30  35
ATOM     35  O   UNL     1      98.873 106.673 101.106  1.00  0.00    -0.387 OA
ATOM     36  H   UNL     1      99.801 106.628 101.457  1.00  0.00     0.211 HD
ENDBRANCH  30  35
BRANCH  31  37
ATOM     37  C   UNL     1      98.303 102.173 101.379  1.00  0.00     0.191 C 
BRANCH  37  38
ATOM     38  O   UNL     1      98.944 101.164 102.107  1.00  0.00    -0.394 OA
ATOM     39  H   UNL     1      98.855 101.413 103.063  1.00  0.00     0.210 HD
ENDBRANCH  37  38
ENDBRANCH  31  37
BRANCH  32  40
ATOM     40  O   UNL     1     100.867 104.835 100.683  1.00  0.00    -0.387 OA
ATOM     41  H   UNL     1     100.932 104.595  99.722  1.00  0.00     0.211 HD
ENDBRANCH  32  40
ENDBRANCH   1  27
TORSDOF 12
ENDMDL
