MODEL 1
REMARK VINA RESULT:    -4.891      0.000      0.000
REMARK INTER + INTRA:          -6.246
REMARK INTER:                  -5.892
REMARK INTRA:                  -0.354
REMARK UNBOUND:                -0.354
REMARK SMILES COc1ccc([C@H]2CC(=O)c3c(O)cc(O)cc3O2)cc1O
REMARK SMILES IDX 7 1 8 2 9 3 10 4 11 5 12 6 14 7 15 8 17 9 18 10 19 11 6 12
REMARK SMILES IDX 3 13 21 14 4 15 20 16 5 17 2 18 1 19 22 20 13 22 16 24
REMARK H PARENT 22 21 13 23 16 25
REMARK Flexibility Score: inf
ROOT
ATOM      1  C   UNL     1     144.834 131.815 145.582  1.00  0.00     0.211 C 
ATOM      2  C   UNL     1     143.467 131.815 144.879  1.00  0.00     0.131 C 
ATOM      3  C   UNL     1     142.807 130.474 145.024  1.00  0.00     0.174 C 
ATOM      4  O   UNL     1     141.551 130.407 145.089  1.00  0.00    -0.294 OA
ATOM      5  C   UNL     1     143.640 129.247 145.022  1.00  0.00     0.102 A 
ATOM      6  C   UNL     1     143.091 127.949 144.928  1.00  0.00     0.133 A 
ATOM      7  C   UNL     1     143.942 126.835 144.890  1.00  0.00     0.093 A 
ATOM      8  C   UNL     1     145.329 126.998 144.933  1.00  0.00     0.123 A 
ATOM      9  C   UNL     1     145.876 128.283 145.023  1.00  0.00     0.093 A 
ATOM     10  C   UNL     1     145.038 129.402 145.080  1.00  0.00     0.138 A 
ATOM     11  O   UNL     1     145.603 130.677 145.189  1.00  0.00    -0.484 OA
ENDROOT
BRANCH   1  12
ATOM     12  C   UNL     1     145.594 133.083 145.276  1.00  0.00    -0.003 A 
ATOM     13  C   UNL     1     146.960 135.473 144.661  1.00  0.00     0.160 A 
ATOM     14  C   UNL     1     147.193 134.313 143.910  1.00  0.00     0.158 A 
ATOM     15  C   UNL     1     146.025 135.435 145.715  1.00  0.00     0.051 A 
ATOM     16  C   UNL     1     146.510 133.127 144.215  1.00  0.00     0.057 A 
ATOM     17  C   UNL     1     145.347 134.250 146.015  1.00  0.00     0.011 A 
BRANCH  13  18
ATOM     18  O   UNL     1     147.667 136.638 144.329  1.00  0.00    -0.493 OA
ATOM     19  C   UNL     1     148.120 137.601 145.276  1.00  0.00     0.278 C 
ENDBRANCH  13  18
BRANCH  14  20
ATOM     20  O   UNL     1     148.106 134.347 142.858  1.00  0.00    -0.504 OA
ATOM     21  H   UNL     1     149.053 134.686 142.987  1.00  0.00     0.293 HD
ENDBRANCH  14  20
ENDBRANCH   1  12
BRANCH   6  22
ATOM     22  O   UNL     1     141.711 127.764 144.862  1.00  0.00    -0.507 OA
ATOM     23  H   UNL     1     141.151 128.194 144.135  1.00  0.00     0.293 HD
ENDBRANCH   6  22
BRANCH   8  24
ATOM     24  O   UNL     1     146.155 125.877 144.888  1.00  0.00    -0.508 OA
ATOM     25  H   UNL     1     146.148 125.185 145.628  1.00  0.00     0.293 HD
ENDBRANCH   8  24
TORSDOF 5
ENDMDL
MODEL 2
REMARK VINA RESULT:    -4.793     17.359     19.131
REMARK INTER + INTRA:          -6.127
REMARK INTER:                  -5.794
REMARK INTRA:                  -0.333
REMARK UNBOUND:                -0.354
REMARK SMILES COc1ccc([C@H]2CC(=O)c3c(O)cc(O)cc3O2)cc1O
REMARK SMILES IDX 7 1 8 2 9 3 10 4 11 5 12 6 14 7 15 8 17 9 18 10 19 11 6 12
REMARK SMILES IDX 3 13 21 14 4 15 20 16 5 17 2 18 1 19 22 20 13 22 16 24
REMARK H PARENT 22 21 13 23 16 25
REMARK Flexibility Score: inf
ROOT
ATOM      1  C   UNL     1     133.471 141.106 134.590  1.00  0.00     0.211 C 
ATOM      2  C   UNL     1     132.755 142.465 134.649  1.00  0.00     0.131 C 
ATOM      3  C   UNL     1     132.528 142.994 133.262  1.00  0.00     0.174 C 
ATOM      4  O   UNL     1     131.509 143.698 133.029  1.00  0.00    -0.294 OA
ATOM      5  C   UNL     1     133.537 142.736 132.208  1.00  0.00     0.102 A 
ATOM      6  C   UNL     1     133.513 143.378 130.951  1.00  0.00     0.133 A 
ATOM      7  C   UNL     1     134.526 143.116 130.016  1.00  0.00     0.093 A 
ATOM      8  C   UNL     1     135.564 142.232 130.322  1.00  0.00     0.123 A 
ATOM      9  C   UNL     1     135.592 141.597 131.568  1.00  0.00     0.093 A 
ATOM     10  C   UNL     1     134.579 141.835 132.503  1.00  0.00     0.138 A 
ATOM     11  O   UNL     1     134.615 141.176 133.735  1.00  0.00    -0.484 OA
ENDROOT
BRANCH   1  12
ATOM     12  C   UNL     1     133.886 140.658 135.971  1.00  0.00    -0.003 A 
ATOM     13  C   UNL     1     134.594 139.839 138.575  1.00  0.00     0.160 A 
ATOM     14  C   UNL     1     134.882 141.140 138.141  1.00  0.00     0.158 A 
ATOM     15  C   UNL     1     133.932 138.952 137.703  1.00  0.00     0.051 A 
ATOM     16  C   UNL     1     134.526 141.547 136.848  1.00  0.00     0.057 A 
ATOM     17  C   UNL     1     133.579 139.362 136.414  1.00  0.00     0.011 A 
BRANCH  13  18
ATOM     18  O   UNL     1     134.972 139.468 139.875  1.00  0.00    -0.493 OA
ATOM     19  C   UNL     1     135.803 138.354 140.184  1.00  0.00     0.278 C 
ENDBRANCH  13  18
BRANCH  14  20
ATOM     20  O   UNL     1     135.524 142.026 139.004  1.00  0.00    -0.504 OA
ATOM     21  H   UNL     1     136.411 142.453 138.765  1.00  0.00     0.293 HD
ENDBRANCH  14  20
ENDBRANCH   1  12
BRANCH   6  22
ATOM     22  O   UNL     1     132.499 144.280 130.632  1.00  0.00    -0.507 OA
ATOM     23  H   UNL     1     131.616 144.284 131.130  1.00  0.00     0.293 HD
ENDBRANCH   6  22
BRANCH   8  24
ATOM     24  O   UNL     1     136.562 141.992 129.379  1.00  0.00    -0.508 OA
ATOM     25  H   UNL     1     136.644 142.555 128.541  1.00  0.00     0.293 HD
ENDBRANCH   8  24
TORSDOF 5
ENDMDL
MODEL 3
REMARK VINA RESULT:    -4.762      5.276      7.973
REMARK INTER + INTRA:          -6.090
REMARK INTER:                  -5.726
REMARK INTRA:                  -0.364
REMARK UNBOUND:                -0.354
REMARK SMILES COc1ccc([C@H]2CC(=O)c3c(O)cc(O)cc3O2)cc1O
REMARK SMILES IDX 7 1 8 2 9 3 10 4 11 5 12 6 14 7 15 8 17 9 18 10 19 11 6 12
REMARK SMILES IDX 3 13 21 14 4 15 20 16 5 17 2 18 1 19 22 20 13 22 16 24
REMARK H PARENT 22 21 13 23 16 25
REMARK Flexibility Score: inf
ROOT
ATOM      1  C   UNL     1     140.821 129.440 142.566  1.00  0.00     0.211 C 
ATOM      2  C   UNL     1     141.107 130.338 141.353  1.00  0.00     0.131 C 
ATOM      3  C   UNL     1     139.822 130.737 140.685  1.00  0.00     0.174 C 
ATOM      4  O   UNL     1     139.742 131.860 140.121  1.00  0.00    -0.294 OA
ATOM      5  C   UNL     1     138.693 129.777 140.644  1.00  0.00     0.102 A 
ATOM      6  C   UNL     1     137.543 129.982 139.852  1.00  0.00     0.133 A 
ATOM      7  C   UNL     1     136.531 129.010 139.829  1.00  0.00     0.093 A 
ATOM      8  C   UNL     1     136.656 127.837 140.578  1.00  0.00     0.123 A 
ATOM      9  C   UNL     1     137.797 127.629 141.361  1.00  0.00     0.093 A 
ATOM     10  C   UNL     1     138.805 128.598 141.406  1.00  0.00     0.138 A 
ATOM     11  O   UNL     1     139.929 128.381 142.210  1.00  0.00    -0.484 OA
ENDROOT
BRANCH   1  12
ATOM     12  C   UNL     1     142.101 128.869 143.125  1.00  0.00    -0.003 A 
ATOM     13  C   UNL     1     144.481 127.739 144.134  1.00  0.00     0.160 A 
ATOM     14  C   UNL     1     143.296 127.673 144.880  1.00  0.00     0.158 A 
ATOM     15  C   UNL     1     144.466 128.360 142.869  1.00  0.00     0.051 A 
ATOM     16  C   UNL     1     142.114 128.232 144.375  1.00  0.00     0.057 A 
ATOM     17  C   UNL     1     143.284 128.916 142.370  1.00  0.00     0.011 A 
BRANCH  13  18
ATOM     18  O   UNL     1     145.645 127.173 144.676  1.00  0.00    -0.493 OA
ATOM     19  C   UNL     1     146.214 125.940 144.249  1.00  0.00     0.278 C 
ENDBRANCH  13  18
BRANCH  14  20
ATOM     20  O   UNL     1     143.302 127.047 146.125  1.00  0.00    -0.504 OA
ATOM     21  H   UNL     1     142.927 127.502 146.950  1.00  0.00     0.293 HD
ENDBRANCH  14  20
ENDBRANCH   1  12
BRANCH   6  22
ATOM     22  O   UNL     1     137.406 131.136 139.081  1.00  0.00    -0.507 OA
ATOM     23  H   UNL     1     136.701 131.834 139.289  1.00  0.00     0.293 HD
ENDBRANCH   6  22
BRANCH   8  24
ATOM     24  O   UNL     1     135.641 126.884 140.535  1.00  0.00    -0.508 OA
ATOM     25  H   UNL     1     134.699 127.100 140.840  1.00  0.00     0.293 HD
ENDBRANCH   8  24
TORSDOF 5
ENDMDL
MODEL 4
REMARK VINA RESULT:    -4.760     11.982     14.240
REMARK INTER + INTRA:          -6.088
REMARK INTER:                  -5.741
REMARK INTRA:                  -0.347
REMARK UNBOUND:                -0.354
REMARK SMILES COc1ccc([C@H]2CC(=O)c3c(O)cc(O)cc3O2)cc1O
REMARK SMILES IDX 7 1 8 2 9 3 10 4 11 5 12 6 14 7 15 8 17 9 18 10 19 11 6 12
REMARK SMILES IDX 3 13 21 14 4 15 20 16 5 17 2 18 1 19 22 20 13 22 16 24
REMARK H PARENT 22 21 13 23 16 25
REMARK Flexibility Score: inf
ROOT
ATOM      1  C   UNL     1     133.161 131.468 138.040  1.00  0.00     0.211 C 
ATOM      2  C   UNL     1     132.905 129.954 138.129  1.00  0.00     0.131 C 
ATOM      3  C   UNL     1     131.429 129.676 138.134  1.00  0.00     0.174 C 
ATOM      4  O   UNL     1     130.999 128.613 137.612  1.00  0.00    -0.294 OA
ATOM      5  C   UNL     1     130.510 130.623 138.811  1.00  0.00     0.102 A 
ATOM      6  C   UNL     1     129.152 130.328 139.056  1.00  0.00     0.133 A 
ATOM      7  C   UNL     1     128.350 131.255 139.740  1.00  0.00     0.093 A 
ATOM      8  C   UNL     1     128.889 132.464 140.190  1.00  0.00     0.123 A 
ATOM      9  C   UNL     1     130.236 132.757 139.952  1.00  0.00     0.093 A 
ATOM     10  C   UNL     1     131.041 131.849 139.255  1.00  0.00     0.138 A 
ATOM     11  O   UNL     1     132.381 132.169 139.010  1.00  0.00    -0.484 OA
ENDROOT
BRANCH   1  12
ATOM     12  C   UNL     1     134.626 131.776 138.236  1.00  0.00    -0.003 A 
ATOM     13  C   UNL     1     137.349 132.367 138.672  1.00  0.00     0.160 A 
ATOM     14  C   UNL     1     136.477 133.360 138.207  1.00  0.00     0.158 A 
ATOM     15  C   UNL     1     136.847 131.076 138.934  1.00  0.00     0.051 A 
ATOM     16  C   UNL     1     135.123 133.065 137.995  1.00  0.00     0.057 A 
ATOM     17  C   UNL     1     135.497 130.787 138.720  1.00  0.00     0.011 A 
BRANCH  13  18
ATOM     18  O   UNL     1     138.698 132.699 138.867  1.00  0.00    -0.493 OA
ATOM     19  C   UNL     1     139.603 131.950 139.672  1.00  0.00     0.278 C 
ENDBRANCH  13  18
BRANCH  14  20
ATOM     20  O   UNL     1     136.964 134.642 137.960  1.00  0.00    -0.504 OA
ATOM     21  H   UNL     1     137.683 135.059 138.540  1.00  0.00     0.293 HD
ENDBRANCH  14  20
ENDBRANCH   1  12
BRANCH   6  22
ATOM     22  O   UNL     1     128.599 129.119 138.635  1.00  0.00    -0.507 OA
ATOM     23  H   UNL     1     127.671 129.071 138.231  1.00  0.00     0.293 HD
ENDBRANCH   6  22
BRANCH   8  24
ATOM     24  O   UNL     1     128.076 133.366 140.872  1.00  0.00    -0.508 OA
ATOM     25  H   UNL     1     127.068 133.262 140.888  1.00  0.00     0.293 HD
ENDBRANCH   8  24
TORSDOF 5
ENDMDL
MODEL 5
REMARK VINA RESULT:    -4.673     20.774     21.951
REMARK INTER + INTRA:          -5.983
REMARK INTER:                  -5.599
REMARK INTRA:                  -0.383
REMARK UNBOUND:                -0.354
REMARK SMILES COc1ccc([C@H]2CC(=O)c3c(O)cc(O)cc3O2)cc1O
REMARK SMILES IDX 7 1 8 2 9 3 10 4 11 5 12 6 14 7 15 8 17 9 18 10 19 11 6 12
REMARK SMILES IDX 3 13 21 14 4 15 20 16 5 17 2 18 1 19 22 20 13 22 16 24
REMARK H PARENT 22 21 13 23 16 25
REMARK Flexibility Score: inf
ROOT
ATOM      1  C   UNL     1     131.449 142.759 133.178  1.00  0.00     0.211 C 
ATOM      2  C   UNL     1     130.427 142.966 132.049  1.00  0.00     0.131 C 
ATOM      3  C   UNL     1     130.886 142.273 130.798  1.00  0.00     0.174 C 
ATOM      4  O   UNL     1     130.029 141.797 130.006  1.00  0.00    -0.294 OA
ATOM      5  C   UNL     1     132.333 142.218 130.483  1.00  0.00     0.102 A 
ATOM      6  C   UNL     1     132.829 141.790 129.232  1.00  0.00     0.133 A 
ATOM      7  C   UNL     1     134.211 141.805 128.989  1.00  0.00     0.093 A 
ATOM      8  C   UNL     1     135.100 142.248 129.972  1.00  0.00     0.123 A 
ATOM      9  C   UNL     1     134.611 142.677 131.211  1.00  0.00     0.093 A 
ATOM     10  C   UNL     1     133.237 142.651 131.472  1.00  0.00     0.138 A 
ATOM     11  O   UNL     1     132.770 143.065 132.724  1.00  0.00    -0.484 OA
ENDROOT
BRANCH   1  12
ATOM     12  C   UNL     1     131.106 143.611 134.375  1.00  0.00    -0.003 A 
ATOM     13  C   UNL     1     130.468 145.263 136.571  1.00  0.00     0.160 A 
ATOM     14  C   UNL     1     131.798 144.894 136.328  1.00  0.00     0.158 A 
ATOM     15  C   UNL     1     129.457 144.813 135.698  1.00  0.00     0.051 A 
ATOM     16  C   UNL     1     132.113 144.076 135.234  1.00  0.00     0.057 A 
ATOM     17  C   UNL     1     129.777 143.998 134.609  1.00  0.00     0.011 A 
BRANCH  13  18
ATOM     18  O   UNL     1     130.192 146.078 137.679  1.00  0.00    -0.493 OA
ATOM     19  C   UNL     1     129.768 145.592 138.949  1.00  0.00     0.278 C 
ENDBRANCH  13  18
BRANCH  14  20
ATOM     20  O   UNL     1     132.803 145.347 137.179  1.00  0.00    -0.504 OA
ATOM     21  H   UNL     1     133.739 145.542 136.840  1.00  0.00     0.293 HD
ENDBRANCH  14  20
ENDBRANCH   1  12
BRANCH   6  22
ATOM     22  O   UNL     1     131.958 141.364 128.230  1.00  0.00    -0.507 OA
ATOM     23  H   UNL     1     132.193 141.454 127.248  1.00  0.00     0.293 HD
ENDBRANCH   6  22
BRANCH   8  24
ATOM     24  O   UNL     1     136.468 142.259 129.706  1.00  0.00    -0.508 OA
ATOM     25  H   UNL     1     137.042 143.064 129.923  1.00  0.00     0.293 HD
ENDBRANCH   8  24
TORSDOF 5
ENDMDL
MODEL 6
REMARK VINA RESULT:    -4.646     20.462     22.027
REMARK INTER + INTRA:          -5.950
REMARK INTER:                  -5.564
REMARK INTRA:                  -0.386
REMARK UNBOUND:                -0.354
REMARK SMILES COc1ccc([C@H]2CC(=O)c3c(O)cc(O)cc3O2)cc1O
REMARK SMILES IDX 7 1 8 2 9 3 10 4 11 5 12 6 14 7 15 8 17 9 18 10 19 11 6 12
REMARK SMILES IDX 3 13 21 14 4 15 20 16 5 17 2 18 1 19 22 20 13 22 16 24
REMARK H PARENT 22 21 13 23 16 25
REMARK Flexibility Score: inf
ROOT
ATOM      1  C   UNL     1     131.701 143.517 132.068  1.00  0.00     0.211 C 
ATOM      2  C   UNL     1     130.387 142.734 132.214  1.00  0.00     0.131 C 
ATOM      3  C   UNL     1     129.641 143.194 133.435  1.00  0.00     0.174 C 
ATOM      4  O   UNL     1     128.381 143.173 133.432  1.00  0.00    -0.294 OA
ATOM      5  C   UNL     1     130.398 143.600 134.643  1.00  0.00     0.102 A 
ATOM      6  C   UNL     1     129.781 143.827 135.892  1.00  0.00     0.133 A 
ATOM      7  C   UNL     1     130.566 144.168 137.004  1.00  0.00     0.093 A 
ATOM      8  C   UNL     1     131.954 144.276 136.888  1.00  0.00     0.123 A 
ATOM      9  C   UNL     1     132.568 144.047 135.652  1.00  0.00     0.093 A 
ATOM     10  C   UNL     1     131.796 143.724 134.531  1.00  0.00     0.138 A 
ATOM     11  O   UNL     1     132.427 143.519 133.300  1.00  0.00    -0.484 OA
ENDROOT
BRANCH   1  12
ATOM     12  C   UNL     1     132.554 142.932 130.968  1.00  0.00    -0.003 A 
ATOM     13  C   UNL     1     134.152 141.777 128.951  1.00  0.00     0.160 A 
ATOM     14  C   UNL     1     134.741 142.534 129.972  1.00  0.00     0.158 A 
ATOM     15  C   UNL     1     132.755 141.587 128.953  1.00  0.00     0.051 A 
ATOM     16  C   UNL     1     133.946 143.104 130.976  1.00  0.00     0.057 A 
ATOM     17  C   UNL     1     131.967 142.157 129.956  1.00  0.00     0.011 A 
BRANCH  13  18
ATOM     18  O   UNL     1     134.980 141.228 127.961  1.00  0.00    -0.493 OA
ATOM     19  C   UNL     1     134.986 141.639 126.597  1.00  0.00     0.278 C 
ENDBRANCH  13  18
BRANCH  14  20
ATOM     20  O   UNL     1     136.123 142.714 129.983  1.00  0.00    -0.504 OA
ATOM     21  H   UNL     1     136.685 142.467 130.790  1.00  0.00     0.293 HD
ENDBRANCH  14  20
ENDBRANCH   1  12
BRANCH   6  22
ATOM     22  O   UNL     1     128.399 143.704 136.036  1.00  0.00    -0.507 OA
ATOM     23  H   UNL     1     127.966 142.819 136.273  1.00  0.00     0.293 HD
ENDBRANCH   6  22
BRANCH   8  24
ATOM     24  O   UNL     1     132.713 144.610 138.007  1.00  0.00    -0.508 OA
ATOM     25  H   UNL     1     132.636 144.090 138.873  1.00  0.00     0.293 HD
ENDBRANCH   8  24
TORSDOF 5
ENDMDL
MODEL 7
REMARK VINA RESULT:    -4.646      4.128      6.916
REMARK INTER + INTRA:          -5.950
REMARK INTER:                  -5.586
REMARK INTRA:                  -0.364
REMARK UNBOUND:                -0.354
REMARK SMILES COc1ccc([C@H]2CC(=O)c3c(O)cc(O)cc3O2)cc1O
REMARK SMILES IDX 7 1 8 2 9 3 10 4 11 5 12 6 14 7 15 8 17 9 18 10 19 11 6 12
REMARK SMILES IDX 3 13 21 14 4 15 20 16 5 17 2 18 1 19 22 20 13 22 16 24
REMARK H PARENT 22 21 13 23 16 25
REMARK Flexibility Score: inf
ROOT
ATOM      1  C   UNL     1     142.641 130.694 141.824  1.00  0.00     0.211 C 
ATOM      2  C   UNL     1     142.900 131.743 142.917  1.00  0.00     0.131 C 
ATOM      3  C   UNL     1     144.137 131.391 143.693  1.00  0.00     0.174 C 
ATOM      4  O   UNL     1     144.852 132.313 144.168  1.00  0.00    -0.294 OA
ATOM      5  C   UNL     1     144.461 129.966 143.943  1.00  0.00     0.102 A 
ATOM      6  C   UNL     1     145.468 129.556 144.844  1.00  0.00     0.133 A 
ATOM      7  C   UNL     1     145.692 128.188 145.063  1.00  0.00     0.093 A 
ATOM      8  C   UNL     1     144.919 127.228 144.406  1.00  0.00     0.123 A 
ATOM      9  C   UNL     1     143.917 127.631 143.516  1.00  0.00     0.093 A 
ATOM     10  C   UNL     1     143.696 128.991 143.275  1.00  0.00     0.138 A 
ATOM     11  O   UNL     1     142.702 129.373 142.367  1.00  0.00    -0.484 OA
ENDROOT
BRANCH   1  12
ATOM     12  C   UNL     1     141.299 130.921 141.170  1.00  0.00    -0.003 A 
ATOM     13  C   UNL     1     138.785 131.406 139.989  1.00  0.00     0.160 A 
ATOM     14  C   UNL     1     138.884 130.604 141.132  1.00  0.00     0.158 A 
ATOM     15  C   UNL     1     139.952 131.981 139.446  1.00  0.00     0.051 A 
ATOM     16  C   UNL     1     140.134 130.366 141.721  1.00  0.00     0.057 A 
ATOM     17  C   UNL     1     141.196 131.741 140.037  1.00  0.00     0.011 A 
BRANCH  13  18
ATOM     18  O   UNL     1     137.517 131.616 139.425  1.00  0.00    -0.493 OA
ATOM     19  C   UNL     1     137.070 131.026 138.209  1.00  0.00     0.278 C 
ENDBRANCH  13  18
BRANCH  14  20
ATOM     20  O   UNL     1     137.732 130.044 141.682  1.00  0.00    -0.504 OA
ATOM     21  H   UNL     1     137.594 129.040 141.720  1.00  0.00     0.293 HD
ENDBRANCH  14  20
ENDBRANCH   1  12
BRANCH   6  22
ATOM     22  O   UNL     1     146.238 130.498 145.526  1.00  0.00    -0.507 OA
ATOM     23  H   UNL     1     146.909 130.223 146.234  1.00  0.00     0.293 HD
ENDBRANCH   6  22
BRANCH   8  24
ATOM     24  O   UNL     1     145.155 125.876 144.644  1.00  0.00    -0.508 OA
ATOM     25  H   UNL     1     145.278 125.219 143.883  1.00  0.00     0.293 HD
ENDBRANCH   8  24
TORSDOF 5
ENDMDL
MODEL 8
REMARK VINA RESULT:    -4.644      5.208      8.917
REMARK INTER + INTRA:          -5.948
REMARK INTER:                  -5.579
REMARK INTRA:                  -0.368
REMARK UNBOUND:                -0.354
REMARK SMILES COc1ccc([C@H]2CC(=O)c3c(O)cc(O)cc3O2)cc1O
REMARK SMILES IDX 7 1 8 2 9 3 10 4 11 5 12 6 14 7 15 8 17 9 18 10 19 11 6 12
REMARK SMILES IDX 3 13 21 14 4 15 20 16 5 17 2 18 1 19 22 20 13 22 16 24
REMARK H PARENT 22 21 13 23 16 25
REMARK Flexibility Score: inf
ROOT
ATOM      1  C   UNL     1     140.336 129.145 141.549  1.00  0.00     0.211 C 
ATOM      2  C   UNL     1     140.602 130.657 141.635  1.00  0.00     0.131 C 
ATOM      3  C   UNL     1     141.988 130.913 142.154  1.00  0.00     0.174 C 
ATOM      4  O   UNL     1     142.617 131.931 141.759  1.00  0.00    -0.294 OA
ATOM      5  C   UNL     1     142.567 130.001 143.170  1.00  0.00     0.102 A 
ATOM      6  C   UNL     1     143.759 130.292 143.869  1.00  0.00     0.133 A 
ATOM      7  C   UNL     1     144.226 129.402 144.848  1.00  0.00     0.093 A 
ATOM      8  C   UNL     1     143.517 128.236 145.145  1.00  0.00     0.123 A 
ATOM      9  C   UNL     1     142.333 127.947 144.456  1.00  0.00     0.093 A 
ATOM     10  C   UNL     1     141.866 128.816 143.465  1.00  0.00     0.138 A 
ATOM     11  O   UNL     1     140.691 128.500 142.775  1.00  0.00    -0.484 OA
ENDROOT
BRANCH   1  12
ATOM     12  C   UNL     1     138.888 128.873 141.224  1.00  0.00    -0.003 A 
ATOM     13  C   UNL     1     136.163 128.380 140.685  1.00  0.00     0.160 A 
ATOM     14  C   UNL     1     137.011 127.328 141.056  1.00  0.00     0.158 A 
ATOM     15  C   UNL     1     136.683 129.687 140.601  1.00  0.00     0.051 A 
ATOM     16  C   UNL     1     138.364 127.576 141.328  1.00  0.00     0.057 A 
ATOM     17  C   UNL     1     138.033 129.929 140.872  1.00  0.00     0.011 A 
BRANCH  13  18
ATOM     18  O   UNL     1     134.817 128.091 140.416  1.00  0.00    -0.493 OA
ATOM     19  C   UNL     1     134.083 128.625 139.318  1.00  0.00     0.278 C 
ENDBRANCH  13  18
BRANCH  14  20
ATOM     20  O   UNL     1     136.500 126.036 141.156  1.00  0.00    -0.504 OA
ATOM     21  H   UNL     1     135.662 125.835 141.689  1.00  0.00     0.293 HD
ENDBRANCH  14  20
ENDBRANCH   1  12
BRANCH   6  22
ATOM     22  O   UNL     1     144.472 131.461 143.604  1.00  0.00    -0.507 OA
ATOM     23  H   UNL     1     145.134 131.518 142.839  1.00  0.00     0.293 HD
ENDBRANCH   6  22
BRANCH   8  24
ATOM     24  O   UNL     1     143.997 127.370 146.125  1.00  0.00    -0.508 OA
ATOM     25  H   UNL     1     144.561 126.563 145.887  1.00  0.00     0.293 HD
ENDBRANCH   8  24
TORSDOF 5
ENDMDL
MODEL 9
REMARK VINA RESULT:    -4.540      3.676      7.249
REMARK INTER + INTRA:          -5.823
REMARK INTER:                  -5.486
REMARK INTRA:                  -0.337
REMARK UNBOUND:                -0.354
REMARK SMILES COc1ccc([C@H]2CC(=O)c3c(O)cc(O)cc3O2)cc1O
REMARK SMILES IDX 7 1 8 2 9 3 10 4 11 5 12 6 14 7 15 8 17 9 18 10 19 11 6 12
REMARK SMILES IDX 3 13 21 14 4 15 20 16 5 17 2 18 1 19 22 20 13 22 16 24
REMARK H PARENT 22 21 13 23 16 25
REMARK Flexibility Score: inf
ROOT
ATOM      1  C   UNL     1     142.553 129.250 143.568  1.00  0.00     0.211 C 
ATOM      2  C   UNL     1     143.572 128.117 143.360  1.00  0.00     0.131 C 
ATOM      3  C   UNL     1     144.643 128.182 144.410  1.00  0.00     0.174 C 
ATOM      4  O   UNL     1     145.180 127.115 144.811  1.00  0.00    -0.294 OA
ATOM      5  C   UNL     1     145.097 129.502 144.910  1.00  0.00     0.102 A 
ATOM      6  C   UNL     1     146.241 129.662 145.721  1.00  0.00     0.133 A 
ATOM      7  C   UNL     1     146.636 130.947 146.123  1.00  0.00     0.093 A 
ATOM      8  C   UNL     1     145.912 132.072 145.718  1.00  0.00     0.123 A 
ATOM      9  C   UNL     1     144.779 131.917 144.911  1.00  0.00     0.093 A 
ATOM     10  C   UNL     1     144.365 130.640 144.518  1.00  0.00     0.138 A 
ATOM     11  O   UNL     1     143.219 130.504 143.727  1.00  0.00    -0.484 OA
ENDROOT
BRANCH   1  12
ATOM     12  C   UNL     1     141.587 129.322 142.410  1.00  0.00    -0.003 A 
ATOM     13  C   UNL     1     139.813 129.521 140.226  1.00  0.00     0.160 A 
ATOM     14  C   UNL     1     139.436 129.998 141.488  1.00  0.00     0.158 A 
ATOM     15  C   UNL     1     141.094 128.956 140.057  1.00  0.00     0.051 A 
ATOM     16  C   UNL     1     140.320 129.902 142.571  1.00  0.00     0.057 A 
ATOM     17  C   UNL     1     141.972 128.863 141.140  1.00  0.00     0.011 A 
BRANCH  13  18
ATOM     18  O   UNL     1     138.898 129.629 139.168  1.00  0.00    -0.493 OA
ATOM     19  C   UNL     1     139.236 129.477 137.793  1.00  0.00     0.278 C 
ENDBRANCH  13  18
BRANCH  14  20
ATOM     20  O   UNL     1     138.176 130.569 141.658  1.00  0.00    -0.504 OA
ATOM     21  H   UNL     1     138.062 131.502 142.038  1.00  0.00     0.293 HD
ENDBRANCH  14  20
ENDBRANCH   1  12
BRANCH   6  22
ATOM     22  O   UNL     1     146.990 128.555 146.119  1.00  0.00    -0.507 OA
ATOM     23  H   UNL     1     147.617 128.080 145.480  1.00  0.00     0.293 HD
ENDBRANCH   6  22
BRANCH   8  24
ATOM     24  O   UNL     1     146.326 133.338 146.125  1.00  0.00    -0.508 OA
ATOM     25  H   UNL     1     146.388 134.109 145.471  1.00  0.00     0.293 HD
ENDBRANCH   8  24
TORSDOF 5
ENDMDL
