MODEL 1
REMARK VINA RESULT:    -4.992      0.000      0.000
REMARK INTER + INTRA:          -6.790
REMARK INTER:                  -6.452
REMARK INTRA:                  -0.339
REMARK UNBOUND:                -0.339
REMARK SMILES C=CC(=O)CCCCC
REMARK SMILES IDX 6 1 7 2 8 3 9 4 5 5 3 6 4 7 2 8 1 9
REMARK H PARENT
REMARK Flexibility Score: inf
ROOT
ATOM      1  C   UNL     1       3.934  11.689  48.174  1.00  0.00     0.008 C 
ENDROOT
BRANCH   1   2
ATOM      2  C   UNL     1       4.076  10.903  46.853  1.00  0.00     0.000 C 
BRANCH   2   3
ATOM      3  C   UNL     1       2.740  10.675  46.125  1.00  0.00    -0.003 C 
ATOM      4  C   UNL     1       1.797  11.872  46.217  1.00  0.00     0.004 C 
ENDBRANCH   2   3
ENDBRANCH   1   2
BRANCH   1   5
ATOM      5  C   UNL     1       5.118  12.641  48.415  1.00  0.00     0.080 C 
BRANCH   5   6
ATOM      6  C   UNL     1       5.261  13.693  47.338  1.00  0.00     0.155 C 
ATOM      7  O   UNL     1       4.274  14.411  47.020  1.00  0.00    -0.295 OA
BRANCH   6   8
ATOM      8  C   UNL     1       6.540  13.920  46.636  1.00  0.00     0.039 C 
ATOM      9  C   UNL     1       7.699  14.127  47.262  1.00  0.00     0.012 C 
ENDBRANCH   6   8
ENDBRANCH   5   6
ENDBRANCH   1   5
TORSDOF 5
ENDMDL
MODEL 2
REMARK VINA RESULT:    -4.860      1.625      2.347
REMARK INTER + INTRA:          -6.619
REMARK INTER:                  -6.265
REMARK INTRA:                  -0.354
REMARK UNBOUND:                -0.339
REMARK SMILES C=CC(=O)CCCCC
REMARK SMILES IDX 6 1 7 2 8 3 9 4 5 5 3 6 4 7 2 8 1 9
REMARK H PARENT
REMARK Flexibility Score: inf
ROOT
ATOM      1  C   UNL     1       3.969  10.831  46.307  1.00  0.00     0.008 C 
ENDROOT
BRANCH   1   2
ATOM      2  C   UNL     1       2.612  10.365  45.737  1.00  0.00     0.000 C 
BRANCH   2   3
ATOM      3  C   UNL     1       1.438  11.287  46.107  1.00  0.00    -0.003 C 
ATOM      4  C   UNL     1       0.176  10.521  46.495  1.00  0.00     0.004 C 
ENDBRANCH   2   3
ENDBRANCH   1   2
BRANCH   1   5
ATOM      5  C   UNL     1       3.878  11.200  47.797  1.00  0.00     0.080 C 
BRANCH   5   6
ATOM      6  C   UNL     1       4.763  12.367  48.174  1.00  0.00     0.155 C 
ATOM      7  O   UNL     1       5.408  12.348  49.258  1.00  0.00    -0.295 OA
BRANCH   6   8
ATOM      8  C   UNL     1       4.908  13.549  47.300  1.00  0.00     0.039 C 
ATOM      9  C   UNL     1       3.898  14.359  46.982  1.00  0.00     0.012 C 
ENDBRANCH   6   8
ENDBRANCH   5   6
ENDBRANCH   1   5
TORSDOF 5
ENDMDL
MODEL 3
REMARK VINA RESULT:    -4.813      1.508      4.387
REMARK INTER + INTRA:          -6.559
REMARK INTER:                  -6.621
REMARK INTRA:                   0.062
REMARK UNBOUND:                -0.339
REMARK SMILES C=CC(=O)CCCCC
REMARK SMILES IDX 6 1 7 2 8 3 9 4 5 5 3 6 4 7 2 8 1 9
REMARK H PARENT
REMARK Flexibility Score: inf
ROOT
ATOM      1  C   UNL     1       4.047  14.192  47.002  1.00  0.00     0.008 C 
ENDROOT
BRANCH   1   2
ATOM      2  C   UNL     1       5.340  13.469  47.434  1.00  0.00     0.000 C 
BRANCH   2   3
ATOM      3  C   UNL     1       6.579  13.881  46.620  1.00  0.00    -0.003 C 
ATOM      4  C   UNL     1       7.800  14.164  47.492  1.00  0.00     0.004 C 
ENDBRANCH   2   3
ENDBRANCH   1   2
BRANCH   1   5
ATOM      5  C   UNL     1       2.836  13.244  46.960  1.00  0.00     0.080 C 
BRANCH   5   6
ATOM      6  C   UNL     1       3.188  11.817  47.319  1.00  0.00     0.155 C 
ATOM      7  O   UNL     1       3.094  11.424  48.514  1.00  0.00    -0.295 OA
BRANCH   6   8
ATOM      8  C   UNL     1       3.638  10.846  46.301  1.00  0.00     0.039 C 
ATOM      9  C   UNL     1       2.805  10.129  45.547  1.00  0.00     0.012 C 
ENDBRANCH   6   8
ENDBRANCH   5   6
ENDBRANCH   1   5
TORSDOF 5
ENDMDL
MODEL 4
REMARK VINA RESULT:    -4.563      2.421      4.501
REMARK INTER + INTRA:          -6.235
REMARK INTER:                  -5.673
REMARK INTRA:                  -0.563
REMARK UNBOUND:                -0.339
REMARK SMILES C=CC(=O)CCCCC
REMARK SMILES IDX 6 1 7 2 8 3 9 4 5 5 3 6 4 7 2 8 1 9
REMARK H PARENT
REMARK Flexibility Score: inf
ROOT
ATOM      1  C   UNL     1       2.670  10.486  45.859  1.00  0.00     0.008 C 
ENDROOT
BRANCH   1   2
ATOM      2  C   UNL     1       4.020  10.846  46.515  1.00  0.00     0.000 C 
BRANCH   2   3
ATOM      3  C   UNL     1       3.907  11.921  47.608  1.00  0.00    -0.003 C 
ATOM      4  C   UNL     1       4.703  13.185  47.289  1.00  0.00     0.004 C 
ENDBRANCH   2   3
ENDBRANCH   1   2
BRANCH   1   5
ATOM      5  C   UNL     1       1.472  10.871  46.743  1.00  0.00     0.080 C 
BRANCH   5   6
ATOM      6  C   UNL     1       0.507  11.812  46.057  1.00  0.00     0.155 C 
ATOM      7  O   UNL     1      -0.723  11.536  46.013  1.00  0.00    -0.295 OA
BRANCH   6   8
ATOM      8  C   UNL     1       0.959  13.071  45.430  1.00  0.00     0.039 C 
ATOM      9  C   UNL     1       1.258  14.172  46.119  1.00  0.00     0.012 C 
ENDBRANCH   6   8
ENDBRANCH   5   6
ENDBRANCH   1   5
TORSDOF 5
ENDMDL
MODEL 5
REMARK VINA RESULT:    -4.551      2.051      4.298
REMARK INTER + INTRA:          -6.220
REMARK INTER:                  -5.772
REMARK INTRA:                  -0.448
REMARK UNBOUND:                -0.339
REMARK SMILES C=CC(=O)CCCCC
REMARK SMILES IDX 6 1 7 2 8 3 9 4 5 5 3 6 4 7 2 8 1 9
REMARK H PARENT
REMARK Flexibility Score: inf
ROOT
ATOM      1  C   UNL     1       3.972  11.400  48.146  1.00  0.00     0.008 C 
ENDROOT
BRANCH   1   2
ATOM      2  C   UNL     1       4.978  12.533  48.438  1.00  0.00     0.000 C 
BRANCH   2   3
ATOM      3  C   UNL     1       5.184  13.495  47.256  1.00  0.00    -0.003 C 
ATOM      4  C   UNL     1       3.993  14.423  47.026  1.00  0.00     0.004 C 
ENDBRANCH   2   3
ENDBRANCH   1   2
BRANCH   1   5
ATOM      5  C   UNL     1       4.081  10.882  46.701  1.00  0.00     0.080 C 
BRANCH   5   6
ATOM      6  C   UNL     1       2.737  10.612  46.064  1.00  0.00     0.155 C 
ATOM      7  O   UNL     1       2.623   9.718  45.182  1.00  0.00    -0.295 OA
BRANCH   6   8
ATOM      8  C   UNL     1       1.527  11.368  46.448  1.00  0.00     0.039 C 
ATOM      9  C   UNL     1       1.095  12.448  45.797  1.00  0.00     0.012 C 
ENDBRANCH   6   8
ENDBRANCH   5   6
ENDBRANCH   1   5
TORSDOF 5
ENDMDL
MODEL 6
REMARK VINA RESULT:    -4.549      1.857      2.698
REMARK INTER + INTRA:          -6.217
REMARK INTER:                  -5.706
REMARK INTRA:                  -0.511
REMARK UNBOUND:                -0.339
REMARK SMILES C=CC(=O)CCCCC
REMARK SMILES IDX 6 1 7 2 8 3 9 4 5 5 3 6 4 7 2 8 1 9
REMARK H PARENT
REMARK Flexibility Score: inf
ROOT
ATOM      1  C   UNL     1       3.416  11.228  47.485  1.00  0.00     0.008 C 
ENDROOT
BRANCH   1   2
ATOM      2  C   UNL     1       3.576  10.599  46.085  1.00  0.00     0.000 C 
BRANCH   2   3
ATOM      3  C   UNL     1       2.244  10.173  45.444  1.00  0.00    -0.003 C 
ATOM      4  C   UNL     1       1.029  10.535  46.294  1.00  0.00     0.004 C 
ENDBRANCH   2   3
ENDBRANCH   1   2
BRANCH   1   5
ATOM      5  C   UNL     1       4.332  12.448  47.684  1.00  0.00     0.080 C 
BRANCH   5   6
ATOM      6  C   UNL     1       3.757  13.721  47.106  1.00  0.00     0.155 C 
ATOM      7  O   UNL     1       4.525  14.644  46.719  1.00  0.00    -0.295 OA
BRANCH   6   8
ATOM      8  C   UNL     1       2.300  13.927  46.969  1.00  0.00     0.039 C 
ATOM      9  C   UNL     1       1.675  14.011  45.795  1.00  0.00     0.012 C 
ENDBRANCH   6   8
ENDBRANCH   5   6
ENDBRANCH   1   5
TORSDOF 5
ENDMDL
MODEL 7
REMARK VINA RESULT:    -4.472      1.919      2.973
REMARK INTER + INTRA:          -6.118
REMARK INTER:                  -5.910
REMARK INTRA:                  -0.207
REMARK UNBOUND:                -0.339
REMARK SMILES C=CC(=O)CCCCC
REMARK SMILES IDX 6 1 7 2 8 3 9 4 5 5 3 6 4 7 2 8 1 9
REMARK H PARENT
REMARK Flexibility Score: inf
ROOT
ATOM      1  C   UNL     1       2.617  10.258  45.855  1.00  0.00     0.008 C 
ENDROOT
BRANCH   1   2
ATOM      2  C   UNL     1       1.492  11.314  45.903  1.00  0.00     0.000 C 
BRANCH   2   3
ATOM      3  C   UNL     1       0.131  10.746  46.338  1.00  0.00    -0.003 C 
ATOM      4  C   UNL     1      -1.037  11.672  46.007  1.00  0.00     0.004 C 
ENDBRANCH   2   3
ENDBRANCH   1   2
BRANCH   1   5
ATOM      5  C   UNL     1       3.993  10.857  46.193  1.00  0.00     0.080 C 
BRANCH   5   6
ATOM      6  C   UNL     1       3.966  11.753  47.411  1.00  0.00     0.155 C 
ATOM      7  O   UNL     1       3.475  11.333  48.495  1.00  0.00    -0.295 OA
BRANCH   6   8
ATOM      8  C   UNL     1       4.509  13.126  47.381  1.00  0.00     0.039 C 
ATOM      9  C   UNL     1       3.803  14.190  46.998  1.00  0.00     0.012 C 
ENDBRANCH   6   8
ENDBRANCH   5   6
ENDBRANCH   1   5
TORSDOF 5
ENDMDL
MODEL 8
REMARK VINA RESULT:    -4.433      2.188      3.691
REMARK INTER + INTRA:          -6.068
REMARK INTER:                  -5.566
REMARK INTRA:                  -0.501
REMARK UNBOUND:                -0.339
REMARK SMILES C=CC(=O)CCCCC
REMARK SMILES IDX 6 1 7 2 8 3 9 4 5 5 3 6 4 7 2 8 1 9
REMARK H PARENT
REMARK Flexibility Score: inf
ROOT
ATOM      1  C   UNL     1       3.704  13.992  46.797  1.00  0.00     0.008 C 
ENDROOT
BRANCH   1   2
ATOM      2  C   UNL     1       2.174  14.101  46.961  1.00  0.00     0.000 C 
BRANCH   2   3
ATOM      3  C   UNL     1       1.410  14.123  45.627  1.00  0.00    -0.003 C 
ATOM      4  C   UNL     1       0.497  12.914  45.439  1.00  0.00     0.004 C 
ENDBRANCH   2   3
ENDBRANCH   1   2
BRANCH   1   5
ATOM      5  C   UNL     1       4.309  12.891  47.686  1.00  0.00     0.080 C 
BRANCH   5   6
ATOM      6  C   UNL     1       3.628  11.551  47.516  1.00  0.00     0.155 C 
ATOM      7  O   UNL     1       2.924  11.077  48.449  1.00  0.00    -0.295 OA
BRANCH   6   8
ATOM      8  C   UNL     1       3.755  10.765  46.272  1.00  0.00     0.039 C 
ATOM      9  C   UNL     1       2.724  10.185  45.658  1.00  0.00     0.012 C 
ENDBRANCH   6   8
ENDBRANCH   5   6
ENDBRANCH   1   5
TORSDOF 5
ENDMDL
MODEL 9
REMARK VINA RESULT:    -4.293      2.487      4.393
REMARK INTER + INTRA:          -5.887
REMARK INTER:                  -5.610
REMARK INTRA:                  -0.277
REMARK UNBOUND:                -0.339
REMARK SMILES C=CC(=O)CCCCC
REMARK SMILES IDX 6 1 7 2 8 3 9 4 5 5 3 6 4 7 2 8 1 9
REMARK H PARENT
REMARK Flexibility Score: inf
ROOT
ATOM      1  C   UNL     1       1.450  11.233  46.503  1.00  0.00     0.008 C 
ENDROOT
BRANCH   1   2
ATOM      2  C   UNL     1       2.597  10.464  45.813  1.00  0.00     0.000 C 
BRANCH   2   3
ATOM      3  C   UNL     1       3.992  10.826  46.349  1.00  0.00    -0.003 C 
ATOM      4  C   UNL     1       3.988  11.187  47.832  1.00  0.00     0.004 C 
ENDBRANCH   2   3
ENDBRANCH   1   2
BRANCH   1   5
ATOM      5  C   UNL     1       0.889  12.359  45.619  1.00  0.00     0.080 C 
BRANCH   5   6
ATOM      6  C   UNL     1       1.143  13.739  46.183  1.00  0.00     0.155 C 
ATOM      7  O   UNL     1       2.302  14.065  46.558  1.00  0.00    -0.295 OA
BRANCH   6   8
ATOM      8  C   UNL     1       0.064  14.740  46.309  1.00  0.00     0.039 C 
ATOM      9  C   UNL     1       0.092  15.748  47.181  1.00  0.00     0.012 C 
ENDBRANCH   6   8
ENDBRANCH   5   6
ENDBRANCH   1   5
TORSDOF 5
ENDMDL
