MODEL 1
REMARK VINA RESULT:    -3.344      0.000      0.000
REMARK INTER + INTRA:          -5.314
REMARK INTER:                  -5.104
REMARK INTRA:                  -0.210
REMARK UNBOUND:                -0.210
REMARK SMILES CC1=CCC[C@@H](C)C(=O)C[C@H](C(C)C)C(=O)C1
REMARK SMILES IDX 8 1 9 2 6 3 7 4 5 5 4 6 3 7 2 8 1 9 10 11 11 12 15 13 16 14
REMARK SMILES IDX 17 15 12 17 13 18 14 19
REMARK H PARENT
REMARK Flexibility Score: 70.00
ROOT
ATOM      1  C   UNL     1       1.662   1.368  55.914  1.00  0.00     0.136 C 
ATOM      2  O   UNL     1       1.115   2.446  56.105  1.00  0.00    -0.299 OA
ENDROOT
BRANCH   1   3
ATOM      3  C   UNL     1       2.743   1.252  54.856  1.00  0.00     0.053 C 
ATOM      4  C   UNL     1       2.236   1.785  53.508  1.00  0.00     0.016 C 
BRANCH   3   5
ATOM      5  C   UNL     1       3.211  -0.215  54.730  1.00  0.00     0.015 C 
BRANCH   5   6
ATOM      6  C   UNL     1       2.457  -0.973  53.619  1.00  0.00     0.028 C 
BRANCH   6   7
ATOM      7  C   UNL     1       2.319  -2.437  53.950  1.00  0.00    -0.028 C 
ATOM      8  C   UNL     1       1.190  -3.030  54.401  1.00  0.00    -0.070 CG0
ATOM      9  C   UNL     1       1.216  -4.522  54.623  1.00  0.00     0.039 C 
ATOM     10  G   UNL     1      -0.099  -2.274  54.680  1.00  0.00     0.000 G0
ENDBRANCH   6   7
ENDBRANCH   5   6
ENDBRANCH   3   5
ENDBRANCH   1   3
BRANCH   1  11
ATOM     11  C   UNL     1       1.245   0.174  56.741  1.00  0.00     0.087 C 
BRANCH  11  12
ATOM     12  C   UNL     1      -0.204  -0.286  56.431  1.00  0.00     0.066 C 
BRANCH  12  13
ATOM     13  C   UNL     1      -0.241  -1.772  56.095  1.00  0.00     0.140 C 
ATOM     14  O   UNL     1      -0.315  -2.580  57.011  1.00  0.00    -0.299 OA
BRANCH  13  15
ATOM     15  C   UNL     1      -0.117  -2.278  54.676  1.00  0.00     0.106 CG0
ATOM     16  G   UNL     1       1.191  -3.018  54.440  1.00  0.00     0.000 G0
ENDBRANCH  13  15
ENDBRANCH  12  13
BRANCH  12  17
ATOM     17  C   UNL     1      -1.215   0.071  57.567  1.00  0.00    -0.006 C 
ATOM     18  C   UNL     1      -2.132   1.234  57.145  1.00  0.00     0.008 C 
ATOM     19  C   UNL     1      -0.511   0.450  58.883  1.00  0.00     0.008 C 
ENDBRANCH  12  17
ENDBRANCH  11  12
ENDBRANCH   1  11
TORSDOF 1
ENDMDL
MODEL 2
REMARK VINA RESULT:    -3.342      8.520     10.630
REMARK INTER + INTRA:          -5.311
REMARK INTER:                  -4.987
REMARK INTRA:                  -0.324
REMARK UNBOUND:                -0.210
REMARK SMILES CC1=CCC[C@@H](C)C(=O)C[C@H](C(C)C)C(=O)C1
REMARK SMILES IDX 8 1 9 2 6 3 7 4 5 5 4 6 3 7 2 8 1 9 10 11 11 12 15 13 16 14
REMARK SMILES IDX 17 15 12 17 13 18 14 19
REMARK H PARENT
REMARK Flexibility Score: 70.00
ROOT
ATOM      1  C   UNL     1      -6.838   3.998  60.335  1.00  0.00     0.136 C 
ATOM      2  O   UNL     1      -7.125   4.047  61.525  1.00  0.00    -0.299 OA
ENDROOT
BRANCH   1   3
ATOM      3  C   UNL     1      -5.452   3.551  59.915  1.00  0.00     0.053 C 
ATOM      4  C   UNL     1      -4.502   4.755  59.828  1.00  0.00     0.016 C 
BRANCH   3   5
ATOM      5  C   UNL     1      -5.519   2.800  58.566  1.00  0.00     0.015 C 
BRANCH   5   6
ATOM      6  C   UNL     1      -4.926   3.630  57.409  1.00  0.00     0.028 C 
BRANCH   6   7
ATOM      7  C   UNL     1      -5.861   3.668  56.226  1.00  0.00    -0.028 C 
ATOM      8  C   UNL     1      -6.626   4.725  55.873  1.00  0.00    -0.070 CG0
ATOM      9  C   UNL     1      -7.458   4.607  54.621  1.00  0.00     0.039 C 
ATOM     10  G   UNL     1      -6.678   6.023  56.664  1.00  0.00     0.000 G0
ENDBRANCH   6   7
ENDBRANCH   5   6
ENDBRANCH   3   5
ENDBRANCH   1   3
BRANCH   1  11
ATOM     11  C   UNL     1      -7.881   4.385  59.312  1.00  0.00     0.087 C 
BRANCH  11  12
ATOM     12  C   UNL     1      -7.889   5.908  59.020  1.00  0.00     0.066 C 
BRANCH  12  13
ATOM     13  C   UNL     1      -7.920   6.174  57.520  1.00  0.00     0.140 C 
ATOM     14  O   UNL     1      -8.990   6.444  56.993  1.00  0.00    -0.299 OA
BRANCH  13  15
ATOM     15  C   UNL     1      -6.686   6.043  56.656  1.00  0.00     0.106 CG0
ATOM     16  G   UNL     1      -6.646   4.721  55.905  1.00  0.00     0.000 G0
ENDBRANCH  13  15
ENDBRANCH  12  13
BRANCH  12  17
ATOM     17  C   UNL     1      -9.038   6.666  59.761  1.00  0.00    -0.006 C 
ATOM     18  C   UNL     1      -8.517   7.347  61.040  1.00  0.00     0.008 C 
ATOM     19  C   UNL     1     -10.207   5.737  60.138  1.00  0.00     0.008 C 
ENDBRANCH  12  17
ENDBRANCH  11  12
ENDBRANCH   1  11
TORSDOF 1
ENDMDL
MODEL 3
REMARK VINA RESULT:    -3.335      6.225      8.785
REMARK INTER + INTRA:          -5.301
REMARK INTER:                  -5.099
REMARK INTRA:                  -0.202
REMARK UNBOUND:                -0.210
REMARK SMILES CC1=CCC[C@@H](C)C(=O)C[C@H](C(C)C)C(=O)C1
REMARK SMILES IDX 8 1 9 2 6 3 7 4 5 5 4 6 3 7 2 8 1 9 10 11 11 12 15 13 16 14
REMARK SMILES IDX 17 15 12 17 13 18 14 19
REMARK H PARENT
REMARK Flexibility Score: 70.00
ROOT
ATOM      1  C   UNL     1      -6.639   5.024  55.914  1.00  0.00     0.136 C 
ATOM      2  O   UNL     1      -7.503   5.681  55.348  1.00  0.00    -0.299 OA
ENDROOT
BRANCH   1   3
ATOM      3  C   UNL     1      -6.155   3.728  55.293  1.00  0.00     0.053 C 
ATOM      4  C   UNL     1      -5.961   3.896  53.779  1.00  0.00     0.016 C 
BRANCH   3   5
ATOM      5  C   UNL     1      -7.149   2.586  55.601  1.00  0.00     0.015 C 
BRANCH   5   6
ATOM      6  C   UNL     1      -6.577   1.573  56.614  1.00  0.00     0.028 C 
BRANCH   6   7
ATOM      7  C   UNL     1      -5.072   1.643  56.668  1.00  0.00    -0.028 C 
ATOM      8  C   UNL     1      -4.349   2.037  57.741  1.00  0.00    -0.070 CG0
ATOM      9  C   UNL     1      -2.845   1.986  57.637  1.00  0.00     0.039 C 
ATOM     10  G   UNL     1      -4.974   2.511  59.043  1.00  0.00     0.000 G0
ENDBRANCH   6   7
ENDBRANCH   5   6
ENDBRANCH   3   5
ENDBRANCH   1   3
BRANCH   1  11
ATOM     11  C   UNL     1      -6.072   5.526  57.222  1.00  0.00     0.087 C 
BRANCH  11  12
ATOM     12  C   UNL     1      -6.461   4.623  58.422  1.00  0.00     0.066 C 
BRANCH  12  13
ATOM     13  C   UNL     1      -5.223   4.018  59.071  1.00  0.00     0.140 C 
ATOM     14  O   UNL     1      -4.386   4.768  59.553  1.00  0.00    -0.299 OA
BRANCH  13  15
ATOM     15  C   UNL     1      -4.962   2.528  59.071  1.00  0.00     0.106 CG0
ATOM     16  G   UNL     1      -4.371   2.046  57.755  1.00  0.00     0.000 G0
ENDBRANCH  13  15
ENDBRANCH  12  13
BRANCH  12  17
ATOM     17  C   UNL     1      -7.359   5.354  59.471  1.00  0.00    -0.006 C 
ATOM     18  C   UNL     1      -8.218   4.349  60.260  1.00  0.00     0.008 C 
ATOM     19  C   UNL     1      -8.288   6.397  58.824  1.00  0.00     0.008 C 
ENDBRANCH  12  17
ENDBRANCH  11  12
ENDBRANCH   1  11
TORSDOF 1
ENDMDL
MODEL 4
REMARK VINA RESULT:    -3.315      9.076     11.295
REMARK INTER + INTRA:          -5.270
REMARK INTER:                  -5.254
REMARK INTRA:                  -0.015
REMARK UNBOUND:                -0.210
REMARK SMILES CC1=CCC[C@@H](C)C(=O)C[C@H](C(C)C)C(=O)C1
REMARK SMILES IDX 8 1 9 2 6 3 7 4 5 5 4 6 3 7 2 8 1 9 10 11 11 12 15 13 16 14
REMARK SMILES IDX 17 15 12 17 13 18 14 19
REMARK H PARENT
REMARK Flexibility Score: 70.00
ROOT
ATOM      1  C   UNL     1      -7.173   4.149  52.128  1.00  0.00     0.136 C 
ATOM      2  O   UNL     1      -7.435   3.891  50.961  1.00  0.00    -0.299 OA
ENDROOT
BRANCH   1   3
ATOM      3  C   UNL     1      -6.258   3.230  52.913  1.00  0.00     0.053 C 
ATOM      4  C   UNL     1      -6.925   1.864  53.132  1.00  0.00     0.016 C 
BRANCH   3   5
ATOM      5  C   UNL     1      -5.875   3.882  54.261  1.00  0.00     0.015 C 
BRANCH   5   6
ATOM      6  C   UNL     1      -6.361   3.052  55.467  1.00  0.00     0.028 C 
BRANCH   6   7
ATOM      7  C   UNL     1      -6.669   3.934  56.650  1.00  0.00    -0.028 C 
ATOM      8  C   UNL     1      -7.866   4.512  56.899  1.00  0.00    -0.070 CG0
ATOM      9  C   UNL     1      -8.012   5.315  58.167  1.00  0.00     0.039 C 
ATOM     10  G   UNL     1      -9.067   4.382  55.976  1.00  0.00     0.000 G0
ENDBRANCH   6   7
ENDBRANCH   5   6
ENDBRANCH   3   5
ENDBRANCH   1   3
BRANCH   1  11
ATOM     11  C   UNL     1      -7.772   5.384  52.760  1.00  0.00     0.087 C 
BRANCH  11  12
ATOM     12  C   UNL     1      -9.151   5.108  53.413  1.00  0.00     0.066 C 
BRANCH  12  13
ATOM     13  C   UNL     1      -9.131   5.460  54.896  1.00  0.00     0.140 C 
ATOM     14  O   UNL     1      -9.082   6.638  55.220  1.00  0.00    -0.299 OA
BRANCH  13  15
ATOM     15  C   UNL     1      -9.095   4.398  55.972  1.00  0.00     0.106 CG0
ATOM     16  G   UNL     1      -7.875   4.530  56.871  1.00  0.00     0.000 G0
ENDBRANCH  13  15
ENDBRANCH  12  13
BRANCH  12  17
ATOM     17  C   UNL     1     -10.331   5.816  52.672  1.00  0.00    -0.006 C 
ATOM     18  C   UNL     1     -11.682   5.181  53.050  1.00  0.00     0.008 C 
ATOM     19  C   UNL     1     -10.175   5.770  51.141  1.00  0.00     0.008 C 
ENDBRANCH  12  17
ENDBRANCH  11  12
ENDBRANCH   1  11
TORSDOF 1
ENDMDL
MODEL 5
REMARK VINA RESULT:    -3.216      8.165     10.340
REMARK INTER + INTRA:          -5.119
REMARK INTER:                  -4.832
REMARK INTRA:                  -0.287
REMARK UNBOUND:                -0.210
REMARK SMILES CC1=CCC[C@@H](C)C(=O)C[C@H](C(C)C)C(=O)C1
REMARK SMILES IDX 8 1 9 2 6 3 7 4 5 5 4 6 3 7 2 8 1 9 10 11 11 12 15 13 16 14
REMARK SMILES IDX 17 15 12 17 13 18 14 19
REMARK H PARENT
REMARK Flexibility Score: 70.00
ROOT
ATOM      1  C   UNL     1      -9.168   5.707  53.606  1.00  0.00     0.136 C 
ATOM      2  O   UNL     1     -10.164   6.057  54.224  1.00  0.00    -0.299 OA
ENDROOT
BRANCH   1   3
ATOM      3  C   UNL     1      -9.293   5.297  52.151  1.00  0.00     0.053 C 
ATOM      4  C   UNL     1     -10.492   5.998  51.496  1.00  0.00     0.016 C 
BRANCH   3   5
ATOM      5  C   UNL     1      -9.420   3.761  52.038  1.00  0.00     0.015 C 
BRANCH   5   6
ATOM      6  C   UNL     1      -8.119   3.106  51.531  1.00  0.00     0.028 C 
BRANCH   6   7
ATOM      7  C   UNL     1      -7.732   1.924  52.384  1.00  0.00    -0.028 C 
ATOM      8  C   UNL     1      -6.817   1.949  53.379  1.00  0.00    -0.070 CG0
ATOM      9  C   UNL     1      -6.599   0.684  54.170  1.00  0.00     0.039 C 
ATOM     10  G   UNL     1      -6.012   3.187  53.746  1.00  0.00     0.000 G0
ENDBRANCH   6   7
ENDBRANCH   5   6
ENDBRANCH   3   5
ENDBRANCH   1   3
BRANCH   1  11
ATOM     11  C   UNL     1      -7.832   5.692  54.311  1.00  0.00     0.087 C 
BRANCH  11  12
ATOM     12  C   UNL     1      -7.694   4.501  55.297  1.00  0.00     0.066 C 
BRANCH  12  13
ATOM     13  C   UNL     1      -6.382   3.760  55.074  1.00  0.00     0.140 C 
ATOM     14  O   UNL     1      -5.586   3.683  55.999  1.00  0.00    -0.299 OA
BRANCH  13  15
ATOM     15  C   UNL     1      -6.004   3.183  53.728  1.00  0.00     0.106 CG0
ATOM     16  G   UNL     1      -6.804   1.934  53.391  1.00  0.00     0.000 G0
ENDBRANCH  13  15
ENDBRANCH  12  13
BRANCH  12  17
ATOM     17  C   UNL     1      -7.869   4.923  56.792  1.00  0.00    -0.006 C 
ATOM     18  C   UNL     1      -9.267   4.545  57.313  1.00  0.00     0.008 C 
ATOM     19  C   UNL     1      -7.653   6.432  57.006  1.00  0.00     0.008 C 
ENDBRANCH  12  17
ENDBRANCH  11  12
ENDBRANCH   1  11
TORSDOF 1
ENDMDL
MODEL 6
REMARK VINA RESULT:    -3.203      7.083     10.195
REMARK INTER + INTRA:          -5.098
REMARK INTER:                  -5.133
REMARK INTRA:                   0.035
REMARK UNBOUND:                -0.210
REMARK SMILES CC1=CCC[C@@H](C)C(=O)C[C@H](C(C)C)C(=O)C1
REMARK SMILES IDX 8 1 9 2 6 3 7 4 5 5 4 6 3 7 2 8 1 9 10 11 11 12 15 13 16 14
REMARK SMILES IDX 17 15 12 17 13 18 14 19
REMARK H PARENT
REMARK Flexibility Score: 70.00
ROOT
ATOM      1  C   UNL     1      -5.695   2.621  56.087  1.00  0.00     0.136 C 
ATOM      2  O   UNL     1      -6.530   1.776  56.381  1.00  0.00    -0.299 OA
ENDROOT
BRANCH   1   3
ATOM      3  C   UNL     1      -4.505   2.849  56.999  1.00  0.00     0.053 C 
ATOM      4  C   UNL     1      -3.741   1.537  57.226  1.00  0.00     0.016 C 
BRANCH   3   5
ATOM      5  C   UNL     1      -4.971   3.458  58.341  1.00  0.00     0.015 C 
BRANCH   5   6
ATOM      6  C   UNL     1      -5.087   4.995  58.273  1.00  0.00     0.028 C 
BRANCH   6   7
ATOM      7  C   UNL     1      -6.517   5.445  58.434  1.00  0.00    -0.028 C 
ATOM      8  C   UNL     1      -7.338   5.805  57.422  1.00  0.00    -0.070 CG0
ATOM      9  C   UNL     1      -8.760   6.171  57.762  1.00  0.00     0.039 C 
ATOM     10  G   UNL     1      -6.903   5.845  55.965  1.00  0.00     0.000 G0
ENDBRANCH   6   7
ENDBRANCH   5   6
ENDBRANCH   3   5
ENDBRANCH   1   3
BRANCH   1  11
ATOM     11  C   UNL     1      -5.871   3.417  54.815  1.00  0.00     0.087 C 
BRANCH  11  12
ATOM     12  C   UNL     1      -7.362   3.690  54.487  1.00  0.00     0.066 C 
BRANCH  12  13
ATOM     13  C   UNL     1      -7.806   5.034  55.049  1.00  0.00     0.140 C 
ATOM     14  O   UNL     1      -8.890   5.486  54.708  1.00  0.00    -0.299 OA
BRANCH  13  15
ATOM     15  C   UNL     1      -6.918   5.858  55.954  1.00  0.00     0.106 CG0
ATOM     16  G   UNL     1      -7.356   5.791  57.409  1.00  0.00     0.000 G0
ENDBRANCH  13  15
ENDBRANCH  12  13
BRANCH  12  17
ATOM     17  C   UNL     1      -7.684   3.571  52.962  1.00  0.00    -0.006 C 
ATOM     18  C   UNL     1      -7.738   2.097  52.521  1.00  0.00     0.008 C 
ATOM     19  C   UNL     1      -6.657   4.311  52.086  1.00  0.00     0.008 C 
ENDBRANCH  12  17
ENDBRANCH  11  12
ENDBRANCH   1  11
TORSDOF 1
ENDMDL
MODEL 7
REMARK VINA RESULT:    -3.202      8.333     10.825
REMARK INTER + INTRA:          -5.097
REMARK INTER:                  -4.965
REMARK INTRA:                  -0.132
REMARK UNBOUND:                -0.210
REMARK SMILES CC1=CCC[C@@H](C)C(=O)C[C@H](C(C)C)C(=O)C1
REMARK SMILES IDX 8 1 9 2 6 3 7 4 5 5 4 6 3 7 2 8 1 9 10 11 11 12 15 13 16 14
REMARK SMILES IDX 17 15 12 17 13 18 14 19
REMARK H PARENT
REMARK Flexibility Score: 70.00
ROOT
ATOM      1  C   UNL     1      -9.461   5.974  55.133  1.00  0.00     0.136 C 
ATOM      2  O   UNL     1      -9.902   7.103  54.963  1.00  0.00    -0.299 OA
ENDROOT
BRANCH   1   3
ATOM      3  C   UNL     1      -8.752   5.632  56.429  1.00  0.00     0.053 C 
ATOM      4  C   UNL     1      -9.650   5.952  57.634  1.00  0.00     0.016 C 
BRANCH   3   5
ATOM      5  C   UNL     1      -7.410   6.393  56.521  1.00  0.00     0.015 C 
BRANCH   5   6
ATOM      6  C   UNL     1      -6.239   5.579  55.935  1.00  0.00     0.028 C 
BRANCH   6   7
ATOM      7  C   UNL     1      -6.206   4.181  56.498  1.00  0.00    -0.028 C 
ATOM      8  C   UNL     1      -6.235   3.045  55.765  1.00  0.00    -0.070 CG0
ATOM      9  C   UNL     1      -6.133   1.730  56.495  1.00  0.00     0.039 C 
ATOM     10  G   UNL     1      -6.350   3.030  54.248  1.00  0.00     0.000 G0
ENDBRANCH   6   7
ENDBRANCH   5   6
ENDBRANCH   3   5
ENDBRANCH   1   3
BRANCH   1  11
ATOM     11  C   UNL     1      -9.636   4.944  54.041  1.00  0.00     0.087 C 
BRANCH  11  12
ATOM     12  C   UNL     1      -8.299   4.590  53.339  1.00  0.00     0.066 C 
BRANCH  12  13
ATOM     13  C   UNL     1      -7.791   3.227  53.791  1.00  0.00     0.140 C 
ATOM     14  O   UNL     1      -8.582   2.295  53.848  1.00  0.00    -0.299 OA
BRANCH  13  15
ATOM     15  C   UNL     1      -6.364   3.010  54.240  1.00  0.00     0.106 CG0
ATOM     16  G   UNL     1      -6.223   3.051  55.754  1.00  0.00     0.000 G0
ENDBRANCH  13  15
ENDBRANCH  12  13
BRANCH  12  17
ATOM     17  C   UNL     1      -8.384   4.683  51.781  1.00  0.00    -0.006 C 
ATOM     18  C   UNL     1      -7.028   5.090  51.176  1.00  0.00     0.008 C 
ATOM     19  C   UNL     1      -9.455   5.683  51.310  1.00  0.00     0.008 C 
ENDBRANCH  12  17
ENDBRANCH  11  12
ENDBRANCH   1  11
TORSDOF 1
ENDMDL
MODEL 8
REMARK VINA RESULT:    -3.177      9.742     11.875
REMARK INTER + INTRA:          -5.059
REMARK INTER:                  -5.358
REMARK INTRA:                   0.300
REMARK UNBOUND:                -0.210
REMARK SMILES CC1=CCC[C@@H](C)C(=O)C[C@H](C(C)C)C(=O)C1
REMARK SMILES IDX 8 1 9 2 6 3 7 4 5 5 4 6 3 7 2 8 1 9 10 11 11 12 15 13 16 14
REMARK SMILES IDX 17 15 12 17 13 18 14 19
REMARK H PARENT
REMARK Flexibility Score: 70.00
ROOT
ATOM      1  C   UNL     1      -6.694   3.669  52.916  1.00  0.00     0.136 C 
ATOM      2  O   UNL     1      -5.475   3.681  53.035  1.00  0.00    -0.299 OA
ENDROOT
BRANCH   1   3
ATOM      3  C   UNL     1      -7.312   3.625  51.532  1.00  0.00     0.053 C 
ATOM      4  C   UNL     1      -7.047   4.939  50.783  1.00  0.00     0.016 C 
BRANCH   3   5
ATOM      5  C   UNL     1      -8.827   3.341  51.634  1.00  0.00     0.015 C 
BRANCH   5   6
ATOM      6  C   UNL     1      -9.676   4.575  51.267  1.00  0.00     0.028 C 
BRANCH   6   7
ATOM      7  C   UNL     1     -10.975   4.594  52.032  1.00  0.00    -0.028 C 
ATOM      8  C   UNL     1     -11.202   5.302  53.162  1.00  0.00    -0.070 CG0
ATOM      9  C   UNL     1     -12.585   5.251  53.762  1.00  0.00     0.039 C 
ATOM     10  G   UNL     1     -10.143   6.153  53.844  1.00  0.00     0.000 G0
ENDBRANCH   6   7
ENDBRANCH   5   6
ENDBRANCH   3   5
ENDBRANCH   1   3
BRANCH   1  11
ATOM     11  C   UNL     1      -7.554   3.698  54.158  1.00  0.00     0.087 C 
BRANCH  11  12
ATOM     12  C   UNL     1      -7.818   5.141  54.663  1.00  0.00     0.066 C 
BRANCH  12  13
ATOM     13  C   UNL     1      -9.310   5.382  54.861  1.00  0.00     0.140 C 
ATOM     14  O   UNL     1      -9.865   4.872  55.825  1.00  0.00    -0.299 OA
BRANCH  13  15
ATOM     15  C   UNL     1     -10.135   6.169  53.868  1.00  0.00     0.106 CG0
ATOM     16  G   UNL     1     -11.187   5.310  53.183  1.00  0.00     0.000 G0
ENDBRANCH  13  15
ENDBRANCH  12  13
BRANCH  12  17
ATOM     17  C   UNL     1      -7.004   5.497  55.949  1.00  0.00    -0.006 C 
ATOM     18  C   UNL     1      -6.692   4.234  56.773  1.00  0.00     0.008 C 
ATOM     19  C   UNL     1      -7.739   6.506  56.849  1.00  0.00     0.008 C 
ENDBRANCH  12  17
ENDBRANCH  11  12
ENDBRANCH   1  11
TORSDOF 1
ENDMDL
MODEL 9
REMARK VINA RESULT:    -3.029      8.020     10.523
REMARK INTER + INTRA:          -4.834
REMARK INTER:                  -4.561
REMARK INTRA:                  -0.273
REMARK UNBOUND:                -0.210
REMARK SMILES CC1=CCC[C@@H](C)C(=O)C[C@H](C(C)C)C(=O)C1
REMARK SMILES IDX 8 1 9 2 6 3 7 4 5 5 4 6 3 7 2 8 1 9 10 11 11 12 15 13 16 14
REMARK SMILES IDX 17 15 12 17 13 18 14 19
REMARK H PARENT
REMARK Flexibility Score: 70.00
ROOT
ATOM      1  C   UNL     1      -6.771   2.537  58.439  1.00  0.00     0.136 C 
ATOM      2  O   UNL     1      -6.251   2.138  59.473  1.00  0.00    -0.299 OA
ENDROOT
BRANCH   1   3
ATOM      3  C   UNL     1      -6.507   1.808  57.136  1.00  0.00     0.053 C 
ATOM      4  C   UNL     1      -5.165   2.249  56.534  1.00  0.00     0.016 C 
BRANCH   3   5
ATOM      5  C   UNL     1      -7.666   2.052  56.144  1.00  0.00     0.015 C 
BRANCH   5   6
ATOM      6  C   UNL     1      -7.252   2.980  54.983  1.00  0.00     0.028 C 
BRANCH   6   7
ATOM      7  C   UNL     1      -8.400   3.851  54.542  1.00  0.00    -0.028 C 
ATOM      8  C   UNL     1      -8.524   5.171  54.810  1.00  0.00    -0.070 CG0
ATOM      9  C   UNL     1      -9.711   5.901  54.235  1.00  0.00     0.039 C 
ATOM     10  G   UNL     1      -7.521   5.953  55.645  1.00  0.00     0.000 G0
ENDBRANCH   6   7
ENDBRANCH   5   6
ENDBRANCH   3   5
ENDBRANCH   1   3
BRANCH   1  11
ATOM     11  C   UNL     1      -7.667   3.752  58.488  1.00  0.00     0.087 C 
BRANCH  11  12
ATOM     12  C   UNL     1      -6.931   5.051  58.069  1.00  0.00     0.066 C 
BRANCH  12  13
ATOM     13  C   UNL     1      -7.791   5.884  57.127  1.00  0.00     0.140 C 
ATOM     14  O   UNL     1      -8.771   6.460  57.580  1.00  0.00    -0.299 OA
BRANCH  13  15
ATOM     15  C   UNL     1      -7.514   5.961  55.642  1.00  0.00     0.106 CG0
ATOM     16  G   UNL     1      -8.519   5.162  54.826  1.00  0.00     0.000 G0
ENDBRANCH  13  15
ENDBRANCH  12  13
BRANCH  12  17
ATOM     17  C   UNL     1      -6.434   5.894  59.288  1.00  0.00    -0.006 C 
ATOM     18  C   UNL     1      -4.941   5.641  59.563  1.00  0.00     0.008 C 
ATOM     19  C   UNL     1      -7.230   5.595  60.571  1.00  0.00     0.008 C 
ENDBRANCH  12  17
ENDBRANCH  11  12
ENDBRANCH   1  11
TORSDOF 1
ENDMDL
