MODEL 1
REMARK VINA RESULT:    -3.160      0.000      0.000
REMARK INTER + INTRA:          -4.578
REMARK INTER:                  -4.084
REMARK INTRA:                  -0.495
REMARK UNBOUND:                -0.495
REMARK SMILES C=CC(=O)CCCCC
REMARK SMILES IDX 6 1 7 2 8 3 9 4 5 5 3 6 4 7 2 8 1 9
REMARK H PARENT
REMARK Flexibility Score: inf
ROOT
ATOM      1  C   UNL     1     -13.927  31.160  19.470  1.00  0.00     0.008 C 
ENDROOT
BRANCH   1   2
ATOM      2  C   UNL     1     -15.233  31.306  18.674  1.00  0.00     0.000 C 
BRANCH   2   3
ATOM      3  C   UNL     1     -16.478  31.278  19.572  1.00  0.00    -0.003 C 
ATOM      4  C   UNL     1     -16.654  29.943  20.297  1.00  0.00     0.004 C 
ENDBRANCH   2   3
ENDBRANCH   1   2
BRANCH   1   5
ATOM      5  C   UNL     1     -12.975  30.167  18.788  1.00  0.00     0.080 C 
BRANCH   5   6
ATOM      6  C   UNL     1     -13.414  28.728  18.936  1.00  0.00     0.155 C 
ATOM      7  O   UNL     1     -13.295  28.142  20.047  1.00  0.00    -0.295 OA
BRANCH   6   8
ATOM      8  C   UNL     1     -13.991  27.969  17.808  1.00  0.00     0.039 C 
ATOM      9  C   UNL     1     -13.940  28.378  16.540  1.00  0.00     0.012 C 
ENDBRANCH   6   8
ENDBRANCH   5   6
ENDBRANCH   1   5
TORSDOF 5
ENDMDL
MODEL 2
REMARK VINA RESULT:    -3.117      1.217      1.638
REMARK INTER + INTRA:          -4.522
REMARK INTER:                  -4.010
REMARK INTRA:                  -0.512
REMARK UNBOUND:                -0.495
REMARK SMILES C=CC(=O)CCCCC
REMARK SMILES IDX 6 1 7 2 8 3 9 4 5 5 3 6 4 7 2 8 1 9
REMARK H PARENT
REMARK Flexibility Score: inf
ROOT
ATOM      1  C   UNL     1     -13.944  31.117  19.480  1.00  0.00     0.008 C 
ENDROOT
BRANCH   1   2
ATOM      2  C   UNL     1     -15.245  31.234  18.673  1.00  0.00     0.000 C 
BRANCH   2   3
ATOM      3  C   UNL     1     -16.490  31.326  19.567  1.00  0.00    -0.003 C 
ATOM      4  C   UNL     1     -16.830  29.998  20.243  1.00  0.00     0.004 C 
ENDBRANCH   2   3
ENDBRANCH   1   2
BRANCH   1   5
ATOM      5  C   UNL     1     -12.934  30.206  18.767  1.00  0.00     0.080 C 
BRANCH   5   6
ATOM      6  C   UNL     1     -13.395  28.770  18.673  1.00  0.00     0.155 C 
ATOM      7  O   UNL     1     -13.471  28.203  17.548  1.00  0.00    -0.295 OA
BRANCH   6   8
ATOM      8  C   UNL     1     -13.765  27.989  19.872  1.00  0.00     0.039 C 
ATOM      9  C   UNL     1     -14.641  26.985  19.856  1.00  0.00     0.012 C 
ENDBRANCH   6   8
ENDBRANCH   5   6
ENDBRANCH   1   5
TORSDOF 5
ENDMDL
MODEL 3
REMARK VINA RESULT:    -3.063      2.001      3.748
REMARK INTER + INTRA:          -4.453
REMARK INTER:                  -3.904
REMARK INTRA:                  -0.549
REMARK UNBOUND:                -0.495
REMARK SMILES C=CC(=O)CCCCC
REMARK SMILES IDX 6 1 7 2 8 3 9 4 5 5 3 6 4 7 2 8 1 9
REMARK H PARENT
REMARK Flexibility Score: inf
ROOT
ATOM      1  C   UNL     1     -13.699  29.866  18.305  1.00  0.00     0.008 C 
ENDROOT
BRANCH   1   2
ATOM      2  C   UNL     1     -13.005  28.626  18.889  1.00  0.00     0.000 C 
BRANCH   2   3
ATOM      3  C   UNL     1     -13.690  28.111  20.163  1.00  0.00    -0.003 C 
ATOM      4  C   UNL     1     -14.690  26.988  19.884  1.00  0.00     0.004 C 
ENDBRANCH   2   3
ENDBRANCH   1   2
BRANCH   1   5
ATOM      5  C   UNL     1     -13.763  30.999  19.340  1.00  0.00     0.080 C 
BRANCH   5   6
ATOM      6  C   UNL     1     -15.148  31.584  19.494  1.00  0.00     0.155 C 
ATOM      7  O   UNL     1     -15.292  32.808  19.761  1.00  0.00    -0.295 OA
BRANCH   6   8
ATOM      8  C   UNL     1     -16.364  30.759  19.335  1.00  0.00     0.039 C 
ATOM      9  C   UNL     1     -16.882  30.014  20.312  1.00  0.00     0.012 C 
ENDBRANCH   6   8
ENDBRANCH   5   6
ENDBRANCH   1   5
TORSDOF 5
ENDMDL
MODEL 4
REMARK VINA RESULT:    -3.041      1.628      4.494
REMARK INTER + INTRA:          -4.425
REMARK INTER:                  -4.189
REMARK INTRA:                  -0.235
REMARK UNBOUND:                -0.495
REMARK SMILES C=CC(=O)CCCCC
REMARK SMILES IDX 6 1 7 2 8 3 9 4 5 5 3 6 4 7 2 8 1 9
REMARK H PARENT
REMARK Flexibility Score: inf
ROOT
ATOM      1  C   UNL     1     -14.510  29.068  16.371  1.00  0.00     0.008 C 
ENDROOT
BRANCH   1   2
ATOM      2  C   UNL     1     -13.785  29.195  15.023  1.00  0.00     0.000 C 
BRANCH   2   3
ATOM      3  C   UNL     1     -13.528  27.834  14.360  1.00  0.00    -0.003 C 
ATOM      4  C   UNL     1     -13.333  27.940  12.847  1.00  0.00     0.004 C 
ENDBRANCH   2   3
ENDBRANCH   1   2
BRANCH   1   5
ATOM      5  C   UNL     1     -13.754  28.121  17.315  1.00  0.00     0.080 C 
BRANCH   5   6
ATOM      6  C   UNL     1     -13.454  28.741  18.660  1.00  0.00     0.155 C 
ATOM      7  O   UNL     1     -13.487  28.034  19.704  1.00  0.00    -0.295 OA
BRANCH   6   8
ATOM      8  C   UNL     1     -13.115  30.173  18.801  1.00  0.00     0.039 C 
ATOM      9  C   UNL     1     -13.895  31.057  19.423  1.00  0.00     0.012 C 
ENDBRANCH   6   8
ENDBRANCH   5   6
ENDBRANCH   1   5
TORSDOF 5
ENDMDL
MODEL 5
REMARK VINA RESULT:    -2.982      1.145      2.105
REMARK INTER + INTRA:          -4.348
REMARK INTER:                  -3.826
REMARK INTRA:                  -0.522
REMARK UNBOUND:                -0.495
REMARK SMILES C=CC(=O)CCCCC
REMARK SMILES IDX 6 1 7 2 8 3 9 4 5 5 3 6 4 7 2 8 1 9
REMARK H PARENT
REMARK Flexibility Score: inf
ROOT
ATOM      1  C   UNL     1     -16.447  30.040  20.237  1.00  0.00     0.008 C 
ENDROOT
BRANCH   1   2
ATOM      2  C   UNL     1     -16.867  31.065  19.174  1.00  0.00     0.000 C 
BRANCH   2   3
ATOM      3  C   UNL     1     -16.281  32.460  19.435  1.00  0.00    -0.003 C 
ATOM      4  C   UNL     1     -14.768  32.435  19.654  1.00  0.00     0.004 C 
ENDBRANCH   2   3
ENDBRANCH   1   2
BRANCH   1   5
ATOM      5  C   UNL     1     -15.774  28.820  19.590  1.00  0.00     0.080 C 
BRANCH   5   6
ATOM      6  C   UNL     1     -14.277  28.791  19.797  1.00  0.00     0.155 C 
ATOM      7  O   UNL     1     -13.801  28.563  20.943  1.00  0.00    -0.295 OA
BRANCH   6   8
ATOM      8  C   UNL     1     -13.332  29.022  18.685  1.00  0.00     0.039 C 
ATOM      9  C   UNL     1     -13.714  29.309  17.440  1.00  0.00     0.012 C 
ENDBRANCH   6   8
ENDBRANCH   5   6
ENDBRANCH   1   5
TORSDOF 5
ENDMDL
MODEL 6
REMARK VINA RESULT:    -2.970      2.222      4.480
REMARK INTER + INTRA:          -4.332
REMARK INTER:                  -4.033
REMARK INTRA:                  -0.300
REMARK UNBOUND:                -0.495
REMARK SMILES C=CC(=O)CCCCC
REMARK SMILES IDX 6 1 7 2 8 3 9 4 5 5 3 6 4 7 2 8 1 9
REMARK H PARENT
REMARK Flexibility Score: inf
ROOT
ATOM      1  C   UNL     1     -13.764  28.882  16.223  1.00  0.00     0.008 C 
ENDROOT
BRANCH   1   2
ATOM      2  C   UNL     1     -13.847  27.360  16.038  1.00  0.00     0.000 C 
BRANCH   2   3
ATOM      3  C   UNL     1     -13.293  26.898  14.683  1.00  0.00    -0.003 C 
ATOM      4  C   UNL     1     -13.372  27.984  13.610  1.00  0.00     0.004 C 
ENDBRANCH   2   3
ENDBRANCH   1   2
BRANCH   1   5
ATOM      5  C   UNL     1     -14.466  29.319  17.517  1.00  0.00     0.080 C 
BRANCH   5   6
ATOM      6  C   UNL     1     -13.533  29.390  18.704  1.00  0.00     0.155 C 
ATOM      7  O   UNL     1     -12.751  30.371  18.836  1.00  0.00    -0.295 OA
BRANCH   6   8
ATOM      8  C   UNL     1     -13.502  28.332  19.736  1.00  0.00     0.039 C 
ATOM      9  C   UNL     1     -14.413  27.363  19.826  1.00  0.00     0.012 C 
ENDBRANCH   6   8
ENDBRANCH   5   6
ENDBRANCH   1   5
TORSDOF 5
ENDMDL
MODEL 7
REMARK VINA RESULT:    -2.953      1.505      3.742
REMARK INTER + INTRA:          -4.310
REMARK INTER:                  -3.806
REMARK INTRA:                  -0.505
REMARK UNBOUND:                -0.495
REMARK SMILES C=CC(=O)CCCCC
REMARK SMILES IDX 6 1 7 2 8 3 9 4 5 5 3 6 4 7 2 8 1 9
REMARK H PARENT
REMARK Flexibility Score: inf
ROOT
ATOM      1  C   UNL     1     -13.457  28.425  19.202  1.00  0.00     0.008 C 
ENDROOT
BRANCH   1   2
ATOM      2  C   UNL     1     -13.328  29.589  18.209  1.00  0.00     0.000 C 
BRANCH   2   3
ATOM      3  C   UNL     1     -13.788  29.212  16.793  1.00  0.00    -0.003 C 
ATOM      4  C   UNL     1     -13.862  27.700  16.579  1.00  0.00     0.004 C 
ENDBRANCH   2   3
ENDBRANCH   1   2
BRANCH   1   5
ATOM      5  C   UNL     1     -14.445  28.768  20.327  1.00  0.00     0.080 C 
BRANCH   5   6
ATOM      6  C   UNL     1     -15.841  29.054  19.822  1.00  0.00     0.155 C 
ATOM      7  O   UNL     1     -16.451  28.196  19.128  1.00  0.00    -0.295 OA
BRANCH   6   8
ATOM      8  C   UNL     1     -16.531  30.327  20.119  1.00  0.00     0.039 C 
ATOM      9  C   UNL     1     -16.158  31.503  19.616  1.00  0.00     0.012 C 
ENDBRANCH   6   8
ENDBRANCH   5   6
ENDBRANCH   1   5
TORSDOF 5
ENDMDL
MODEL 8
REMARK VINA RESULT:    -2.885      1.830      2.578
REMARK INTER + INTRA:          -4.223
REMARK INTER:                  -3.788
REMARK INTRA:                  -0.435
REMARK UNBOUND:                -0.495
REMARK SMILES C=CC(=O)CCCCC
REMARK SMILES IDX 6 1 7 2 8 3 9 4 5 5 3 6 4 7 2 8 1 9
REMARK H PARENT
REMARK Flexibility Score: inf
ROOT
ATOM      1  C   UNL     1     -12.951  28.701  19.155  1.00  0.00     0.008 C 
ENDROOT
BRANCH   1   2
ATOM      2  C   UNL     1     -13.217  30.183  18.852  1.00  0.00     0.000 C 
BRANCH   2   3
ATOM      3  C   UNL     1     -14.601  30.645  19.329  1.00  0.00    -0.003 C 
ATOM      4  C   UNL     1     -14.702  32.164  19.467  1.00  0.00     0.004 C 
ENDBRANCH   2   3
ENDBRANCH   1   2
BRANCH   1   5
ATOM      5  C   UNL     1     -14.000  28.142  20.129  1.00  0.00     0.080 C 
BRANCH   5   6
ATOM      6  C   UNL     1     -14.758  26.961  19.568  1.00  0.00     0.155 C 
ATOM      7  O   UNL     1     -14.741  25.854  20.172  1.00  0.00    -0.295 OA
BRANCH   6   8
ATOM      8  C   UNL     1     -15.537  27.058  18.315  1.00  0.00     0.039 C 
ATOM      9  C   UNL     1     -16.698  27.705  18.217  1.00  0.00     0.012 C 
ENDBRANCH   6   8
ENDBRANCH   5   6
ENDBRANCH   1   5
TORSDOF 5
ENDMDL
MODEL 9
REMARK VINA RESULT:    -2.871      2.048      4.061
REMARK INTER + INTRA:          -4.205
REMARK INTER:                  -3.671
REMARK INTRA:                  -0.535
REMARK UNBOUND:                -0.495
REMARK SMILES C=CC(=O)CCCCC
REMARK SMILES IDX 6 1 7 2 8 3 9 4 5 5 3 6 4 7 2 8 1 9
REMARK H PARENT
REMARK Flexibility Score: inf
ROOT
ATOM      1  C   UNL     1     -15.514  27.203  17.877  1.00  0.00     0.008 C 
ENDROOT
BRANCH   1   2
ATOM      2  C   UNL     1     -14.900  26.351  16.757  1.00  0.00     0.000 C 
BRANCH   2   3
ATOM      3  C   UNL     1     -13.759  27.071  16.024  1.00  0.00    -0.003 C 
ATOM      4  C   UNL     1     -14.159  28.463  15.532  1.00  0.00     0.004 C 
ENDBRANCH   2   3
ENDBRANCH   1   2
BRANCH   1   5
ATOM      5  C   UNL     1     -14.841  26.909  19.226  1.00  0.00     0.080 C 
BRANCH   5   6
ATOM      6  C   UNL     1     -14.172  28.122  19.831  1.00  0.00     0.155 C 
ATOM      7  O   UNL     1     -14.548  28.557  20.953  1.00  0.00    -0.295 OA
BRANCH   6   8
ATOM      8  C   UNL     1     -13.070  28.828  19.145  1.00  0.00     0.039 C 
ATOM      9  C   UNL     1     -13.132  30.107  18.773  1.00  0.00     0.012 C 
ENDBRANCH   6   8
ENDBRANCH   5   6
ENDBRANCH   1   5
TORSDOF 5
ENDMDL
