MODEL 1
REMARK VINA RESULT:    -3.141      0.000      0.000
REMARK INTER + INTRA:          -7.008
REMARK INTER:                  -5.344
REMARK INTRA:                  -1.664
REMARK UNBOUND:                -1.664
REMARK SMILES CCCCCCCCCCCCCC(=O)[O-]
REMARK SMILES IDX 8 1 9 2 10 3 11 4 12 5 13 6 14 7 15 8 16 9 7 10 6 11 5 12
REMARK SMILES IDX 4 13 3 14 2 15 1 16
REMARK H PARENT
REMARK Flexibility Score: inf
ROOT
ATOM      1  C   UNL     1      45.101  30.040  47.631  1.00  0.00     0.000 C 
ENDROOT
BRANCH   1   2
ATOM      2  C   UNL     1      46.228  31.079  47.586  1.00  0.00     0.000 C 
BRANCH   2   3
ATOM      3  C   UNL     1      45.667  32.504  47.702  1.00  0.00     0.000 C 
BRANCH   3   4
ATOM      4  C   UNL     1      45.606  32.998  49.156  1.00  0.00     0.000 C 
BRANCH   4   5
ATOM      5  C   UNL     1      44.178  32.970  49.731  1.00  0.00     0.006 C 
BRANCH   5   6
ATOM      6  C   UNL     1      43.163  33.639  48.794  1.00  0.00     0.053 C 
BRANCH   6   7
ATOM      7  C   UNL     1      42.481  34.799  49.450  1.00  0.00     0.041 C 
ATOM      8  O   UNL     1      41.611  35.459  48.823  1.00  0.00    -0.550 OA
ATOM      9  O   UNL     1      42.830  35.173  50.742  1.00  0.00    -0.550 OA
ENDBRANCH   6   7
ENDBRANCH   5   6
ENDBRANCH   4   5
ENDBRANCH   3   4
ENDBRANCH   2   3
ENDBRANCH   1   2
BRANCH   1  10
ATOM     10  C   UNL     1      45.439  28.902  48.602  1.00  0.00     0.000 C 
BRANCH  10  11
ATOM     11  C   UNL     1      45.441  29.401  50.055  1.00  0.00    -0.000 C 
BRANCH  11  12
ATOM     12  C   UNL     1      46.618  28.843  50.869  1.00  0.00    -0.000 C 
BRANCH  12  13
ATOM     13  C   UNL     1      47.962  29.489  50.485  1.00  0.00    -0.000 C 
BRANCH  13  14
ATOM     14  C   UNL     1      48.011  30.988  50.815  1.00  0.00    -0.000 C 
BRANCH  14  15
ATOM     15  C   UNL     1      49.268  31.674  50.259  1.00  0.00    -0.003 C 
ATOM     16  C   UNL     1      49.112  33.192  50.261  1.00  0.00     0.004 C 
ENDBRANCH  14  15
ENDBRANCH  13  14
ENDBRANCH  12  13
ENDBRANCH  11  12
ENDBRANCH  10  11
ENDBRANCH   1  10
TORSDOF 12
ENDMDL
MODEL 2
REMARK VINA RESULT:    -3.109      1.156      1.948
REMARK INTER + INTRA:          -6.954
REMARK INTER:                  -5.212
REMARK INTRA:                  -1.742
REMARK UNBOUND:                -1.664
REMARK SMILES CCCCCCCCCCCCCC(=O)[O-]
REMARK SMILES IDX 8 1 9 2 10 3 11 4 12 5 13 6 14 7 15 8 16 9 7 10 6 11 5 12
REMARK SMILES IDX 4 13 3 14 2 15 1 16
REMARK H PARENT
REMARK Flexibility Score: inf
ROOT
ATOM      1  C   UNL     1      45.180  31.031  47.453  1.00  0.00     0.000 C 
ENDROOT
BRANCH   1   2
ATOM      2  C   UNL     1      46.280  32.056  47.751  1.00  0.00     0.000 C 
BRANCH   2   3
ATOM      3  C   UNL     1      45.893  32.947  48.941  1.00  0.00     0.000 C 
BRANCH   3   4
ATOM      4  C   UNL     1      44.621  32.462  49.654  1.00  0.00     0.000 C 
BRANCH   4   5
ATOM      5  C   UNL     1      43.542  33.556  49.750  1.00  0.00     0.006 C 
BRANCH   5   6
ATOM      6  C   UNL     1      43.303  34.253  48.403  1.00  0.00     0.053 C 
BRANCH   6   7
ATOM      7  C   UNL     1      42.408  35.445  48.546  1.00  0.00     0.041 C 
ATOM      8  O   UNL     1      41.224  35.303  48.949  1.00  0.00    -0.550 OA
ATOM      9  O   UNL     1      42.871  36.709  48.201  1.00  0.00    -0.550 OA
ENDBRANCH   6   7
ENDBRANCH   5   6
ENDBRANCH   4   5
ENDBRANCH   3   4
ENDBRANCH   2   3
ENDBRANCH   1   2
BRANCH   1  10
ATOM     10  C   UNL     1      45.735  29.840  46.662  1.00  0.00     0.000 C 
BRANCH  10  11
ATOM     11  C   UNL     1      45.491  28.521  47.412  1.00  0.00    -0.000 C 
BRANCH  11  12
ATOM     12  C   UNL     1      44.928  28.741  48.825  1.00  0.00    -0.000 C 
BRANCH  12  13
ATOM     13  C   UNL     1      45.825  28.136  49.919  1.00  0.00    -0.000 C 
BRANCH  13  14
ATOM     14  C   UNL     1      46.467  29.206  50.815  1.00  0.00    -0.000 C 
BRANCH  14  15
ATOM     15  C   UNL     1      47.814  29.702  50.268  1.00  0.00    -0.003 C 
ATOM     16  C   UNL     1      48.245  30.994  50.957  1.00  0.00     0.004 C 
ENDBRANCH  14  15
ENDBRANCH  13  14
ENDBRANCH  12  13
ENDBRANCH  11  12
ENDBRANCH  10  11
ENDBRANCH   1  10
TORSDOF 12
ENDMDL
MODEL 3
REMARK VINA RESULT:    -3.095      2.070      3.593
REMARK INTER + INTRA:          -6.931
REMARK INTER:                  -6.063
REMARK INTRA:                  -0.868
REMARK UNBOUND:                -1.664
REMARK SMILES CCCCCCCCCCCCCC(=O)[O-]
REMARK SMILES IDX 8 1 9 2 10 3 11 4 12 5 13 6 14 7 15 8 16 9 7 10 6 11 5 12
REMARK SMILES IDX 4 13 3 14 2 15 1 16
REMARK H PARENT
REMARK Flexibility Score: inf
ROOT
ATOM      1  C   UNL     1      45.320  32.013  48.296  1.00  0.00     0.000 C 
ENDROOT
BRANCH   1   2
ATOM      2  C   UNL     1      44.353  33.190  48.468  1.00  0.00     0.000 C 
BRANCH   2   3
ATOM      3  C   UNL     1      43.945  33.356  49.939  1.00  0.00     0.000 C 
BRANCH   3   4
ATOM      4  C   UNL     1      43.066  34.595  50.172  1.00  0.00     0.000 C 
BRANCH   4   5
ATOM      5  C   UNL     1      42.636  35.272  48.858  1.00  0.00     0.006 C 
BRANCH   5   6
ATOM      6  C   UNL     1      41.155  35.031  48.540  1.00  0.00     0.053 C 
BRANCH   6   7
ATOM      7  C   UNL     1      40.880  35.124  47.071  1.00  0.00     0.041 C 
ATOM      8  O   UNL     1      40.449  36.198  46.574  1.00  0.00    -0.550 OA
ATOM      9  O   UNL     1      41.065  34.015  46.256  1.00  0.00    -0.550 OA
ENDBRANCH   6   7
ENDBRANCH   5   6
ENDBRANCH   4   5
ENDBRANCH   3   4
ENDBRANCH   2   3
ENDBRANCH   1   2
BRANCH   1  10
ATOM     10  C   UNL     1      45.401  31.173  49.577  1.00  0.00     0.000 C 
BRANCH  10  11
ATOM     11  C   UNL     1      46.861  30.872  49.946  1.00  0.00    -0.000 C 
BRANCH  11  12
ATOM     12  C   UNL     1      47.001  29.621  50.828  1.00  0.00    -0.000 C 
BRANCH  12  13
ATOM     13  C   UNL     1      47.359  28.363  50.019  1.00  0.00    -0.000 C 
BRANCH  13  14
ATOM     14  C   UNL     1      46.318  27.243  50.178  1.00  0.00    -0.000 C 
BRANCH  14  15
ATOM     15  C   UNL     1      45.652  26.864  48.847  1.00  0.00    -0.003 C 
ATOM     16  C   UNL     1      44.579  27.879  48.461  1.00  0.00     0.004 C 
ENDBRANCH  14  15
ENDBRANCH  13  14
ENDBRANCH  12  13
ENDBRANCH  11  12
ENDBRANCH  10  11
ENDBRANCH   1  10
TORSDOF 12
ENDMDL
MODEL 4
REMARK VINA RESULT:    -3.095      1.111      3.179
REMARK INTER + INTRA:          -6.929
REMARK INTER:                  -5.167
REMARK INTRA:                  -1.762
REMARK UNBOUND:                -1.664
REMARK SMILES CCCCCCCCCCCCCC(=O)[O-]
REMARK SMILES IDX 8 1 9 2 10 3 11 4 12 5 13 6 14 7 15 8 16 9 7 10 6 11 5 12
REMARK SMILES IDX 4 13 3 14 2 15 1 16
REMARK H PARENT
REMARK Flexibility Score: inf
ROOT
ATOM      1  C   UNL     1      48.013  29.691  50.486  1.00  0.00     0.000 C 
ENDROOT
BRANCH   1   2
ATOM      2  C   UNL     1      48.074  31.178  50.118  1.00  0.00     0.000 C 
BRANCH   2   3
ATOM      3  C   UNL     1      46.668  31.736  49.849  1.00  0.00     0.000 C 
BRANCH   3   4
ATOM      4  C   UNL     1      46.694  33.037  49.032  1.00  0.00     0.000 C 
BRANCH   4   5
ATOM      5  C   UNL     1      45.292  33.477  48.573  1.00  0.00     0.006 C 
BRANCH   5   6
ATOM      6  C   UNL     1      44.202  33.070  49.574  1.00  0.00     0.053 C 
BRANCH   6   7
ATOM      7  C   UNL     1      43.169  34.143  49.736  1.00  0.00     0.041 C 
ATOM      8  O   UNL     1      43.227  34.936  50.712  1.00  0.00    -0.550 OA
ATOM      9  O   UNL     1      42.122  34.243  48.828  1.00  0.00    -0.550 OA
ENDBRANCH   6   7
ENDBRANCH   5   6
ENDBRANCH   4   5
ENDBRANCH   3   4
ENDBRANCH   2   3
ENDBRANCH   1   2
BRANCH   1  10
ATOM     10  C   UNL     1      46.579  29.262  50.817  1.00  0.00     0.000 C 
BRANCH  10  11
ATOM     11  C   UNL     1      46.394  27.752  50.608  1.00  0.00    -0.000 C 
BRANCH  11  12
ATOM     12  C   UNL     1      45.819  27.414  49.224  1.00  0.00    -0.000 C 
BRANCH  12  13
ATOM     13  C   UNL     1      44.842  28.486  48.711  1.00  0.00    -0.000 C 
BRANCH  13  14
ATOM     14  C   UNL     1      45.005  28.763  47.209  1.00  0.00    -0.000 C 
BRANCH  14  15
ATOM     15  C   UNL     1      45.778  30.061  46.928  1.00  0.00    -0.003 C 
ATOM     16  C   UNL     1      47.254  29.776  46.668  1.00  0.00     0.004 C 
ENDBRANCH  14  15
ENDBRANCH  13  14
ENDBRANCH  12  13
ENDBRANCH  11  12
ENDBRANCH  10  11
ENDBRANCH   1  10
TORSDOF 12
ENDMDL
MODEL 5
REMARK VINA RESULT:    -3.088      3.109      6.641
REMARK INTER + INTRA:          -6.918
REMARK INTER:                  -5.606
REMARK INTRA:                  -1.312
REMARK UNBOUND:                -1.664
REMARK SMILES CCCCCCCCCCCCCC(=O)[O-]
REMARK SMILES IDX 8 1 9 2 10 3 11 4 12 5 13 6 14 7 15 8 16 9 7 10 6 11 5 12
REMARK SMILES IDX 4 13 3 14 2 15 1 16
REMARK H PARENT
REMARK Flexibility Score: inf
ROOT
ATOM      1  C   UNL     1      46.349  35.091  48.439  1.00  0.00     0.000 C 
ENDROOT
BRANCH   1   2
ATOM      2  C   UNL     1      46.586  33.656  48.922  1.00  0.00     0.000 C 
BRANCH   2   3
ATOM      3  C   UNL     1      45.515  32.705  48.367  1.00  0.00     0.000 C 
BRANCH   3   4
ATOM      4  C   UNL     1      44.926  31.782  49.446  1.00  0.00     0.000 C 
BRANCH   4   5
ATOM      5  C   UNL     1      45.334  30.311  49.254  1.00  0.00     0.006 C 
BRANCH   5   6
ATOM      6  C   UNL     1      46.170  29.784  50.428  1.00  0.00     0.053 C 
BRANCH   6   7
ATOM      7  C   UNL     1      47.577  30.297  50.382  1.00  0.00     0.041 C 
ATOM      8  O   UNL     1      48.106  30.786  51.415  1.00  0.00    -0.550 OA
ATOM      9  O   UNL     1      48.291  30.266  49.191  1.00  0.00    -0.550 OA
ENDBRANCH   6   7
ENDBRANCH   5   6
ENDBRANCH   4   5
ENDBRANCH   3   4
ENDBRANCH   2   3
ENDBRANCH   1   2
BRANCH   1  10
ATOM     10  C   UNL     1      44.851  35.419  48.395  1.00  0.00     0.000 C 
BRANCH  10  11
ATOM     11  C   UNL     1      44.346  35.868  49.774  1.00  0.00    -0.000 C 
BRANCH  11  12
ATOM     12  C   UNL     1      43.100  35.090  50.228  1.00  0.00    -0.000 C 
BRANCH  12  13
ATOM     13  C   UNL     1      42.323  34.479  49.049  1.00  0.00    -0.000 C 
BRANCH  13  14
ATOM     14  C   UNL     1      41.092  35.311  48.659  1.00  0.00    -0.000 C 
BRANCH  14  15
ATOM     15  C   UNL     1      40.704  35.135  47.183  1.00  0.00    -0.003 C 
ATOM     16  C   UNL     1      40.768  36.464  46.436  1.00  0.00     0.004 C 
ENDBRANCH  14  15
ENDBRANCH  13  14
ENDBRANCH  12  13
ENDBRANCH  11  12
ENDBRANCH  10  11
ENDBRANCH   1  10
TORSDOF 12
ENDMDL
MODEL 6
REMARK VINA RESULT:    -3.057      3.190      6.466
REMARK INTER + INTRA:          -6.866
REMARK INTER:                  -5.288
REMARK INTRA:                  -1.577
REMARK UNBOUND:                -1.664
REMARK SMILES CCCCCCCCCCCCCC(=O)[O-]
REMARK SMILES IDX 8 1 9 2 10 3 11 4 12 5 13 6 14 7 15 8 16 9 7 10 6 11 5 12
REMARK SMILES IDX 4 13 3 14 2 15 1 16
REMARK H PARENT
REMARK Flexibility Score: inf
ROOT
ATOM      1  C   UNL     1      43.911  33.052  49.327  1.00  0.00     0.000 C 
ENDROOT
BRANCH   1   2
ATOM      2  C   UNL     1      44.634  32.403  48.141  1.00  0.00     0.000 C 
BRANCH   2   3
ATOM      3  C   UNL     1      46.151  32.366  48.375  1.00  0.00     0.000 C 
BRANCH   3   4
ATOM      4  C   UNL     1      46.522  31.816  49.761  1.00  0.00     0.000 C 
BRANCH   4   5
ATOM      5  C   UNL     1      46.926  30.331  49.721  1.00  0.00     0.006 C 
BRANCH   5   6
ATOM      6  C   UNL     1      45.748  29.403  50.047  1.00  0.00     0.053 C 
BRANCH   6   7
ATOM      7  C   UNL     1      45.229  28.712  48.824  1.00  0.00     0.041 C 
ATOM      8  O   UNL     1      44.237  27.940  48.905  1.00  0.00    -0.550 OA
ATOM      9  O   UNL     1      45.862  28.894  47.600  1.00  0.00    -0.550 OA
ENDBRANCH   6   7
ENDBRANCH   5   6
ENDBRANCH   4   5
ENDBRANCH   3   4
ENDBRANCH   2   3
ENDBRANCH   1   2
BRANCH   1  10
ATOM     10  C   UNL     1      44.151  34.567  49.357  1.00  0.00     0.000 C 
BRANCH  10  11
ATOM     11  C   UNL     1      42.899  35.312  49.844  1.00  0.00    -0.000 C 
BRANCH  11  12
ATOM     12  C   UNL     1      41.629  34.886  49.091  1.00  0.00    -0.000 C 
BRANCH  12  13
ATOM     13  C   UNL     1      41.453  35.635  47.758  1.00  0.00    -0.000 C 
BRANCH  13  14
ATOM     14  C   UNL     1      41.009  34.708  46.616  1.00  0.00    -0.000 C 
BRANCH  14  15
ATOM     15  C   UNL     1      42.194  34.057  45.889  1.00  0.00    -0.003 C 
ATOM     16  C   UNL     1      43.358  35.035  45.750  1.00  0.00     0.004 C 
ENDBRANCH  14  15
ENDBRANCH  13  14
ENDBRANCH  12  13
ENDBRANCH  11  12
ENDBRANCH  10  11
ENDBRANCH   1  10
TORSDOF 12
ENDMDL
MODEL 7
REMARK VINA RESULT:    -3.050      3.184      6.148
REMARK INTER + INTRA:          -6.853
REMARK INTER:                  -5.227
REMARK INTRA:                  -1.626
REMARK UNBOUND:                -1.664
REMARK SMILES CCCCCCCCCCCCCC(=O)[O-]
REMARK SMILES IDX 8 1 9 2 10 3 11 4 12 5 13 6 14 7 15 8 16 9 7 10 6 11 5 12
REMARK SMILES IDX 4 13 3 14 2 15 1 16
REMARK H PARENT
REMARK Flexibility Score: inf
ROOT
ATOM      1  C   UNL     1      44.749  34.444  46.557  1.00  0.00     0.000 C 
ENDROOT
BRANCH   1   2
ATOM      2  C   UNL     1      46.000  33.750  47.109  1.00  0.00     0.000 C 
BRANCH   2   3
ATOM      3  C   UNL     1      46.056  33.855  48.640  1.00  0.00     0.000 C 
BRANCH   3   4
ATOM      4  C   UNL     1      46.063  32.481  49.327  1.00  0.00     0.000 C 
BRANCH   4   5
ATOM      5  C   UNL     1      44.839  31.625  48.952  1.00  0.00     0.006 C 
BRANCH   5   6
ATOM      6  C   UNL     1      45.239  30.317  48.255  1.00  0.00     0.053 C 
BRANCH   6   7
ATOM      7  C   UNL     1      45.081  29.134  49.160  1.00  0.00     0.041 C 
ATOM      8  O   UNL     1      44.346  28.171  48.819  1.00  0.00    -0.550 OA
ATOM      9  O   UNL     1      45.718  29.112  50.395  1.00  0.00    -0.550 OA
ENDBRANCH   6   7
ENDBRANCH   5   6
ENDBRANCH   4   5
ENDBRANCH   3   4
ENDBRANCH   2   3
ENDBRANCH   1   2
BRANCH   1  10
ATOM     10  C   UNL     1      43.814  33.437  45.876  1.00  0.00     0.000 C 
BRANCH  10  11
ATOM     11  C   UNL     1      42.478  34.096  45.498  1.00  0.00    -0.000 C 
BRANCH  11  12
ATOM     12  C   UNL     1      41.436  34.003  46.623  1.00  0.00    -0.000 C 
BRANCH  12  13
ATOM     13  C   UNL     1      41.044  35.383  47.182  1.00  0.00    -0.000 C 
BRANCH  13  14
ATOM     14  C   UNL     1      41.872  35.776  48.415  1.00  0.00    -0.000 C 
BRANCH  14  15
ATOM     15  C   UNL     1      42.361  34.558  49.211  1.00  0.00    -0.003 C 
ATOM     16  C   UNL     1      43.110  34.988  50.469  1.00  0.00     0.004 C 
ENDBRANCH  14  15
ENDBRANCH  13  14
ENDBRANCH  12  13
ENDBRANCH  11  12
ENDBRANCH  10  11
ENDBRANCH   1  10
TORSDOF 12
ENDMDL
MODEL 8
REMARK VINA RESULT:    -3.030      2.596      5.024
REMARK INTER + INTRA:          -6.820
REMARK INTER:                  -5.326
REMARK INTRA:                  -1.494
REMARK UNBOUND:                -1.664
REMARK SMILES CCCCCCCCCCCCCC(=O)[O-]
REMARK SMILES IDX 8 1 9 2 10 3 11 4 12 5 13 6 14 7 15 8 16 9 7 10 6 11 5 12
REMARK SMILES IDX 4 13 3 14 2 15 1 16
REMARK H PARENT
REMARK Flexibility Score: inf
ROOT
ATOM      1  C   UNL     1      41.944  34.297  48.685  1.00  0.00     0.000 C 
ENDROOT
BRANCH   1   2
ATOM      2  C   UNL     1      41.235  35.556  48.174  1.00  0.00     0.000 C 
BRANCH   2   3
ATOM      3  C   UNL     1      40.813  35.393  46.707  1.00  0.00     0.000 C 
BRANCH   3   4
ATOM      4  C   UNL     1      41.260  34.049  46.109  1.00  0.00     0.000 C 
BRANCH   4   5
ATOM      5  C   UNL     1      42.369  34.211  45.053  1.00  0.00     0.006 C 
BRANCH   5   6
ATOM      6  C   UNL     1      43.664  33.495  45.460  1.00  0.00     0.053 C 
BRANCH   6   7
ATOM      7  C   UNL     1      44.735  34.466  45.852  1.00  0.00     0.041 C 
ATOM      8  O   UNL     1      45.942  34.106  45.865  1.00  0.00    -0.550 OA
ATOM      9  O   UNL     1      44.398  35.757  46.236  1.00  0.00    -0.550 OA
ENDBRANCH   6   7
ENDBRANCH   5   6
ENDBRANCH   4   5
ENDBRANCH   3   4
ENDBRANCH   2   3
ENDBRANCH   1   2
BRANCH   1  10
ATOM     10  C   UNL     1      43.248  34.653  49.409  1.00  0.00     0.000 C 
BRANCH  10  11
ATOM     11  C   UNL     1      44.014  33.385  49.818  1.00  0.00    -0.000 C 
BRANCH  11  12
ATOM     12  C   UNL     1      45.446  33.356  49.262  1.00  0.00    -0.000 C 
BRANCH  12  13
ATOM     13  C   UNL     1      45.997  31.926  49.120  1.00  0.00    -0.000 C 
BRANCH  13  14
ATOM     14  C   UNL     1      45.178  31.074  48.139  1.00  0.00    -0.000 C 
BRANCH  14  15
ATOM     15  C   UNL     1      45.117  29.595  48.550  1.00  0.00    -0.003 C 
ATOM     16  C   UNL     1      45.657  29.396  49.964  1.00  0.00     0.004 C 
ENDBRANCH  14  15
ENDBRANCH  13  14
ENDBRANCH  12  13
ENDBRANCH  11  12
ENDBRANCH  10  11
ENDBRANCH   1  10
TORSDOF 12
ENDMDL
MODEL 9
REMARK VINA RESULT:    -3.001      1.232      3.130
REMARK INTER + INTRA:          -6.770
REMARK INTER:                  -5.013
REMARK INTRA:                  -1.758
REMARK UNBOUND:                -1.664
REMARK SMILES CCCCCCCCCCCCCC(=O)[O-]
REMARK SMILES IDX 8 1 9 2 10 3 11 4 12 5 13 6 14 7 15 8 16 9 7 10 6 11 5 12
REMARK SMILES IDX 4 13 3 14 2 15 1 16
REMARK H PARENT
REMARK Flexibility Score: inf
ROOT
ATOM      1  C   UNL     1      47.903  32.782  48.421  1.00  0.00     0.000 C 
ENDROOT
BRANCH   1   2
ATOM      2  C   UNL     1      46.518  33.152  48.963  1.00  0.00     0.000 C 
BRANCH   2   3
ATOM      3  C   UNL     1      45.488  33.240  47.827  1.00  0.00     0.000 C 
BRANCH   3   4
ATOM      4  C   UNL     1      44.039  33.200  48.337  1.00  0.00     0.000 C 
BRANCH   4   5
ATOM      5  C   UNL     1      43.944  33.373  49.864  1.00  0.00     0.006 C 
BRANCH   5   6
ATOM      6  C   UNL     1      43.231  34.675  50.255  1.00  0.00     0.053 C 
BRANCH   6   7
ATOM      7  C   UNL     1      43.721  35.839  49.450  1.00  0.00     0.041 C 
ATOM      8  O   UNL     1      44.844  36.354  49.699  1.00  0.00    -0.550 OA
ATOM      9  O   UNL     1      42.924  36.379  48.448  1.00  0.00    -0.550 OA
ENDBRANCH   6   7
ENDBRANCH   5   6
ENDBRANCH   4   5
ENDBRANCH   3   4
ENDBRANCH   2   3
ENDBRANCH   1   2
BRANCH   1  10
ATOM     10  C   UNL     1      48.494  31.589  49.182  1.00  0.00     0.000 C 
BRANCH  10  11
ATOM     11  C   UNL     1      47.608  31.206  50.378  1.00  0.00    -0.000 C 
BRANCH  11  12
ATOM     12  C   UNL     1      47.702  29.713  50.728  1.00  0.00    -0.000 C 
BRANCH  12  13
ATOM     13  C   UNL     1      46.334  29.010  50.695  1.00  0.00    -0.000 C 
BRANCH  13  14
ATOM     14  C   UNL     1      45.320  29.733  49.795  1.00  0.00    -0.000 C 
BRANCH  14  15
ATOM     15  C   UNL     1      44.908  28.893  48.578  1.00  0.00    -0.003 C 
ATOM     16  C   UNL     1      45.249  29.610  47.275  1.00  0.00     0.004 C 
ENDBRANCH  14  15
ENDBRANCH  13  14
ENDBRANCH  12  13
ENDBRANCH  11  12
ENDBRANCH  10  11
ENDBRANCH   1  10
TORSDOF 12
ENDMDL
