MODEL 1
REMARK VINA RESULT:    -1.057      0.000      0.000
REMARK INTER + INTRA:          -1.088
REMARK INTER:                  -1.088
REMARK INTRA:                   0.000
REMARK UNBOUND:                 0.000
REMARK SMILES Cc1cccc(O)c1C
REMARK SMILES IDX 1 1 2 2 8 3 6 4 5 5 4 6 3 7 9 8 7 9
REMARK H PARENT 7 10
REMARK Flexibility Score: inf
ROOT
ATOM      1  C   UNL     1     -12.241   1.954  -5.902  1.00  0.00     0.045 C 
ATOM      2  C   UNL     1     -10.736   1.878  -5.901  1.00  0.00    -0.045 A 
ATOM      3  C   UNL     1     -10.042   0.636  -5.888  1.00  0.00    -0.006 A 
ATOM      4  C   UNL     1      -8.624   0.641  -5.887  1.00  0.00     0.118 A 
ATOM      5  C   UNL     1      -7.926   1.852  -5.899  1.00  0.00     0.046 A 
ATOM      6  C   UNL     1      -8.612   3.063  -5.912  1.00  0.00     0.004 A 
ATOM      7  C   UNL     1     -10.005   3.078  -5.912  1.00  0.00     0.004 A 
ATOM      8  C   UNL     1     -10.775  -0.687  -5.875  1.00  0.00     0.048 C 
ENDROOT
BRANCH   4   9
ATOM      9  O   UNL     1      -7.875  -0.540  -5.875  1.00  0.00    -0.508 OA
ATOM     10  H   UNL     1      -8.275  -1.453  -5.699  1.00  0.00     0.293 HD
ENDBRANCH   4   9
TORSDOF 1
ENDMDL
MODEL 2
REMARK VINA RESULT:    -0.750      1.997      3.004
REMARK INTER + INTRA:          -0.772
REMARK INTER:                  -0.772
REMARK INTRA:                   0.000
REMARK UNBOUND:                 0.000
REMARK SMILES Cc1cccc(O)c1C
REMARK SMILES IDX 1 1 2 2 8 3 6 4 5 5 4 6 3 7 9 8 7 9
REMARK H PARENT 7 10
REMARK Flexibility Score: inf
ROOT
ATOM      1  C   UNL     1      -7.877  -0.224  -7.563  1.00  0.00     0.045 C 
ATOM      2  C   UNL     1      -8.680   0.911  -6.983  1.00  0.00    -0.045 A 
ATOM      3  C   UNL     1     -10.103   0.902  -6.973  1.00  0.00    -0.006 A 
ATOM      4  C   UNL     1     -10.794   2.006  -6.410  1.00  0.00     0.118 A 
ATOM      5  C   UNL     1     -10.079   3.081  -5.875  1.00  0.00     0.046 A 
ATOM      6  C   UNL     1      -8.687   3.083  -5.888  1.00  0.00     0.004 A 
ATOM      7  C   UNL     1      -7.993   2.008  -6.437  1.00  0.00     0.004 A 
ATOM      8  C   UNL     1     -10.897  -0.250  -7.546  1.00  0.00     0.048 C 
ENDROOT
BRANCH   4   9
ATOM      9  O   UNL     1     -12.189   2.066  -6.365  1.00  0.00    -0.508 OA
ATOM     10  H   UNL     1     -12.709   2.932  -6.306  1.00  0.00     0.293 HD
ENDBRANCH   4   9
TORSDOF 1
ENDMDL
MODEL 3
REMARK VINA RESULT:     0.815      1.474      2.830
REMARK INTER + INTRA:           0.838
REMARK INTER:                   0.838
REMARK INTRA:                   0.000
REMARK UNBOUND:                 0.000
REMARK SMILES Cc1cccc(O)c1C
REMARK SMILES IDX 1 1 2 2 8 3 6 4 5 5 4 6 3 7 9 8 7 9
REMARK H PARENT 7 10
REMARK Flexibility Score: inf
ROOT
ATOM      1  C   UNL     1     -10.416  -1.477  -6.138  1.00  0.00     0.045 C 
ATOM      2  C   UNL     1     -10.438   0.028  -6.052  1.00  0.00    -0.045 A 
ATOM      3  C   UNL     1      -9.245   0.802  -6.065  1.00  0.00    -0.006 A 
ATOM      4  C   UNL     1      -9.341   2.215  -5.981  1.00  0.00     0.118 A 
ATOM      5  C   UNL     1     -10.593   2.828  -5.887  1.00  0.00     0.046 A 
ATOM      6  C   UNL     1     -11.757   2.063  -5.875  1.00  0.00     0.004 A 
ATOM      7  C   UNL     1     -11.681   0.675  -5.957  1.00  0.00     0.004 A 
ATOM      8  C   UNL     1      -7.878   0.161  -6.167  1.00  0.00     0.048 C 
ENDROOT
BRANCH   4   9
ATOM      9  O   UNL     1      -8.212   3.040  -5.989  1.00  0.00    -0.508 OA
ATOM     10  H   UNL     1      -7.625   3.190  -5.179  1.00  0.00     0.293 HD
ENDBRANCH   4   9
TORSDOF 1
ENDMDL
MODEL 4
REMARK VINA RESULT:     1.509     27.559     28.655
REMARK INTER + INTRA:           1.553
REMARK INTER:                   1.553
REMARK INTRA:                   0.000
REMARK UNBOUND:                 0.000
REMARK SMILES Cc1cccc(O)c1C
REMARK SMILES IDX 1 1 2 2 8 3 6 4 5 5 4 6 3 7 9 8 7 9
REMARK H PARENT 7 10
REMARK Flexibility Score: inf
ROOT
ATOM      1  C   UNL     1     -27.858 -16.632 -22.244  1.00  0.00     0.045 C 
ATOM      2  C   UNL     1     -27.931 -16.146 -20.819  1.00  0.00    -0.045 A 
ATOM      3  C   UNL     1     -27.992 -14.762 -20.495  1.00  0.00    -0.006 A 
ATOM      4  C   UNL     1     -28.059 -14.377 -19.132  1.00  0.00     0.118 A 
ATOM      5  C   UNL     1     -28.063 -15.350 -18.128  1.00  0.00     0.046 A 
ATOM      6  C   UNL     1     -28.002 -16.702 -18.453  1.00  0.00     0.004 A 
ATOM      7  C   UNL     1     -27.936 -17.098 -19.786  1.00  0.00     0.004 A 
ATOM      8  C   UNL     1     -27.990 -13.693 -21.565  1.00  0.00     0.048 C 
ENDROOT
BRANCH   4   9
ATOM      9  O   UNL     1     -28.123 -13.037 -18.739  1.00  0.00    -0.508 OA
ATOM     10  H   UNL     1     -27.436 -12.343 -19.008  1.00  0.00     0.293 HD
ENDBRANCH   4   9
TORSDOF 1
ENDMDL
