MODEL 1
REMARK VINA RESULT:    -2.653      0.000      0.000
REMARK INTER + INTRA:          -2.995
REMARK INTER:                  -2.963
REMARK INTRA:                  -0.031
REMARK UNBOUND:                -0.031
REMARK SMILES O=C([O-])c1ccccc1C(=O)[O-]
REMARK SMILES IDX 4 1 9 2 5 3 8 4 6 5 7 6 2 7 1 8 3 9 10 10 11 11 12 12
REMARK H PARENT
REMARK Flexibility Score: inf
ROOT
ATOM      1  C   UNL     1       4.508 -36.005  20.731  1.00  0.00     0.006 A 
ATOM      2  C   UNL     1       5.438 -36.792  21.467  1.00  0.00     0.006 A 
ATOM      3  C   UNL     1       4.250 -34.686  21.146  1.00  0.00     0.010 A 
ATOM      4  C   UNL     1       6.122 -36.209  22.550  1.00  0.00     0.010 A 
ATOM      5  C   UNL     1       4.924 -34.136  22.237  1.00  0.00     0.001 A 
ATOM      6  C   UNL     1       5.867 -34.891  22.930  1.00  0.00     0.001 A 
ENDROOT
BRANCH   1   7
ATOM      7  C   UNL     1       3.844 -36.486  19.498  1.00  0.00     0.072 C 
ATOM      8  O   UNL     1       4.362 -36.289  18.367  1.00  0.00    -0.545 OA
ATOM      9  O   UNL     1       2.602 -37.106  19.572  1.00  0.00    -0.545 OA
ENDBRANCH   1   7
BRANCH   2  10
ATOM     10  C   UNL     1       5.667 -38.229  21.189  1.00  0.00     0.072 C 
ATOM     11  O   UNL     1       6.124 -38.593  20.073  1.00  0.00    -0.545 OA
ATOM     12  O   UNL     1       5.445 -39.186  22.171  1.00  0.00    -0.545 OA
ENDBRANCH   2  10
TORSDOF 2
ENDMDL
MODEL 2
REMARK VINA RESULT:    -2.470      1.106      3.089
REMARK INTER + INTRA:          -2.790
REMARK INTER:                  -3.163
REMARK INTRA:                   0.373
REMARK UNBOUND:                -0.031
REMARK SMILES O=C([O-])c1ccccc1C(=O)[O-]
REMARK SMILES IDX 4 1 9 2 5 3 8 4 6 5 7 6 2 7 1 8 3 9 10 10 11 11 12 12
REMARK H PARENT
REMARK Flexibility Score: inf
ROOT
ATOM      1  C   UNL     1       5.688 -36.659  22.327  1.00  0.00     0.006 A 
ATOM      2  C   UNL     1       5.188 -35.526  21.625  1.00  0.00     0.006 A 
ATOM      3  C   UNL     1       6.069 -36.515  23.673  1.00  0.00     0.010 A 
ATOM      4  C   UNL     1       5.027 -34.310  22.316  1.00  0.00     0.010 A 
ATOM      5  C   UNL     1       5.920 -35.294  24.332  1.00  0.00     0.001 A 
ATOM      6  C   UNL     1       5.389 -34.197  23.658  1.00  0.00     0.001 A 
ENDROOT
BRANCH   1   7
ATOM      7  C   UNL     1       5.764 -38.010  21.725  1.00  0.00     0.072 C 
ATOM      8  O   UNL     1       6.091 -38.162  20.519  1.00  0.00    -0.545 OA
ATOM      9  O   UNL     1       5.407 -39.126  22.473  1.00  0.00    -0.545 OA
ENDBRANCH   1   7
BRANCH   2  10
ATOM     10  C   UNL     1       4.895 -35.548  20.174  1.00  0.00     0.072 C 
ATOM     11  O   UNL     1       5.672 -34.981  19.361  1.00  0.00    -0.545 OA
ATOM     12  O   UNL     1       3.800 -36.247  19.682  1.00  0.00    -0.545 OA
ENDBRANCH   2  10
TORSDOF 2
ENDMDL
MODEL 3
REMARK VINA RESULT:    -1.616      2.194      3.896
REMARK INTER + INTRA:          -1.836
REMARK INTER:                  -2.004
REMARK INTRA:                   0.168
REMARK UNBOUND:                -0.031
REMARK SMILES O=C([O-])c1ccccc1C(=O)[O-]
REMARK SMILES IDX 4 1 9 2 5 3 8 4 6 5 7 6 2 7 1 8 3 9 10 10 11 11 12 12
REMARK H PARENT
REMARK Flexibility Score: inf
ROOT
ATOM      1  C   UNL     1       5.436 -36.422  22.020  1.00  0.00     0.006 A 
ATOM      2  C   UNL     1       5.506 -36.704  20.626  1.00  0.00     0.006 A 
ATOM      3  C   UNL     1       5.546 -37.483  22.938  1.00  0.00     0.010 A 
ATOM      4  C   UNL     1       5.751 -38.025  20.207  1.00  0.00     0.010 A 
ATOM      5  C   UNL     1       5.767 -38.788  22.498  1.00  0.00     0.001 A 
ATOM      6  C   UNL     1       5.881 -39.057  21.136  1.00  0.00     0.001 A 
ENDROOT
BRANCH   1   7
ATOM      7  C   UNL     1       5.319 -35.048  22.559  1.00  0.00     0.072 C 
ATOM      8  O   UNL     1       6.125 -34.625  23.428  1.00  0.00    -0.545 OA
ATOM      9  O   UNL     1       4.270 -34.228  22.155  1.00  0.00    -0.545 OA
ENDBRANCH   1   7
BRANCH   2  10
ATOM     10  C   UNL     1       5.262 -35.676  19.589  1.00  0.00     0.072 C 
ATOM     11  O   UNL     1       4.266 -35.773  18.822  1.00  0.00    -0.545 OA
ATOM     12  O   UNL     1       6.085 -34.562  19.486  1.00  0.00    -0.545 OA
ENDBRANCH   2  10
TORSDOF 2
ENDMDL
MODEL 4
REMARK VINA RESULT:    -1.563      2.185      3.492
REMARK INTER + INTRA:          -1.777
REMARK INTER:                  -1.931
REMARK INTRA:                   0.154
REMARK UNBOUND:                -0.031
REMARK SMILES O=C([O-])c1ccccc1C(=O)[O-]
REMARK SMILES IDX 4 1 9 2 5 3 8 4 6 5 7 6 2 7 1 8 3 9 10 10 11 11 12 12
REMARK H PARENT
REMARK Flexibility Score: inf
ROOT
ATOM      1  C   UNL     1       5.469 -36.713  20.642  1.00  0.00     0.006 A 
ATOM      2  C   UNL     1       5.400 -36.442  22.037  1.00  0.00     0.006 A 
ATOM      3  C   UNL     1       5.729 -38.028  20.213  1.00  0.00     0.010 A 
ATOM      4  C   UNL     1       5.528 -37.507  22.948  1.00  0.00     0.010 A 
ATOM      5  C   UNL     1       5.874 -39.064  21.136  1.00  0.00     0.001 A 
ATOM      6  C   UNL     1       5.761 -38.807  22.500  1.00  0.00     0.001 A 
ENDROOT
BRANCH   1   7
ATOM      7  C   UNL     1       5.211 -35.685  19.607  1.00  0.00     0.072 C 
ATOM      8  O   UNL     1       4.253 -35.808  18.801  1.00  0.00    -0.545 OA
ATOM      9  O   UNL     1       6.071 -34.601  19.474  1.00  0.00    -0.545 OA
ENDBRANCH   1   7
BRANCH   2  10
ATOM     10  C   UNL     1       5.271 -35.070  22.580  1.00  0.00     0.072 C 
ATOM     11  O   UNL     1       6.125 -34.626  23.393  1.00  0.00    -0.545 OA
ATOM     12  O   UNL     1       4.246 -34.233  22.155  1.00  0.00    -0.545 OA
ENDBRANCH   2  10
TORSDOF 2
ENDMDL
MODEL 5
REMARK VINA RESULT:    -1.533      2.532      4.321
REMARK INTER + INTRA:          -1.744
REMARK INTER:                  -2.288
REMARK INTRA:                   0.544
REMARK UNBOUND:                -0.031
REMARK SMILES O=C([O-])c1ccccc1C(=O)[O-]
REMARK SMILES IDX 4 1 9 2 5 3 8 4 6 5 7 6 2 7 1 8 3 9 10 10 11 11 12 12
REMARK H PARENT
REMARK Flexibility Score: inf
ROOT
ATOM      1  C   UNL     1       5.505 -36.328  24.511  1.00  0.00     0.006 A 
ATOM      2  C   UNL     1       5.586 -37.046  23.285  1.00  0.00     0.006 A 
ATOM      3  C   UNL     1       5.718 -34.938  24.504  1.00  0.00     0.010 A 
ATOM      4  C   UNL     1       5.812 -36.337  22.091  1.00  0.00     0.010 A 
ATOM      5  C   UNL     1       5.961 -34.258  23.310  1.00  0.00     0.001 A 
ATOM      6  C   UNL     1       5.997 -34.955  22.105  1.00  0.00     0.001 A 
ENDROOT
BRANCH   1   7
ATOM      7  C   UNL     1       5.137 -36.967  25.796  1.00  0.00     0.072 C 
ATOM      8  O   UNL     1       3.940 -36.988  26.186  1.00  0.00    -0.545 OA
ATOM      9  O   UNL     1       6.125 -37.494  26.620  1.00  0.00    -0.545 OA
ENDBRANCH   1   7
BRANCH   2  10
ATOM     10  C   UNL     1       5.515 -38.524  23.217  1.00  0.00     0.072 C 
ATOM     11  O   UNL     1       5.066 -39.183  24.192  1.00  0.00    -0.545 OA
ATOM     12  O   UNL     1       5.881 -39.199  22.058  1.00  0.00    -0.545 OA
ENDBRANCH   2  10
TORSDOF 2
ENDMDL
MODEL 6
REMARK VINA RESULT:    -1.530      2.822      4.269
REMARK INTER + INTRA:          -1.741
REMARK INTER:                  -1.656
REMARK INTRA:                  -0.085
REMARK UNBOUND:                -0.031
REMARK SMILES O=C([O-])c1ccccc1C(=O)[O-]
REMARK SMILES IDX 4 1 9 2 5 3 8 4 6 5 7 6 2 7 1 8 3 9 10 10 11 11 12 12
REMARK H PARENT
REMARK Flexibility Score: inf
ROOT
ATOM      1  C   UNL     1       2.788 -36.571  17.539  1.00  0.00     0.006 A 
ATOM      2  C   UNL     1       3.337 -36.548  18.852  1.00  0.00     0.006 A 
ATOM      3  C   UNL     1       1.425 -36.877  17.373  1.00  0.00     0.010 A 
ATOM      4  C   UNL     1       2.487 -36.766  19.952  1.00  0.00     0.010 A 
ATOM      5  C   UNL     1       0.606 -37.110  18.478  1.00  0.00     0.001 A 
ATOM      6  C   UNL     1       1.133 -37.043  19.765  1.00  0.00     0.001 A 
ENDROOT
BRANCH   1   7
ATOM      7  C   UNL     1       3.572 -36.220  16.332  1.00  0.00     0.072 C 
ATOM      8  O   UNL     1       3.935 -35.034  16.121  1.00  0.00    -0.545 OA
ATOM      9  O   UNL     1       3.859 -37.193  15.381  1.00  0.00    -0.545 OA
ENDBRANCH   1   7
BRANCH   2  10
ATOM     10  C   UNL     1       4.785 -36.375  19.112  1.00  0.00     0.072 C 
ATOM     11  O   UNL     1       5.305 -35.229  19.062  1.00  0.00    -0.545 OA
ATOM     12  O   UNL     1       5.574 -37.459  19.476  1.00  0.00    -0.545 OA
ENDBRANCH   2  10
TORSDOF 2
ENDMDL
MODEL 7
REMARK VINA RESULT:    -1.489      2.840      5.019
REMARK INTER + INTRA:          -1.694
REMARK INTER:                  -1.546
REMARK INTRA:                  -0.148
REMARK UNBOUND:                -0.031
REMARK SMILES O=C([O-])c1ccccc1C(=O)[O-]
REMARK SMILES IDX 4 1 9 2 5 3 8 4 6 5 7 6 2 7 1 8 3 9 10 10 11 11 12 12
REMARK H PARENT
REMARK Flexibility Score: inf
ROOT
ATOM      1  C   UNL     1       3.334 -36.568  18.845  1.00  0.00     0.006 A 
ATOM      2  C   UNL     1       2.778 -36.606  17.535  1.00  0.00     0.006 A 
ATOM      3  C   UNL     1       2.494 -36.787  19.951  1.00  0.00     0.010 A 
ATOM      4  C   UNL     1       1.416 -36.928  17.380  1.00  0.00     0.010 A 
ATOM      5  C   UNL     1       1.142 -37.084  19.774  1.00  0.00     0.001 A 
ATOM      6  C   UNL     1       0.607 -37.166  18.490  1.00  0.00     0.001 A 
ENDROOT
BRANCH   1   7
ATOM      7  C   UNL     1       4.780 -36.374  19.100  1.00  0.00     0.072 C 
ATOM      8  O   UNL     1       5.508 -37.338  19.454  1.00  0.00    -0.545 OA
ATOM      9  O   UNL     1       5.338 -35.103  19.015  1.00  0.00    -0.545 OA
ENDBRANCH   1   7
BRANCH   2  10
ATOM     10  C   UNL     1       3.553 -36.250  16.325  1.00  0.00     0.072 C 
ATOM     11  O   UNL     1       3.850 -37.134  15.479  1.00  0.00    -0.545 OA
ATOM     12  O   UNL     1       3.908 -34.930  16.073  1.00  0.00    -0.545 OA
ENDBRANCH   2  10
TORSDOF 2
ENDMDL
MODEL 8
REMARK VINA RESULT:    -1.395      2.335      3.656
REMARK INTER + INTRA:          -1.589
REMARK INTER:                  -2.762
REMARK INTRA:                   1.173
REMARK UNBOUND:                -0.031
REMARK SMILES O=C([O-])c1ccccc1C(=O)[O-]
REMARK SMILES IDX 4 1 9 2 5 3 8 4 6 5 7 6 2 7 1 8 3 9 10 10 11 11 12 12
REMARK H PARENT
REMARK Flexibility Score: inf
ROOT
ATOM      1  C   UNL     1       4.406 -36.358  19.327  1.00  0.00     0.006 A 
ATOM      2  C   UNL     1       5.063 -35.096  19.348  1.00  0.00     0.006 A 
ATOM      3  C   UNL     1       4.653 -37.275  20.365  1.00  0.00     0.010 A 
ATOM      4  C   UNL     1       5.890 -34.773  20.440  1.00  0.00     0.010 A 
ATOM      5  C   UNL     1       5.494 -36.941  21.427  1.00  0.00     0.001 A 
ATOM      6  C   UNL     1       6.102 -35.689  21.470  1.00  0.00     0.001 A 
ENDROOT
BRANCH   1   7
ATOM      7  C   UNL     1       3.413 -36.733  18.293  1.00  0.00     0.072 C 
ATOM      8  O   UNL     1       2.211 -36.949  18.601  1.00  0.00    -0.545 OA
ATOM      9  O   UNL     1       3.815 -36.915  16.975  1.00  0.00    -0.545 OA
ENDBRANCH   1   7
BRANCH   2  10
ATOM     10  C   UNL     1       4.973 -34.128  18.230  1.00  0.00     0.072 C 
ATOM     11  O   UNL     1       5.697 -33.098  18.224  1.00  0.00    -0.545 OA
ATOM     12  O   UNL     1       4.139 -34.373  17.146  1.00  0.00    -0.545 OA
ENDBRANCH   2  10
TORSDOF 2
ENDMDL
MODEL 9
REMARK VINA RESULT:    -1.374      2.371      3.419
REMARK INTER + INTRA:          -1.566
REMARK INTER:                  -2.598
REMARK INTRA:                   1.032
REMARK UNBOUND:                -0.031
REMARK SMILES O=C([O-])c1ccccc1C(=O)[O-]
REMARK SMILES IDX 4 1 9 2 5 3 8 4 6 5 7 6 2 7 1 8 3 9 10 10 11 11 12 12
REMARK H PARENT
REMARK Flexibility Score: inf
ROOT
ATOM      1  C   UNL     1       5.110 -35.184  19.411  1.00  0.00     0.006 A 
ATOM      2  C   UNL     1       4.413 -36.419  19.287  1.00  0.00     0.006 A 
ATOM      3  C   UNL     1       5.888 -34.950  20.559  1.00  0.00     0.010 A 
ATOM      4  C   UNL     1       4.574 -37.398  20.285  1.00  0.00     0.010 A 
ATOM      5  C   UNL     1       6.017 -35.928  21.546  1.00  0.00     0.001 A 
ATOM      6  C   UNL     1       5.370 -37.153  21.404  1.00  0.00     0.001 A 
ENDROOT
BRANCH   1   7
ATOM      7  C   UNL     1       5.112 -34.151  18.349  1.00  0.00     0.072 C 
ATOM      8  O   UNL     1       4.309 -34.218  17.382  1.00  0.00    -0.545 OA
ATOM      9  O   UNL     1       6.051 -33.125  18.377  1.00  0.00    -0.545 OA
ENDBRANCH   1   7
BRANCH   2  10
ATOM     10  C   UNL     1       3.462 -36.695  18.186  1.00  0.00     0.072 C 
ATOM     11  O   UNL     1       3.883 -36.842  17.007  1.00  0.00    -0.545 OA
ATOM     12  O   UNL     1       2.107 -36.859  18.443  1.00  0.00    -0.545 OA
ENDBRANCH   2  10
TORSDOF 2
ENDMDL
