MODEL 1
REMARK VINA RESULT:    -2.784      0.000      0.000
REMARK INTER + INTRA:          -4.342
REMARK INTER:                  -3.841
REMARK INTRA:                  -0.500
REMARK UNBOUND:                -0.500
REMARK SMILES CCCCCCCCO
REMARK SMILES IDX 5 1 4 2 3 3 2 4 1 5 6 6 7 7 8 8 9 9
REMARK H PARENT 9 10
REMARK Flexibility Score: inf
ROOT
ATOM      1  C   UNL     1     139.914 145.859 145.242  1.00  0.00     0.000 C 
ENDROOT
BRANCH   1   2
ATOM      2  C   UNL     1     139.701 147.370 145.048  1.00  0.00    -0.000 C 
BRANCH   2   3
ATOM      3  C   UNL     1     138.758 147.973 146.103  1.00  0.00    -0.000 C 
BRANCH   3   4
ATOM      4  C   UNL     1     137.642 148.824 145.478  1.00  0.00    -0.003 C 
ATOM      5  C   UNL     1     138.055 149.348 144.105  1.00  0.00     0.004 C 
ENDBRANCH   3   4
ENDBRANCH   2   3
ENDBRANCH   1   2
BRANCH   1   6
ATOM      6  C   UNL     1     138.684 145.033 144.828  1.00  0.00     0.002 C 
BRANCH   6   7
ATOM      7  C   UNL     1     138.094 145.488 143.483  1.00  0.00     0.028 C 
BRANCH   7   8
ATOM      8  C   UNL     1     136.571 145.630 143.547  1.00  0.00     0.156 C 
BRANCH   8   9
ATOM      9  O   UNL     1     135.979 145.167 142.362  1.00  0.00    -0.396 OA
ATOM     10  H   UNL     1     136.242 144.215 142.261  1.00  0.00     0.210 HD
ENDBRANCH   8   9
ENDBRANCH   7   8
ENDBRANCH   6   7
ENDBRANCH   1   6
TORSDOF 7
ENDMDL
MODEL 2
REMARK VINA RESULT:    -2.768      9.076     10.776
REMARK INTER + INTRA:          -4.320
REMARK INTER:                  -3.897
REMARK INTRA:                  -0.422
REMARK UNBOUND:                -0.500
REMARK SMILES CCCCCCCCO
REMARK SMILES IDX 5 1 4 2 3 3 2 4 1 5 6 6 7 7 8 8 9 9
REMARK H PARENT 9 10
REMARK Flexibility Score: inf
ROOT
ATOM      1  C   UNL     1     134.306 139.142 144.958  1.00  0.00     0.000 C 
ENDROOT
BRANCH   1   2
ATOM      2  C   UNL     1     133.100 138.358 145.505  1.00  0.00    -0.000 C 
BRANCH   2   3
ATOM      3  C   UNL     1     132.148 137.890 144.393  1.00  0.00    -0.000 C 
BRANCH   3   4
ATOM      4  C   UNL     1     131.658 136.449 144.603  1.00  0.00    -0.003 C 
ATOM      5  C   UNL     1     132.578 135.450 143.906  1.00  0.00     0.004 C 
ENDBRANCH   3   4
ENDBRANCH   2   3
ENDBRANCH   1   2
BRANCH   1   6
ATOM      6  C   UNL     1     134.708 138.693 143.543  1.00  0.00     0.002 C 
BRANCH   6   7
ATOM      7  C   UNL     1     136.134 138.122 143.489  1.00  0.00     0.028 C 
BRANCH   7   8
ATOM      8  C   UNL     1     136.147 136.600 143.652  1.00  0.00     0.156 C 
BRANCH   8   9
ATOM      9  O   UNL     1     136.298 135.968 142.409  1.00  0.00    -0.396 OA
ATOM     10  H   UNL     1     136.133 136.656 141.714  1.00  0.00     0.210 HD
ENDBRANCH   8   9
ENDBRANCH   7   8
ENDBRANCH   6   7
ENDBRANCH   1   6
TORSDOF 7
ENDMDL
MODEL 3
REMARK VINA RESULT:    -2.748      8.466      9.924
REMARK INTER + INTRA:          -4.292
REMARK INTER:                  -3.884
REMARK INTRA:                  -0.408
REMARK UNBOUND:                -0.500
REMARK SMILES CCCCCCCCO
REMARK SMILES IDX 5 1 4 2 3 3 2 4 1 5 6 6 7 7 8 8 9 9
REMARK H PARENT 9 10
REMARK Flexibility Score: inf
ROOT
ATOM      1  C   UNL     1     147.178 142.560 145.097  1.00  0.00     0.000 C 
ENDROOT
BRANCH   1   2
ATOM      2  C   UNL     1     148.501 143.166 145.598  1.00  0.00    -0.000 C 
BRANCH   2   3
ATOM      3  C   UNL     1     149.392 143.668 144.450  1.00  0.00    -0.000 C 
BRANCH   3   4
ATOM      4  C   UNL     1     149.951 145.075 144.710  1.00  0.00    -0.003 C 
ATOM      5  C   UNL     1     149.081 146.142 144.049  1.00  0.00     0.004 C 
ENDBRANCH   3   4
ENDBRANCH   2   3
ENDBRANCH   1   2
BRANCH   1   6
ATOM      6  C   UNL     1     146.884 142.917 143.631  1.00  0.00     0.002 C 
BRANCH   6   7
ATOM      7  C   UNL     1     145.468 143.482 143.434  1.00  0.00     0.028 C 
BRANCH   7   8
ATOM      8  C   UNL     1     145.420 144.996 143.657  1.00  0.00     0.156 C 
BRANCH   8   9
ATOM      9  O   UNL     1     145.165 145.668 142.453  1.00  0.00    -0.396 OA
ATOM     10  H   UNL     1     144.681 145.032 141.865  1.00  0.00     0.210 HD
ENDBRANCH   8   9
ENDBRANCH   7   8
ENDBRANCH   6   7
ENDBRANCH   1   6
TORSDOF 7
ENDMDL
MODEL 4
REMARK VINA RESULT:    -2.721     12.703     14.625
REMARK INTER + INTRA:          -4.255
REMARK INTER:                  -3.871
REMARK INTRA:                  -0.384
REMARK UNBOUND:                -0.500
REMARK SMILES CCCCCCCCO
REMARK SMILES IDX 5 1 4 2 3 3 2 4 1 5 6 6 7 7 8 8 9 9
REMARK H PARENT 9 10
REMARK Flexibility Score: inf
ROOT
ATOM      1  C   UNL     1     142.472 134.237 145.026  1.00  0.00     0.000 C 
ENDROOT
BRANCH   1   2
ATOM      2  C   UNL     1     143.274 133.041 145.567  1.00  0.00    -0.000 C 
BRANCH   2   3
ATOM      3  C   UNL     1     143.748 132.096 144.451  1.00  0.00    -0.000 C 
BRANCH   3   4
ATOM      4  C   UNL     1     145.118 131.470 144.752  1.00  0.00    -0.003 C 
ATOM      5  C   UNL     1     146.243 132.480 144.537  1.00  0.00     0.004 C 
ENDBRANCH   3   4
ENDBRANCH   2   3
ENDBRANCH   1   2
BRANCH   1   6
ATOM      6  C   UNL     1     142.877 134.619 143.592  1.00  0.00     0.002 C 
BRANCH   6   7
ATOM      7  C   UNL     1     143.430 136.050 143.497  1.00  0.00     0.028 C 
BRANCH   7   8
ATOM      8  C   UNL     1     144.944 136.093 143.719  1.00  0.00     0.156 C 
BRANCH   8   9
ATOM      9  O   UNL     1     145.613 136.397 142.524  1.00  0.00    -0.396 OA
ATOM     10  H   UNL     1     146.582 136.424 142.735  1.00  0.00     0.210 HD
ENDBRANCH   8   9
ENDBRANCH   7   8
ENDBRANCH   6   7
ENDBRANCH   1   6
TORSDOF 7
ENDMDL
MODEL 5
REMARK VINA RESULT:    -2.713      8.158      9.651
REMARK INTER + INTRA:          -4.244
REMARK INTER:                  -3.676
REMARK INTRA:                  -0.568
REMARK UNBOUND:                -0.500
REMARK SMILES CCCCCCCCO
REMARK SMILES IDX 5 1 4 2 3 3 2 4 1 5 6 6 7 7 8 8 9 9
REMARK H PARENT 9 10
REMARK Flexibility Score: inf
ROOT
ATOM      1  C   UNL     1     145.828 142.570 144.797  1.00  0.00     0.000 C 
ENDROOT
BRANCH   1   2
ATOM      2  C   UNL     1     145.323 143.245 143.509  1.00  0.00    -0.000 C 
BRANCH   2   3
ATOM      3  C   UNL     1     145.409 144.778 143.575  1.00  0.00    -0.000 C 
BRANCH   3   4
ATOM      4  C   UNL     1     145.236 145.317 145.003  1.00  0.00    -0.003 C 
ATOM      5  C   UNL     1     146.384 146.251 145.379  1.00  0.00     0.004 C 
ENDBRANCH   3   4
ENDBRANCH   2   3
ENDBRANCH   1   2
BRANCH   1   6
ATOM      6  C   UNL     1     147.267 142.046 144.662  1.00  0.00     0.002 C 
BRANCH   6   7
ATOM      7  C   UNL     1     148.308 143.035 145.212  1.00  0.00     0.028 C 
BRANCH   7   8
ATOM      8  C   UNL     1     149.314 143.460 144.139  1.00  0.00     0.156 C 
BRANCH   8   9
ATOM      9  O   UNL     1     148.742 143.379 142.861  1.00  0.00    -0.396 OA
ATOM     10  H   UNL     1     147.758 143.400 142.984  1.00  0.00     0.210 HD
ENDBRANCH   8   9
ENDBRANCH   7   8
ENDBRANCH   6   7
ENDBRANCH   1   6
TORSDOF 7
ENDMDL
MODEL 6
REMARK VINA RESULT:    -2.695      1.634      2.268
REMARK INTER + INTRA:          -4.219
REMARK INTER:                  -3.807
REMARK INTRA:                  -0.412
REMARK UNBOUND:                -0.500
REMARK SMILES CCCCCCCCO
REMARK SMILES IDX 5 1 4 2 3 3 2 4 1 5 6 6 7 7 8 8 9 9
REMARK H PARENT 9 10
REMARK Flexibility Score: inf
ROOT
ATOM      1  C   UNL     1     138.013 147.726 144.712  1.00  0.00     0.000 C 
ENDROOT
BRANCH   1   2
ATOM      2  C   UNL     1     138.003 149.241 144.439  1.00  0.00    -0.000 C 
BRANCH   2   3
ATOM      3  C   UNL     1     136.628 149.877 144.699  1.00  0.00    -0.000 C 
BRANCH   3   4
ATOM      4  C   UNL     1     135.494 148.841 144.724  1.00  0.00    -0.003 C 
ATOM      5  C   UNL     1     134.771 148.786 143.381  1.00  0.00     0.004 C 
ENDBRANCH   3   4
ENDBRANCH   2   3
ENDBRANCH   1   2
BRANCH   1   6
ATOM      6  C   UNL     1     138.683 146.928 143.581  1.00  0.00     0.002 C 
BRANCH   6   7
ATOM      7  C   UNL     1     138.134 145.497 143.465  1.00  0.00     0.028 C 
BRANCH   7   8
ATOM      8  C   UNL     1     136.618 145.448 143.672  1.00  0.00     0.156 C 
BRANCH   8   9
ATOM      9  O   UNL     1     135.956 145.241 142.452  1.00  0.00    -0.396 OA
ATOM     10  H   UNL     1     135.785 144.266 142.378  1.00  0.00     0.210 HD
ENDBRANCH   8   9
ENDBRANCH   7   8
ENDBRANCH   6   7
ENDBRANCH   1   6
TORSDOF 7
ENDMDL
MODEL 7
REMARK VINA RESULT:    -2.663     12.739     14.358
REMARK INTER + INTRA:          -4.175
REMARK INTER:                  -3.759
REMARK INTRA:                  -0.416
REMARK UNBOUND:                -0.500
REMARK SMILES CCCCCCCCO
REMARK SMILES IDX 5 1 4 2 3 3 2 4 1 5 6 6 7 7 8 8 9 9
REMARK H PARENT 9 10
REMARK Flexibility Score: inf
ROOT
ATOM      1  C   UNL     1     142.857 133.274 145.305  1.00  0.00     0.000 C 
ENDROOT
BRANCH   1   2
ATOM      2  C   UNL     1     141.919 134.335 144.704  1.00  0.00    -0.000 C 
BRANCH   2   3
ATOM      3  C   UNL     1     142.520 135.749 144.753  1.00  0.00    -0.000 C 
BRANCH   3   4
ATOM      4  C   UNL     1     143.281 136.110 143.468  1.00  0.00    -0.003 C 
ATOM      5  C   UNL     1     144.788 136.132 143.711  1.00  0.00     0.004 C 
ENDBRANCH   3   4
ENDBRANCH   2   3
ENDBRANCH   1   2
BRANCH   1   6
ATOM      6  C   UNL     1     143.503 132.382 144.232  1.00  0.00     0.002 C 
BRANCH   6   7
ATOM      7  C   UNL     1     144.830 131.762 144.702  1.00  0.00     0.028 C 
BRANCH   7   8
ATOM      8  C   UNL     1     146.041 132.490 144.114  1.00  0.00     0.156 C 
BRANCH   8   9
ATOM      9  O   UNL     1     145.810 132.834 142.773  1.00  0.00    -0.396 OA
ATOM     10  H   UNL     1     144.828 132.927 142.664  1.00  0.00     0.210 HD
ENDBRANCH   8   9
ENDBRANCH   7   8
ENDBRANCH   6   7
ENDBRANCH   1   6
TORSDOF 7
ENDMDL
MODEL 8
REMARK VINA RESULT:    -2.634      9.348     10.921
REMARK INTER + INTRA:          -4.135
REMARK INTER:                  -3.610
REMARK INTRA:                  -0.525
REMARK UNBOUND:                -0.500
REMARK SMILES CCCCCCCCO
REMARK SMILES IDX 5 1 4 2 3 3 2 4 1 5 6 6 7 7 8 8 9 9
REMARK H PARENT 9 10
REMARK Flexibility Score: inf
ROOT
ATOM      1  C   UNL     1     132.821 138.106 145.452  1.00  0.00     0.000 C 
ENDROOT
BRANCH   1   2
ATOM      2  C   UNL     1     134.006 138.964 144.977  1.00  0.00    -0.000 C 
BRANCH   2   3
ATOM      3  C   UNL     1     134.456 138.611 143.551  1.00  0.00    -0.000 C 
BRANCH   3   4
ATOM      4  C   UNL     1     135.948 138.253 143.474  1.00  0.00    -0.003 C 
ATOM      5  C   UNL     1     136.169 136.765 143.732  1.00  0.00     0.004 C 
ENDBRANCH   3   4
ENDBRANCH   2   3
ENDBRANCH   1   2
BRANCH   1   6
ATOM      6  C   UNL     1     132.278 137.186 144.346  1.00  0.00     0.002 C 
BRANCH   6   7
ATOM      7  C   UNL     1     132.335 135.700 144.734  1.00  0.00     0.028 C 
BRANCH   7   8
ATOM      8  C   UNL     1     132.997 134.850 143.646  1.00  0.00     0.156 C 
BRANCH   8   9
ATOM      9  O   UNL     1     132.851 135.453 142.387  1.00  0.00    -0.396 OA
ATOM     10  H   UNL     1     133.449 136.244 142.376  1.00  0.00     0.210 HD
ENDBRANCH   8   9
ENDBRANCH   7   8
ENDBRANCH   6   7
ENDBRANCH   1   6
TORSDOF 7
ENDMDL
MODEL 9
REMARK VINA RESULT:    -2.611     11.910     13.410
REMARK INTER + INTRA:          -4.103
REMARK INTER:                  -3.605
REMARK INTRA:                  -0.498
REMARK UNBOUND:                -0.500
REMARK SMILES CCCCCCCCO
REMARK SMILES IDX 5 1 4 2 3 3 2 4 1 5 6 6 7 7 8 8 9 9
REMARK H PARENT 9 10
REMARK Flexibility Score: inf
ROOT
ATOM      1  C   UNL     1     142.371 135.621 145.120  1.00  0.00     0.000 C 
ENDROOT
BRANCH   1   2
ATOM      2  C   UNL     1     142.905 136.494 143.970  1.00  0.00    -0.000 C 
BRANCH   2   3
ATOM      3  C   UNL     1     144.358 136.156 143.600  1.00  0.00    -0.000 C 
BRANCH   3   4
ATOM      4  C   UNL     1     145.371 136.735 144.599  1.00  0.00    -0.003 C 
ATOM      5  C   UNL     1     146.041 135.627 145.406  1.00  0.00     0.004 C 
ENDBRANCH   3   4
ENDBRANCH   2   3
ENDBRANCH   1   2
BRANCH   1   6
ATOM      6  C   UNL     1     142.032 134.192 144.667  1.00  0.00     0.002 C 
BRANCH   6   7
ATOM      7  C   UNL     1     143.036 133.153 145.195  1.00  0.00     0.028 C 
BRANCH   7   8
ATOM      8  C   UNL     1     143.680 132.353 144.059  1.00  0.00     0.156 C 
BRANCH   8   9
ATOM      9  O   UNL     1     143.322 132.886 142.811  1.00  0.00    -0.396 OA
ATOM     10  H   UNL     1     143.770 133.768 142.736  1.00  0.00     0.210 HD
ENDBRANCH   8   9
ENDBRANCH   7   8
ENDBRANCH   6   7
ENDBRANCH   1   6
TORSDOF 7
ENDMDL
