MODEL 1
REMARK VINA RESULT:    38.049      0.000      0.000
REMARK INTER + INTRA:          46.836
REMARK INTER:                  46.947
REMARK INTRA:                  -0.111
REMARK UNBOUND:                -0.111
REMARK SMILES COc1cc(-c2oc3cc(O)cc(O)c3c(=O)c2O)ccc1O
REMARK SMILES IDX 6 1 18 2 16 3 17 4 15 5 13 6 12 7 10 8 9 9 8 10 7 11 5 12
REMARK SMILES IDX 3 13 22 14 4 15 21 16 20 17 2 18 1 19 23 20 19 22 14 24
REMARK SMILES IDX 11 26
REMARK H PARENT 23 21 19 23 14 25 11 27
REMARK Flexibility Score: inf
ROOT
ATOM      1  C   UNL     1       2.552  -1.212   0.956  1.00  0.00     0.180 A 
ATOM      2  C   UNL     1       1.678  -0.796   1.975  1.00  0.00     0.208 A 
ATOM      3  C   UNL     1       0.293  -0.877   1.759  1.00  0.00     0.238 A 
ATOM      4  O   UNL     1      -0.485  -0.554   2.693  1.00  0.00    -0.285 OA
ATOM      5  C   UNL     1      -0.200  -1.358   0.521  1.00  0.00     0.111 A 
ATOM      6  C   UNL     1      -1.583  -1.446   0.179  1.00  0.00     0.134 A 
ATOM      7  C   UNL     1      -1.960  -2.059  -1.022  1.00  0.00     0.093 A 
ATOM      8  C   UNL     1      -1.000  -2.529  -1.923  1.00  0.00     0.123 A 
ATOM      9  C   UNL     1       0.354  -2.394  -1.624  1.00  0.00     0.094 A 
ATOM     10  C   UNL     1       0.759  -1.819  -0.417  1.00  0.00     0.146 A 
ATOM     11  O   UNL     1       2.059  -1.720  -0.168  1.00  0.00    -0.452 OA
ENDROOT
BRANCH   1  12
ATOM     12  C   UNL     1       4.025  -1.134   1.101  1.00  0.00     0.025 A 
ATOM     13  C   UNL     1       6.054  -1.783   2.301  1.00  0.00     0.161 A 
ATOM     14  C   UNL     1       6.825  -1.061   1.372  1.00  0.00     0.157 A 
ATOM     15  C   UNL     1       4.654  -1.819   2.153  1.00  0.00     0.062 A 
ATOM     16  C   UNL     1       6.200  -0.396   0.312  1.00  0.00     0.051 A 
ATOM     17  C   UNL     1       4.812  -0.437   0.171  1.00  0.00     0.016 A 
BRANCH  13  18
ATOM     18  O   UNL     1       6.708  -2.447   3.352  1.00  0.00    -0.493 OA
ATOM     19  C   UNL     1       7.027  -1.858   4.608  1.00  0.00     0.278 C 
ENDBRANCH  13  18
BRANCH  14  20
ATOM     20  O   UNL     1       8.213  -0.997   1.481  1.00  0.00    -0.504 OA
ATOM     21  H   UNL     1       8.695  -0.144   1.740  1.00  0.00     0.293 HD
ENDBRANCH  14  20
ENDBRANCH   1  12
BRANCH   2  22
ATOM     22  O   UNL     1       2.186  -0.344   3.196  1.00  0.00    -0.502 OA
ATOM     23  H   UNL     1       2.317  -0.958   3.991  1.00  0.00     0.293 HD
ENDBRANCH   2  22
BRANCH   6  24
ATOM     24  O   UNL     1      -2.615  -0.926   0.965  1.00  0.00    -0.507 OA
ATOM     25  H   UNL     1      -2.514  -0.162   1.616  1.00  0.00     0.293 HD
ENDBRANCH   6  24
BRANCH   8  26
ATOM     26  O   UNL     1      -1.383  -3.124  -3.123  1.00  0.00    -0.508 OA
ATOM     27  H   UNL     1      -2.297  -3.547  -3.236  1.00  0.00     0.293 HD
ENDBRANCH   8  26
TORSDOF 6
ENDMDL
