MODEL 1
REMARK VINA RESULT:    -8.050      0.000      0.000
REMARK INTER + INTRA:          -9.648
REMARK INTER:                  -9.462
REMARK INTRA:                  -0.187
REMARK UNBOUND:                -0.187
REMARK SMILES O=c1c(O)c(-c2ccc(O)cc2)oc2cc(O)cc(O)c12
REMARK SMILES IDX 5 1 3 2 2 3 1 4 21 5 19 6 18 7 16 8 15 9 14 10 13 11 6 12
REMARK SMILES IDX 7 13 8 14 9 15 12 16 11 17 10 18 4 20 20 22 17 24
REMARK H PARENT 10 19 4 21 20 23 17 25
REMARK Flexibility Score: inf
ROOT
ATOM      1  C   UNL     1       8.729  -1.956   1.437  1.00  0.00     0.180 A 
ATOM      2  C   UNL     1       8.622  -0.613   1.835  1.00  0.00     0.208 A 
ATOM      3  C   UNL     1       8.478   0.380   0.853  1.00  0.00     0.238 A 
ATOM      4  O   UNL     1       8.437   1.586   1.212  1.00  0.00    -0.285 OA
ATOM      5  C   UNL     1       8.427   0.016  -0.515  1.00  0.00     0.111 A 
ATOM      6  C   UNL     1       8.242   0.933  -1.592  1.00  0.00     0.134 A 
ATOM      7  C   UNL     1       8.339   0.477  -2.912  1.00  0.00     0.093 A 
ATOM      8  C   UNL     1       8.547  -0.876  -3.193  1.00  0.00     0.123 A 
ATOM      9  C   UNL     1       8.667  -1.788  -2.149  1.00  0.00     0.094 A 
ATOM     10  C   UNL     1       8.612  -1.358  -0.821  1.00  0.00     0.146 A 
ATOM     11  O   UNL     1       8.744  -2.260   0.144  1.00  0.00    -0.452 OA
ENDROOT
BRANCH   1  12
ATOM     12  C   UNL     1       8.858  -3.060   2.416  1.00  0.00     0.021 A 
ATOM     13  C   UNL     1      10.034  -3.241   3.166  1.00  0.00     0.016 A 
ATOM     14  C   UNL     1      10.125  -4.275   4.102  1.00  0.00     0.047 A 
ATOM     15  C   UNL     1       9.040  -5.133   4.309  1.00  0.00     0.115 A 
ATOM     16  C   UNL     1       7.765  -3.913   2.645  1.00  0.00     0.016 A 
ATOM     17  C   UNL     1       7.858  -4.948   3.580  1.00  0.00     0.047 A 
BRANCH  15  18
ATOM     18  O   UNL     1       9.144  -6.160   5.245  1.00  0.00    -0.508 OA
ATOM     19  H   UNL     1       9.227  -7.129   4.959  1.00  0.00     0.293 HD
ENDBRANCH  15  18
ENDBRANCH   1  12
BRANCH   2  20
ATOM     20  O   UNL     1       8.698  -0.272   3.189  1.00  0.00    -0.502 OA
ATOM     21  H   UNL     1       9.530   0.127   3.604  1.00  0.00     0.293 HD
ENDBRANCH   2  20
BRANCH   6  22
ATOM     22  O   UNL     1       7.938   2.287  -1.420  1.00  0.00    -0.507 OA
ATOM     23  H   UNL     1       7.836   2.744  -0.527  1.00  0.00     0.293 HD
ENDBRANCH   6  22
BRANCH   8  24
ATOM     24  O   UNL     1       8.624  -1.324  -4.510  1.00  0.00    -0.508 OA
ATOM     25  H   UNL     1       8.201  -0.807  -5.272  1.00  0.00     0.293 HD
ENDBRANCH   8  24
TORSDOF 5
ENDMDL
MODEL 2
REMARK VINA RESULT:    -7.482      2.627      7.684
REMARK INTER + INTRA:          -8.981
REMARK INTER:                  -8.693
REMARK INTRA:                  -0.289
REMARK UNBOUND:                -0.187
REMARK SMILES O=c1c(O)c(-c2ccc(O)cc2)oc2cc(O)cc(O)c12
REMARK SMILES IDX 5 1 3 2 2 3 1 4 21 5 19 6 18 7 16 8 15 9 14 10 13 11 6 12
REMARK SMILES IDX 7 13 8 14 9 15 12 16 11 17 10 18 4 20 20 22 17 24
REMARK H PARENT 10 19 4 21 20 23 17 25
REMARK Flexibility Score: inf
ROOT
ATOM      1  C   UNL     1       9.114  -3.391   3.333  1.00  0.00     0.180 A 
ATOM      2  C   UNL     1       9.388  -4.708   3.741  1.00  0.00     0.208 A 
ATOM      3  C   UNL     1       9.700  -4.953   5.088  1.00  0.00     0.238 A 
ATOM      4  O   UNL     1       9.998  -6.125   5.436  1.00  0.00    -0.285 OA
ATOM      5  C   UNL     1       9.718  -3.881   6.013  1.00  0.00     0.111 A 
ATOM      6  C   UNL     1       9.981  -4.019   7.409  1.00  0.00     0.134 A 
ATOM      7  C   UNL     1      10.102  -2.875   8.206  1.00  0.00     0.093 A 
ATOM      8  C   UNL     1       9.904  -1.600   7.669  1.00  0.00     0.123 A 
ATOM      9  C   UNL     1       9.588  -1.458   6.321  1.00  0.00     0.094 A 
ATOM     10  C   UNL     1       9.496  -2.580   5.493  1.00  0.00     0.146 A 
ATOM     11  O   UNL     1       9.203  -2.398   4.210  1.00  0.00    -0.452 OA
ENDROOT
BRANCH   1  12
ATOM     12  C   UNL     1       8.753  -3.058   1.936  1.00  0.00     0.021 A 
ATOM     13  C   UNL     1       7.410  -2.966   1.528  1.00  0.00     0.016 A 
ATOM     14  C   UNL     1       7.093  -2.626   0.210  1.00  0.00     0.047 A 
ATOM     15  C   UNL     1       8.110  -2.361  -0.713  1.00  0.00     0.115 A 
ATOM     16  C   UNL     1       9.769  -2.770   1.009  1.00  0.00     0.016 A 
ATOM     17  C   UNL     1       9.449  -2.431  -0.309  1.00  0.00     0.047 A 
BRANCH  15  18
ATOM     18  O   UNL     1       7.779  -2.024  -2.024  1.00  0.00    -0.508 OA
ATOM     19  H   UNL     1       8.300  -2.391  -2.811  1.00  0.00     0.293 HD
ENDBRANCH  15  18
ENDBRANCH   1  12
BRANCH   2  20
ATOM     20  O   UNL     1       9.387  -5.748   2.808  1.00  0.00    -0.502 OA
ATOM     21  H   UNL     1       9.020  -6.668   3.017  1.00  0.00     0.293 HD
ENDBRANCH   2  20
BRANCH   6  22
ATOM     22  O   UNL     1      10.104  -5.250   8.061  1.00  0.00    -0.507 OA
ATOM     23  H   UNL     1       9.367  -5.932   8.144  1.00  0.00     0.293 HD
ENDBRANCH   6  22
BRANCH   8  24
ATOM     24  O   UNL     1      10.009  -0.467   8.473  1.00  0.00    -0.508 OA
ATOM     25  H   UNL     1      10.147   0.455   8.075  1.00  0.00     0.293 HD
ENDBRANCH   8  24
TORSDOF 5
ENDMDL
MODEL 3
REMARK VINA RESULT:    -7.407      1.303      2.922
REMARK INTER + INTRA:          -8.893
REMARK INTER:                  -8.593
REMARK INTRA:                  -0.300
REMARK UNBOUND:                -0.187
REMARK SMILES O=c1c(O)c(-c2ccc(O)cc2)oc2cc(O)cc(O)c12
REMARK SMILES IDX 5 1 3 2 2 3 1 4 21 5 19 6 18 7 16 8 15 9 14 10 13 11 6 12
REMARK SMILES IDX 7 13 8 14 9 15 12 16 11 17 10 18 4 20 20 22 17 24
REMARK H PARENT 10 19 4 21 20 23 17 25
REMARK Flexibility Score: inf
ROOT
ATOM      1  C   UNL     1       8.960  -2.321   0.702  1.00  0.00     0.180 A 
ATOM      2  C   UNL     1       9.328  -2.712  -0.597  1.00  0.00     0.208 A 
ATOM      3  C   UNL     1       9.318  -1.755  -1.625  1.00  0.00     0.238 A 
ATOM      4  O   UNL     1       9.596  -2.123  -2.796  1.00  0.00    -0.285 OA
ATOM      5  C   UNL     1       8.954  -0.417  -1.338  1.00  0.00     0.111 A 
ATOM      6  C   UNL     1       8.948   0.643  -2.293  1.00  0.00     0.134 A 
ATOM      7  C   UNL     1       8.445   1.898  -1.929  1.00  0.00     0.093 A 
ATOM      8  C   UNL     1       8.010   2.149  -0.624  1.00  0.00     0.123 A 
ATOM      9  C   UNL     1       8.069   1.137   0.330  1.00  0.00     0.094 A 
ATOM     10  C   UNL     1       8.532  -0.136  -0.013  1.00  0.00     0.146 A 
ATOM     11  O   UNL     1       8.560  -1.075   0.926  1.00  0.00    -0.452 OA
ENDROOT
BRANCH   1  12
ATOM     12  C   UNL     1       8.970  -3.267   1.842  1.00  0.00     0.021 A 
ATOM     13  C   UNL     1      10.124  -3.460   2.623  1.00  0.00     0.016 A 
ATOM     14  C   UNL     1      10.104  -4.339   3.709  1.00  0.00     0.047 A 
ATOM     15  C   UNL     1       8.930  -5.024   4.038  1.00  0.00     0.115 A 
ATOM     16  C   UNL     1       7.789  -3.942   2.191  1.00  0.00     0.016 A 
ATOM     17  C   UNL     1       7.771  -4.822   3.278  1.00  0.00     0.047 A 
BRANCH  15  18
ATOM     18  O   UNL     1       8.924  -5.898   5.123  1.00  0.00    -0.508 OA
ATOM     19  H   UNL     1       8.094  -6.037   5.686  1.00  0.00     0.293 HD
ENDBRANCH  15  18
ENDBRANCH   1  12
BRANCH   2  20
ATOM     20  O   UNL     1       9.662  -4.043  -0.863  1.00  0.00    -0.502 OA
ATOM     21  H   UNL     1      10.493  -4.303  -1.381  1.00  0.00     0.293 HD
ENDBRANCH   2  20
BRANCH   6  22
ATOM     22  O   UNL     1       9.444   0.524  -3.594  1.00  0.00    -0.507 OA
ATOM     23  H   UNL     1       9.850  -0.315  -3.980  1.00  0.00     0.293 HD
ENDBRANCH   6  22
BRANCH   8  24
ATOM     24  O   UNL     1       7.528   3.405  -0.265  1.00  0.00    -0.508 OA
ATOM     25  H   UNL     1       6.763   3.512   0.391  1.00  0.00     0.293 HD
ENDBRANCH   8  24
TORSDOF 5
ENDMDL
MODEL 4
REMARK VINA RESULT:    -7.355      1.676      6.632
REMARK INTER + INTRA:          -8.832
REMARK INTER:                  -8.546
REMARK INTRA:                  -0.286
REMARK UNBOUND:                -0.187
REMARK SMILES O=c1c(O)c(-c2ccc(O)cc2)oc2cc(O)cc(O)c12
REMARK SMILES IDX 5 1 3 2 2 3 1 4 21 5 19 6 18 7 16 8 15 9 14 10 13 11 6 12
REMARK SMILES IDX 7 13 8 14 9 15 12 16 11 17 10 18 4 20 20 22 17 24
REMARK H PARENT 10 19 4 21 20 23 17 25
REMARK Flexibility Score: inf
ROOT
ATOM      1  C   UNL     1       8.861  -0.881  -1.766  1.00  0.00     0.180 A 
ATOM      2  C   UNL     1       8.396   0.199  -0.997  1.00  0.00     0.208 A 
ATOM      3  C   UNL     1       8.410   0.095   0.404  1.00  0.00     0.238 A 
ATOM      4  O   UNL     1       7.942   1.044   1.086  1.00  0.00    -0.285 OA
ATOM      5  C   UNL     1       8.903  -1.082   1.018  1.00  0.00     0.111 A 
ATOM      6  C   UNL     1       9.002  -1.280   2.427  1.00  0.00     0.134 A 
ATOM      7  C   UNL     1       9.382  -2.533   2.924  1.00  0.00     0.093 A 
ATOM      8  C   UNL     1       9.731  -3.574   2.059  1.00  0.00     0.123 A 
ATOM      9  C   UNL     1       9.696  -3.371   0.683  1.00  0.00     0.094 A 
ATOM     10  C   UNL     1       9.286  -2.143   0.157  1.00  0.00     0.146 A 
ATOM     11  O   UNL     1       9.256  -1.997  -1.162  1.00  0.00    -0.452 OA
ENDROOT
BRANCH   1  12
ATOM     12  C   UNL     1       8.900  -0.836  -3.246  1.00  0.00     0.021 A 
ATOM     13  C   UNL     1      10.068  -0.466  -3.937  1.00  0.00     0.016 A 
ATOM     14  C   UNL     1      10.090  -0.455  -5.334  1.00  0.00     0.047 A 
ATOM     15  C   UNL     1       8.952  -0.825  -6.058  1.00  0.00     0.115 A 
ATOM     16  C   UNL     1       7.768  -1.227  -3.980  1.00  0.00     0.016 A 
ATOM     17  C   UNL     1       7.791  -1.214  -5.378  1.00  0.00     0.047 A 
BRANCH  15  18
ATOM     18  O   UNL     1       8.987  -0.808  -7.451  1.00  0.00    -0.508 OA
ATOM     19  H   UNL     1       8.314  -1.326  -8.003  1.00  0.00     0.293 HD
ENDBRANCH  15  18
ENDBRANCH   1  12
BRANCH   2  20
ATOM     20  O   UNL     1       7.892   1.343  -1.622  1.00  0.00    -0.502 OA
ATOM     21  H   UNL     1       8.215   1.654  -2.530  1.00  0.00     0.293 HD
ENDBRANCH   2  20
BRANCH   6  22
ATOM     22  O   UNL     1       8.765  -0.280   3.374  1.00  0.00    -0.507 OA
ATOM     23  H   UNL     1       8.212  -0.398   4.209  1.00  0.00     0.293 HD
ENDBRANCH   6  22
BRANCH   8  24
ATOM     24  O   UNL     1      10.125  -4.812   2.562  1.00  0.00    -0.508 OA
ATOM     25  H   UNL     1       9.998  -5.054   3.538  1.00  0.00     0.293 HD
ENDBRANCH   8  24
TORSDOF 5
ENDMDL
MODEL 5
REMARK VINA RESULT:    -7.028      2.689      6.627
REMARK INTER + INTRA:          -8.447
REMARK INTER:                  -8.153
REMARK INTRA:                  -0.294
REMARK UNBOUND:                -0.187
REMARK SMILES O=c1c(O)c(-c2ccc(O)cc2)oc2cc(O)cc(O)c12
REMARK SMILES IDX 5 1 3 2 2 3 1 4 21 5 19 6 18 7 16 8 15 9 14 10 13 11 6 12
REMARK SMILES IDX 7 13 8 14 9 15 12 16 11 17 10 18 4 20 20 22 17 24
REMARK H PARENT 10 19 4 21 20 23 17 25
REMARK Flexibility Score: inf
ROOT
ATOM      1  C   UNL     1       7.194  -1.739  -2.292  1.00  0.00     0.180 A 
ATOM      2  C   UNL     1       7.779  -0.466  -2.188  1.00  0.00     0.208 A 
ATOM      3  C   UNL     1       8.361  -0.081  -0.969  1.00  0.00     0.238 A 
ATOM      4  O   UNL     1       8.835   1.080  -0.864  1.00  0.00    -0.285 OA
ATOM      5  C   UNL     1       8.363  -0.980   0.125  1.00  0.00     0.111 A 
ATOM      6  C   UNL     1       8.959  -0.712   1.393  1.00  0.00     0.134 A 
ATOM      7  C   UNL     1       8.787  -1.622   2.444  1.00  0.00     0.093 A 
ATOM      8  C   UNL     1       8.097  -2.822   2.252  1.00  0.00     0.123 A 
ATOM      9  C   UNL     1       7.563  -3.120   1.001  1.00  0.00     0.094 A 
ATOM     10  C   UNL     1       7.687  -2.215  -0.056  1.00  0.00     0.146 A 
ATOM     11  O   UNL     1       7.153  -2.534  -1.230  1.00  0.00    -0.452 OA
ENDROOT
BRANCH   1  12
ATOM     12  C   UNL     1       6.583  -2.225  -3.552  1.00  0.00     0.021 A 
ATOM     13  C   UNL     1       7.360  -2.829  -4.557  1.00  0.00     0.016 A 
ATOM     14  C   UNL     1       6.759  -3.302  -5.727  1.00  0.00     0.047 A 
ATOM     15  C   UNL     1       5.376  -3.191  -5.902  1.00  0.00     0.115 A 
ATOM     16  C   UNL     1       5.192  -2.136  -3.725  1.00  0.00     0.016 A 
ATOM     17  C   UNL     1       4.593  -2.608  -4.897  1.00  0.00     0.047 A 
BRANCH  15  18
ATOM     18  O   UNL     1       4.790  -3.666  -7.073  1.00  0.00    -0.508 OA
ATOM     19  H   UNL     1       4.798  -4.651  -7.306  1.00  0.00     0.293 HD
ENDBRANCH  15  18
ENDBRANCH   1  12
BRANCH   2  20
ATOM     20  O   UNL     1       7.746   0.415  -3.272  1.00  0.00    -0.502 OA
ATOM     21  H   UNL     1       8.470   1.104  -3.437  1.00  0.00     0.293 HD
ENDBRANCH   2  20
BRANCH   6  22
ATOM     22  O   UNL     1       9.746   0.411   1.664  1.00  0.00    -0.507 OA
ATOM     23  H   UNL     1      10.190   0.602   2.549  1.00  0.00     0.293 HD
ENDBRANCH   6  22
BRANCH   8  24
ATOM     24  O   UNL     1       7.945  -3.729   3.298  1.00  0.00    -0.508 OA
ATOM     25  H   UNL     1       7.554  -4.652   3.147  1.00  0.00     0.293 HD
ENDBRANCH   8  24
TORSDOF 5
ENDMDL
MODEL 6
REMARK VINA RESULT:    -7.007      1.456      6.370
REMARK INTER + INTRA:          -8.422
REMARK INTER:                  -8.121
REMARK INTRA:                  -0.301
REMARK UNBOUND:                -0.187
REMARK SMILES O=c1c(O)c(-c2ccc(O)cc2)oc2cc(O)cc(O)c12
REMARK SMILES IDX 5 1 3 2 2 3 1 4 21 5 19 6 18 7 16 8 15 9 14 10 13 11 6 12
REMARK SMILES IDX 7 13 8 14 9 15 12 16 11 17 10 18 4 20 20 22 17 24
REMARK H PARENT 10 19 4 21 20 23 17 25
REMARK Flexibility Score: inf
ROOT
ATOM      1  C   UNL     1       8.520  -1.783  -0.123  1.00  0.00     0.180 A 
ATOM      2  C   UNL     1       8.432  -0.731   0.804  1.00  0.00     0.208 A 
ATOM      3  C   UNL     1       8.761  -0.976   2.147  1.00  0.00     0.238 A 
ATOM      4  O   UNL     1       8.629  -0.045   2.983  1.00  0.00    -0.285 OA
ATOM      5  C   UNL     1       9.190  -2.267   2.543  1.00  0.00     0.111 A 
ATOM      6  C   UNL     1       9.587  -2.618   3.867  1.00  0.00     0.134 A 
ATOM      7  C   UNL     1       9.867  -3.956   4.173  1.00  0.00     0.093 A 
ATOM      8  C   UNL     1       9.828  -4.943   3.185  1.00  0.00     0.123 A 
ATOM      9  C   UNL     1       9.500  -4.600   1.877  1.00  0.00     0.094 A 
ATOM     10  C   UNL     1       9.180  -3.280   1.549  1.00  0.00     0.146 A 
ATOM     11  O   UNL     1       8.862  -2.998   0.291  1.00  0.00    -0.452 OA
ENDROOT
BRANCH   1  12
ATOM     12  C   UNL     1       8.214  -1.595  -1.560  1.00  0.00     0.021 A 
ATOM     13  C   UNL     1       9.205  -1.197  -2.475  1.00  0.00     0.016 A 
ATOM     14  C   UNL     1       8.899  -1.050  -3.831  1.00  0.00     0.047 A 
ATOM     15  C   UNL     1       7.605  -1.311  -4.292  1.00  0.00     0.115 A 
ATOM     16  C   UNL     1       6.921  -1.876  -2.034  1.00  0.00     0.016 A 
ATOM     17  C   UNL     1       6.616  -1.727  -3.390  1.00  0.00     0.047 A 
BRANCH  15  18
ATOM     18  O   UNL     1       7.313  -1.159  -5.645  1.00  0.00    -0.508 OA
ATOM     19  H   UNL     1       6.365  -1.006  -5.968  1.00  0.00     0.293 HD
ENDBRANCH  15  18
ENDBRANCH   1  12
BRANCH   2  20
ATOM     20  O   UNL     1       7.986   0.530   0.398  1.00  0.00    -0.502 OA
ATOM     21  H   UNL     1       8.477   1.085  -0.291  1.00  0.00     0.293 HD
ENDBRANCH   2  20
BRANCH   6  22
ATOM     22  O   UNL     1       9.747  -1.695   4.905  1.00  0.00    -0.507 OA
ATOM     23  H   UNL     1      10.461  -1.747   5.615  1.00  0.00     0.293 HD
ENDBRANCH   6  22
BRANCH   8  24
ATOM     24  O   UNL     1      10.124  -6.269   3.494  1.00  0.00    -0.508 OA
ATOM     25  H   UNL     1       9.650  -7.039   3.037  1.00  0.00     0.293 HD
ENDBRANCH   8  24
TORSDOF 5
ENDMDL
MODEL 7
REMARK VINA RESULT:    -6.858      1.871      7.300
REMARK INTER + INTRA:          -8.247
REMARK INTER:                  -8.208
REMARK INTRA:                  -0.038
REMARK UNBOUND:                -0.187
REMARK SMILES O=c1c(O)c(-c2ccc(O)cc2)oc2cc(O)cc(O)c12
REMARK SMILES IDX 5 1 3 2 2 3 1 4 21 5 19 6 18 7 16 8 15 9 14 10 13 11 6 12
REMARK SMILES IDX 7 13 8 14 9 15 12 16 11 17 10 18 4 20 20 22 17 24
REMARK H PARENT 10 19 4 21 20 23 17 25
REMARK Flexibility Score: inf
ROOT
ATOM      1  C   UNL     1       9.334  -2.413   1.650  1.00  0.00     0.180 A 
ATOM      2  C   UNL     1       9.598  -3.759   1.346  1.00  0.00     0.208 A 
ATOM      3  C   UNL     1       9.832  -4.661   2.396  1.00  0.00     0.238 A 
ATOM      4  O   UNL     1      10.122  -5.854   2.117  1.00  0.00    -0.285 OA
ATOM      5  C   UNL     1       9.784  -4.209   3.737  1.00  0.00     0.111 A 
ATOM      6  C   UNL     1       9.965  -5.043   4.881  1.00  0.00     0.134 A 
ATOM      7  C   UNL     1      10.026  -4.465   6.155  1.00  0.00     0.093 A 
ATOM      8  C   UNL     1       9.846  -3.090   6.331  1.00  0.00     0.123 A 
ATOM      9  C   UNL     1       9.609  -2.277   5.227  1.00  0.00     0.094 A 
ATOM     10  C   UNL     1       9.579  -2.820   3.940  1.00  0.00     0.146 A 
ATOM     11  O   UNL     1       9.361  -2.005   2.914  1.00  0.00    -0.452 OA
ENDROOT
BRANCH   1  12
ATOM     12  C   UNL     1       9.054  -1.408   0.598  1.00  0.00     0.021 A 
ATOM     13  C   UNL     1       9.964  -1.166  -0.446  1.00  0.00     0.016 A 
ATOM     14  C   UNL     1       9.667  -0.230  -1.441  1.00  0.00     0.047 A 
ATOM     15  C   UNL     1       8.454   0.464  -1.414  1.00  0.00     0.115 A 
ATOM     16  C   UNL     1       7.828  -0.722   0.607  1.00  0.00     0.016 A 
ATOM     17  C   UNL     1       7.533   0.215  -0.389  1.00  0.00     0.047 A 
BRANCH  15  18
ATOM     18  O   UNL     1       8.172   1.395  -2.412  1.00  0.00    -0.508 OA
ATOM     19  H   UNL     1       8.826   1.582  -3.162  1.00  0.00     0.293 HD
ENDBRANCH  15  18
ENDBRANCH   1  12
BRANCH   2  20
ATOM     20  O   UNL     1       9.664  -4.180   0.015  1.00  0.00    -0.502 OA
ATOM     21  H   UNL     1       9.138  -3.732  -0.725  1.00  0.00     0.293 HD
ENDBRANCH   2  20
BRANCH   6  22
ATOM     22  O   UNL     1      10.062  -6.436   4.823  1.00  0.00    -0.507 OA
ATOM     23  H   UNL     1       9.574  -7.072   5.435  1.00  0.00     0.293 HD
ENDBRANCH   6  22
BRANCH   8  24
ATOM     24  O   UNL     1       9.891  -2.526   7.604  1.00  0.00    -0.508 OA
ATOM     25  H   UNL     1      10.472  -2.916   8.337  1.00  0.00     0.293 HD
ENDBRANCH   8  24
TORSDOF 5
ENDMDL
MODEL 8
REMARK VINA RESULT:    -6.713      2.958      6.556
REMARK INTER + INTRA:          -8.077
REMARK INTER:                  -7.878
REMARK INTRA:                  -0.199
REMARK UNBOUND:                -0.187
REMARK SMILES O=c1c(O)c(-c2ccc(O)cc2)oc2cc(O)cc(O)c12
REMARK SMILES IDX 5 1 3 2 2 3 1 4 21 5 19 6 18 7 16 8 15 9 14 10 13 11 6 12
REMARK SMILES IDX 7 13 8 14 9 15 12 16 11 17 10 18 4 20 20 22 17 24
REMARK H PARENT 10 19 4 21 20 23 17 25
REMARK Flexibility Score: inf
ROOT
ATOM      1  C   UNL     1       8.424  -1.822  -2.604  1.00  0.00     0.180 A 
ATOM      2  C   UNL     1       8.986  -2.551  -1.542  1.00  0.00     0.208 A 
ATOM      3  C   UNL     1       9.166  -1.918  -0.302  1.00  0.00     0.238 A 
ATOM      4  O   UNL     1       9.719  -2.558   0.630  1.00  0.00    -0.285 OA
ATOM      5  C   UNL     1       8.768  -0.569  -0.134  1.00  0.00     0.111 A 
ATOM      6  C   UNL     1       8.866   0.159   1.089  1.00  0.00     0.134 A 
ATOM      7  C   UNL     1       8.563   1.526   1.105  1.00  0.00     0.093 A 
ATOM      8  C   UNL     1       8.103   2.175  -0.044  1.00  0.00     0.123 A 
ATOM      9  C   UNL     1       7.946   1.459  -1.227  1.00  0.00     0.094 A 
ATOM     10  C   UNL     1       8.275   0.102  -1.283  1.00  0.00     0.146 A 
ATOM     11  O   UNL     1       8.121  -0.540  -2.436  1.00  0.00    -0.452 OA
ENDROOT
BRANCH   1  12
ATOM     12  C   UNL     1       8.180  -2.428  -3.934  1.00  0.00     0.021 A 
ATOM     13  C   UNL     1       6.876  -2.699  -4.388  1.00  0.00     0.016 A 
ATOM     14  C   UNL     1       6.668  -3.248  -5.656  1.00  0.00     0.047 A 
ATOM     15  C   UNL     1       7.756  -3.521  -6.491  1.00  0.00     0.115 A 
ATOM     16  C   UNL     1       9.266  -2.685  -4.786  1.00  0.00     0.016 A 
ATOM     17  C   UNL     1       9.056  -3.236  -6.054  1.00  0.00     0.047 A 
BRANCH  15  18
ATOM     18  O   UNL     1       7.535  -4.070  -7.752  1.00  0.00    -0.508 OA
ATOM     19  H   UNL     1       6.599  -4.261  -8.089  1.00  0.00     0.293 HD
ENDBRANCH  15  18
ENDBRANCH   1  12
BRANCH   2  20
ATOM     20  O   UNL     1       9.393  -3.874  -1.734  1.00  0.00    -0.502 OA
ATOM     21  H   UNL     1       9.433  -4.304  -2.650  1.00  0.00     0.293 HD
ENDBRANCH   2  20
BRANCH   6  22
ATOM     22  O   UNL     1       9.227  -0.414   2.311  1.00  0.00    -0.507 OA
ATOM     23  H   UNL     1       9.749  -1.271   2.412  1.00  0.00     0.293 HD
ENDBRANCH   6  22
BRANCH   8  24
ATOM     24  O   UNL     1       7.788   3.532  -0.015  1.00  0.00    -0.508 OA
ATOM     25  H   UNL     1       6.843   3.854   0.163  1.00  0.00     0.293 HD
ENDBRANCH   8  24
TORSDOF 5
ENDMDL
MODEL 9
REMARK VINA RESULT:    -6.645      2.750      4.558
REMARK INTER + INTRA:          -7.997
REMARK INTER:                  -8.490
REMARK INTRA:                   0.494
REMARK UNBOUND:                -0.187
REMARK SMILES O=c1c(O)c(-c2ccc(O)cc2)oc2cc(O)cc(O)c12
REMARK SMILES IDX 5 1 3 2 2 3 1 4 21 5 19 6 18 7 16 8 15 9 14 10 13 11 6 12
REMARK SMILES IDX 7 13 8 14 9 15 12 16 11 17 10 18 4 20 20 22 17 24
REMARK H PARENT 10 19 4 21 20 23 17 25
REMARK Flexibility Score: inf
ROOT
ATOM      1  C   UNL     1       9.665  -2.989   4.119  1.00  0.00     0.180 A 
ATOM      2  C   UNL     1       9.912  -4.230   3.506  1.00  0.00     0.208 A 
ATOM      3  C   UNL     1       9.905  -4.311   2.105  1.00  0.00     0.238 A 
ATOM      4  O   UNL     1      10.074  -5.435   1.563  1.00  0.00    -0.285 OA
ATOM      5  C   UNL     1       9.666  -3.149   1.333  1.00  0.00     0.111 A 
ATOM      6  C   UNL     1       9.675  -3.106  -0.094  1.00  0.00     0.134 A 
ATOM      7  C   UNL     1       9.296  -1.931  -0.753  1.00  0.00     0.093 A 
ATOM      8  C   UNL     1       8.973  -0.776  -0.036  1.00  0.00     0.123 A 
ATOM      9  C   UNL     1       9.019  -0.790   1.355  1.00  0.00     0.094 A 
ATOM     10  C   UNL     1       9.358  -1.959   2.042  1.00  0.00     0.146 A 
ATOM     11  O   UNL     1       9.378  -1.931   3.369  1.00  0.00    -0.452 OA
ENDROOT
BRANCH   1  12
ATOM     12  C   UNL     1       9.680  -2.819   5.590  1.00  0.00     0.021 A 
ATOM     13  C   UNL     1       9.998  -3.888   6.448  1.00  0.00     0.016 A 
ATOM     14  C   UNL     1      10.031  -3.698   7.832  1.00  0.00     0.047 A 
ATOM     15  C   UNL     1       9.761  -2.439   8.376  1.00  0.00     0.115 A 
ATOM     16  C   UNL     1       9.431  -1.552   6.142  1.00  0.00     0.016 A 
ATOM     17  C   UNL     1       9.463  -1.365   7.528  1.00  0.00     0.047 A 
BRANCH  15  18
ATOM     18  O   UNL     1       9.796  -2.264   9.758  1.00  0.00    -0.508 OA
ATOM     19  H   UNL     1      10.163  -2.981  10.373  1.00  0.00     0.293 HD
ENDBRANCH  15  18
ENDBRANCH   1  12
BRANCH   2  20
ATOM     20  O   UNL     1      10.124  -5.370   4.287  1.00  0.00    -0.502 OA
ATOM     21  H   UNL     1       9.419  -5.742   4.910  1.00  0.00     0.293 HD
ENDBRANCH   2  20
BRANCH   6  22
ATOM     22  O   UNL     1      10.071  -4.175  -0.903  1.00  0.00    -0.507 OA
ATOM     23  H   UNL     1      10.103  -5.139  -0.607  1.00  0.00     0.293 HD
ENDBRANCH   6  22
BRANCH   8  24
ATOM     24  O   UNL     1       8.613   0.395  -0.700  1.00  0.00    -0.508 OA
ATOM     25  H   UNL     1       9.283   0.921  -1.249  1.00  0.00     0.293 HD
ENDBRANCH   8  24
TORSDOF 5
ENDMDL
