MODEL 1
REMARK VINA RESULT:    -5.478      0.000      0.000
REMARK INTER + INTRA:          -5.478
REMARK INTER:                  -5.478
REMARK INTRA:                   0.000
REMARK UNBOUND:                 0.000
REMARK SMILES CC1=CC[C@@]2(C)CCCC(C)(C)[C@@]23C[C@@H]13
REMARK SMILES IDX 1 1 2 2 3 3 4 4 5 5 7 6 8 7 9 8 10 9 13 10 15 11 14 12 11 13
REMARK SMILES IDX 12 14 6 15
REMARK H PARENT
REMARK Flexibility Score: inf
ROOT
ATOM      1  C   UNL     1      31.737  12.578  31.209  1.00  0.00     0.039 C 
ATOM      2  C   UNL     1      31.843  11.364  32.089  1.00  0.00    -0.074 C 
ATOM      3  C   UNL     1      32.155  10.174  31.533  1.00  0.00    -0.027 C 
ATOM      4  C   UNL     1      32.278   8.916  32.357  1.00  0.00     0.034 C 
ATOM      5  C   UNL     1      31.290   8.940  33.556  1.00  0.00    -0.022 C 
ATOM      6  C   UNL     1      31.556   7.716  34.461  1.00  0.00     0.008 C 
ATOM      7  C   UNL     1      30.650   7.652  35.716  1.00  0.00     0.001 C 
ATOM      8  C   UNL     1      29.922   8.970  36.060  1.00  0.00     0.007 C 
ATOM      9  C   UNL     1      30.805  10.238  35.882  1.00  0.00    -0.029 C 
ATOM     10  C   UNL     1      31.482  10.229  34.441  1.00  0.00    -0.012 C 
ATOM     11  C   UNL     1      31.601  11.513  33.584  1.00  0.00     0.022 C 
ATOM     12  C   UNL     1      32.802  11.043  34.382  1.00  0.00     0.017 C 
ATOM     13  C   UNL     1      29.897  11.471  36.080  1.00  0.00     0.012 C 
ATOM     14  C   UNL     1      31.861  10.217  37.023  1.00  0.00     0.012 C 
ATOM     15  C   UNL     1      29.837   8.878  32.971  1.00  0.00     0.012 C 
ENDROOT
TORSDOF 0
ENDMDL
MODEL 2
REMARK VINA RESULT:    -5.451      2.104      4.429
REMARK INTER + INTRA:          -5.451
REMARK INTER:                  -5.451
REMARK INTRA:                   0.000
REMARK UNBOUND:                 0.000
REMARK SMILES CC1=CC[C@@]2(C)CCCC(C)(C)[C@@]23C[C@@H]13
REMARK SMILES IDX 1 1 2 2 3 3 4 4 5 5 7 6 8 7 9 8 10 9 13 10 15 11 14 12 11 13
REMARK SMILES IDX 12 14 6 15
REMARK H PARENT
REMARK Flexibility Score: inf
ROOT
ATOM      1  C   UNL     1      31.525   8.503  27.500  1.00  0.00     0.039 C 
ATOM      2  C   UNL     1      31.276   9.457  28.635  1.00  0.00    -0.074 C 
ATOM      3  C   UNL     1      31.102  10.769  28.365  1.00  0.00    -0.027 C 
ATOM      4  C   UNL     1      30.849  11.781  29.455  1.00  0.00     0.034 C 
ATOM      5  C   UNL     1      31.585  11.383  30.763  1.00  0.00    -0.022 C 
ATOM      6  C   UNL     1      31.175  12.351  31.895  1.00  0.00     0.008 C 
ATOM      7  C   UNL     1      31.821  12.030  33.265  1.00  0.00     0.001 C 
ATOM      8  C   UNL     1      32.440  10.619  33.376  1.00  0.00     0.007 C 
ATOM      9  C   UNL     1      31.582   9.504  32.714  1.00  0.00    -0.029 C 
ATOM     10  C   UNL     1      31.198   9.927  31.228  1.00  0.00    -0.012 C 
ATOM     11  C   UNL     1      31.220   8.916  30.056  1.00  0.00     0.022 C 
ATOM     12  C   UNL     1      29.897   9.252  30.717  1.00  0.00     0.017 C 
ATOM     13  C   UNL     1      32.408   8.200  32.742  1.00  0.00     0.012 C 
ATOM     14  C   UNL     1      30.326   9.309  33.608  1.00  0.00     0.012 C 
ATOM     15  C   UNL     1      33.125  11.487  30.490  1.00  0.00     0.012 C 
ENDROOT
TORSDOF 0
ENDMDL
MODEL 3
REMARK VINA RESULT:    -5.415      1.803      5.139
REMARK INTER + INTRA:          -5.415
REMARK INTER:                  -5.415
REMARK INTRA:                   0.000
REMARK UNBOUND:                 0.000
REMARK SMILES CC1=CC[C@@]2(C)CCCC(C)(C)[C@@]23C[C@@H]13
REMARK SMILES IDX 1 1 2 2 3 3 4 4 5 5 7 6 8 7 9 8 10 9 13 10 15 11 14 12 11 13
REMARK SMILES IDX 12 14 6 15
REMARK H PARENT
REMARK Flexibility Score: inf
ROOT
ATOM      1  C   UNL     1      30.299   9.702  35.170  1.00  0.00     0.039 C 
ATOM      2  C   UNL     1      31.099  10.024  33.939  1.00  0.00    -0.074 C 
ATOM      3  C   UNL     1      32.235  10.745  34.064  1.00  0.00    -0.027 C 
ATOM      4  C   UNL     1      33.086  11.105  32.871  1.00  0.00     0.034 C 
ATOM      5  C   UNL     1      32.209  11.313  31.607  1.00  0.00    -0.022 C 
ATOM      6  C   UNL     1      33.124  11.522  30.379  1.00  0.00     0.008 C 
ATOM      7  C   UNL     1      32.358  11.705  29.046  1.00  0.00     0.001 C 
ATOM      8  C   UNL     1      30.874  11.278  29.085  1.00  0.00     0.007 C 
ATOM      9  C   UNL     1      30.622   9.964  29.877  1.00  0.00    -0.029 C 
ATOM     10  C   UNL     1      31.307  10.055  31.312  1.00  0.00    -0.012 C 
ATOM     11  C   UNL     1      30.610   9.525  32.588  1.00  0.00     0.022 C 
ATOM     12  C   UNL     1      31.661   8.667  31.909  1.00  0.00     0.017 C 
ATOM     13  C   UNL     1      29.093   9.770  29.985  1.00  0.00     0.012 C 
ATOM     14  C   UNL     1      31.206   8.803  29.025  1.00  0.00     0.012 C 
ATOM     15  C   UNL     1      31.326  12.586  31.849  1.00  0.00     0.012 C 
ENDROOT
TORSDOF 0
ENDMDL
MODEL 4
REMARK VINA RESULT:    -5.329      1.264      4.723
REMARK INTER + INTRA:          -5.329
REMARK INTER:                  -5.329
REMARK INTRA:                   0.000
REMARK UNBOUND:                 0.000
REMARK SMILES CC1=CC[C@@]2(C)CCCC(C)(C)[C@@]23C[C@@H]13
REMARK SMILES IDX 1 1 2 2 3 3 4 4 5 5 7 6 8 7 9 8 10 9 13 10 15 11 14 12 11 13
REMARK SMILES IDX 12 14 6 15
REMARK H PARENT
REMARK Flexibility Score: inf
ROOT
ATOM      1  C   UNL     1      28.899   8.077  38.257  1.00  0.00     0.039 C 
ATOM      2  C   UNL     1      29.956   8.626  37.339  1.00  0.00    -0.074 C 
ATOM      3  C   UNL     1      30.653   9.719  37.718  1.00  0.00    -0.027 C 
ATOM      4  C   UNL     1      31.727  10.321  36.846  1.00  0.00     0.034 C 
ATOM      5  C   UNL     1      31.384  10.143  35.342  1.00  0.00    -0.022 C 
ATOM      6  C   UNL     1      32.577  10.628  34.485  1.00  0.00     0.008 C 
ATOM      7  C   UNL     1      32.364  10.464  32.960  1.00  0.00     0.001 C 
ATOM      8  C   UNL     1      31.208   9.521  32.562  1.00  0.00     0.007 C 
ATOM      9  C   UNL     1      31.117   8.238  33.436  1.00  0.00    -0.029 C 
ATOM     10  C   UNL     1      31.130   8.631  34.979  1.00  0.00    -0.012 C 
ATOM     11  C   UNL     1      30.214   7.930  36.011  1.00  0.00     0.022 C 
ATOM     12  C   UNL     1      31.663   7.496  35.894  1.00  0.00     0.017 C 
ATOM     13  C   UNL     1      29.820   7.497  33.045  1.00  0.00     0.012 C 
ATOM     14  C   UNL     1      32.328   7.342  33.052  1.00  0.00     0.012 C 
ATOM     15  C   UNL     1      30.112  11.008  35.040  1.00  0.00     0.012 C 
ENDROOT
TORSDOF 0
ENDMDL
MODEL 5
REMARK VINA RESULT:    -5.307      1.433      4.259
REMARK INTER + INTRA:          -5.307
REMARK INTER:                  -5.307
REMARK INTRA:                   0.000
REMARK UNBOUND:                 0.000
REMARK SMILES CC1=CC[C@@]2(C)CCCC(C)(C)[C@@]23C[C@@H]13
REMARK SMILES IDX 1 1 2 2 3 3 4 4 5 5 7 6 8 7 9 8 10 9 13 10 15 11 14 12 11 13
REMARK SMILES IDX 12 14 6 15
REMARK H PARENT
REMARK Flexibility Score: inf
ROOT
ATOM      1  C   UNL     1      30.843   7.152  37.079  1.00  0.00     0.039 C 
ATOM      2  C   UNL     1      30.647   7.538  35.640  1.00  0.00    -0.074 C 
ATOM      3  C   UNL     1      30.189   6.614  34.768  1.00  0.00    -0.027 C 
ATOM      4  C   UNL     1      29.969   6.932  33.309  1.00  0.00     0.034 C 
ATOM      5  C   UNL     1      31.003   7.978  32.809  1.00  0.00    -0.022 C 
ATOM      6  C   UNL     1      30.647   8.396  31.364  1.00  0.00     0.008 C 
ATOM      7  C   UNL     1      31.592   9.468  30.768  1.00  0.00     0.001 C 
ATOM      8  C   UNL     1      32.467  10.210  31.801  1.00  0.00     0.007 C 
ATOM      9  C   UNL     1      31.716  10.573  33.114  1.00  0.00    -0.029 C 
ATOM     10  C   UNL     1      30.983   9.283  33.693  1.00  0.00    -0.012 C 
ATOM     11  C   UNL     1      30.964   8.962  35.206  1.00  0.00     0.022 C 
ATOM     12  C   UNL     1      29.754   9.624  34.576  1.00  0.00     0.017 C 
ATOM     13  C   UNL     1      32.755  11.135  34.108  1.00  0.00     0.012 C 
ATOM     14  C   UNL     1      30.711  11.705  32.761  1.00  0.00     0.012 C 
ATOM     15  C   UNL     1      32.416   7.302  32.847  1.00  0.00     0.012 C 
ENDROOT
TORSDOF 0
ENDMDL
MODEL 6
REMARK VINA RESULT:    -5.208      1.873      4.861
REMARK INTER + INTRA:          -5.208
REMARK INTER:                  -5.208
REMARK INTRA:                   0.000
REMARK UNBOUND:                 0.000
REMARK SMILES CC1=CC[C@@]2(C)CCCC(C)(C)[C@@]23C[C@@H]13
REMARK SMILES IDX 1 1 2 2 3 3 4 4 5 5 7 6 8 7 9 8 10 9 13 10 15 11 14 12 11 13
REMARK SMILES IDX 12 14 6 15
REMARK H PARENT
REMARK Flexibility Score: inf
ROOT
ATOM      1  C   UNL     1      29.493   6.566  33.276  1.00  0.00     0.039 C 
ATOM      2  C   UNL     1      30.457   7.624  32.817  1.00  0.00    -0.074 C 
ATOM      3  C   UNL     1      31.666   7.714  33.412  1.00  0.00    -0.027 C 
ATOM      4  C   UNL     1      32.682   8.751  33.001  1.00  0.00     0.034 C 
ATOM      5  C   UNL     1      31.983  10.058  32.537  1.00  0.00    -0.022 C 
ATOM      6  C   UNL     1      33.044  11.033  31.977  1.00  0.00     0.008 C 
ATOM      7  C   UNL     1      32.457  12.365  31.447  1.00  0.00     0.001 C 
ATOM      8  C   UNL     1      30.932  12.354  31.208  1.00  0.00     0.007 C 
ATOM      9  C   UNL     1      30.408  11.039  30.565  1.00  0.00    -0.029 C 
ATOM     10  C   UNL     1      30.943   9.783  31.385  1.00  0.00    -0.012 C 
ATOM     11  C   UNL     1      30.046   8.560  31.690  1.00  0.00     0.022 C 
ATOM     12  C   UNL     1      31.026   8.488  30.534  1.00  0.00     0.017 C 
ATOM     13  C   UNL     1      28.865  11.103  30.561  1.00  0.00     0.012 C 
ATOM     14  C   UNL     1      30.902  11.027  29.092  1.00  0.00     0.012 C 
ATOM     15  C   UNL     1      31.275  10.686  33.787  1.00  0.00     0.012 C 
ENDROOT
TORSDOF 0
ENDMDL
MODEL 7
REMARK VINA RESULT:    -5.175      2.241      4.381
REMARK INTER + INTRA:          -5.175
REMARK INTER:                  -5.175
REMARK INTRA:                   0.000
REMARK UNBOUND:                 0.000
REMARK SMILES CC1=CC[C@@]2(C)CCCC(C)(C)[C@@]23C[C@@H]13
REMARK SMILES IDX 1 1 2 2 3 3 4 4 5 5 7 6 8 7 9 8 10 9 13 10 15 11 14 12 11 13
REMARK SMILES IDX 12 14 6 15
REMARK H PARENT
REMARK Flexibility Score: inf
ROOT
ATOM      1  C   UNL     1      28.620   7.727  28.905  1.00  0.00     0.039 C 
ATOM      2  C   UNL     1      29.773   8.140  29.776  1.00  0.00    -0.074 C 
ATOM      3  C   UNL     1      30.380   7.212  30.546  1.00  0.00    -0.027 C 
ATOM      4  C   UNL     1      31.543   7.557  31.444  1.00  0.00     0.034 C 
ATOM      5  C   UNL     1      31.411   9.005  31.990  1.00  0.00    -0.022 C 
ATOM      6  C   UNL     1      32.692   9.375  32.772  1.00  0.00     0.008 C 
ATOM      7  C   UNL     1      32.692  10.817  33.336  1.00  0.00     0.001 C 
ATOM      8  C   UNL     1      31.628  11.754  32.724  1.00  0.00     0.007 C 
ATOM      9  C   UNL     1      31.459  11.590  31.186  1.00  0.00    -0.029 C 
ATOM     10  C   UNL     1      31.253  10.053  30.824  1.00  0.00    -0.012 C 
ATOM     11  C   UNL     1      30.228   9.592  29.760  1.00  0.00     0.022 C 
ATOM     12  C   UNL     1      31.692   9.702  29.378  1.00  0.00     0.017 C 
ATOM     13  C   UNL     1      30.248  12.446  30.755  1.00  0.00     0.012 C 
ATOM     14  C   UNL     1      32.737  12.178  30.526  1.00  0.00     0.012 C 
ATOM     15  C   UNL     1      30.165   9.040  32.942  1.00  0.00     0.012 C 
ENDROOT
TORSDOF 0
ENDMDL
MODEL 8
REMARK VINA RESULT:    -5.155      1.238      3.265
REMARK INTER + INTRA:          -5.155
REMARK INTER:                  -5.155
REMARK INTRA:                   0.000
REMARK UNBOUND:                 0.000
REMARK SMILES CC1=CC[C@@]2(C)CCCC(C)(C)[C@@]23C[C@@H]13
REMARK SMILES IDX 1 1 2 2 3 3 4 4 5 5 7 6 8 7 9 8 10 9 13 10 15 11 14 12 11 13
REMARK SMILES IDX 12 14 6 15
REMARK H PARENT
REMARK Flexibility Score: inf
ROOT
ATOM      1  C   UNL     1      32.747  11.123  29.276  1.00  0.00     0.039 C 
ATOM      2  C   UNL     1      32.073  11.132  30.620  1.00  0.00    -0.074 C 
ATOM      3  C   UNL     1      31.879  12.310  31.250  1.00  0.00    -0.027 C 
ATOM      4  C   UNL     1      31.210  12.392  32.600  1.00  0.00     0.034 C 
ATOM      5  C   UNL     1      31.532  11.136  33.455  1.00  0.00    -0.022 C 
ATOM      6  C   UNL     1      30.705  11.181  34.760  1.00  0.00     0.008 C 
ATOM      7  C   UNL     1      30.915   9.955  35.682  1.00  0.00     0.001 C 
ATOM      8  C   UNL     1      31.589   8.741  35.006  1.00  0.00     0.007 C 
ATOM      9  C   UNL     1      31.082   8.468  33.561  1.00  0.00    -0.029 C 
ATOM     10  C   UNL     1      31.147   9.806  32.702  1.00  0.00    -0.012 C 
ATOM     11  C   UNL     1      31.623   9.812  31.229  1.00  0.00     0.022 C 
ATOM     12  C   UNL     1      30.135   9.826  31.525  1.00  0.00     0.017 C 
ATOM     13  C   UNL     1      31.969   7.357  32.957  1.00  0.00     0.012 C 
ATOM     14  C   UNL     1      29.631   7.925  33.687  1.00  0.00     0.012 C 
ATOM     15  C   UNL     1      33.064  11.166  33.782  1.00  0.00     0.012 C 
ENDROOT
TORSDOF 0
ENDMDL
MODEL 9
REMARK VINA RESULT:    -5.134      5.295      7.875
REMARK INTER + INTRA:          -5.134
REMARK INTER:                  -5.134
REMARK INTRA:                   0.000
REMARK UNBOUND:                 0.000
REMARK SMILES CC1=CC[C@@]2(C)CCCC(C)(C)[C@@]23C[C@@H]13
REMARK SMILES IDX 1 1 2 2 3 3 4 4 5 5 7 6 8 7 9 8 10 9 13 10 15 11 14 12 11 13
REMARK SMILES IDX 12 14 6 15
REMARK H PARENT
REMARK Flexibility Score: inf
ROOT
ATOM      1  C   UNL     1      32.739  11.462  29.815  1.00  0.00     0.039 C 
ATOM      2  C   UNL     1      32.148  11.037  28.500  1.00  0.00    -0.074 C 
ATOM      3  C   UNL     1      32.365  11.798  27.406  1.00  0.00    -0.027 C 
ATOM      4  C   UNL     1      31.801  11.432  26.055  1.00  0.00     0.034 C 
ATOM      5  C   UNL     1      30.431  10.716  26.202  1.00  0.00    -0.022 C 
ATOM      6  C   UNL     1      29.964  10.217  24.815  1.00  0.00     0.008 C 
ATOM      7  C   UNL     1      28.618   9.452  24.842  1.00  0.00     0.001 C 
ATOM      8  C   UNL     1      28.165   8.982  26.241  1.00  0.00     0.007 C 
ATOM      9  C   UNL     1      29.320   8.423  27.119  1.00  0.00    -0.029 C 
ATOM     10  C   UNL     1      30.531   9.457  27.144  1.00  0.00    -0.012 C 
ATOM     11  C   UNL     1      31.324   9.759  28.438  1.00  0.00     0.022 C 
ATOM     12  C   UNL     1      31.902   8.786  27.428  1.00  0.00     0.017 C 
ATOM     13  C   UNL     1      28.753   8.173  28.534  1.00  0.00     0.012 C 
ATOM     14  C   UNL     1      29.733   7.056  26.507  1.00  0.00     0.012 C 
ATOM     15  C   UNL     1      29.411  11.760  26.775  1.00  0.00     0.012 C 
ENDROOT
TORSDOF 0
ENDMDL
