MODEL 1
REMARK VINA RESULT:    -3.695      0.000      0.000
REMARK INTER + INTRA:          -9.054
REMARK INTER:                  -6.719
REMARK INTRA:                  -2.335
REMARK UNBOUND:                -2.335
REMARK SMILES CCCCCCCCCCCCCC[C@H](C)C(=O)[O-]
REMARK SMILES IDX 9 1 10 2 11 3 12 4 13 5 14 6 15 7 16 8 17 9 18 10 19 11 8 12
REMARK SMILES IDX 7 13 6 14 5 15 4 16 3 17 2 18 1 19
REMARK H PARENT
REMARK Flexibility Score: inf
ROOT
ATOM      1  C   UNL     1    -116.539  13.285  23.822  1.00  0.00     0.000 C 
ENDROOT
BRANCH   1   2
ATOM      2  C   UNL     1    -117.251  11.955  24.110  1.00  0.00     0.000 C 
BRANCH   2   3
ATOM      3  C   UNL     1    -117.073  10.920  22.985  1.00  0.00     0.000 C 
BRANCH   3   4
ATOM      4  C   UNL     1    -115.851  11.141  22.067  1.00  0.00     0.000 C 
BRANCH   4   5
ATOM      5  C   UNL     1    -114.798  10.013  22.095  1.00  0.00     0.001 C 
BRANCH   5   6
ATOM      6  C   UNL     1    -114.247   9.711  23.508  1.00  0.00     0.009 C 
BRANCH   6   7
ATOM      7  C   UNL     1    -112.938  10.466  23.834  1.00  0.00     0.032 C 
ATOM      8  C   UNL     1    -111.829   9.525  24.323  1.00  0.00     0.014 C 
BRANCH   7   9
ATOM      9  C   UNL     1    -113.202  11.526  24.868  1.00  0.00     0.044 C 
ATOM     10  O   UNL     1    -114.125  11.382  25.713  1.00  0.00    -0.550 OA
ATOM     11  O   UNL     1    -112.426  12.678  24.894  1.00  0.00    -0.550 OA
ENDBRANCH   7   9
ENDBRANCH   6   7
ENDBRANCH   5   6
ENDBRANCH   4   5
ENDBRANCH   3   4
ENDBRANCH   2   3
ENDBRANCH   1   2
BRANCH   1  12
ATOM     12  C   UNL     1    -117.465  14.476  24.106  1.00  0.00     0.000 C 
BRANCH  12  13
ATOM     13  C   UNL     1    -118.934  14.060  24.307  1.00  0.00    -0.000 C 
BRANCH  13  14
ATOM     14  C   UNL     1    -119.852  14.320  23.098  1.00  0.00    -0.000 C 
BRANCH  14  15
ATOM     15  C   UNL     1    -119.306  15.328  22.070  1.00  0.00    -0.000 C 
BRANCH  15  16
ATOM     16  C   UNL     1    -119.205  14.761  20.638  1.00  0.00    -0.000 C 
BRANCH  16  17
ATOM     17  C   UNL     1    -117.958  13.880  20.443  1.00  0.00    -0.000 C 
BRANCH  17  18
ATOM     18  C   UNL     1    -118.277  12.555  19.732  1.00  0.00    -0.003 C 
ATOM     19  C   UNL     1    -119.508  11.855  20.308  1.00  0.00     0.004 C 
ENDBRANCH  17  18
ENDBRANCH  16  17
ENDBRANCH  15  16
ENDBRANCH  14  15
ENDBRANCH  13  14
ENDBRANCH  12  13
ENDBRANCH   1  12
TORSDOF 14
ENDMDL
MODEL 2
REMARK VINA RESULT:    -3.664      3.421      6.918
REMARK INTER + INTRA:          -8.997
REMARK INTER:                  -7.245
REMARK INTRA:                  -1.753
REMARK UNBOUND:                -2.335
REMARK SMILES CCCCCCCCCCCCCC[C@H](C)C(=O)[O-]
REMARK SMILES IDX 9 1 10 2 11 3 12 4 13 5 14 6 15 7 16 8 17 9 18 10 19 11 8 12
REMARK SMILES IDX 7 13 6 14 5 15 4 16 3 17 2 18 1 19
REMARK H PARENT
REMARK Flexibility Score: inf
ROOT
ATOM      1  C   UNL     1    -116.682  13.690  23.962  1.00  0.00     0.000 C 
ENDROOT
BRANCH   1   2
ATOM      2  C   UNL     1    -117.673  14.859  24.053  1.00  0.00     0.000 C 
BRANCH   2   3
ATOM      3  C   UNL     1    -119.096  14.480  23.601  1.00  0.00     0.000 C 
BRANCH   3   4
ATOM      4  C   UNL     1    -119.595  15.185  22.322  1.00  0.00     0.000 C 
BRANCH   4   5
ATOM      5  C   UNL     1    -119.566  14.319  21.044  1.00  0.00     0.001 C 
BRANCH   5   6
ATOM      6  C   UNL     1    -118.340  14.584  20.140  1.00  0.00     0.009 C 
BRANCH   6   7
ATOM      7  C   UNL     1    -118.434  13.897  18.759  1.00  0.00     0.032 C 
ATOM      8  C   UNL     1    -117.475  12.706  18.635  1.00  0.00     0.014 C 
BRANCH   7   9
ATOM      9  C   UNL     1    -118.151  14.895  17.669  1.00  0.00     0.044 C 
ATOM     10  O   UNL     1    -118.902  14.973  16.661  1.00  0.00    -0.550 OA
ATOM     11  O   UNL     1    -117.051  15.738  17.769  1.00  0.00    -0.550 OA
ENDBRANCH   7   9
ENDBRANCH   6   7
ENDBRANCH   5   6
ENDBRANCH   4   5
ENDBRANCH   3   4
ENDBRANCH   2   3
ENDBRANCH   1   2
BRANCH   1  12
ATOM     12  C   UNL     1    -117.325  12.478  23.273  1.00  0.00     0.000 C 
BRANCH  12  13
ATOM     13  C   UNL     1    -116.468  11.916  22.123  1.00  0.00    -0.000 C 
BRANCH  13  14
ATOM     14  C   UNL     1    -115.451  10.837  22.541  1.00  0.00    -0.000 C 
BRANCH  14  15
ATOM     15  C   UNL     1    -115.702  10.207  23.923  1.00  0.00    -0.000 C 
BRANCH  15  16
ATOM     16  C   UNL     1    -114.433  10.101  24.797  1.00  0.00    -0.000 C 
BRANCH  16  17
ATOM     17  C   UNL     1    -114.100  11.425  25.508  1.00  0.00    -0.000 C 
BRANCH  17  18
ATOM     18  C   UNL     1    -112.885  12.136  24.893  1.00  0.00    -0.003 C 
ATOM     19  C   UNL     1    -112.001  11.197  24.072  1.00  0.00     0.004 C 
ENDBRANCH  17  18
ENDBRANCH  16  17
ENDBRANCH  15  16
ENDBRANCH  14  15
ENDBRANCH  13  14
ENDBRANCH  12  13
ENDBRANCH   1  12
TORSDOF 14
ENDMDL
MODEL 3
REMARK VINA RESULT:    -3.632      2.797      6.106
REMARK INTER + INTRA:          -8.940
REMARK INTER:                  -7.296
REMARK INTRA:                  -1.644
REMARK UNBOUND:                -2.335
REMARK SMILES CCCCCCCCCCCCCC[C@H](C)C(=O)[O-]
REMARK SMILES IDX 9 1 10 2 11 3 12 4 13 5 14 6 15 7 16 8 17 9 18 10 19 11 8 12
REMARK SMILES IDX 7 13 6 14 5 15 4 16 3 17 2 18 1 19
REMARK H PARENT
REMARK Flexibility Score: inf
ROOT
ATOM      1  C   UNL     1    -112.283  11.714  24.512  1.00  0.00     0.000 C 
ENDROOT
BRANCH   1   2
ATOM      2  C   UNL     1    -113.542  11.946  25.361  1.00  0.00     0.000 C 
BRANCH   2   3
ATOM      3  C   UNL     1    -114.588  10.827  25.205  1.00  0.00     0.000 C 
BRANCH   3   4
ATOM      4  C   UNL     1    -116.001  11.292  24.793  1.00  0.00     0.000 C 
BRANCH   4   5
ATOM      5  C   UNL     1    -116.038  12.394  23.713  1.00  0.00     0.001 C 
BRANCH   5   6
ATOM      6  C   UNL     1    -117.465  12.887  23.376  1.00  0.00     0.009 C 
BRANCH   6   7
ATOM      7  C   UNL     1    -117.562  14.420  23.200  1.00  0.00     0.032 C 
ATOM      8  C   UNL     1    -117.530  15.163  24.542  1.00  0.00     0.014 C 
BRANCH   7   9
ATOM      9  C   UNL     1    -118.818  14.772  22.451  1.00  0.00     0.044 C 
ATOM     10  O   UNL     1    -119.930  14.802  23.042  1.00  0.00    -0.550 OA
ATOM     11  O   UNL     1    -118.757  15.064  21.094  1.00  0.00    -0.550 OA
ENDBRANCH   7   9
ENDBRANCH   6   7
ENDBRANCH   5   6
ENDBRANCH   4   5
ENDBRANCH   3   4
ENDBRANCH   2   3
ENDBRANCH   1   2
BRANCH   1  12
ATOM     12  C   UNL     1    -112.064  10.217  24.253  1.00  0.00     0.000 C 
BRANCH  12  13
ATOM     13  C   UNL     1    -111.292   9.939  22.949  1.00  0.00    -0.000 C 
BRANCH  13  14
ATOM     14  C   UNL     1    -112.122   9.281  21.831  1.00  0.00    -0.000 C 
BRANCH  14  15
ATOM     15  C   UNL     1    -113.648   9.348  22.029  1.00  0.00    -0.000 C 
BRANCH  15  16
ATOM     16  C   UNL     1    -114.440   9.462  20.708  1.00  0.00    -0.000 C 
BRANCH  16  17
ATOM     17  C   UNL     1    -115.783  10.190  20.892  1.00  0.00    -0.000 C 
BRANCH  17  18
ATOM     18  C   UNL     1    -116.216  10.958  19.634  1.00  0.00    -0.003 C 
ATOM     19  C   UNL     1    -117.189  12.097  19.939  1.00  0.00     0.004 C 
ENDBRANCH  17  18
ENDBRANCH  16  17
ENDBRANCH  15  16
ENDBRANCH  14  15
ENDBRANCH  13  14
ENDBRANCH  12  13
ENDBRANCH   1  12
TORSDOF 14
ENDMDL
MODEL 4
REMARK VINA RESULT:    -3.585      1.628      2.573
REMARK INTER + INTRA:          -8.854
REMARK INTER:                  -7.143
REMARK INTRA:                  -1.711
REMARK UNBOUND:                -2.335
REMARK SMILES CCCCCCCCCCCCCC[C@H](C)C(=O)[O-]
REMARK SMILES IDX 9 1 10 2 11 3 12 4 13 5 14 6 15 7 16 8 17 9 18 10 19 11 8 12
REMARK SMILES IDX 7 13 6 14 5 15 4 16 3 17 2 18 1 19
REMARK H PARENT
REMARK Flexibility Score: inf
ROOT
ATOM      1  C   UNL     1    -117.515  14.569  24.111  1.00  0.00     0.000 C 
ENDROOT
BRANCH   1   2
ATOM      2  C   UNL     1    -116.537  13.393  23.973  1.00  0.00     0.000 C 
BRANCH   2   3
ATOM      3  C   UNL     1    -117.218  12.021  24.132  1.00  0.00     0.000 C 
BRANCH   3   4
ATOM      4  C   UNL     1    -116.273  10.846  24.465  1.00  0.00     0.000 C 
BRANCH   4   5
ATOM      5  C   UNL     1    -115.004  11.230  25.254  1.00  0.00     0.001 C 
BRANCH   5   6
ATOM      6  C   UNL     1    -113.882  10.168  25.184  1.00  0.00     0.009 C 
BRANCH   6   7
ATOM      7  C   UNL     1    -112.507  10.750  24.785  1.00  0.00     0.032 C 
ATOM      8  C   UNL     1    -112.514  12.284  24.740  1.00  0.00     0.014 C 
BRANCH   7   9
ATOM      9  C   UNL     1    -112.087  10.203  23.447  1.00  0.00     0.044 C 
ATOM     10  O   UNL     1    -110.873  10.194  23.111  1.00  0.00    -0.550 OA
ATOM     11  O   UNL     1    -113.043   9.704  22.571  1.00  0.00    -0.550 OA
ENDBRANCH   7   9
ENDBRANCH   6   7
ENDBRANCH   5   6
ENDBRANCH   4   5
ENDBRANCH   3   4
ENDBRANCH   2   3
ENDBRANCH   1   2
BRANCH   1  12
ATOM     12  C   UNL     1    -118.866  14.238  23.462  1.00  0.00     0.000 C 
BRANCH  12  13
ATOM     13  C   UNL     1    -119.182  15.128  22.246  1.00  0.00    -0.000 C 
BRANCH  13  14
ATOM     14  C   UNL     1    -119.417  14.366  20.928  1.00  0.00    -0.000 C 
BRANCH  14  15
ATOM     15  C   UNL     1    -118.296  14.515  19.882  1.00  0.00    -0.000 C 
BRANCH  15  16
ATOM     16  C   UNL     1    -117.703  13.170  19.412  1.00  0.00    -0.000 C 
BRANCH  16  17
ATOM     17  C   UNL     1    -117.676  12.118  20.534  1.00  0.00    -0.000 C 
BRANCH  17  18
ATOM     18  C   UNL     1    -116.280  11.509  20.740  1.00  0.00    -0.003 C 
ATOM     19  C   UNL     1    -116.068  10.226  19.936  1.00  0.00     0.004 C 
ENDBRANCH  17  18
ENDBRANCH  16  17
ENDBRANCH  15  16
ENDBRANCH  14  15
ENDBRANCH  13  14
ENDBRANCH  12  13
ENDBRANCH   1  12
TORSDOF 14
ENDMDL
MODEL 5
REMARK VINA RESULT:    -3.512      1.205      1.810
REMARK INTER + INTRA:          -8.722
REMARK INTER:                  -7.169
REMARK INTRA:                  -1.554
REMARK UNBOUND:                -2.335
REMARK SMILES CCCCCCCCCCCCCC[C@H](C)C(=O)[O-]
REMARK SMILES IDX 9 1 10 2 11 3 12 4 13 5 14 6 15 7 16 8 17 9 18 10 19 11 8 12
REMARK SMILES IDX 7 13 6 14 5 15 4 16 3 17 2 18 1 19
REMARK H PARENT
REMARK Flexibility Score: inf
ROOT
ATOM      1  C   UNL     1    -116.286  13.374  23.906  1.00  0.00     0.000 C 
ENDROOT
BRANCH   1   2
ATOM      2  C   UNL     1    -116.814  12.015  23.423  1.00  0.00     0.000 C 
BRANCH   2   3
ATOM      3  C   UNL     1    -116.216  11.583  22.071  1.00  0.00     0.000 C 
BRANCH   3   4
ATOM      4  C   UNL     1    -115.288  10.351  22.120  1.00  0.00     0.000 C 
BRANCH   4   5
ATOM      5  C   UNL     1    -115.328   9.552  23.439  1.00  0.00     0.001 C 
BRANCH   5   6
ATOM      6  C   UNL     1    -113.963   9.475  24.162  1.00  0.00     0.009 C 
BRANCH   6   7
ATOM      7  C   UNL     1    -113.002  10.627  23.790  1.00  0.00     0.032 C 
ATOM      8  C   UNL     1    -111.573  10.132  23.529  1.00  0.00     0.014 C 
BRANCH   7   9
ATOM      9  C   UNL     1    -112.993  11.661  24.883  1.00  0.00     0.044 C 
ATOM     10  O   UNL     1    -112.253  12.676  24.798  1.00  0.00    -0.550 OA
ATOM     11  O   UNL     1    -113.804  11.497  25.999  1.00  0.00    -0.550 OA
ENDBRANCH   7   9
ENDBRANCH   6   7
ENDBRANCH   5   6
ENDBRANCH   4   5
ENDBRANCH   3   4
ENDBRANCH   2   3
ENDBRANCH   1   2
BRANCH   1  12
ATOM     12  C   UNL     1    -117.427  14.395  24.022  1.00  0.00     0.000 C 
BRANCH  12  13
ATOM     13  C   UNL     1    -118.648  14.033  23.157  1.00  0.00    -0.000 C 
BRANCH  13  14
ATOM     14  C   UNL     1    -119.180  15.178  22.275  1.00  0.00    -0.000 C 
BRANCH  14  15
ATOM     15  C   UNL     1    -119.144  14.903  20.760  1.00  0.00    -0.000 C 
BRANCH  15  16
ATOM     16  C   UNL     1    -118.480  13.559  20.389  1.00  0.00    -0.000 C 
BRANCH  16  17
ATOM     17  C   UNL     1    -117.868  13.579  18.977  1.00  0.00    -0.000 C 
BRANCH  17  18
ATOM     18  C   UNL     1    -118.183  14.875  18.215  1.00  0.00    -0.003 C 
ATOM     19  C   UNL     1    -117.139  15.205  17.148  1.00  0.00     0.004 C 
ENDBRANCH  17  18
ENDBRANCH  16  17
ENDBRANCH  15  16
ENDBRANCH  14  15
ENDBRANCH  13  14
ENDBRANCH  12  13
ENDBRANCH   1  12
TORSDOF 14
ENDMDL
MODEL 6
REMARK VINA RESULT:    -3.410      1.568      2.795
REMARK INTER + INTRA:          -8.537
REMARK INTER:                  -5.964
REMARK INTRA:                  -2.573
REMARK UNBOUND:                -2.335
REMARK SMILES CCCCCCCCCCCCCC[C@H](C)C(=O)[O-]
REMARK SMILES IDX 9 1 10 2 11 3 12 4 13 5 14 6 15 7 16 8 17 9 18 10 19 11 8 12
REMARK SMILES IDX 7 13 6 14 5 15 4 16 3 17 2 18 1 19
REMARK H PARENT
REMARK Flexibility Score: inf
ROOT
ATOM      1  C   UNL     1    -118.894  14.018  24.524  1.00  0.00     0.000 C 
ENDROOT
BRANCH   1   2
ATOM      2  C   UNL     1    -120.048  13.111  24.072  1.00  0.00     0.000 C 
BRANCH   2   3
ATOM      3  C   UNL     1    -119.831  11.631  24.439  1.00  0.00     0.000 C 
BRANCH   3   4
ATOM      4  C   UNL     1    -118.475  11.032  24.007  1.00  0.00     0.000 C 
BRANCH   4   5
ATOM      5  C   UNL     1    -117.477  10.775  25.155  1.00  0.00     0.001 C 
BRANCH   5   6
ATOM      6  C   UNL     1    -116.078  10.323  24.675  1.00  0.00     0.009 C 
BRANCH   6   7
ATOM      7  C   UNL     1    -114.973  11.375  24.923  1.00  0.00     0.032 C 
ATOM      8  C   UNL     1    -115.312  12.734  24.297  1.00  0.00     0.014 C 
BRANCH   7   9
ATOM      9  C   UNL     1    -113.660  10.877  24.381  1.00  0.00     0.044 C 
ATOM     10  O   UNL     1    -113.612  10.263  23.282  1.00  0.00    -0.550 OA
ATOM     11  O   UNL     1    -112.489  11.089  25.097  1.00  0.00    -0.550 OA
ENDBRANCH   7   9
ENDBRANCH   6   7
ENDBRANCH   5   6
ENDBRANCH   4   5
ENDBRANCH   3   4
ENDBRANCH   2   3
ENDBRANCH   1   2
BRANCH   1  12
ATOM     12  C   UNL     1    -118.275  14.755  23.328  1.00  0.00     0.000 C 
BRANCH  12  13
ATOM     13  C   UNL     1    -119.292  15.045  22.208  1.00  0.00    -0.000 C 
BRANCH  13  14
ATOM     14  C   UNL     1    -118.871  14.558  20.808  1.00  0.00    -0.000 C 
BRANCH  14  15
ATOM     15  C   UNL     1    -119.513  13.232  20.360  1.00  0.00    -0.000 C 
BRANCH  15  16
ATOM     16  C   UNL     1    -118.603  12.002  20.562  1.00  0.00    -0.000 C 
BRANCH  16  17
ATOM     17  C   UNL     1    -117.121  12.389  20.714  1.00  0.00    -0.000 C 
BRANCH  17  18
ATOM     18  C   UNL     1    -116.222  11.179  21.015  1.00  0.00    -0.003 C 
ATOM     19  C   UNL     1    -116.911   9.844  20.733  1.00  0.00     0.004 C 
ENDBRANCH  17  18
ENDBRANCH  16  17
ENDBRANCH  15  16
ENDBRANCH  14  15
ENDBRANCH  13  14
ENDBRANCH  12  13
ENDBRANCH   1  12
TORSDOF 14
ENDMDL
MODEL 7
REMARK VINA RESULT:    -3.409      2.427      6.158
REMARK INTER + INTRA:          -8.535
REMARK INTER:                  -6.425
REMARK INTRA:                  -2.110
REMARK UNBOUND:                -2.335
REMARK SMILES CCCCCCCCCCCCCC[C@H](C)C(=O)[O-]
REMARK SMILES IDX 9 1 10 2 11 3 12 4 13 5 14 6 15 7 16 8 17 9 18 10 19 11 8 12
REMARK SMILES IDX 7 13 6 14 5 15 4 16 3 17 2 18 1 19
REMARK H PARENT
REMARK Flexibility Score: inf
ROOT
ATOM      1  C   UNL     1    -115.349  10.085  21.138  1.00  0.00     0.000 C 
ENDROOT
BRANCH   1   2
ATOM      2  C   UNL     1    -115.966  10.671  19.860  1.00  0.00     0.000 C 
BRANCH   2   3
ATOM      3  C   UNL     1    -117.099  11.674  20.143  1.00  0.00     0.000 C 
BRANCH   3   4
ATOM      4  C   UNL     1    -118.512  11.063  20.263  1.00  0.00     0.000 C 
BRANCH   4   5
ATOM      5  C   UNL     1    -119.168  11.199  21.653  1.00  0.00     0.001 C 
BRANCH   5   6
ATOM      6  C   UNL     1    -119.344  12.663  22.119  1.00  0.00     0.009 C 
BRANCH   6   7
ATOM      7  C   UNL     1    -118.460  13.035  23.332  1.00  0.00     0.032 C 
ATOM      8  C   UNL     1    -118.979  12.422  24.639  1.00  0.00     0.014 C 
BRANCH   7   9
ATOM      9  C   UNL     1    -118.377  14.531  23.467  1.00  0.00     0.044 C 
ATOM     10  O   UNL     1    -119.156  15.278  22.817  1.00  0.00    -0.550 OA
ATOM     11  O   UNL     1    -117.432  15.099  24.311  1.00  0.00    -0.550 OA
ENDBRANCH   7   9
ENDBRANCH   6   7
ENDBRANCH   5   6
ENDBRANCH   4   5
ENDBRANCH   3   4
ENDBRANCH   2   3
ENDBRANCH   1   2
BRANCH   1  12
ATOM     12  C   UNL     1    -115.548  11.033  22.328  1.00  0.00     0.000 C 
BRANCH  12  13
ATOM     13  C   UNL     1    -115.882  10.292  23.637  1.00  0.00    -0.000 C 
BRANCH  13  14
ATOM     14  C   UNL     1    -115.492  11.043  24.924  1.00  0.00    -0.000 C 
BRANCH  14  15
ATOM     15  C   UNL     1    -114.531  12.229  24.720  1.00  0.00    -0.000 C 
BRANCH  15  16
ATOM     16  C   UNL     1    -113.078  11.933  25.150  1.00  0.00    -0.000 C 
BRANCH  16  17
ATOM     17  C   UNL     1    -112.870  10.456  25.530  1.00  0.00    -0.000 C 
BRANCH  17  18
ATOM     18  C   UNL     1    -112.049   9.687  24.484  1.00  0.00    -0.003 C 
ATOM     19  C   UNL     1    -111.509  10.589  23.373  1.00  0.00     0.004 C 
ENDBRANCH  17  18
ENDBRANCH  16  17
ENDBRANCH  15  16
ENDBRANCH  14  15
ENDBRANCH  13  14
ENDBRANCH  12  13
ENDBRANCH   1  12
TORSDOF 14
ENDMDL
MODEL 8
REMARK VINA RESULT:    -3.402      1.404      3.307
REMARK INTER + INTRA:          -8.521
REMARK INTER:                  -6.356
REMARK INTRA:                  -2.165
REMARK UNBOUND:                -2.335
REMARK SMILES CCCCCCCCCCCCCC[C@H](C)C(=O)[O-]
REMARK SMILES IDX 9 1 10 2 11 3 12 4 13 5 14 6 15 7 16 8 17 9 18 10 19 11 8 12
REMARK SMILES IDX 7 13 6 14 5 15 4 16 3 17 2 18 1 19
REMARK H PARENT
REMARK Flexibility Score: inf
ROOT
ATOM      1  C   UNL     1    -118.256  13.944  19.186  1.00  0.00     0.000 C 
ENDROOT
BRANCH   1   2
ATOM      2  C   UNL     1    -117.563  12.604  18.898  1.00  0.00     0.000 C 
BRANCH   2   3
ATOM      3  C   UNL     1    -117.678  11.604  20.063  1.00  0.00     0.000 C 
BRANCH   3   4
ATOM      4  C   UNL     1    -116.338  11.138  20.672  1.00  0.00     0.000 C 
BRANCH   4   5
ATOM      5  C   UNL     1    -116.088  11.586  22.127  1.00  0.00     0.001 C 
BRANCH   5   6
ATOM      6  C   UNL     1    -115.119  10.666  22.905  1.00  0.00     0.009 C 
BRANCH   6   7
ATOM      7  C   UNL     1    -114.677  11.248  24.267  1.00  0.00     0.032 C 
ATOM      8  C   UNL     1    -115.201  12.673  24.490  1.00  0.00     0.014 C 
BRANCH   7   9
ATOM      9  C   UNL     1    -113.176  11.234  24.368  1.00  0.00     0.044 C 
ATOM     10  O   UNL     1    -112.583  11.976  25.195  1.00  0.00    -0.550 OA
ATOM     11  O   UNL     1    -112.433  10.400  23.542  1.00  0.00    -0.550 OA
ENDBRANCH   7   9
ENDBRANCH   6   7
ENDBRANCH   5   6
ENDBRANCH   4   5
ENDBRANCH   3   4
ENDBRANCH   2   3
ENDBRANCH   1   2
BRANCH   1  12
ATOM     12  C   UNL     1    -118.211  14.274  20.685  1.00  0.00     0.000 C 
BRANCH  12  13
ATOM     13  C   UNL     1    -119.303  15.272  21.113  1.00  0.00    -0.000 C 
BRANCH  13  14
ATOM     14  C   UNL     1    -119.936  14.989  22.488  1.00  0.00    -0.000 C 
BRANCH  14  15
ATOM     15  C   UNL     1    -119.828  13.529  22.966  1.00  0.00    -0.000 C 
BRANCH  15  16
ATOM     16  C   UNL     1    -118.935  13.349  24.213  1.00  0.00    -0.000 C 
BRANCH  16  17
ATOM     17  C   UNL     1    -118.780  11.871  24.613  1.00  0.00    -0.000 C 
BRANCH  17  18
ATOM     18  C   UNL     1    -119.412  10.913  23.591  1.00  0.00    -0.003 C 
ATOM     19  C   UNL     1    -118.789   9.517  23.622  1.00  0.00     0.004 C 
ENDBRANCH  17  18
ENDBRANCH  16  17
ENDBRANCH  15  16
ENDBRANCH  14  15
ENDBRANCH  13  14
ENDBRANCH  12  13
ENDBRANCH   1  12
TORSDOF 14
ENDMDL
MODEL 9
REMARK VINA RESULT:    -3.391      2.558      6.599
REMARK INTER + INTRA:          -8.503
REMARK INTER:                  -6.218
REMARK INTRA:                  -2.285
REMARK UNBOUND:                -2.335
REMARK SMILES CCCCCCCCCCCCCC[C@H](C)C(=O)[O-]
REMARK SMILES IDX 9 1 10 2 11 3 12 4 13 5 14 6 15 7 16 8 17 9 18 10 19 11 8 12
REMARK SMILES IDX 7 13 6 14 5 15 4 16 3 17 2 18 1 19
REMARK H PARENT
REMARK Flexibility Score: inf
ROOT
ATOM      1  C   UNL     1    -116.347  13.615  24.094  1.00  0.00     0.000 C 
ENDROOT
BRANCH   1   2
ATOM      2  C   UNL     1    -117.506  14.621  24.163  1.00  0.00     0.000 C 
BRANCH   2   3
ATOM      3  C   UNL     1    -118.863  13.957  24.457  1.00  0.00     0.000 C 
BRANCH   3   4
ATOM      4  C   UNL     1    -120.028  14.396  23.544  1.00  0.00     0.000 C 
BRANCH   4   5
ATOM      5  C   UNL     1    -119.615  15.216  22.304  1.00  0.00     0.001 C 
BRANCH   5   6
ATOM      6  C   UNL     1    -119.791  14.457  20.968  1.00  0.00     0.009 C 
BRANCH   6   7
ATOM      7  C   UNL     1    -118.673  13.426  20.693  1.00  0.00     0.032 C 
ATOM      8  C   UNL     1    -117.886  13.746  19.415  1.00  0.00     0.014 C 
BRANCH   7   9
ATOM      9  C   UNL     1    -119.261  12.044  20.599  1.00  0.00     0.044 C 
ATOM     10  O   UNL     1    -119.415  11.489  19.479  1.00  0.00    -0.550 OA
ATOM     11  O   UNL     1    -119.644  11.373  21.753  1.00  0.00    -0.550 OA
ENDBRANCH   7   9
ENDBRANCH   6   7
ENDBRANCH   5   6
ENDBRANCH   4   5
ENDBRANCH   3   4
ENDBRANCH   2   3
ENDBRANCH   1   2
BRANCH   1  12
ATOM     12  C   UNL     1    -116.840  12.242  23.616  1.00  0.00     0.000 C 
BRANCH  12  13
ATOM     13  C   UNL     1    -115.954  11.637  22.511  1.00  0.00    -0.000 C 
BRANCH  13  14
ATOM     14  C   UNL     1    -116.174  10.134  22.255  1.00  0.00    -0.000 C 
BRANCH  14  15
ATOM     15  C   UNL     1    -115.279   9.195  23.086  1.00  0.00    -0.000 C 
BRANCH  15  16
ATOM     16  C   UNL     1    -113.892   9.789  23.414  1.00  0.00    -0.000 C 
BRANCH  16  17
ATOM     17  C   UNL     1    -113.600   9.796  24.925  1.00  0.00    -0.000 C 
BRANCH  17  18
ATOM     18  C   UNL     1    -113.780  11.186  25.554  1.00  0.00    -0.003 C 
ATOM     19  C   UNL     1    -112.818  12.226  24.981  1.00  0.00     0.004 C 
ENDBRANCH  17  18
ENDBRANCH  16  17
ENDBRANCH  15  16
ENDBRANCH  14  15
ENDBRANCH  13  14
ENDBRANCH  12  13
ENDBRANCH   1  12
TORSDOF 14
ENDMDL
