MODEL 1
REMARK VINA RESULT:    -4.267      0.000      0.000
REMARK INTER + INTRA:          -5.386
REMARK INTER:                  -5.265
REMARK INTRA:                  -0.122
REMARK UNBOUND:                -0.122
REMARK SMILES CCCCCC(=O)[O-]
REMARK SMILES IDX 4 1 5 2 6 3 7 4 8 5 3 6 2 7 1 8
REMARK H PARENT
REMARK Flexibility Score: inf
ROOT
ATOM      1  C   UNL     1      86.366 -68.930  13.299  1.00  0.00     0.006 C 
ENDROOT
BRANCH   1   2
ATOM      2  C   UNL     1      86.461 -70.362  13.834  1.00  0.00     0.053 C 
BRANCH   2   3
ATOM      3  C   UNL     1      87.820 -70.619  14.405  1.00  0.00     0.041 C 
ATOM      4  O   UNL     1      87.943 -71.227  15.501  1.00  0.00    -0.550 OA
ATOM      5  O   UNL     1      88.950 -70.142  13.751  1.00  0.00    -0.550 OA
ENDBRANCH   2   3
ENDBRANCH   1   2
BRANCH   1   6
ATOM      6  C   UNL     1      85.326 -68.120  14.082  1.00  0.00     0.000 C 
BRANCH   6   7
ATOM      7  C   UNL     1      84.638 -68.987  15.143  1.00  0.00    -0.003 C 
ATOM      8  C   UNL     1      83.710 -68.152  16.020  1.00  0.00     0.004 C 
ENDBRANCH   6   7
ENDBRANCH   1   6
TORSDOF 4
ENDMDL
MODEL 2
REMARK VINA RESULT:    -4.208      2.253      3.804
REMARK INTER + INTRA:          -5.314
REMARK INTER:                  -5.142
REMARK INTRA:                  -0.172
REMARK UNBOUND:                -0.122
REMARK SMILES CCCCCC(=O)[O-]
REMARK SMILES IDX 4 1 5 2 6 3 7 4 8 5 3 6 2 7 1 8
REMARK H PARENT
REMARK Flexibility Score: inf
ROOT
ATOM      1  C   UNL     1      86.369 -69.370  13.187  1.00  0.00     0.006 C 
ENDROOT
BRANCH   1   2
ATOM      2  C   UNL     1      85.577 -68.315  13.965  1.00  0.00     0.053 C 
BRANCH   2   3
ATOM      3  C   UNL     1      84.784 -68.956  15.060  1.00  0.00     0.041 C 
ATOM      4  O   UNL     1      84.842 -70.201  15.238  1.00  0.00    -0.550 OA
ATOM      5  O   UNL     1      83.943 -68.185  15.852  1.00  0.00    -0.550 OA
ENDBRANCH   2   3
ENDBRANCH   1   2
BRANCH   1   6
ATOM      6  C   UNL     1      87.854 -69.332  13.566  1.00  0.00     0.000 C 
BRANCH   6   7
ATOM      7  C   UNL     1      88.358 -70.728  13.954  1.00  0.00    -0.003 C 
ATOM      8  C   UNL     1      88.073 -71.029  15.422  1.00  0.00     0.004 C 
ENDBRANCH   6   7
ENDBRANCH   1   6
TORSDOF 4
ENDMDL
MODEL 3
REMARK VINA RESULT:    -3.941      2.416      3.994
REMARK INTER + INTRA:          -4.983
REMARK INTER:                  -4.773
REMARK INTRA:                  -0.211
REMARK UNBOUND:                -0.122
REMARK SMILES CCCCCC(=O)[O-]
REMARK SMILES IDX 4 1 5 2 6 3 7 4 8 5 3 6 2 7 1 8
REMARK H PARENT
REMARK Flexibility Score: inf
ROOT
ATOM      1  C   UNL     1      86.375 -70.691  14.323  1.00  0.00     0.006 C 
ENDROOT
BRANCH   1   2
ATOM      2  C   UNL     1      85.049 -70.149  14.865  1.00  0.00     0.053 C 
BRANCH   2   3
ATOM      3  C   UNL     1      84.982 -68.664  14.698  1.00  0.00     0.041 C 
ATOM      4  O   UNL     1      84.063 -68.005  15.251  1.00  0.00    -0.550 OA
ATOM      5  O   UNL     1      85.905 -68.014  13.888  1.00  0.00    -0.550 OA
ENDBRANCH   2   3
ENDBRANCH   1   2
BRANCH   1   6
ATOM      6  C   UNL     1      87.360 -70.975  15.464  1.00  0.00     0.000 C 
BRANCH   6   7
ATOM      7  C   UNL     1      88.719 -70.318  15.193  1.00  0.00    -0.003 C 
ATOM      8  C   UNL     1      88.934 -70.090  13.700  1.00  0.00     0.004 C 
ENDBRANCH   6   7
ENDBRANCH   1   6
TORSDOF 4
ENDMDL
MODEL 4
REMARK VINA RESULT:    -3.378     12.205     13.484
REMARK INTER + INTRA:          -4.289
REMARK INTER:                  -4.217
REMARK INTRA:                  -0.072
REMARK UNBOUND:                -0.122
REMARK SMILES CCCCCC(=O)[O-]
REMARK SMILES IDX 4 1 5 2 6 3 7 4 8 5 3 6 2 7 1 8
REMARK H PARENT
REMARK Flexibility Score: inf
ROOT
ATOM      1  C   UNL     1      87.864 -76.202   3.136  1.00  0.00     0.006 C 
ENDROOT
BRANCH   1   2
ATOM      2  C   UNL     1      87.901 -74.996   4.080  1.00  0.00     0.053 C 
BRANCH   2   3
ATOM      3  C   UNL     1      87.093 -73.868   3.522  1.00  0.00     0.041 C 
ATOM      4  O   UNL     1      85.841 -73.968   3.434  1.00  0.00    -0.550 OA
ATOM      5  O   UNL     1      87.727 -72.725   3.052  1.00  0.00    -0.550 OA
ENDBRANCH   2   3
ENDBRANCH   1   2
BRANCH   1   6
ATOM      6  C   UNL     1      87.940 -77.517   3.920  1.00  0.00     0.000 C 
BRANCH   6   7
ATOM      7  C   UNL     1      87.997 -78.720   2.971  1.00  0.00    -0.003 C 
ATOM      8  C   UNL     1      86.703 -78.857   2.176  1.00  0.00     0.004 C 
ENDBRANCH   6   7
ENDBRANCH   1   6
TORSDOF 4
ENDMDL
MODEL 5
REMARK VINA RESULT:    -3.319     12.678     13.630
REMARK INTER + INTRA:          -4.217
REMARK INTER:                  -4.027
REMARK INTRA:                  -0.190
REMARK UNBOUND:                -0.122
REMARK SMILES CCCCCC(=O)[O-]
REMARK SMILES IDX 4 1 5 2 6 3 7 4 8 5 3 6 2 7 1 8
REMARK H PARENT
REMARK Flexibility Score: inf
ROOT
ATOM      1  C   UNL     1      88.023 -75.700   1.946  1.00  0.00     0.006 C 
ENDROOT
BRANCH   1   2
ATOM      2  C   UNL     1      88.616 -77.109   2.032  1.00  0.00     0.053 C 
BRANCH   2   3
ATOM      3  C   UNL     1      87.947 -77.893   3.117  1.00  0.00     0.041 C 
ATOM      4  O   UNL     1      87.793 -77.389   4.260  1.00  0.00    -0.550 OA
ATOM      5  O   UNL     1      87.539 -79.200   2.879  1.00  0.00    -0.550 OA
ENDBRANCH   2   3
ENDBRANCH   1   2
BRANCH   1   6
ATOM      6  C   UNL     1      89.051 -74.644   2.368  1.00  0.00     0.000 C 
BRANCH   6   7
ATOM      7  C   UNL     1      88.402 -73.564   3.243  1.00  0.00    -0.003 C 
ATOM      8  C   UNL     1      86.897 -73.781   3.363  1.00  0.00     0.004 C 
ENDBRANCH   6   7
ENDBRANCH   1   6
TORSDOF 4
ENDMDL
MODEL 6
REMARK VINA RESULT:    -3.071      1.175      2.050
REMARK INTER + INTRA:          -3.910
REMARK INTER:                  -3.868
REMARK INTRA:                  -0.043
REMARK UNBOUND:                -0.122
REMARK SMILES CCCCCC(=O)[O-]
REMARK SMILES IDX 4 1 5 2 6 3 7 4 8 5 3 6 2 7 1 8
REMARK H PARENT
REMARK Flexibility Score: inf
ROOT
ATOM      1  C   UNL     1      85.662 -70.640  14.572  1.00  0.00     0.006 C 
ENDROOT
BRANCH   1   2
ATOM      2  C   UNL     1      86.868 -71.102  15.394  1.00  0.00     0.053 C 
BRANCH   2   3
ATOM      3  C   UNL     1      88.139 -70.858  14.643  1.00  0.00     0.041 C 
ATOM      4  O   UNL     1      88.341 -71.425  13.537  1.00  0.00    -0.550 OA
ATOM      5  O   UNL     1      89.123 -70.042  15.188  1.00  0.00    -0.550 OA
ENDBRANCH   2   3
ENDBRANCH   1   2
BRANCH   1   6
ATOM      6  C   UNL     1      85.021 -69.392  15.190  1.00  0.00     0.000 C 
BRANCH   6   7
ATOM      7  C   UNL     1      85.171 -68.180  14.263  1.00  0.00    -0.003 C 
ATOM      8  C   UNL     1      86.156 -68.468  13.134  1.00  0.00     0.004 C 
ENDBRANCH   6   7
ENDBRANCH   1   6
TORSDOF 4
ENDMDL
MODEL 7
REMARK VINA RESULT:    -3.036     19.303     19.826
REMARK INTER + INTRA:          -3.867
REMARK INTER:                  -3.819
REMARK INTRA:                  -0.048
REMARK UNBOUND:                -0.122
REMARK SMILES CCCCCC(=O)[O-]
REMARK SMILES IDX 4 1 5 2 6 3 7 4 8 5 3 6 2 7 1 8
REMARK H PARENT
REMARK Flexibility Score: inf
ROOT
ATOM      1  C   UNL     1      77.102 -74.123  -2.112  1.00  0.00     0.006 C 
ENDROOT
BRANCH   1   2
ATOM      2  C   UNL     1      78.313 -75.047  -1.954  1.00  0.00     0.053 C 
BRANCH   2   3
ATOM      3  C   UNL     1      77.975 -76.208  -1.074  1.00  0.00     0.041 C 
ATOM      4  O   UNL     1      77.143 -76.074  -0.139  1.00  0.00    -0.550 OA
ATOM      5  O   UNL     1      78.617 -77.427  -1.256  1.00  0.00    -0.550 OA
ENDBRANCH   2   3
ENDBRANCH   1   2
BRANCH   1   6
ATOM      6  C   UNL     1      77.256 -73.220  -3.341  1.00  0.00     0.000 C 
BRANCH   6   7
ATOM      7  C   UNL     1      75.888 -72.849  -3.926  1.00  0.00    -0.003 C 
ATOM      8  C   UNL     1      75.635 -71.348  -3.830  1.00  0.00     0.004 C 
ENDBRANCH   6   7
ENDBRANCH   1   6
TORSDOF 4
ENDMDL
MODEL 8
REMARK VINA RESULT:    -2.930     19.681     20.177
REMARK INTER + INTRA:          -3.737
REMARK INTER:                  -3.558
REMARK INTRA:                  -0.179
REMARK UNBOUND:                -0.122
REMARK SMILES CCCCCC(=O)[O-]
REMARK SMILES IDX 4 1 5 2 6 3 7 4 8 5 3 6 2 7 1 8
REMARK H PARENT
REMARK Flexibility Score: inf
ROOT
ATOM      1  C   UNL     1      77.277 -72.895  -3.428  1.00  0.00     0.006 C 
ENDROOT
BRANCH   1   2
ATOM      2  C   UNL     1      77.554 -74.401  -3.390  1.00  0.00     0.053 C 
BRANCH   2   3
ATOM      3  C   UNL     1      77.604 -74.888  -1.976  1.00  0.00     0.041 C 
ATOM      4  O   UNL     1      76.638 -74.675  -1.197  1.00  0.00    -0.550 OA
ATOM      5  O   UNL     1      78.740 -75.535  -1.504  1.00  0.00    -0.550 OA
ENDBRANCH   2   3
ENDBRANCH   1   2
BRANCH   1   6
ATOM      6  C   UNL     1      75.943 -72.599  -4.125  1.00  0.00     0.000 C 
BRANCH   6   7
ATOM      7  C   UNL     1      75.183 -71.479  -3.404  1.00  0.00    -0.003 C 
ATOM      8  C   UNL     1      74.450 -72.011  -2.176  1.00  0.00     0.004 C 
ENDBRANCH   6   7
ENDBRANCH   1   6
TORSDOF 4
ENDMDL
