MODEL 1
REMARK VINA RESULT:    -4.185      0.000      0.000
REMARK INTER + INTRA:         -10.052
REMARK INTER:                  -7.611
REMARK INTRA:                  -2.441
REMARK UNBOUND:                -2.441
REMARK SMILES CCCCCCCCCCCCCC[C@@H](C)C(=O)[O-]
REMARK SMILES IDX 9 1 10 2 11 3 12 4 13 5 14 6 15 7 16 8 17 9 18 10 19 11 8 12
REMARK SMILES IDX 7 13 6 14 5 15 4 16 3 17 2 18 1 19
REMARK H PARENT
REMARK Flexibility Score: inf
ROOT
ATOM      1  C   UNL     1      22.665  -7.821  47.642  1.00  0.00     0.000 C 
ENDROOT
BRANCH   1   2
ATOM      2  C   UNL     1      22.896  -8.524  46.293  1.00  0.00     0.000 C 
BRANCH   2   3
ATOM      3  C   UNL     1      21.612  -9.145  45.717  1.00  0.00     0.000 C 
BRANCH   3   4
ATOM      4  C   UNL     1      21.607  -9.155  44.177  1.00  0.00     0.000 C 
BRANCH   4   5
ATOM      5  C   UNL     1      20.441  -8.355  43.564  1.00  0.00     0.001 C 
BRANCH   5   6
ATOM      6  C   UNL     1      19.705  -7.467  44.596  1.00  0.00     0.009 C 
BRANCH   6   7
ATOM      7  C   UNL     1      19.853  -5.954  44.320  1.00  0.00     0.032 C 
ATOM      8  C   UNL     1      21.299  -5.561  43.989  1.00  0.00     0.014 C 
BRANCH   7   9
ATOM      9  C   UNL     1      18.946  -5.552  43.189  1.00  0.00     0.044 C 
ATOM     10  O   UNL     1      19.412  -4.941  42.190  1.00  0.00    -0.550 OA
ATOM     11  O   UNL     1      17.588  -5.842  43.242  1.00  0.00    -0.550 OA
ENDBRANCH   7   9
ENDBRANCH   6   7
ENDBRANCH   5   6
ENDBRANCH   4   5
ENDBRANCH   3   4
ENDBRANCH   2   3
ENDBRANCH   1   2
BRANCH   1  12
ATOM     12  C   UNL     1      22.000  -6.435  47.510  1.00  0.00     0.000 C 
BRANCH  12  13
ATOM     13  C   UNL     1      20.560  -6.430  48.046  1.00  0.00    -0.000 C 
BRANCH  13  14
ATOM     14  C   UNL     1      20.353  -7.549  49.073  1.00  0.00    -0.000 C 
BRANCH  14  15
ATOM     15  C   UNL     1      20.570  -7.035  50.501  1.00  0.00    -0.000 C 
BRANCH  15  16
ATOM     16  C   UNL     1      21.665  -7.837  51.214  1.00  0.00    -0.000 C 
BRANCH  16  17
ATOM     17  C   UNL     1      22.963  -7.024  51.325  1.00  0.00    -0.000 C 
BRANCH  17  18
ATOM     18  C   UNL     1      22.714  -5.507  51.286  1.00  0.00    -0.003 C 
ATOM     19  C   UNL     1      23.691  -4.770  50.369  1.00  0.00     0.004 C 
ENDBRANCH  17  18
ENDBRANCH  16  17
ENDBRANCH  15  16
ENDBRANCH  14  15
ENDBRANCH  13  14
ENDBRANCH  12  13
ENDBRANCH   1  12
TORSDOF 14
ENDMDL
MODEL 2
REMARK VINA RESULT:    -4.150      3.277      6.889
REMARK INTER + INTRA:          -9.989
REMARK INTER:                  -7.981
REMARK INTRA:                  -2.007
REMARK UNBOUND:                -2.441
REMARK SMILES CCCCCCCCCCCCCC[C@@H](C)C(=O)[O-]
REMARK SMILES IDX 9 1 10 2 11 3 12 4 13 5 14 6 15 7 16 8 17 9 18 10 19 11 8 12
REMARK SMILES IDX 7 13 6 14 5 15 4 16 3 17 2 18 1 19
REMARK H PARENT
REMARK Flexibility Score: inf
ROOT
ATOM      1  C   UNL     1      21.103  -4.571  46.831  1.00  0.00     0.000 C 
ENDROOT
BRANCH   1   2
ATOM      2  C   UNL     1      21.512  -6.020  46.518  1.00  0.00     0.000 C 
BRANCH   2   3
ATOM      3  C   UNL     1      20.493  -7.052  47.030  1.00  0.00     0.000 C 
BRANCH   3   4
ATOM      4  C   UNL     1      19.845  -6.625  48.360  1.00  0.00     0.000 C 
BRANCH   4   5
ATOM      5  C   UNL     1      20.205  -7.549  49.540  1.00  0.00     0.001 C 
BRANCH   5   6
ATOM      6  C   UNL     1      21.022  -6.836  50.643  1.00  0.00     0.009 C 
BRANCH   6   7
ATOM      7  C   UNL     1      22.441  -6.428  50.191  1.00  0.00     0.032 C 
ATOM      8  C   UNL     1      23.171  -5.589  51.248  1.00  0.00     0.014 C 
BRANCH   7   9
ATOM      9  C   UNL     1      23.247  -7.659  49.875  1.00  0.00     0.044 C 
ATOM     10  O   UNL     1      23.645  -7.871  48.698  1.00  0.00    -0.550 OA
ATOM     11  O   UNL     1      23.550  -8.575  50.875  1.00  0.00    -0.550 OA
ENDBRANCH   7   9
ENDBRANCH   6   7
ENDBRANCH   5   6
ENDBRANCH   4   5
ENDBRANCH   3   4
ENDBRANCH   2   3
ENDBRANCH   1   2
BRANCH   1  12
ATOM     12  C   UNL     1      21.120  -3.644  45.598  1.00  0.00     0.000 C 
BRANCH  12  13
ATOM     13  C   UNL     1      19.863  -3.810  44.729  1.00  0.00    -0.000 C 
BRANCH  13  14
ATOM     14  C   UNL     1      20.212  -3.731  43.238  1.00  0.00    -0.000 C 
BRANCH  14  15
ATOM     15  C   UNL     1      19.604  -4.908  42.466  1.00  0.00    -0.000 C 
BRANCH  15  16
ATOM     16  C   UNL     1      19.528  -6.162  43.346  1.00  0.00    -0.000 C 
BRANCH  16  17
ATOM     17  C   UNL     1      20.747  -7.068  43.121  1.00  0.00    -0.000 C 
BRANCH  17  18
ATOM     18  C   UNL     1      20.486  -8.524  43.538  1.00  0.00    -0.003 C 
ATOM     19  C   UNL     1      21.767  -9.353  43.632  1.00  0.00     0.004 C 
ENDBRANCH  17  18
ENDBRANCH  16  17
ENDBRANCH  15  16
ENDBRANCH  14  15
ENDBRANCH  13  14
ENDBRANCH  12  13
ENDBRANCH   1  12
TORSDOF 14
ENDMDL
MODEL 3
REMARK VINA RESULT:    -4.076      3.293      5.617
REMARK INTER + INTRA:          -9.853
REMARK INTER:                  -7.579
REMARK INTRA:                  -2.274
REMARK UNBOUND:                -2.441
REMARK SMILES CCCCCCCCCCCCCC[C@@H](C)C(=O)[O-]
REMARK SMILES IDX 9 1 10 2 11 3 12 4 13 5 14 6 15 7 16 8 17 9 18 10 19 11 8 12
REMARK SMILES IDX 7 13 6 14 5 15 4 16 3 17 2 18 1 19
REMARK H PARENT
REMARK Flexibility Score: inf
ROOT
ATOM      1  C   UNL     1      18.497  -6.619  43.959  1.00  0.00     0.000 C 
ENDROOT
BRANCH   1   2
ATOM      2  C   UNL     1      18.724  -5.509  42.919  1.00  0.00     0.000 C 
BRANCH   2   3
ATOM      3  C   UNL     1      18.647  -4.098  43.525  1.00  0.00     0.000 C 
BRANCH   3   4
ATOM      4  C   UNL     1      19.806  -3.816  44.500  1.00  0.00     0.000 C 
BRANCH   4   5
ATOM      5  C   UNL     1      21.079  -3.299  43.803  1.00  0.00     0.001 C 
BRANCH   5   6
ATOM      6  C   UNL     1      22.281  -3.150  44.765  1.00  0.00     0.009 C 
BRANCH   6   7
ATOM      7  C   UNL     1      23.273  -2.044  44.343  1.00  0.00     0.032 C 
ATOM      8  C   UNL     1      22.580  -0.692  44.125  1.00  0.00     0.014 C 
BRANCH   7   9
ATOM      9  C   UNL     1      24.349  -1.901  45.384  1.00  0.00     0.044 C 
ATOM     10  O   UNL     1      25.079  -2.885  45.680  1.00  0.00    -0.550 OA
ATOM     11  O   UNL     1      24.541  -0.687  46.034  1.00  0.00    -0.550 OA
ENDBRANCH   7   9
ENDBRANCH   6   7
ENDBRANCH   5   6
ENDBRANCH   4   5
ENDBRANCH   3   4
ENDBRANCH   2   3
ENDBRANCH   1   2
BRANCH   1  12
ATOM     12  C   UNL     1      19.648  -7.644  44.029  1.00  0.00     0.000 C 
BRANCH  12  13
ATOM     13  C   UNL     1      20.904  -7.158  43.288  1.00  0.00    -0.000 C 
BRANCH  13  14
ATOM     14  C   UNL     1      22.049  -6.886  44.271  1.00  0.00    -0.000 C 
BRANCH  14  15
ATOM     15  C   UNL     1      21.655  -7.281  45.700  1.00  0.00    -0.000 C 
BRANCH  15  16
ATOM     16  C   UNL     1      22.067  -6.196  46.703  1.00  0.00    -0.000 C 
BRANCH  16  17
ATOM     17  C   UNL     1      20.851  -5.674  47.482  1.00  0.00    -0.000 C 
BRANCH  17  18
ATOM     18  C   UNL     1      19.947  -6.807  47.995  1.00  0.00    -0.003 C 
ATOM     19  C   UNL     1      20.239  -7.185  49.448  1.00  0.00     0.004 C 
ENDBRANCH  17  18
ENDBRANCH  16  17
ENDBRANCH  15  16
ENDBRANCH  14  15
ENDBRANCH  13  14
ENDBRANCH  12  13
ENDBRANCH   1  12
TORSDOF 14
ENDMDL
MODEL 4
REMARK VINA RESULT:    -4.074      3.045      6.673
REMARK INTER + INTRA:          -9.850
REMARK INTER:                  -8.118
REMARK INTRA:                  -1.732
REMARK UNBOUND:                -2.441
REMARK SMILES CCCCCCCCCCCCCC[C@@H](C)C(=O)[O-]
REMARK SMILES IDX 9 1 10 2 11 3 12 4 13 5 14 6 15 7 16 8 17 9 18 10 19 11 8 12
REMARK SMILES IDX 7 13 6 14 5 15 4 16 3 17 2 18 1 19
REMARK H PARENT
REMARK Flexibility Score: inf
ROOT
ATOM      1  C   UNL     1      20.358  -7.141  49.750  1.00  0.00     0.000 C 
ENDROOT
BRANCH   1   2
ATOM      2  C   UNL     1      21.505  -7.029  50.768  1.00  0.00     0.000 C 
BRANCH   2   3
ATOM      3  C   UNL     1      22.647  -6.119  50.284  1.00  0.00     0.000 C 
BRANCH   3   4
ATOM      4  C   UNL     1      23.087  -5.109  51.359  1.00  0.00     0.000 C 
BRANCH   4   5
ATOM      5  C   UNL     1      23.112  -3.653  50.856  1.00  0.00     0.001 C 
BRANCH   5   6
ATOM      6  C   UNL     1      23.148  -3.543  49.313  1.00  0.00     0.009 C 
BRANCH   6   7
ATOM      7  C   UNL     1      22.360  -2.332  48.765  1.00  0.00     0.032 C 
ATOM      8  C   UNL     1      22.220  -1.211  49.802  1.00  0.00     0.014 C 
BRANCH   7   9
ATOM      9  C   UNL     1      23.037  -1.801  47.531  1.00  0.00     0.044 C 
ATOM     10  O   UNL     1      22.353  -1.464  46.528  1.00  0.00    -0.550 OA
ATOM     11  O   UNL     1      24.422  -1.689  47.484  1.00  0.00    -0.550 OA
ENDBRANCH   7   9
ENDBRANCH   6   7
ENDBRANCH   5   6
ENDBRANCH   4   5
ENDBRANCH   3   4
ENDBRANCH   2   3
ENDBRANCH   1   2
BRANCH   1  12
ATOM     12  C   UNL     1      20.828  -7.083  48.281  1.00  0.00     0.000 C 
BRANCH  12  13
ATOM     13  C   UNL     1      19.883  -6.248  47.402  1.00  0.00    -0.000 C 
BRANCH  13  14
ATOM     14  C   UNL     1      20.535  -4.916  47.009  1.00  0.00    -0.000 C 
BRANCH  14  15
ATOM     15  C   UNL     1      21.723  -5.140  46.067  1.00  0.00    -0.000 C 
BRANCH  15  16
ATOM     16  C   UNL     1      21.330  -4.861  44.611  1.00  0.00    -0.000 C 
BRANCH  16  17
ATOM     17  C   UNL     1      20.316  -3.711  44.524  1.00  0.00    -0.000 C 
BRANCH  17  18
ATOM     18  C   UNL     1      19.021  -4.119  43.802  1.00  0.00    -0.003 C 
ATOM     19  C   UNL     1      19.101  -3.925  42.288  1.00  0.00     0.004 C 
ENDBRANCH  17  18
ENDBRANCH  16  17
ENDBRANCH  15  16
ENDBRANCH  14  15
ENDBRANCH  13  14
ENDBRANCH  12  13
ENDBRANCH   1  12
TORSDOF 14
ENDMDL
MODEL 5
REMARK VINA RESULT:    -4.069      1.702      3.293
REMARK INTER + INTRA:          -9.840
REMARK INTER:                  -7.505
REMARK INTRA:                  -2.336
REMARK UNBOUND:                -2.441
REMARK SMILES CCCCCCCCCCCCCC[C@@H](C)C(=O)[O-]
REMARK SMILES IDX 9 1 10 2 11 3 12 4 13 5 14 6 15 7 16 8 17 9 18 10 19 11 8 12
REMARK SMILES IDX 7 13 6 14 5 15 4 16 3 17 2 18 1 19
REMARK H PARENT
REMARK Flexibility Score: inf
ROOT
ATOM      1  C   UNL     1      20.399  -7.493  50.109  1.00  0.00     0.000 C 
ENDROOT
BRANCH   1   2
ATOM      2  C   UNL     1      20.651  -7.461  48.592  1.00  0.00     0.000 C 
BRANCH   2   3
ATOM      3  C   UNL     1      19.842  -6.367  47.875  1.00  0.00     0.000 C 
BRANCH   3   4
ATOM      4  C   UNL     1      19.441  -6.777  46.446  1.00  0.00     0.000 C 
BRANCH   4   5
ATOM      5  C   UNL     1      20.647  -7.060  45.530  1.00  0.00     0.001 C 
BRANCH   5   6
ATOM      6  C   UNL     1      20.718  -6.113  44.309  1.00  0.00     0.009 C 
BRANCH   6   7
ATOM      7  C   UNL     1      19.886  -4.823  44.482  1.00  0.00     0.032 C 
ATOM      8  C   UNL     1      20.723  -3.557  44.262  1.00  0.00     0.014 C 
BRANCH   7   9
ATOM      9  C   UNL     1      18.724  -4.836  43.527  1.00  0.00     0.044 C 
ATOM     10  O   UNL     1      18.347  -3.768  42.973  1.00  0.00    -0.550 OA
ATOM     11  O   UNL     1      18.051  -6.022  43.255  1.00  0.00    -0.550 OA
ENDBRANCH   7   9
ENDBRANCH   6   7
ENDBRANCH   5   6
ENDBRANCH   4   5
ENDBRANCH   3   4
ENDBRANCH   2   3
ENDBRANCH   1   2
BRANCH   1  12
ATOM     12  C   UNL     1      21.691  -7.441  50.951  1.00  0.00     0.000 C 
BRANCH  12  13
ATOM     13  C   UNL     1      22.220  -6.007  51.114  1.00  0.00    -0.000 C 
BRANCH  13  14
ATOM     14  C   UNL     1      23.686  -5.911  50.676  1.00  0.00    -0.000 C 
BRANCH  14  15
ATOM     15  C   UNL     1      23.852  -4.921  49.517  1.00  0.00    -0.000 C 
BRANCH  15  16
ATOM     16  C   UNL     1      23.816  -5.645  48.166  1.00  0.00    -0.000 C 
BRANCH  16  17
ATOM     17  C   UNL     1      23.141  -4.778  47.093  1.00  0.00    -0.000 C 
BRANCH  17  18
ATOM     18  C   UNL     1      22.344  -3.609  47.694  1.00  0.00    -0.003 C 
ATOM     19  C   UNL     1      22.762  -2.253  47.124  1.00  0.00     0.004 C 
ENDBRANCH  17  18
ENDBRANCH  16  17
ENDBRANCH  15  16
ENDBRANCH  14  15
ENDBRANCH  13  14
ENDBRANCH  12  13
ENDBRANCH   1  12
TORSDOF 14
ENDMDL
MODEL 6
REMARK VINA RESULT:    -4.034      1.690      4.154
REMARK INTER + INTRA:          -9.777
REMARK INTER:                  -7.670
REMARK INTRA:                  -2.107
REMARK UNBOUND:                -2.441
REMARK SMILES CCCCCCCCCCCCCC[C@@H](C)C(=O)[O-]
REMARK SMILES IDX 9 1 10 2 11 3 12 4 13 5 14 6 15 7 16 8 17 9 18 10 19 11 8 12
REMARK SMILES IDX 7 13 6 14 5 15 4 16 3 17 2 18 1 19
REMARK H PARENT
REMARK Flexibility Score: inf
ROOT
ATOM      1  C   UNL     1      21.762  -7.795  51.064  1.00  0.00     0.000 C 
ENDROOT
BRANCH   1   2
ATOM      2  C   UNL     1      20.547  -7.139  50.387  1.00  0.00     0.000 C 
BRANCH   2   3
ATOM      3  C   UNL     1      20.424  -7.504  48.898  1.00  0.00     0.000 C 
BRANCH   3   4
ATOM      4  C   UNL     1      19.866  -6.342  48.055  1.00  0.00     0.000 C 
BRANCH   4   5
ATOM      5  C   UNL     1      19.254  -6.798  46.716  1.00  0.00     0.001 C 
BRANCH   5   6
ATOM      6  C   UNL     1      20.308  -7.321  45.712  1.00  0.00     0.009 C 
BRANCH   6   7
ATOM      7  C   UNL     1      19.766  -7.469  44.273  1.00  0.00     0.032 C 
ATOM      8  C   UNL     1      18.357  -6.883  44.119  1.00  0.00     0.014 C 
BRANCH   7   9
ATOM      9  C   UNL     1      20.703  -6.800  43.305  1.00  0.00     0.044 C 
ATOM     10  O   UNL     1      20.288  -5.874  42.558  1.00  0.00    -0.550 OA
ATOM     11  O   UNL     1      22.030  -7.205  43.219  1.00  0.00    -0.550 OA
ENDBRANCH   7   9
ENDBRANCH   6   7
ENDBRANCH   5   6
ENDBRANCH   4   5
ENDBRANCH   3   4
ENDBRANCH   2   3
ENDBRANCH   1   2
BRANCH   1  12
ATOM     12  C   UNL     1      23.019  -6.901  51.076  1.00  0.00     0.000 C 
BRANCH  12  13
ATOM     13  C   UNL     1      22.671  -5.408  50.977  1.00  0.00    -0.000 C 
BRANCH  13  14
ATOM     14  C   UNL     1      23.568  -4.702  49.954  1.00  0.00    -0.000 C 
BRANCH  14  15
ATOM     15  C   UNL     1      23.343  -5.262  48.544  1.00  0.00    -0.000 C 
BRANCH  15  16
ATOM     16  C   UNL     1      22.879  -4.161  47.582  1.00  0.00    -0.000 C 
BRANCH  16  17
ATOM     17  C   UNL     1      23.398  -4.415  46.160  1.00  0.00    -0.000 C 
BRANCH  17  18
ATOM     18  C   UNL     1      22.339  -4.126  45.084  1.00  0.00    -0.003 C 
ATOM     19  C   UNL     1      21.008  -3.661  45.674  1.00  0.00     0.004 C 
ENDBRANCH  17  18
ENDBRANCH  16  17
ENDBRANCH  15  16
ENDBRANCH  14  15
ENDBRANCH  13  14
ENDBRANCH  12  13
ENDBRANCH   1  12
TORSDOF 14
ENDMDL
MODEL 7
REMARK VINA RESULT:    -4.030      3.605      6.585
REMARK INTER + INTRA:          -9.770
REMARK INTER:                  -7.316
REMARK INTRA:                  -2.454
REMARK UNBOUND:                -2.441
REMARK SMILES CCCCCCCCCCCCCC[C@@H](C)C(=O)[O-]
REMARK SMILES IDX 9 1 10 2 11 3 12 4 13 5 14 6 15 7 16 8 17 9 18 10 19 11 8 12
REMARK SMILES IDX 7 13 6 14 5 15 4 16 3 17 2 18 1 19
REMARK H PARENT
REMARK Flexibility Score: inf
ROOT
ATOM      1  C   UNL     1      19.567  -7.495  44.779  1.00  0.00     0.000 C 
ENDROOT
BRANCH   1   2
ATOM      2  C   UNL     1      18.919  -6.917  46.048  1.00  0.00     0.000 C 
BRANCH   2   3
ATOM      3  C   UNL     1      19.925  -6.717  47.195  1.00  0.00     0.000 C 
BRANCH   3   4
ATOM      4  C   UNL     1      21.093  -7.719  47.130  1.00  0.00     0.000 C 
BRANCH   4   5
ATOM      5  C   UNL     1      22.308  -7.295  47.977  1.00  0.00     0.001 C 
BRANCH   5   6
ATOM      6  C   UNL     1      22.034  -6.053  48.857  1.00  0.00     0.009 C 
BRANCH   6   7
ATOM      7  C   UNL     1      22.042  -6.358  50.371  1.00  0.00     0.032 C 
ATOM      8  C   UNL     1      20.942  -7.350  50.771  1.00  0.00     0.014 C 
BRANCH   7   9
ATOM      9  C   UNL     1      23.386  -6.901  50.773  1.00  0.00     0.044 C 
ATOM     10  O   UNL     1      24.439  -6.287  50.454  1.00  0.00    -0.550 OA
ATOM     11  O   UNL     1      23.477  -8.089  51.490  1.00  0.00    -0.550 OA
ENDBRANCH   7   9
ENDBRANCH   6   7
ENDBRANCH   5   6
ENDBRANCH   4   5
ENDBRANCH   3   4
ENDBRANCH   2   3
ENDBRANCH   1   2
BRANCH   1  12
ATOM     12  C   UNL     1      19.060  -6.844  43.475  1.00  0.00     0.000 C 
BRANCH  12  13
ATOM     13  C   UNL     1      20.112  -5.922  42.840  1.00  0.00    -0.000 C 
BRANCH  13  14
ATOM     14  C   UNL     1      19.577  -4.491  42.706  1.00  0.00    -0.000 C 
BRANCH  14  15
ATOM     15  C   UNL     1      20.459  -3.499  43.474  1.00  0.00    -0.000 C 
BRANCH  15  16
ATOM     16  C   UNL     1      20.228  -3.613  44.986  1.00  0.00    -0.000 C 
BRANCH  16  17
ATOM     17  C   UNL     1      21.555  -3.801  45.734  1.00  0.00    -0.000 C 
BRANCH  17  18
ATOM     18  C   UNL     1      22.729  -4.100  44.788  1.00  0.00    -0.003 C 
ATOM     19  C   UNL     1      23.187  -5.557  44.854  1.00  0.00     0.004 C 
ENDBRANCH  17  18
ENDBRANCH  16  17
ENDBRANCH  15  16
ENDBRANCH  14  15
ENDBRANCH  13  14
ENDBRANCH  12  13
ENDBRANCH   1  12
TORSDOF 14
ENDMDL
MODEL 8
REMARK VINA RESULT:    -4.002      2.659      5.294
REMARK INTER + INTRA:          -9.719
REMARK INTER:                  -7.280
REMARK INTRA:                  -2.439
REMARK UNBOUND:                -2.441
REMARK SMILES CCCCCCCCCCCCCC[C@@H](C)C(=O)[O-]
REMARK SMILES IDX 9 1 10 2 11 3 12 4 13 5 14 6 15 7 16 8 17 9 18 10 19 11 8 12
REMARK SMILES IDX 7 13 6 14 5 15 4 16 3 17 2 18 1 19
REMARK H PARENT
REMARK Flexibility Score: inf
ROOT
ATOM      1  C   UNL     1      22.509  -7.131  50.176  1.00  0.00     0.000 C 
ENDROOT
BRANCH   1   2
ATOM      2  C   UNL     1      23.224  -5.926  50.811  1.00  0.00     0.000 C 
BRANCH   2   3
ATOM      3  C   UNL     1      23.177  -4.669  49.926  1.00  0.00     0.000 C 
BRANCH   3   4
ATOM      4  C   UNL     1      23.373  -4.996  48.434  1.00  0.00     0.000 C 
BRANCH   4   5
ATOM      5  C   UNL     1      22.633  -4.026  47.494  1.00  0.00     0.001 C 
BRANCH   5   6
ATOM      6  C   UNL     1      22.827  -4.363  45.996  1.00  0.00     0.009 C 
BRANCH   6   7
ATOM      7  C   UNL     1      22.122  -3.370  45.046  1.00  0.00     0.032 C 
ATOM      8  C   UNL     1      20.593  -3.463  45.136  1.00  0.00     0.014 C 
BRANCH   7   9
ATOM      9  C   UNL     1      22.564  -1.966  45.358  1.00  0.00     0.044 C 
ATOM     10  O   UNL     1      21.730  -1.115  45.768  1.00  0.00    -0.550 OA
ATOM     11  O   UNL     1      23.893  -1.594  45.186  1.00  0.00    -0.550 OA
ENDBRANCH   7   9
ENDBRANCH   6   7
ENDBRANCH   5   6
ENDBRANCH   4   5
ENDBRANCH   3   4
ENDBRANCH   2   3
ENDBRANCH   1   2
BRANCH   1  12
ATOM     12  C   UNL     1      21.083  -7.359  50.720  1.00  0.00     0.000 C 
BRANCH  12  13
ATOM     13  C   UNL     1      20.010  -7.157  49.638  1.00  0.00    -0.000 C 
BRANCH  13  14
ATOM     14  C   UNL     1      20.623  -7.246  48.235  1.00  0.00    -0.000 C 
BRANCH  14  15
ATOM     15  C   UNL     1      19.820  -6.412  47.229  1.00  0.00    -0.000 C 
BRANCH  15  16
ATOM     16  C   UNL     1      19.798  -7.085  45.851  1.00  0.00    -0.000 C 
BRANCH  16  17
ATOM     17  C   UNL     1      21.134  -7.780  45.555  1.00  0.00    -0.000 C 
BRANCH  17  18
ATOM     18  C   UNL     1      21.727  -7.367  44.198  1.00  0.00    -0.003 C 
ATOM     19  C   UNL     1      20.698  -6.711  43.277  1.00  0.00     0.004 C 
ENDBRANCH  17  18
ENDBRANCH  16  17
ENDBRANCH  15  16
ENDBRANCH  14  15
ENDBRANCH  13  14
ENDBRANCH  12  13
ENDBRANCH   1  12
TORSDOF 14
ENDMDL
MODEL 9
REMARK VINA RESULT:    -3.953      1.381      2.889
REMARK INTER + INTRA:          -9.629
REMARK INTER:                  -7.491
REMARK INTRA:                  -2.138
REMARK UNBOUND:                -2.441
REMARK SMILES CCCCCCCCCCCCCC[C@@H](C)C(=O)[O-]
REMARK SMILES IDX 9 1 10 2 11 3 12 4 13 5 14 6 15 7 16 8 17 9 18 10 19 11 8 12
REMARK SMILES IDX 7 13 6 14 5 15 4 16 3 17 2 18 1 19
REMARK H PARENT
REMARK Flexibility Score: inf
ROOT
ATOM      1  C   UNL     1      19.698  -6.741  48.617  1.00  0.00     0.000 C 
ENDROOT
BRANCH   1   2
ATOM      2  C   UNL     1      19.855  -6.467  47.112  1.00  0.00     0.000 C 
BRANCH   2   3
ATOM      3  C   UNL     1      20.766  -5.264  46.815  1.00  0.00     0.000 C 
BRANCH   3   4
ATOM      4  C   UNL     1      22.096  -5.684  46.164  1.00  0.00     0.000 C 
BRANCH   4   5
ATOM      5  C   UNL     1      21.991  -6.982  45.341  1.00  0.00     0.001 C 
BRANCH   5   6
ATOM      6  C   UNL     1      21.875  -6.729  43.819  1.00  0.00     0.009 C 
BRANCH   6   7
ATOM      7  C   UNL     1      20.504  -7.132  43.232  1.00  0.00     0.032 C 
ATOM      8  C   UNL     1      19.912  -8.364  43.928  1.00  0.00     0.014 C 
BRANCH   7   9
ATOM      9  C   UNL     1      19.545  -5.978  43.341  1.00  0.00     0.044 C 
ATOM     10  O   UNL     1      19.950  -4.799  43.157  1.00  0.00    -0.550 OA
ATOM     11  O   UNL     1      18.209  -6.202  43.654  1.00  0.00    -0.550 OA
ENDBRANCH   7   9
ENDBRANCH   6   7
ENDBRANCH   5   6
ENDBRANCH   4   5
ENDBRANCH   3   4
ENDBRANCH   2   3
ENDBRANCH   1   2
BRANCH   1  12
ATOM     12  C   UNL     1      20.901  -7.479  49.239  1.00  0.00     0.000 C 
BRANCH  12  13
ATOM     13  C   UNL     1      21.125  -7.089  50.709  1.00  0.00    -0.000 C 
BRANCH  13  14
ATOM     14  C   UNL     1      22.613  -6.851  50.993  1.00  0.00    -0.000 C 
BRANCH  14  15
ATOM     15  C   UNL     1      23.412  -6.739  49.689  1.00  0.00    -0.000 C 
BRANCH  15  16
ATOM     16  C   UNL     1      24.158  -5.401  49.614  1.00  0.00    -0.000 C 
BRANCH  16  17
ATOM     17  C   UNL     1      23.175  -4.225  49.529  1.00  0.00    -0.000 C 
BRANCH  17  18
ATOM     18  C   UNL     1      23.250  -3.303  50.757  1.00  0.00    -0.003 C 
ATOM     19  C   UNL     1      22.845  -1.862  50.441  1.00  0.00     0.004 C 
ENDBRANCH  17  18
ENDBRANCH  16  17
ENDBRANCH  15  16
ENDBRANCH  14  15
ENDBRANCH  13  14
ENDBRANCH  12  13
ENDBRANCH   1  12
TORSDOF 14
ENDMDL
