MODEL 1
REMARK VINA RESULT:    -1.142      0.000      0.000
REMARK INTER + INTRA:          -3.408
REMARK INTER:                  -2.476
REMARK INTRA:                  -0.932
REMARK UNBOUND:                -0.932
REMARK SMILES CCCCCCCCCCCCCCCCCCCCCC(=O)[O-]
REMARK SMILES IDX 12 1 11 2 10 3 9 4 8 5 7 6 6 7 5 8 4 9 3 10 2 11 1 12 13 13
REMARK SMILES IDX 14 14 15 15 16 16 17 17 18 18 19 19 20 20 21 21 22 22 23 23
REMARK SMILES IDX 24 24
REMARK H PARENT
REMARK Flexibility Score: inf
ROOT
ATOM      1  C   UNL     1     -10.117  -9.842 -11.926  1.00  0.00     0.000 C 
ENDROOT
BRANCH   1   2
ATOM      2  C   UNL     1      -9.123 -10.998 -12.125  1.00  0.00     0.000 C 
BRANCH   2   3
ATOM      3  C   UNL     1      -7.655 -10.537 -12.112  1.00  0.00     0.000 C 
BRANCH   3   4
ATOM      4  C   UNL     1      -6.623 -11.642 -11.805  1.00  0.00    -0.000 C 
BRANCH   4   5
ATOM      5  C   UNL     1      -5.160 -11.277 -12.117  1.00  0.00    -0.000 C 
BRANCH   5   6
ATOM      6  C   UNL     1      -4.909  -9.759 -12.121  1.00  0.00    -0.000 C 
BRANCH   6   7
ATOM      7  C   UNL     1      -3.458  -9.412 -11.723  1.00  0.00    -0.000 C 
BRANCH   7   8
ATOM      8  C   UNL     1      -2.480 -10.587 -11.884  1.00  0.00    -0.000 C 
BRANCH   8   9
ATOM      9  C   UNL     1      -1.050 -10.234 -11.440  1.00  0.00    -0.000 C 
BRANCH   9  10
ATOM     10  C   UNL     1      -1.001  -9.678 -10.002  1.00  0.00    -0.000 C 
BRANCH  10  11
ATOM     11  C   UNL     1      -1.502 -10.669  -8.938  1.00  0.00    -0.003 C 
ATOM     12  C   UNL     1      -0.918 -10.406  -7.552  1.00  0.00     0.004 C 
ENDBRANCH  10  11
ENDBRANCH   9  10
ENDBRANCH   8   9
ENDBRANCH   7   8
ENDBRANCH   6   7
ENDBRANCH   5   6
ENDBRANCH   4   5
ENDBRANCH   3   4
ENDBRANCH   2   3
ENDBRANCH   1   2
BRANCH   1  13
ATOM     13  C   UNL     1     -11.589 -10.292 -12.071  1.00  0.00     0.000 C 
BRANCH  13  14
ATOM     14  C   UNL     1     -12.595  -9.338 -11.401  1.00  0.00     0.000 C 
BRANCH  14  15
ATOM     15  C   UNL     1     -14.047  -9.482 -11.895  1.00  0.00     0.000 C 
BRANCH  15  16
ATOM     16  C   UNL     1     -14.582 -10.930 -11.837  1.00  0.00     0.000 C 
BRANCH  16  17
ATOM     17  C   UNL     1     -14.943 -11.377 -10.408  1.00  0.00     0.000 C 
BRANCH  17  18
ATOM     18  C   UNL     1     -15.548 -12.789 -10.363  1.00  0.00     0.000 C 
BRANCH  18  19
ATOM     19  C   UNL     1     -17.033 -12.808 -10.765  1.00  0.00     0.000 C 
BRANCH  19  20
ATOM     20  C   UNL     1     -17.974 -12.818  -9.549  1.00  0.00     0.006 C 
BRANCH  20  21
ATOM     21  C   UNL     1     -18.700 -11.482  -9.349  1.00  0.00     0.053 C 
BRANCH  21  22
ATOM     22  C   UNL     1     -19.171 -11.355  -7.935  1.00  0.00     0.041 C 
ATOM     23  O   UNL     1     -19.017 -12.307  -7.127  1.00  0.00    -0.550 OA
ATOM     24  O   UNL     1     -19.833 -10.205  -7.524  1.00  0.00    -0.550 OA
ENDBRANCH  21  22
ENDBRANCH  20  21
ENDBRANCH  19  20
ENDBRANCH  18  19
ENDBRANCH  17  18
ENDBRANCH  16  17
ENDBRANCH  15  16
ENDBRANCH  14  15
ENDBRANCH  13  14
ENDBRANCH   1  13
TORSDOF 20
ENDMDL
MODEL 2
REMARK VINA RESULT:    -1.072      5.857     10.159
REMARK INTER + INTRA:          -3.258
REMARK INTER:                  -1.840
REMARK INTRA:                  -1.418
REMARK UNBOUND:                -0.932
REMARK SMILES CCCCCCCCCCCCCCCCCCCCCC(=O)[O-]
REMARK SMILES IDX 12 1 11 2 10 3 9 4 8 5 7 6 6 7 5 8 4 9 3 10 2 11 1 12 13 13
REMARK SMILES IDX 14 14 15 15 16 16 17 17 18 18 19 19 20 20 21 21 22 22 23 23
REMARK SMILES IDX 24 24
REMARK H PARENT
REMARK Flexibility Score: inf
ROOT
ATOM      1  C   UNL     1     -12.165  -9.192 -10.558  1.00  0.00     0.000 C 
ENDROOT
BRANCH   1   2
ATOM      2  C   UNL     1     -13.643  -8.842 -10.800  1.00  0.00     0.000 C 
BRANCH   2   3
ATOM      3  C   UNL     1     -13.860  -8.004 -12.072  1.00  0.00     0.000 C 
BRANCH   3   4
ATOM      4  C   UNL     1     -13.519  -6.506 -11.936  1.00  0.00    -0.000 C 
BRANCH   4   5
ATOM      5  C   UNL     1     -14.727  -5.552 -11.981  1.00  0.00    -0.000 C 
BRANCH   5   6
ATOM      6  C   UNL     1     -14.499  -4.258 -11.181  1.00  0.00    -0.000 C 
BRANCH   6   7
ATOM      7  C   UNL     1     -15.659  -3.256 -11.359  1.00  0.00    -0.000 C 
BRANCH   7   8
ATOM      8  C   UNL     1     -16.860  -3.836 -12.125  1.00  0.00    -0.000 C 
BRANCH   8   9
ATOM      9  C   UNL     1     -18.091  -4.049 -11.227  1.00  0.00    -0.000 C 
BRANCH   9  10
ATOM     10  C   UNL     1     -19.348  -4.429 -12.034  1.00  0.00    -0.000 C 
BRANCH  10  11
ATOM     11  C   UNL     1     -20.644  -3.800 -11.494  1.00  0.00    -0.003 C 
ATOM     12  C   UNL     1     -20.871  -2.375 -11.995  1.00  0.00     0.004 C 
ENDBRANCH  10  11
ENDBRANCH   9  10
ENDBRANCH   8   9
ENDBRANCH   7   8
ENDBRANCH   6   7
ENDBRANCH   5   6
ENDBRANCH   4   5
ENDBRANCH   3   4
ENDBRANCH   2   3
ENDBRANCH   1   2
BRANCH   1  13
ATOM     13  C   UNL     1     -11.880 -10.704 -10.709  1.00  0.00     0.000 C 
BRANCH  13  14
ATOM     14  C   UNL     1     -12.413 -11.306 -12.022  1.00  0.00     0.000 C 
BRANCH  14  15
ATOM     15  C   UNL     1     -12.914 -12.757 -11.910  1.00  0.00     0.000 C 
BRANCH  15  16
ATOM     16  C   UNL     1     -13.589 -13.079 -10.557  1.00  0.00     0.000 C 
BRANCH  16  17
ATOM     17  C   UNL     1     -15.126 -13.048 -10.636  1.00  0.00     0.000 C 
BRANCH  17  18
ATOM     18  C   UNL     1     -15.711 -11.673 -10.276  1.00  0.00     0.000 C 
BRANCH  18  19
ATOM     19  C   UNL     1     -17.101 -11.442 -10.893  1.00  0.00     0.000 C 
BRANCH  19  20
ATOM     20  C   UNL     1     -18.229 -12.068 -10.057  1.00  0.00     0.006 C 
BRANCH  20  21
ATOM     21  C   UNL     1     -18.526 -11.282  -8.774  1.00  0.00     0.053 C 
BRANCH  21  22
ATOM     22  C   UNL     1     -19.639 -11.932  -8.014  1.00  0.00     0.041 C 
ATOM     23  O   UNL     1     -20.127 -13.021  -8.411  1.00  0.00    -0.550 OA
ATOM     24  O   UNL     1     -20.175 -11.305  -6.897  1.00  0.00    -0.550 OA
ENDBRANCH  21  22
ENDBRANCH  20  21
ENDBRANCH  19  20
ENDBRANCH  18  19
ENDBRANCH  17  18
ENDBRANCH  16  17
ENDBRANCH  15  16
ENDBRANCH  14  15
ENDBRANCH  13  14
ENDBRANCH   1  13
TORSDOF 20
ENDMDL
MODEL 3
REMARK VINA RESULT:    -0.778      5.390     13.041
REMARK INTER + INTRA:          -2.618
REMARK INTER:                  -1.579
REMARK INTRA:                  -1.039
REMARK UNBOUND:                -0.932
REMARK SMILES CCCCCCCCCCCCCCCCCCCCCC(=O)[O-]
REMARK SMILES IDX 12 1 11 2 10 3 9 4 8 5 7 6 6 7 5 8 4 9 3 10 2 11 1 12 13 13
REMARK SMILES IDX 14 14 15 15 16 16 17 17 18 18 19 19 20 20 21 21 22 22 23 23
REMARK SMILES IDX 24 24
REMARK H PARENT
REMARK Flexibility Score: inf
ROOT
ATOM      1  C   UNL     1     -11.810 -10.198 -10.782  1.00  0.00     0.000 C 
ENDROOT
BRANCH   1   2
ATOM      2  C   UNL     1     -12.652  -8.988 -11.220  1.00  0.00     0.000 C 
BRANCH   2   3
ATOM      3  C   UNL     1     -13.986  -9.391 -11.874  1.00  0.00     0.000 C 
BRANCH   3   4
ATOM      4  C   UNL     1     -14.674 -10.625 -11.254  1.00  0.00    -0.000 C 
BRANCH   4   5
ATOM      5  C   UNL     1     -16.185 -10.738 -11.525  1.00  0.00    -0.000 C 
BRANCH   5   6
ATOM      6  C   UNL     1     -16.805 -12.020 -10.943  1.00  0.00    -0.000 C 
BRANCH   6   7
ATOM      7  C   UNL     1     -18.277 -12.198 -11.372  1.00  0.00    -0.000 C 
BRANCH   7   8
ATOM      8  C   UNL     1     -19.270 -12.126 -10.200  1.00  0.00    -0.000 C 
BRANCH   8   9
ATOM      9  C   UNL     1     -18.570 -12.022  -8.834  1.00  0.00    -0.000 C 
BRANCH   9  10
ATOM     10  C   UNL     1     -19.077 -10.825  -8.004  1.00  0.00    -0.000 C 
BRANCH  10  11
ATOM     11  C   UNL     1     -20.268 -11.163  -7.093  1.00  0.00    -0.003 C 
ATOM     12  C   UNL     1     -20.198 -12.576  -6.515  1.00  0.00     0.004 C 
ENDBRANCH  10  11
ENDBRANCH   9  10
ENDBRANCH   8   9
ENDBRANCH   7   8
ENDBRANCH   6   7
ENDBRANCH   5   6
ENDBRANCH   4   5
ENDBRANCH   3   4
ENDBRANCH   2   3
ENDBRANCH   1   2
BRANCH   1  13
ATOM     13  C   UNL     1     -11.117 -10.902 -11.971  1.00  0.00     0.000 C 
BRANCH  13  14
ATOM     14  C   UNL     1     -11.126 -12.438 -11.871  1.00  0.00     0.000 C 
BRANCH  14  15
ATOM     15  C   UNL     1      -9.735 -13.095 -11.922  1.00  0.00     0.000 C 
BRANCH  15  16
ATOM     16  C   UNL     1      -8.579 -12.090 -12.125  1.00  0.00     0.000 C 
BRANCH  16  17
ATOM     17  C   UNL     1      -7.195 -12.764 -12.125  1.00  0.00     0.000 C 
BRANCH  17  18
ATOM     18  C   UNL     1      -6.101 -11.871 -11.517  1.00  0.00     0.000 C 
BRANCH  18  19
ATOM     19  C   UNL     1      -4.852 -12.667 -11.101  1.00  0.00     0.000 C 
BRANCH  19  20
ATOM     20  C   UNL     1      -3.546 -12.006 -11.570  1.00  0.00     0.006 C 
BRANCH  20  21
ATOM     21  C   UNL     1      -3.678 -10.488 -11.748  1.00  0.00     0.053 C 
BRANCH  21  22
ATOM     22  C   UNL     1      -2.380  -9.815 -11.434  1.00  0.00     0.041 C 
ATOM     23  O   UNL     1      -1.417 -10.478 -10.968  1.00  0.00    -0.550 OA
ATOM     24  O   UNL     1      -2.252  -8.442 -11.601  1.00  0.00    -0.550 OA
ENDBRANCH  21  22
ENDBRANCH  20  21
ENDBRANCH  19  20
ENDBRANCH  18  19
ENDBRANCH  17  18
ENDBRANCH  16  17
ENDBRANCH  15  16
ENDBRANCH  14  15
ENDBRANCH  13  14
ENDBRANCH   1  13
TORSDOF 20
ENDMDL
MODEL 4
REMARK VINA RESULT:    -0.722      5.198     13.226
REMARK INTER + INTRA:          -2.497
REMARK INTER:                  -1.398
REMARK INTRA:                  -1.099
REMARK UNBOUND:                -0.932
REMARK SMILES CCCCCCCCCCCCCCCCCCCCCC(=O)[O-]
REMARK SMILES IDX 12 1 11 2 10 3 9 4 8 5 7 6 6 7 5 8 4 9 3 10 2 11 1 12 13 13
REMARK SMILES IDX 14 14 15 15 16 16 17 17 18 18 19 19 20 20 21 21 22 22 23 23
REMARK SMILES IDX 24 24
REMARK H PARENT
REMARK Flexibility Score: inf
ROOT
ATOM      1  C   UNL     1     -12.288 -10.221 -11.028  1.00  0.00     0.000 C 
ENDROOT
BRANCH   1   2
ATOM      2  C   UNL     1     -13.718 -10.773 -11.145  1.00  0.00     0.000 C 
BRANCH   2   3
ATOM      3  C   UNL     1     -13.823 -11.966 -12.112  1.00  0.00     0.000 C 
BRANCH   3   4
ATOM      4  C   UNL     1     -14.865 -13.036 -11.723  1.00  0.00    -0.000 C 
BRANCH   4   5
ATOM      5  C   UNL     1     -16.332 -12.646 -11.982  1.00  0.00    -0.000 C 
BRANCH   5   6
ATOM      6  C   UNL     1     -17.252 -12.943 -10.785  1.00  0.00    -0.000 C 
BRANCH   6   7
ATOM      7  C   UNL     1     -16.757 -12.262  -9.492  1.00  0.00    -0.000 C 
BRANCH   7   8
ATOM      8  C   UNL     1     -17.406 -10.892  -9.233  1.00  0.00    -0.000 C 
BRANCH   8   9
ATOM      9  C   UNL     1     -18.881 -11.004  -8.808  1.00  0.00    -0.000 C 
BRANCH   9  10
ATOM     10  C   UNL     1     -19.097 -12.067  -7.711  1.00  0.00    -0.000 C 
BRANCH  10  11
ATOM     11  C   UNL     1     -20.310 -11.786  -6.809  1.00  0.00    -0.003 C 
ATOM     12  C   UNL     1     -20.910 -10.399  -7.026  1.00  0.00     0.004 C 
ENDBRANCH  10  11
ENDBRANCH   9  10
ENDBRANCH   8   9
ENDBRANCH   7   8
ENDBRANCH   6   7
ENDBRANCH   5   6
ENDBRANCH   4   5
ENDBRANCH   3   4
ENDBRANCH   2   3
ENDBRANCH   1   2
BRANCH   1  13
ATOM     13  C   UNL     1     -11.339 -10.798 -12.104  1.00  0.00     0.000 C 
BRANCH  13  14
ATOM     14  C   UNL     1      -9.931 -10.175 -12.083  1.00  0.00     0.000 C 
BRANCH  14  15
ATOM     15  C   UNL     1      -8.787 -11.174 -11.829  1.00  0.00     0.000 C 
BRANCH  15  16
ATOM     16  C   UNL     1      -7.383 -10.601 -12.125  1.00  0.00     0.000 C 
BRANCH  16  17
ATOM     17  C   UNL     1      -6.267 -11.329 -11.354  1.00  0.00     0.000 C 
BRANCH  17  18
ATOM     18  C   UNL     1      -4.916 -11.288 -12.087  1.00  0.00     0.000 C 
BRANCH  18  19
ATOM     19  C   UNL     1      -3.766 -10.819 -11.178  1.00  0.00     0.000 C 
BRANCH  19  20
ATOM     20  C   UNL     1      -3.486  -9.313 -11.310  1.00  0.00     0.006 C 
BRANCH  20  21
ATOM     21  C   UNL     1      -2.088  -8.923 -10.813  1.00  0.00     0.053 C 
BRANCH  21  22
ATOM     22  C   UNL     1      -1.879  -9.415  -9.416  1.00  0.00     0.041 C 
ATOM     23  O   UNL     1      -2.532  -8.917  -8.463  1.00  0.00    -0.550 OA
ATOM     24  O   UNL     1      -0.920 -10.386  -9.158  1.00  0.00    -0.550 OA
ENDBRANCH  21  22
ENDBRANCH  20  21
ENDBRANCH  19  20
ENDBRANCH  18  19
ENDBRANCH  17  18
ENDBRANCH  16  17
ENDBRANCH  15  16
ENDBRANCH  14  15
ENDBRANCH  13  14
ENDBRANCH   1  13
TORSDOF 20
ENDMDL
MODEL 5
REMARK VINA RESULT:     0.021      6.121     11.185
REMARK INTER + INTRA:          -0.885
REMARK INTER:                  -0.079
REMARK INTRA:                  -0.807
REMARK UNBOUND:                -0.932
REMARK SMILES CCCCCCCCCCCCCCCCCCCCCC(=O)[O-]
REMARK SMILES IDX 12 1 11 2 10 3 9 4 8 5 7 6 6 7 5 8 4 9 3 10 2 11 1 12 13 13
REMARK SMILES IDX 14 14 15 15 16 16 17 17 18 18 19 19 20 20 21 21 22 22 23 23
REMARK SMILES IDX 24 24
REMARK H PARENT
REMARK Flexibility Score: inf
ROOT
ATOM      1  C   UNL     1     -12.539 -10.271  -9.383  1.00  0.00     0.000 C 
ENDROOT
BRANCH   1   2
ATOM      2  C   UNL     1     -12.923 -11.192 -10.553  1.00  0.00     0.000 C 
BRANCH   2   3
ATOM      3  C   UNL     1     -14.304 -11.846 -10.373  1.00  0.00     0.000 C 
BRANCH   3   4
ATOM      4  C   UNL     1     -15.482 -11.075 -11.006  1.00  0.00    -0.000 C 
BRANCH   4   5
ATOM      5  C   UNL     1     -16.423 -11.921 -11.882  1.00  0.00    -0.000 C 
BRANCH   5   6
ATOM      6  C   UNL     1     -17.386 -12.793 -11.058  1.00  0.00    -0.000 C 
BRANCH   6   7
ATOM      7  C   UNL     1     -18.693 -13.094 -11.823  1.00  0.00    -0.000 C 
BRANCH   7   8
ATOM      8  C   UNL     1     -19.788 -12.037 -11.604  1.00  0.00    -0.000 C 
BRANCH   8   9
ATOM      9  C   UNL     1     -20.518 -12.206 -10.260  1.00  0.00    -0.000 C 
BRANCH   9  10
ATOM     10  C   UNL     1     -19.637 -11.805  -9.059  1.00  0.00    -0.000 C 
BRANCH  10  11
ATOM     11  C   UNL     1     -19.623 -12.846  -7.927  1.00  0.00    -0.003 C 
ATOM     12  C   UNL     1     -20.752 -12.648  -6.918  1.00  0.00     0.004 C 
ENDBRANCH  10  11
ENDBRANCH   9  10
ENDBRANCH   8   9
ENDBRANCH   7   8
ENDBRANCH   6   7
ENDBRANCH   5   6
ENDBRANCH   4   5
ENDBRANCH   3   4
ENDBRANCH   2   3
ENDBRANCH   1   2
BRANCH   1  13
ATOM     13  C   UNL     1     -11.657  -9.082  -9.827  1.00  0.00     0.000 C 
BRANCH  13  14
ATOM     14  C   UNL     1     -11.455  -8.997 -11.351  1.00  0.00     0.000 C 
BRANCH  14  15
ATOM     15  C   UNL     1     -12.636  -8.381 -12.124  1.00  0.00     0.000 C 
BRANCH  15  16
ATOM     16  C   UNL     1     -13.569  -7.517 -11.247  1.00  0.00     0.000 C 
BRANCH  16  17
ATOM     17  C   UNL     1     -14.347  -6.465 -12.060  1.00  0.00     0.000 C 
BRANCH  17  18
ATOM     18  C   UNL     1     -14.643  -5.191 -11.251  1.00  0.00     0.000 C 
BRANCH  18  19
ATOM     19  C   UNL     1     -15.778  -4.353 -11.865  1.00  0.00     0.000 C 
BRANCH  19  20
ATOM     20  C   UNL     1     -17.083  -4.445 -11.058  1.00  0.00     0.006 C 
BRANCH  20  21
ATOM     21  C   UNL     1     -18.289  -4.839 -11.919  1.00  0.00     0.053 C 
BRANCH  21  22
ATOM     22  C   UNL     1     -19.469  -3.983 -11.584  1.00  0.00     0.041 C 
ATOM     23  O   UNL     1     -19.302  -2.795 -11.203  1.00  0.00    -0.550 OA
ATOM     24  O   UNL     1     -20.750  -4.515 -11.636  1.00  0.00    -0.550 OA
ENDBRANCH  21  22
ENDBRANCH  20  21
ENDBRANCH  19  20
ENDBRANCH  18  19
ENDBRANCH  17  18
ENDBRANCH  16  17
ENDBRANCH  15  16
ENDBRANCH  14  15
ENDBRANCH  13  14
ENDBRANCH   1  13
TORSDOF 20
ENDMDL
MODEL 6
REMARK VINA RESULT:     0.032      2.123      4.599
REMARK INTER + INTRA:          -0.863
REMARK INTER:                   0.364
REMARK INTRA:                  -1.227
REMARK UNBOUND:                -0.932
REMARK SMILES CCCCCCCCCCCCCCCCCCCCCC(=O)[O-]
REMARK SMILES IDX 12 1 11 2 10 3 9 4 8 5 7 6 6 7 5 8 4 9 3 10 2 11 1 12 13 13
REMARK SMILES IDX 14 14 15 15 16 16 17 17 18 18 19 19 20 20 21 21 22 22 23 23
REMARK SMILES IDX 24 24
REMARK H PARENT
REMARK Flexibility Score: inf
ROOT
ATOM      1  C   UNL     1      -5.429 -10.843 -10.074  1.00  0.00     0.000 C 
ENDROOT
BRANCH   1   2
ATOM      2  C   UNL     1      -4.185 -10.495 -10.907  1.00  0.00     0.000 C 
BRANCH   2   3
ATOM      3  C   UNL     1      -3.302 -11.721 -11.206  1.00  0.00     0.000 C 
BRANCH   3   4
ATOM      4  C   UNL     1      -3.682 -13.005 -10.439  1.00  0.00    -0.000 C 
BRANCH   4   5
ATOM      5  C   UNL     1      -3.128 -13.099  -9.006  1.00  0.00    -0.000 C 
BRANCH   5   6
ATOM      6  C   UNL     1      -1.636 -12.738  -8.914  1.00  0.00    -0.000 C 
BRANCH   6   7
ATOM      7  C   UNL     1      -1.257 -12.189  -7.522  1.00  0.00    -0.000 C 
BRANCH   7   8
ATOM      8  C   UNL     1      -1.126 -10.657  -7.482  1.00  0.00    -0.000 C 
BRANCH   8   9
ATOM      9  C   UNL     1      -0.880 -10.045  -8.872  1.00  0.00    -0.000 C 
BRANCH   9  10
ATOM     10  C   UNL     1      -1.444  -8.614  -8.991  1.00  0.00    -0.000 C 
BRANCH  10  11
ATOM     11  C   UNL     1      -1.052  -7.903 -10.297  1.00  0.00    -0.003 C 
ATOM     12  C   UNL     1      -1.354  -8.731 -11.545  1.00  0.00     0.004 C 
ENDBRANCH  10  11
ENDBRANCH   9  10
ENDBRANCH   8   9
ENDBRANCH   7   8
ENDBRANCH   6   7
ENDBRANCH   5   6
ENDBRANCH   4   5
ENDBRANCH   3   4
ENDBRANCH   2   3
ENDBRANCH   1   2
BRANCH   1  13
ATOM     13  C   UNL     1      -6.655 -11.185 -10.952  1.00  0.00     0.000 C 
BRANCH  13  14
ATOM     14  C   UNL     1      -6.863 -12.696 -11.162  1.00  0.00     0.000 C 
BRANCH  14  15
ATOM     15  C   UNL     1      -8.054 -13.063 -12.066  1.00  0.00     0.000 C 
BRANCH  15  16
ATOM     16  C   UNL     1      -9.406 -13.122 -11.320  1.00  0.00     0.000 C 
BRANCH  16  17
ATOM     17  C   UNL     1     -10.558 -12.490 -12.124  1.00  0.00     0.000 C 
BRANCH  17  18
ATOM     18  C   UNL     1     -11.942 -12.934 -11.623  1.00  0.00     0.000 C 
BRANCH  18  19
ATOM     19  C   UNL     1     -12.870 -11.744 -11.319  1.00  0.00     0.000 C 
BRANCH  19  20
ATOM     20  C   UNL     1     -14.358 -12.107 -11.451  1.00  0.00     0.006 C 
BRANCH  20  21
ATOM     21  C   UNL     1     -15.287 -11.007 -10.921  1.00  0.00     0.053 C 
BRANCH  21  22
ATOM     22  C   UNL     1     -16.653 -11.561 -10.665  1.00  0.00     0.041 C 
ATOM     23  O   UNL     1     -16.810 -12.512  -9.856  1.00  0.00    -0.550 OA
ATOM     24  O   UNL     1     -17.745 -11.064 -11.364  1.00  0.00    -0.550 OA
ENDBRANCH  21  22
ENDBRANCH  20  21
ENDBRANCH  19  20
ENDBRANCH  18  19
ENDBRANCH  17  18
ENDBRANCH  16  17
ENDBRANCH  15  16
ENDBRANCH  14  15
ENDBRANCH  13  14
ENDBRANCH   1  13
TORSDOF 20
ENDMDL
MODEL 7
REMARK VINA RESULT:     0.391      1.469      2.022
REMARK INTER + INTRA:          -0.084
REMARK INTER:                   0.763
REMARK INTRA:                  -0.847
REMARK UNBOUND:                -0.932
REMARK SMILES CCCCCCCCCCCCCCCCCCCCCC(=O)[O-]
REMARK SMILES IDX 12 1 11 2 10 3 9 4 8 5 7 6 6 7 5 8 4 9 3 10 2 11 1 12 13 13
REMARK SMILES IDX 14 14 15 15 16 16 17 17 18 18 19 19 20 20 21 21 22 22 23 23
REMARK SMILES IDX 24 24
REMARK H PARENT
REMARK Flexibility Score: inf
ROOT
ATOM      1  C   UNL     1     -10.532 -10.189 -12.120  1.00  0.00     0.000 C 
ENDROOT
BRANCH   1   2
ATOM      2  C   UNL     1      -9.247 -10.708 -11.456  1.00  0.00     0.000 C 
BRANCH   2   3
ATOM      3  C   UNL     1      -7.968 -10.154 -12.110  1.00  0.00     0.000 C 
BRANCH   3   4
ATOM      4  C   UNL     1      -6.758 -11.112 -12.098  1.00  0.00    -0.000 C 
BRANCH   4   5
ATOM      5  C   UNL     1      -6.175 -11.414 -10.706  1.00  0.00    -0.000 C 
BRANCH   5   6
ATOM      6  C   UNL     1      -5.370 -12.724 -10.665  1.00  0.00    -0.000 C 
BRANCH   6   7
ATOM      7  C   UNL     1      -4.788 -13.090 -12.047  1.00  0.00    -0.000 C 
BRANCH   7   8
ATOM      8  C   UNL     1      -3.253 -13.023 -12.104  1.00  0.00    -0.000 C 
BRANCH   8   9
ATOM      9  C   UNL     1      -2.656 -12.122 -11.009  1.00  0.00    -0.000 C 
BRANCH   9  10
ATOM     10  C   UNL     1      -2.805 -10.622 -11.336  1.00  0.00    -0.000 C 
BRANCH  10  11
ATOM     11  C   UNL     1      -3.444  -9.802 -10.203  1.00  0.00    -0.003 C 
ATOM     12  C   UNL     1      -2.417  -9.213  -9.237  1.00  0.00     0.004 C 
ENDBRANCH  10  11
ENDBRANCH   9  10
ENDBRANCH   8   9
ENDBRANCH   7   8
ENDBRANCH   6   7
ENDBRANCH   5   6
ENDBRANCH   4   5
ENDBRANCH   3   4
ENDBRANCH   2   3
ENDBRANCH   1   2
BRANCH   1  13
ATOM     13  C   UNL     1     -11.665 -11.242 -12.125  1.00  0.00     0.000 C 
BRANCH  13  14
ATOM     14  C   UNL     1     -12.523 -11.233 -10.846  1.00  0.00     0.000 C 
BRANCH  14  15
ATOM     15  C   UNL     1     -13.872 -10.503 -10.981  1.00  0.00     0.000 C 
BRANCH  15  16
ATOM     16  C   UNL     1     -14.847 -11.177 -11.972  1.00  0.00     0.000 C 
BRANCH  16  17
ATOM     17  C   UNL     1     -15.364 -12.538 -11.469  1.00  0.00     0.000 C 
BRANCH  17  18
ATOM     18  C   UNL     1     -16.887 -12.683 -11.612  1.00  0.00     0.000 C 
BRANCH  18  19
ATOM     19  C   UNL     1     -17.629 -11.352 -11.398  1.00  0.00     0.000 C 
BRANCH  19  20
ATOM     20  C   UNL     1     -18.944 -11.527 -10.620  1.00  0.00     0.006 C 
BRANCH  20  21
ATOM     21  C   UNL     1     -18.762 -11.377  -9.104  1.00  0.00     0.053 C 
BRANCH  21  22
ATOM     22  C   UNL     1     -19.484 -12.471  -8.384  1.00  0.00     0.041 C 
ATOM     23  O   UNL     1     -20.615 -12.853  -8.782  1.00  0.00    -0.550 OA
ATOM     24  O   UNL     1     -18.933 -13.030  -7.238  1.00  0.00    -0.550 OA
ENDBRANCH  21  22
ENDBRANCH  20  21
ENDBRANCH  19  20
ENDBRANCH  18  19
ENDBRANCH  17  18
ENDBRANCH  16  17
ENDBRANCH  15  16
ENDBRANCH  14  15
ENDBRANCH  13  14
ENDBRANCH   1  13
TORSDOF 20
ENDMDL
MODEL 8
REMARK VINA RESULT:     0.427      6.184     12.286
REMARK INTER + INTRA:          -0.006
REMARK INTER:                   0.403
REMARK INTRA:                  -0.409
REMARK UNBOUND:                -0.932
REMARK SMILES CCCCCCCCCCCCCCCCCCCCCC(=O)[O-]
REMARK SMILES IDX 12 1 11 2 10 3 9 4 8 5 7 6 6 7 5 8 4 9 3 10 2 11 1 12 13 13
REMARK SMILES IDX 14 14 15 15 16 16 17 17 18 18 19 19 20 20 21 21 22 22 23 23
REMARK SMILES IDX 24 24
REMARK H PARENT
REMARK Flexibility Score: inf
ROOT
ATOM      1  C   UNL     1     -16.662 -10.152  -9.757  1.00  0.00     0.000 C 
ENDROOT
BRANCH   1   2
ATOM      2  C   UNL     1     -18.171 -10.270  -9.487  1.00  0.00     0.000 C 
BRANCH   2   3
ATOM      3  C   UNL     1     -18.500 -10.460  -7.995  1.00  0.00     0.000 C 
BRANCH   3   4
ATOM      4  C   UNL     1     -18.109 -11.832  -7.408  1.00  0.00    -0.000 C 
BRANCH   4   5
ATOM      5  C   UNL     1     -19.111 -12.423  -6.399  1.00  0.00    -0.000 C 
BRANCH   5   6
ATOM      6  C   UNL     1     -20.575 -12.128  -6.766  1.00  0.00    -0.000 C 
BRANCH   6   7
ATOM      7  C   UNL     1     -21.122 -13.124  -7.811  1.00  0.00    -0.000 C 
BRANCH   7   8
ATOM      8  C   UNL     1     -20.772 -12.746  -9.260  1.00  0.00    -0.000 C 
BRANCH   8   9
ATOM      9  C   UNL     1     -21.103 -11.280  -9.588  1.00  0.00    -0.000 C 
BRANCH   9  10
ATOM     10  C   UNL     1     -21.102 -11.003 -11.106  1.00  0.00    -0.000 C 
BRANCH  10  11
ATOM     11  C   UNL     1     -20.809 -12.247 -11.961  1.00  0.00    -0.003 C 
ATOM     12  C   UNL     1     -19.337 -12.656 -11.940  1.00  0.00     0.004 C 
ENDBRANCH  10  11
ENDBRANCH   9  10
ENDBRANCH   8   9
ENDBRANCH   7   8
ENDBRANCH   6   7
ENDBRANCH   5   6
ENDBRANCH   4   5
ENDBRANCH   3   4
ENDBRANCH   2   3
ENDBRANCH   1   2
BRANCH   1  13
ATOM     13  C   UNL     1     -16.078 -11.417 -10.428  1.00  0.00     0.000 C 
BRANCH  13  14
ATOM     14  C   UNL     1     -15.122 -12.213  -9.520  1.00  0.00     0.000 C 
BRANCH  14  15
ATOM     15  C   UNL     1     -14.077 -13.059 -10.269  1.00  0.00     0.000 C 
BRANCH  15  16
ATOM     16  C   UNL     1     -12.762 -12.304 -10.567  1.00  0.00     0.000 C 
BRANCH  16  17
ATOM     17  C   UNL     1     -13.001 -10.888 -11.125  1.00  0.00     0.000 C 
BRANCH  17  18
ATOM     18  C   UNL     1     -11.696 -10.178 -11.517  1.00  0.00     0.000 C 
BRANCH  18  19
ATOM     19  C   UNL     1     -11.802  -8.647 -11.408  1.00  0.00     0.000 C 
BRANCH  19  20
ATOM     20  C   UNL     1     -13.042  -8.088 -12.125  1.00  0.00     0.006 C 
BRANCH  20  21
ATOM     21  C   UNL     1     -14.073  -7.497 -11.155  1.00  0.00     0.053 C 
BRANCH  21  22
ATOM     22  C   UNL     1     -14.628  -6.221 -11.702  1.00  0.00     0.041 C 
ATOM     23  O   UNL     1     -13.893  -5.205 -11.812  1.00  0.00    -0.550 OA
ATOM     24  O   UNL     1     -15.972  -6.136 -12.039  1.00  0.00    -0.550 OA
ENDBRANCH  21  22
ENDBRANCH  20  21
ENDBRANCH  19  20
ENDBRANCH  18  19
ENDBRANCH  17  18
ENDBRANCH  16  17
ENDBRANCH  15  16
ENDBRANCH  14  15
ENDBRANCH  13  14
ENDBRANCH   1  13
TORSDOF 20
ENDMDL
