MODEL 1
REMARK VINA RESULT:    -6.468      0.000      0.000
REMARK INTER + INTRA:         -13.043
REMARK INTER:                 -11.384
REMARK INTRA:                  -1.660
REMARK UNBOUND:                -1.660
REMARK SMILES CCCCCCC=CCCCCCCCC(=O)[O-]
REMARK SMILES IDX 10 1 11 2 12 3 13 4 14 5 15 6 16 7 17 8 18 9 9 10 8 11 7 12
REMARK SMILES IDX 6 13 5 14 4 15 3 16 2 17 1 18
REMARK H PARENT
REMARK Flexibility Score: inf
ROOT
ATOM      1  C   UNL     1     131.677 125.638 127.065  1.00  0.00     0.004 C 
ENDROOT
BRANCH   1   2
ATOM      2  C   UNL     1     130.729 124.754 126.234  1.00  0.00     0.000 C 
BRANCH   2   3
ATOM      3  C   UNL     1     129.668 123.992 127.049  1.00  0.00     0.000 C 
BRANCH   3   4
ATOM      4  C   UNL     1     128.365 124.789 127.230  1.00  0.00     0.000 C 
BRANCH   4   5
ATOM      5  C   UNL     1     128.058 125.090 128.706  1.00  0.00     0.006 C 
BRANCH   5   6
ATOM      6  C   UNL     1     126.617 125.569 128.925  1.00  0.00     0.053 C 
BRANCH   6   7
ATOM      7  C   UNL     1     125.692 124.400 129.049  1.00  0.00     0.041 C 
ATOM      8  O   UNL     1     124.514 124.476 128.612  1.00  0.00    -0.550 OA
ATOM      9  O   UNL     1     126.147 123.209 129.602  1.00  0.00    -0.550 OA
ENDBRANCH   6   7
ENDBRANCH   5   6
ENDBRANCH   4   5
ENDBRANCH   3   4
ENDBRANCH   2   3
ENDBRANCH   1   2
BRANCH   1  10
ATOM     10  C   UNL     1     131.625 127.117 126.656  1.00  0.00     0.027 C 
BRANCH  10  11
ATOM     11  C   UNL     1     130.380 127.777 127.193  1.00  0.00    -0.031 C 
ATOM     12  C   UNL     1     129.370 128.232 126.428  1.00  0.00    -0.031 C 
BRANCH  12  13
ATOM     13  C   UNL     1     129.369 128.224 124.921  1.00  0.00     0.027 C 
BRANCH  13  14
ATOM     14  C   UNL     1     128.081 127.585 124.382  1.00  0.00     0.004 C 
BRANCH  14  15
ATOM     15  C   UNL     1     128.323 126.730 123.128  1.00  0.00     0.000 C 
BRANCH  15  16
ATOM     16  C   UNL     1     127.602 127.281 121.887  1.00  0.00    -0.000 C 
BRANCH  16  17
ATOM     17  C   UNL     1     127.331 128.790 121.986  1.00  0.00    -0.003 C 
ATOM     18  C   UNL     1     125.840 129.129 121.940  1.00  0.00     0.004 C 
ENDBRANCH  16  17
ENDBRANCH  15  16
ENDBRANCH  14  15
ENDBRANCH  13  14
ENDBRANCH  12  13
ENDBRANCH  10  11
ENDBRANCH   1  10
TORSDOF 13
ENDMDL
MODEL 2
REMARK VINA RESULT:    -6.023      1.622      2.189
REMARK INTER + INTRA:         -12.260
REMARK INTER:                 -11.168
REMARK INTRA:                  -1.092
REMARK UNBOUND:                -1.660
REMARK SMILES CCCCCCC=CCCCCCCCC(=O)[O-]
REMARK SMILES IDX 10 1 11 2 12 3 13 4 14 5 15 6 16 7 17 8 18 9 9 10 8 11 7 12
REMARK SMILES IDX 6 13 5 14 4 15 3 16 2 17 1 18
REMARK H PARENT
REMARK Flexibility Score: inf
ROOT
ATOM      1  C   UNL     1     130.794 124.458 127.037  1.00  0.00     0.004 C 
ENDROOT
BRANCH   1   2
ATOM      2  C   UNL     1     129.270 124.236 127.034  1.00  0.00     0.000 C 
BRANCH   2   3
ATOM      3  C   UNL     1     128.466 125.227 127.895  1.00  0.00     0.000 C 
BRANCH   3   4
ATOM      4  C   UNL     1     127.311 124.557 128.659  1.00  0.00     0.000 C 
BRANCH   4   5
ATOM      5  C   UNL     1     126.325 125.577 129.250  1.00  0.00     0.006 C 
BRANCH   5   6
ATOM      6  C   UNL     1     124.880 125.060 129.271  1.00  0.00     0.053 C 
BRANCH   6   7
ATOM      7  C   UNL     1     123.948 126.137 129.727  1.00  0.00     0.041 C 
ATOM      8  O   UNL     1     123.329 126.020 130.817  1.00  0.00    -0.550 OA
ATOM      9  O   UNL     1     123.799 127.294 128.971  1.00  0.00    -0.550 OA
ENDBRANCH   6   7
ENDBRANCH   5   6
ENDBRANCH   4   5
ENDBRANCH   3   4
ENDBRANCH   2   3
ENDBRANCH   1   2
BRANCH   1  10
ATOM     10  C   UNL     1     131.206 125.778 126.372  1.00  0.00     0.027 C 
BRANCH  10  11
ATOM     11  C   UNL     1     131.344 125.606 124.880  1.00  0.00    -0.031 C 
ATOM     12  C   UNL     1     130.680 126.338 123.965  1.00  0.00    -0.031 C 
BRANCH  12  13
ATOM     13  C   UNL     1     129.642 127.380 124.295  1.00  0.00     0.027 C 
BRANCH  13  14
ATOM     14  C   UNL     1     128.227 126.820 124.089  1.00  0.00     0.004 C 
BRANCH  14  15
ATOM     15  C   UNL     1     127.712 127.023 122.655  1.00  0.00     0.000 C 
BRANCH  15  16
ATOM     16  C   UNL     1     128.075 128.405 122.086  1.00  0.00    -0.000 C 
BRANCH  16  17
ATOM     17  C   UNL     1     126.843 129.301 121.883  1.00  0.00    -0.003 C 
ATOM     18  C   UNL     1     125.534 128.600 122.249  1.00  0.00     0.004 C 
ENDBRANCH  16  17
ENDBRANCH  15  16
ENDBRANCH  14  15
ENDBRANCH  13  14
ENDBRANCH  12  13
ENDBRANCH  10  11
ENDBRANCH   1  10
TORSDOF 13
ENDMDL
MODEL 3
REMARK VINA RESULT:    -6.014      2.879      6.276
REMARK INTER + INTRA:         -12.244
REMARK INTER:                 -11.163
REMARK INTRA:                  -1.081
REMARK UNBOUND:                -1.660
REMARK SMILES CCCCCCC=CCCCCCCCC(=O)[O-]
REMARK SMILES IDX 10 1 11 2 12 3 13 4 14 5 15 6 16 7 17 8 18 9 9 10 8 11 7 12
REMARK SMILES IDX 6 13 5 14 4 15 3 16 2 17 1 18
REMARK H PARENT
REMARK Flexibility Score: inf
ROOT
ATOM      1  C   UNL     1     129.051 127.681 126.142  1.00  0.00     0.004 C 
ENDROOT
BRANCH   1   2
ATOM      2  C   UNL     1     129.339 128.694 125.019  1.00  0.00     0.000 C 
BRANCH   2   3
ATOM      3  C   UNL     1     129.410 128.093 123.604  1.00  0.00     0.000 C 
BRANCH   3   4
ATOM      4  C   UNL     1     128.539 126.835 123.442  1.00  0.00     0.000 C 
BRANCH   4   5
ATOM      5  C   UNL     1     127.438 127.012 122.383  1.00  0.00     0.006 C 
BRANCH   5   6
ATOM      6  C   UNL     1     127.445 128.410 121.750  1.00  0.00     0.053 C 
BRANCH   6   7
ATOM      7  C   UNL     1     126.129 129.086 121.968  1.00  0.00     0.041 C 
ATOM      8  O   UNL     1     125.155 128.442 122.439  1.00  0.00    -0.550 OA
ATOM      9  O   UNL     1     125.990 130.442 121.697  1.00  0.00    -0.550 OA
ENDBRANCH   6   7
ENDBRANCH   5   6
ENDBRANCH   4   5
ENDBRANCH   3   4
ENDBRANCH   2   3
ENDBRANCH   1   2
BRANCH   1  10
ATOM     10  C   UNL     1     130.101 127.716 127.262  1.00  0.00     0.027 C 
BRANCH  10  11
ATOM     11  C   UNL     1     131.392 127.084 126.805  1.00  0.00    -0.031 C 
ATOM     12  C   UNL     1     131.481 125.876 126.217  1.00  0.00    -0.031 C 
BRANCH  12  13
ATOM     13  C   UNL     1     130.318 124.942 126.003  1.00  0.00     0.027 C 
BRANCH  13  14
ATOM     14  C   UNL     1     130.325 123.818 127.050  1.00  0.00     0.004 C 
BRANCH  14  15
ATOM     15  C   UNL     1     128.931 123.544 127.636  1.00  0.00     0.000 C 
BRANCH  15  16
ATOM     16  C   UNL     1     128.125 124.832 127.873  1.00  0.00    -0.000 C 
BRANCH  16  17
ATOM     17  C   UNL     1     127.423 124.845 129.239  1.00  0.00    -0.003 C 
ATOM     18  C   UNL     1     126.709 123.529 129.550  1.00  0.00     0.004 C 
ENDBRANCH  16  17
ENDBRANCH  15  16
ENDBRANCH  14  15
ENDBRANCH  13  14
ENDBRANCH  12  13
ENDBRANCH  10  11
ENDBRANCH   1  10
TORSDOF 13
ENDMDL
MODEL 4
REMARK VINA RESULT:    -5.633      3.144      6.254
REMARK INTER + INTRA:         -11.574
REMARK INTER:                 -10.359
REMARK INTRA:                  -1.215
REMARK UNBOUND:                -1.660
REMARK SMILES CCCCCCC=CCCCCCCCC(=O)[O-]
REMARK SMILES IDX 10 1 11 2 12 3 13 4 14 5 15 6 16 7 17 8 18 9 9 10 8 11 7 12
REMARK SMILES IDX 6 13 5 14 4 15 3 16 2 17 1 18
REMARK H PARENT
REMARK Flexibility Score: inf
ROOT
ATOM      1  C   UNL     1     131.282 127.148 126.657  1.00  0.00     0.004 C 
ENDROOT
BRANCH   1   2
ATOM      2  C   UNL     1     129.930 127.881 126.573  1.00  0.00     0.000 C 
BRANCH   2   3
ATOM      3  C   UNL     1     129.416 128.136 125.145  1.00  0.00     0.000 C 
BRANCH   3   4
ATOM      4  C   UNL     1     128.315 127.151 124.719  1.00  0.00     0.000 C 
BRANCH   4   5
ATOM      5  C   UNL     1     128.404 126.772 123.232  1.00  0.00     0.006 C 
BRANCH   5   6
ATOM      6  C   UNL     1     127.102 127.050 122.470  1.00  0.00     0.053 C 
BRANCH   6   7
ATOM      7  C   UNL     1     127.194 128.350 121.737  1.00  0.00     0.041 C 
ATOM      8  O   UNL     1     126.239 129.170 121.779  1.00  0.00    -0.550 OA
ATOM      9  O   UNL     1     128.355 128.680 121.048  1.00  0.00    -0.550 OA
ENDBRANCH   6   7
ENDBRANCH   5   6
ENDBRANCH   4   5
ENDBRANCH   3   4
ENDBRANCH   2   3
ENDBRANCH   1   2
BRANCH   1  10
ATOM     10  C   UNL     1     131.156 125.727 127.223  1.00  0.00     0.027 C 
BRANCH  10  11
ATOM     11  C   UNL     1     130.513 124.805 126.219  1.00  0.00    -0.031 C 
ATOM     12  C   UNL     1     129.506 123.956 126.500  1.00  0.00    -0.031 C 
BRANCH  12  13
ATOM     13  C   UNL     1     128.930 123.740 127.876  1.00  0.00     0.027 C 
BRANCH  13  14
ATOM     14  C   UNL     1     127.772 124.715 128.137  1.00  0.00     0.004 C 
BRANCH  14  15
ATOM     15  C   UNL     1     126.841 124.240 129.265  1.00  0.00     0.000 C 
BRANCH  15  16
ATOM     16  C   UNL     1     125.353 124.381 128.904  1.00  0.00    -0.000 C 
BRANCH  16  17
ATOM     17  C   UNL     1     124.695 125.594 129.579  1.00  0.00    -0.003 C 
ATOM     18  C   UNL     1     123.377 125.997 128.917  1.00  0.00     0.004 C 
ENDBRANCH  16  17
ENDBRANCH  15  16
ENDBRANCH  14  15
ENDBRANCH  13  14
ENDBRANCH  12  13
ENDBRANCH  10  11
ENDBRANCH   1  10
TORSDOF 13
ENDMDL
MODEL 5
REMARK VINA RESULT:    -5.615      3.040      5.997
REMARK INTER + INTRA:         -11.541
REMARK INTER:                 -10.256
REMARK INTRA:                  -1.286
REMARK UNBOUND:                -1.660
REMARK SMILES CCCCCCC=CCCCCCCCC(=O)[O-]
REMARK SMILES IDX 10 1 11 2 12 3 13 4 14 5 15 6 16 7 17 8 18 9 9 10 8 11 7 12
REMARK SMILES IDX 6 13 5 14 4 15 3 16 2 17 1 18
REMARK H PARENT
REMARK Flexibility Score: inf
ROOT
ATOM      1  C   UNL     1     130.537 124.236 126.978  1.00  0.00     0.004 C 
ENDROOT
BRANCH   1   2
ATOM      2  C   UNL     1     131.064 125.657 127.245  1.00  0.00     0.000 C 
BRANCH   2   3
ATOM      3  C   UNL     1     131.684 126.361 126.024  1.00  0.00     0.000 C 
BRANCH   3   4
ATOM      4  C   UNL     1     131.068 125.903 124.691  1.00  0.00     0.000 C 
BRANCH   4   5
ATOM      5  C   UNL     1     130.234 127.005 124.017  1.00  0.00     0.006 C 
BRANCH   5   6
ATOM      6  C   UNL     1     128.752 126.949 124.409  1.00  0.00     0.053 C 
BRANCH   6   7
ATOM      7  C   UNL     1     127.887 127.072 123.194  1.00  0.00     0.041 C 
ATOM      8  O   UNL     1     128.152 126.410 122.158  1.00  0.00    -0.550 OA
ATOM      9  O   UNL     1     126.758 127.882 123.224  1.00  0.00    -0.550 OA
ENDBRANCH   6   7
ENDBRANCH   5   6
ENDBRANCH   4   5
ENDBRANCH   3   4
ENDBRANCH   2   3
ENDBRANCH   1   2
BRANCH   1  10
ATOM     10  C   UNL     1     129.035 124.093 127.261  1.00  0.00     0.027 C 
BRANCH  10  11
ATOM     11  C   UNL     1     128.506 125.313 127.973  1.00  0.00    -0.031 C 
ATOM     12  C   UNL     1     127.509 125.294 128.878  1.00  0.00    -0.031 C 
BRANCH  12  13
ATOM     13  C   UNL     1     126.719 124.066 129.252  1.00  0.00     0.027 C 
BRANCH  13  14
ATOM     14  C   UNL     1     125.211 124.345 129.170  1.00  0.00     0.004 C 
BRANCH  14  15
ATOM     15  C   UNL     1     124.886 125.847 129.167  1.00  0.00     0.000 C 
BRANCH  15  16
ATOM     16  C   UNL     1     123.658 126.189 130.027  1.00  0.00    -0.000 C 
BRANCH  16  17
ATOM     17  C   UNL     1     123.022 127.533 129.638  1.00  0.00    -0.003 C 
ATOM     18  C   UNL     1     122.637 127.601 128.160  1.00  0.00     0.004 C 
ENDBRANCH  16  17
ENDBRANCH  15  16
ENDBRANCH  14  15
ENDBRANCH  13  14
ENDBRANCH  12  13
ENDBRANCH  10  11
ENDBRANCH   1  10
TORSDOF 13
ENDMDL
MODEL 6
REMARK VINA RESULT:    -5.366      2.158      3.122
REMARK INTER + INTRA:         -11.104
REMARK INTER:                 -10.482
REMARK INTRA:                  -0.623
REMARK UNBOUND:                -1.660
REMARK SMILES CCCCCCC=CCCCCCCCC(=O)[O-]
REMARK SMILES IDX 10 1 11 2 12 3 13 4 14 5 15 6 16 7 17 8 18 9 9 10 8 11 7 12
REMARK SMILES IDX 6 13 5 14 4 15 3 16 2 17 1 18
REMARK H PARENT
REMARK Flexibility Score: inf
ROOT
ATOM      1  C   UNL     1     128.215 126.069 128.160  1.00  0.00     0.004 C 
ENDROOT
BRANCH   1   2
ATOM      2  C   UNL     1     127.648 124.674 128.480  1.00  0.00     0.000 C 
BRANCH   2   3
ATOM      3  C   UNL     1     126.513 124.656 129.520  1.00  0.00     0.000 C 
BRANCH   3   4
ATOM      4  C   UNL     1     125.144 124.315 128.906  1.00  0.00     0.000 C 
BRANCH   4   5
ATOM      5  C   UNL     1     124.192 125.521 128.880  1.00  0.00     0.006 C 
BRANCH   5   6
ATOM      6  C   UNL     1     123.821 126.012 130.286  1.00  0.00     0.053 C 
BRANCH   6   7
ATOM      7  C   UNL     1     122.918 127.201 130.201  1.00  0.00     0.041 C 
ATOM      8  O   UNL     1     122.881 127.896 129.152  1.00  0.00    -0.550 OA
ATOM      9  O   UNL     1     122.078 127.514 131.263  1.00  0.00    -0.550 OA
ENDBRANCH   6   7
ENDBRANCH   5   6
ENDBRANCH   4   5
ENDBRANCH   3   4
ENDBRANCH   2   3
ENDBRANCH   1   2
BRANCH   1  10
ATOM     10  C   UNL     1     128.891 126.137 126.783  1.00  0.00     0.027 C 
BRANCH  10  11
ATOM     11  C   UNL     1     129.040 127.567 126.330  1.00  0.00    -0.031 C 
ATOM     12  C   UNL     1     129.203 127.947 125.049  1.00  0.00    -0.031 C 
BRANCH  12  13
ATOM     13  C   UNL     1     129.342 126.996 123.887  1.00  0.00     0.027 C 
BRANCH  13  14
ATOM     14  C   UNL     1     127.962 126.589 123.351  1.00  0.00     0.004 C 
BRANCH  14  15
ATOM     15  C   UNL     1     127.712 127.087 121.919  1.00  0.00     0.000 C 
BRANCH  15  16
ATOM     16  C   UNL     1     127.898 128.608 121.780  1.00  0.00    -0.000 C 
BRANCH  16  17
ATOM     17  C   UNL     1     126.573 129.377 121.898  1.00  0.00    -0.003 C 
ATOM     18  C   UNL     1     125.385 128.466 122.209  1.00  0.00     0.004 C 
ENDBRANCH  16  17
ENDBRANCH  15  16
ENDBRANCH  14  15
ENDBRANCH  13  14
ENDBRANCH  12  13
ENDBRANCH  10  11
ENDBRANCH   1  10
TORSDOF 13
ENDMDL
MODEL 7
REMARK VINA RESULT:    -5.290      3.440      6.751
REMARK INTER + INTRA:         -10.970
REMARK INTER:                  -9.871
REMARK INTRA:                  -1.099
REMARK UNBOUND:                -1.660
REMARK SMILES CCCCCCC=CCCCCCCCC(=O)[O-]
REMARK SMILES IDX 10 1 11 2 12 3 13 4 14 5 15 6 16 7 17 8 18 9 9 10 8 11 7 12
REMARK SMILES IDX 6 13 5 14 4 15 3 16 2 17 1 18
REMARK H PARENT
REMARK Flexibility Score: inf
ROOT
ATOM      1  C   UNL     1     128.291 125.249 128.145  1.00  0.00     0.004 C 
ENDROOT
BRANCH   1   2
ATOM      2  C   UNL     1     128.832 124.001 127.423  1.00  0.00     0.000 C 
BRANCH   2   3
ATOM      3  C   UNL     1     130.290 124.110 126.942  1.00  0.00     0.000 C 
BRANCH   3   4
ATOM      4  C   UNL     1     130.955 125.438 127.340  1.00  0.00     0.000 C 
BRANCH   4   5
ATOM      5  C   UNL     1     131.606 126.154 126.144  1.00  0.00     0.006 C 
BRANCH   5   6
ATOM      6  C   UNL     1     130.812 125.974 124.843  1.00  0.00     0.053 C 
BRANCH   6   7
ATOM      7  C   UNL     1     129.637 126.899 124.818  1.00  0.00     0.041 C 
ATOM      8  O   UNL     1     129.769 128.101 125.167  1.00  0.00    -0.550 OA
ATOM      9  O   UNL     1     128.406 126.446 124.359  1.00  0.00    -0.550 OA
ENDBRANCH   6   7
ENDBRANCH   5   6
ENDBRANCH   4   5
ENDBRANCH   3   4
ENDBRANCH   2   3
ENDBRANCH   1   2
BRANCH   1  10
ATOM     10  C   UNL     1     127.416 124.904 129.359  1.00  0.00     0.027 C 
BRANCH  10  11
ATOM     11  C   UNL     1     126.283 123.993 128.960  1.00  0.00    -0.031 C 
ATOM     12  C   UNL     1     124.987 124.356 128.935  1.00  0.00    -0.031 C 
BRANCH  12  13
ATOM     13  C   UNL     1     124.468 125.700 129.381  1.00  0.00     0.027 C 
BRANCH  13  14
ATOM     14  C   UNL     1     123.175 126.057 128.632  1.00  0.00     0.004 C 
BRANCH  14  15
ATOM     15  C   UNL     1     122.365 127.155 129.339  1.00  0.00     0.000 C 
BRANCH  15  16
ATOM     16  C   UNL     1     123.219 127.991 130.306  1.00  0.00    -0.000 C 
BRANCH  16  17
ATOM     17  C   UNL     1     122.730 127.894 131.759  1.00  0.00    -0.003 C 
ATOM     18  C   UNL     1     121.418 127.120 131.893  1.00  0.00     0.004 C 
ENDBRANCH  16  17
ENDBRANCH  15  16
ENDBRANCH  14  15
ENDBRANCH  13  14
ENDBRANCH  12  13
ENDBRANCH  10  11
ENDBRANCH   1  10
TORSDOF 13
ENDMDL
MODEL 8
REMARK VINA RESULT:    -5.059      3.276      5.800
REMARK INTER + INTRA:         -10.564
REMARK INTER:                  -9.407
REMARK INTRA:                  -1.157
REMARK UNBOUND:                -1.660
REMARK SMILES CCCCCCC=CCCCCCCCC(=O)[O-]
REMARK SMILES IDX 10 1 11 2 12 3 13 4 14 5 15 6 16 7 17 8 18 9 9 10 8 11 7 12
REMARK SMILES IDX 6 13 5 14 4 15 3 16 2 17 1 18
REMARK H PARENT
REMARK Flexibility Score: inf
ROOT
ATOM      1  C   UNL     1     125.173 124.547 129.253  1.00  0.00     0.004 C 
ENDROOT
BRANCH   1   2
ATOM      2  C   UNL     1     125.021 126.078 129.189  1.00  0.00     0.000 C 
BRANCH   2   3
ATOM      3  C   UNL     1     123.569 126.588 129.209  1.00  0.00     0.000 C 
BRANCH   3   4
ATOM      4  C   UNL     1     123.420 127.944 129.920  1.00  0.00     0.000 C 
BRANCH   4   5
ATOM      5  C   UNL     1     122.672 127.831 131.258  1.00  0.00     0.006 C 
BRANCH   5   6
ATOM      6  C   UNL     1     122.209 126.399 131.557  1.00  0.00     0.053 C 
BRANCH   6   7
ATOM      7  C   UNL     1     120.723 126.357 131.730  1.00  0.00     0.041 C 
ATOM      8  O   UNL     1     120.218 126.387 132.883  1.00  0.00    -0.550 OA
ATOM      9  O   UNL     1     119.894 126.336 130.615  1.00  0.00    -0.550 OA
ENDBRANCH   6   7
ENDBRANCH   5   6
ENDBRANCH   4   5
ENDBRANCH   3   4
ENDBRANCH   2   3
ENDBRANCH   1   2
BRANCH   1  10
ATOM     10  C   UNL     1     126.640 124.092 129.254  1.00  0.00     0.027 C 
BRANCH  10  11
ATOM     11  C   UNL     1     127.554 125.232 128.881  1.00  0.00    -0.031 C 
ATOM     12  C   UNL     1     128.569 125.137 128.001  1.00  0.00    -0.031 C 
BRANCH  12  13
ATOM     13  C   UNL     1     128.994 123.860 127.323  1.00  0.00     0.027 C 
BRANCH  13  14
ATOM     14  C   UNL     1     130.474 123.927 126.919  1.00  0.00     0.004 C 
BRANCH  14  15
ATOM     15  C   UNL     1     131.055 125.346 127.031  1.00  0.00     0.000 C 
BRANCH  15  16
ATOM     16  C   UNL     1     131.476 125.922 125.669  1.00  0.00    -0.000 C 
BRANCH  16  17
ATOM     17  C   UNL     1     130.275 126.373 124.823  1.00  0.00    -0.003 C 
ATOM     18  C   UNL     1     129.603 127.632 125.372  1.00  0.00     0.004 C 
ENDBRANCH  16  17
ENDBRANCH  15  16
ENDBRANCH  14  15
ENDBRANCH  13  14
ENDBRANCH  12  13
ENDBRANCH  10  11
ENDBRANCH   1  10
TORSDOF 13
ENDMDL
MODEL 9
REMARK VINA RESULT:    -4.994      3.477      7.013
REMARK INTER + INTRA:         -10.450
REMARK INTER:                  -9.747
REMARK INTRA:                  -0.703
REMARK UNBOUND:                -1.660
REMARK SMILES CCCCCCC=CCCCCCCCC(=O)[O-]
REMARK SMILES IDX 10 1 11 2 12 3 13 4 14 5 15 6 16 7 17 8 18 9 9 10 8 11 7 12
REMARK SMILES IDX 6 13 5 14 4 15 3 16 2 17 1 18
REMARK H PARENT
REMARK Flexibility Score: inf
ROOT
ATOM      1  C   UNL     1     128.974 125.918 126.423  1.00  0.00     0.004 C 
ENDROOT
BRANCH   1   2
ATOM      2  C   UNL     1     128.654 127.358 125.983  1.00  0.00     0.000 C 
BRANCH   2   3
ATOM      3  C   UNL     1     129.225 127.761 124.611  1.00  0.00     0.000 C 
BRANCH   3   4
ATOM      4  C   UNL     1     128.910 126.737 123.507  1.00  0.00     0.000 C 
BRANCH   4   5
ATOM      5  C   UNL     1     127.682 127.131 122.671  1.00  0.00     0.006 C 
BRANCH   5   6
ATOM      6  C   UNL     1     127.625 128.636 122.375  1.00  0.00     0.053 C 
BRANCH   6   7
ATOM      7  C   UNL     1     126.220 129.056 122.078  1.00  0.00     0.041 C 
ATOM      8  O   UNL     1     125.974 130.238 121.724  1.00  0.00    -0.550 OA
ATOM      9  O   UNL     1     125.188 128.127 122.143  1.00  0.00    -0.550 OA
ENDBRANCH   6   7
ENDBRANCH   5   6
ENDBRANCH   4   5
ENDBRANCH   3   4
ENDBRANCH   2   3
ENDBRANCH   1   2
BRANCH   1  10
ATOM     10  C   UNL     1     128.624 125.652 127.894  1.00  0.00     0.027 C 
BRANCH  10  11
ATOM     11  C   UNL     1     128.297 124.196 128.112  1.00  0.00    -0.031 C 
ATOM     12  C   UNL     1     127.299 123.750 128.898  1.00  0.00    -0.031 C 
BRANCH  12  13
ATOM     13  C   UNL     1     126.415 124.633 129.740  1.00  0.00     0.027 C 
BRANCH  13  14
ATOM     14  C   UNL     1     125.027 124.781 129.098  1.00  0.00     0.004 C 
BRANCH  14  15
ATOM     15  C   UNL     1     124.436 126.188 129.282  1.00  0.00     0.000 C 
BRANCH  15  16
ATOM     16  C   UNL     1     123.363 126.240 130.382  1.00  0.00    -0.000 C 
BRANCH  16  17
ATOM     17  C   UNL     1     122.853 127.666 130.640  1.00  0.00    -0.003 C 
ATOM     18  C   UNL     1     122.858 128.038 132.123  1.00  0.00     0.004 C 
ENDBRANCH  16  17
ENDBRANCH  15  16
ENDBRANCH  14  15
ENDBRANCH  13  14
ENDBRANCH  12  13
ENDBRANCH  10  11
ENDBRANCH   1  10
TORSDOF 13
ENDMDL
