MODEL 1
REMARK VINA RESULT:    -3.558      0.000      0.000
REMARK INTER + INTRA:          -5.051
REMARK INTER:                  -4.806
REMARK INTRA:                  -0.245
REMARK UNBOUND:                -0.245
REMARK SMILES CCCCCCCC(C)=O
REMARK SMILES IDX 5 1 4 2 3 3 2 4 1 5 6 6 7 7 8 8 10 9 9 10
REMARK H PARENT
REMARK Flexibility Score: inf
ROOT
ATOM      1  C   UNL     1     164.535 169.323 168.943  1.00  0.00     0.000 C 
ENDROOT
BRANCH   1   2
ATOM      2  C   UNL     1     164.867 168.507 167.687  1.00  0.00     0.000 C 
BRANCH   2   3
ATOM      3  C   UNL     1     165.199 167.054 168.047  1.00  0.00    -0.000 C 
BRANCH   3   4
ATOM      4  C   UNL     1     166.178 166.448 167.035  1.00  0.00    -0.003 C 
ATOM      5  C   UNL     1     167.524 166.140 167.685  1.00  0.00     0.004 C 
ENDBRANCH   3   4
ENDBRANCH   2   3
ENDBRANCH   1   2
BRANCH   1   6
ATOM      6  C   UNL     1     163.925 170.680 168.573  1.00  0.00     0.008 C 
BRANCH   6   7
ATOM      7  C   UNL     1     164.516 171.209 167.261  1.00  0.00     0.075 C 
BRANCH   7   8
ATOM      8  C   UNL     1     165.189 172.536 167.476  1.00  0.00     0.129 C 
ATOM      9  O   UNL     1     165.371 172.948 168.613  1.00  0.00    -0.300 OA
ATOM     10  C   UNL     1     165.660 173.348 166.307  1.00  0.00     0.087 C 
ENDBRANCH   7   8
ENDBRANCH   6   7
ENDBRANCH   1   6
TORSDOF 6
ENDMDL
MODEL 2
REMARK VINA RESULT:    -3.545      6.839     10.045
REMARK INTER + INTRA:          -5.034
REMARK INTER:                  -4.820
REMARK INTRA:                  -0.214
REMARK UNBOUND:                -0.245
REMARK SMILES CCCCCCCC(C)=O
REMARK SMILES IDX 5 1 4 2 3 3 2 4 1 5 6 6 7 7 8 8 10 9 9 10
REMARK H PARENT
REMARK Flexibility Score: inf
ROOT
ATOM      1  C   UNL     1     166.702 161.816 168.842  1.00  0.00     0.000 C 
ENDROOT
BRANCH   1   2
ATOM      2  C   UNL     1     166.355 162.770 167.691  1.00  0.00     0.000 C 
BRANCH   2   3
ATOM      3  C   UNL     1     166.024 164.171 168.218  1.00  0.00    -0.000 C 
BRANCH   3   4
ATOM      4  C   UNL     1     166.593 165.253 167.295  1.00  0.00    -0.003 C 
ATOM      5  C   UNL     1     167.642 166.097 168.013  1.00  0.00     0.004 C 
ENDBRANCH   3   4
ENDBRANCH   2   3
ENDBRANCH   1   2
BRANCH   1   6
ATOM      6  C   UNL     1     167.273 160.496 168.310  1.00  0.00     0.008 C 
BRANCH   6   7
ATOM      7  C   UNL     1     166.453 159.982 167.122  1.00  0.00     0.075 C 
BRANCH   7   8
ATOM      8  C   UNL     1     165.934 158.597 167.391  1.00  0.00     0.129 C 
ATOM      9  O   UNL     1     165.824 158.203 168.544  1.00  0.00    -0.300 OA
ATOM     10  C   UNL     1     165.528 157.704 166.258  1.00  0.00     0.087 C 
ENDBRANCH   7   8
ENDBRANCH   6   7
ENDBRANCH   1   6
TORSDOF 6
ENDMDL
MODEL 3
REMARK VINA RESULT:    -3.530      6.017      7.186
REMARK INTER + INTRA:          -5.014
REMARK INTER:                  -4.842
REMARK INTRA:                  -0.171
REMARK UNBOUND:                -0.245
REMARK SMILES CCCCCCCC(C)=O
REMARK SMILES IDX 5 1 4 2 3 3 2 4 1 5 6 6 7 7 8 8 10 9 9 10
REMARK H PARENT
REMARK Flexibility Score: inf
ROOT
ATOM      1  C   UNL     1     162.226 164.557 168.444  1.00  0.00     0.000 C 
ENDROOT
BRANCH   1   2
ATOM      2  C   UNL     1     163.484 165.162 167.808  1.00  0.00     0.000 C 
BRANCH   2   3
ATOM      3  C   UNL     1     164.752 164.646 168.499  1.00  0.00    -0.000 C 
BRANCH   3   4
ATOM      4  C   UNL     1     165.730 164.053 167.480  1.00  0.00    -0.003 C 
ATOM      5  C   UNL     1     166.353 162.760 167.999  1.00  0.00     0.004 C 
ENDBRANCH   3   4
ENDBRANCH   2   3
ENDBRANCH   1   2
BRANCH   1   6
ATOM      6  C   UNL     1     161.081 164.473 167.427  1.00  0.00     0.008 C 
BRANCH   6   7
ATOM      7  C   UNL     1     159.799 163.953 168.085  1.00  0.00     0.075 C 
BRANCH   7   8
ATOM      8  C   UNL     1     158.692 164.965 167.971  1.00  0.00     0.129 C 
ATOM      9  O   UNL     1     158.173 165.414 168.983  1.00  0.00    -0.300 OA
ATOM     10  C   UNL     1     158.237 165.444 166.626  1.00  0.00     0.087 C 
ENDBRANCH   7   8
ENDBRANCH   6   7
ENDBRANCH   1   6
TORSDOF 6
ENDMDL
MODEL 4
REMARK VINA RESULT:    -3.526      5.468      7.127
REMARK INTER + INTRA:          -5.007
REMARK INTER:                  -4.648
REMARK INTRA:                  -0.359
REMARK UNBOUND:                -0.245
REMARK SMILES CCCCCCCC(C)=O
REMARK SMILES IDX 5 1 4 2 3 3 2 4 1 5 6 6 7 7 8 8 10 9 9 10
REMARK H PARENT
REMARK Flexibility Score: inf
ROOT
ATOM      1  C   UNL     1     169.008 166.455 166.695  1.00  0.00     0.000 C 
ENDROOT
BRANCH   1   2
ATOM      2  C   UNL     1     168.565 166.400 168.163  1.00  0.00     0.000 C 
BRANCH   2   3
ATOM      3  C   UNL     1     167.038 166.315 168.273  1.00  0.00    -0.000 C 
BRANCH   3   4
ATOM      4  C   UNL     1     166.450 165.484 167.128  1.00  0.00    -0.003 C 
ATOM      5  C   UNL     1     166.199 164.043 167.564  1.00  0.00     0.004 C 
ENDBRANCH   3   4
ENDBRANCH   2   3
ENDBRANCH   1   2
BRANCH   1   6
ATOM      6  C   UNL     1     170.502 166.784 166.583  1.00  0.00     0.008 C 
BRANCH   6   7
ATOM      7  C   UNL     1     171.161 166.823 167.966  1.00  0.00     0.075 C 
BRANCH   7   8
ATOM      8  C   UNL     1     172.476 166.093 167.951  1.00  0.00     0.129 C 
ATOM      9  O   UNL     1     173.032 165.822 169.006  1.00  0.00    -0.300 OA
ATOM     10  C   UNL     1     173.098 165.673 166.654  1.00  0.00     0.087 C 
ENDBRANCH   7   8
ENDBRANCH   6   7
ENDBRANCH   1   6
TORSDOF 6
ENDMDL
MODEL 5
REMARK VINA RESULT:    -3.507      1.281      1.788
REMARK INTER + INTRA:          -4.983
REMARK INTER:                  -4.802
REMARK INTRA:                  -0.181
REMARK UNBOUND:                -0.245
REMARK SMILES CCCCCCCC(C)=O
REMARK SMILES IDX 5 1 4 2 3 3 2 4 1 5 6 6 7 7 8 8 10 9 9 10
REMARK H PARENT
REMARK Flexibility Score: inf
ROOT
ATOM      1  C   UNL     1     164.547 169.205 168.149  1.00  0.00     0.000 C 
ENDROOT
BRANCH   1   2
ATOM      2  C   UNL     1     165.102 167.953 167.457  1.00  0.00     0.000 C 
BRANCH   2   3
ATOM      3  C   UNL     1     164.812 166.694 168.282  1.00  0.00    -0.000 C 
BRANCH   3   4
ATOM      4  C   UNL     1     164.139 165.618 167.423  1.00  0.00    -0.003 C 
ATOM      5  C   UNL     1     163.038 164.901 168.200  1.00  0.00     0.004 C 
ENDBRANCH   3   4
ENDBRANCH   2   3
ENDBRANCH   1   2
BRANCH   1   6
ATOM      6  C   UNL     1     164.341 170.344 167.144  1.00  0.00     0.008 C 
BRANCH   6   7
ATOM      7  C   UNL     1     163.914 171.633 167.854  1.00  0.00     0.075 C 
BRANCH   7   8
ATOM      8  C   UNL     1     165.031 172.639 167.853  1.00  0.00     0.129 C 
ATOM      9  O   UNL     1     165.469 173.062 168.914  1.00  0.00    -0.300 OA
ATOM     10  C   UNL     1     165.629 173.111 166.562  1.00  0.00     0.087 C 
ENDBRANCH   7   8
ENDBRANCH   6   7
ENDBRANCH   1   6
TORSDOF 6
ENDMDL
MODEL 6
REMARK VINA RESULT:    -3.497      5.768      7.207
REMARK INTER + INTRA:          -4.969
REMARK INTER:                  -4.714
REMARK INTRA:                  -0.255
REMARK UNBOUND:                -0.245
REMARK SMILES CCCCCCCC(C)=O
REMARK SMILES IDX 5 1 4 2 3 3 2 4 1 5 6 6 7 7 8 8 10 9 9 10
REMARK H PARENT
REMARK Flexibility Score: inf
ROOT
ATOM      1  C   UNL     1     161.815 164.432 169.064  1.00  0.00     0.000 C 
ENDROOT
BRANCH   1   2
ATOM      2  C   UNL     1     162.470 164.776 167.721  1.00  0.00     0.000 C 
BRANCH   2   3
ATOM      3  C   UNL     1     163.913 165.257 167.919  1.00  0.00    -0.000 C 
BRANCH   3   4
ATOM      4  C   UNL     1     164.621 165.437 166.572  1.00  0.00    -0.003 C 
ATOM      5  C   UNL     1     165.748 164.422 166.401  1.00  0.00     0.004 C 
ENDBRANCH   3   4
ENDBRANCH   2   3
ENDBRANCH   1   2
BRANCH   1   6
ATOM      6  C   UNL     1     160.373 163.950 168.866  1.00  0.00     0.008 C 
BRANCH   6   7
ATOM      7  C   UNL     1     159.862 164.307 167.467  1.00  0.00     0.075 C 
BRANCH   7   8
ATOM      8  C   UNL     1     158.619 165.149 167.551  1.00  0.00     0.129 C 
ATOM      9  O   UNL     1     158.146 165.426 168.644  1.00  0.00    -0.300 OA
ATOM     10  C   UNL     1     157.967 165.669 166.306  1.00  0.00     0.087 C 
ENDBRANCH   7   8
ENDBRANCH   6   7
ENDBRANCH   1   6
TORSDOF 6
ENDMDL
MODEL 7
REMARK VINA RESULT:    -3.469      6.899      9.852
REMARK INTER + INTRA:          -4.931
REMARK INTER:                  -4.596
REMARK INTRA:                  -0.335
REMARK UNBOUND:                -0.245
REMARK SMILES CCCCCCCC(C)=O
REMARK SMILES IDX 5 1 4 2 3 3 2 4 1 5 6 6 7 7 8 8 10 9 9 10
REMARK H PARENT
REMARK Flexibility Score: inf
ROOT
ATOM      1  C   UNL     1     166.474 162.171 169.031  1.00  0.00     0.000 C 
ENDROOT
BRANCH   1   2
ATOM      2  C   UNL     1     166.370 163.648 168.629  1.00  0.00     0.000 C 
BRANCH   2   3
ATOM      3  C   UNL     1     166.016 163.791 167.143  1.00  0.00    -0.000 C 
BRANCH   3   4
ATOM      4  C   UNL     1     164.921 164.842 166.939  1.00  0.00    -0.003 C 
ATOM      5  C   UNL     1     163.987 164.909 168.145  1.00  0.00     0.004 C 
ENDBRANCH   3   4
ENDBRANCH   2   3
ENDBRANCH   1   2
BRANCH   1   6
ATOM      6  C   UNL     1     166.768 161.289 167.812  1.00  0.00     0.008 C 
BRANCH   6   7
ATOM      7  C   UNL     1     167.320 159.925 168.242  1.00  0.00     0.075 C 
BRANCH   7   8
ATOM      8  C   UNL     1     166.287 158.849 168.057  1.00  0.00     0.129 C 
ATOM      9  O   UNL     1     165.840 158.262 169.032  1.00  0.00    -0.300 OA
ATOM     10  C   UNL     1     165.783 158.505 166.688  1.00  0.00     0.087 C 
ENDBRANCH   7   8
ENDBRANCH   6   7
ENDBRANCH   1   6
TORSDOF 6
ENDMDL
MODEL 8
REMARK VINA RESULT:    -3.337      5.735      6.978
REMARK INTER + INTRA:          -4.752
REMARK INTER:                  -4.514
REMARK INTRA:                  -0.239
REMARK UNBOUND:                -0.245
REMARK SMILES CCCCCCCC(C)=O
REMARK SMILES IDX 5 1 4 2 3 3 2 4 1 5 6 6 7 7 8 8 10 9 9 10
REMARK H PARENT
REMARK Flexibility Score: inf
ROOT
ATOM      1  C   UNL     1     168.733 166.411 167.219  1.00  0.00     0.000 C 
ENDROOT
BRANCH   1   2
ATOM      2  C   UNL     1     167.419 166.002 167.897  1.00  0.00     0.000 C 
BRANCH   2   3
ATOM      3  C   UNL     1     166.373 165.578 166.859  1.00  0.00    -0.000 C 
BRANCH   3   4
ATOM      4  C   UNL     1     166.037 164.089 166.996  1.00  0.00    -0.003 C 
ATOM      5  C   UNL     1     166.247 163.605 168.428  1.00  0.00     0.004 C 
ENDBRANCH   3   4
ENDBRANCH   2   3
ENDBRANCH   1   2
BRANCH   1   6
ATOM      6  C   UNL     1     169.800 166.772 168.260  1.00  0.00     0.008 C 
BRANCH   6   7
ATOM      7  C   UNL     1     171.182 166.897 167.609  1.00  0.00     0.075 C 
BRANCH   7   8
ATOM      8  C   UNL     1     172.220 166.165 168.415  1.00  0.00     0.129 C 
ATOM      9  O   UNL     1     173.148 165.609 167.847  1.00  0.00    -0.300 OA
ATOM     10  C   UNL     1     172.136 166.133 169.911  1.00  0.00     0.087 C 
ENDBRANCH   7   8
ENDBRANCH   6   7
ENDBRANCH   1   6
TORSDOF 6
ENDMDL
MODEL 9
REMARK VINA RESULT:    -3.209      5.678      6.817
REMARK INTER + INTRA:          -4.580
REMARK INTER:                  -4.187
REMARK INTRA:                  -0.393
REMARK UNBOUND:                -0.245
REMARK SMILES CCCCCCCC(C)=O
REMARK SMILES IDX 5 1 4 2 3 3 2 4 1 5 6 6 7 7 8 8 10 9 9 10
REMARK H PARENT
REMARK Flexibility Score: inf
ROOT
ATOM      1  C   UNL     1     169.029 166.610 170.383  1.00  0.00     0.000 C 
ENDROOT
BRANCH   1   2
ATOM      2  C   UNL     1     167.783 166.097 169.648  1.00  0.00     0.000 C 
BRANCH   2   3
ATOM      3  C   UNL     1     167.932 166.262 168.131  1.00  0.00    -0.000 C 
BRANCH   3   4
ATOM      4  C   UNL     1     166.703 165.716 167.397  1.00  0.00    -0.003 C 
ATOM      5  C   UNL     1     166.808 165.954 165.893  1.00  0.00     0.004 C 
ENDBRANCH   3   4
ENDBRANCH   2   3
ENDBRANCH   1   2
BRANCH   1   6
ATOM      6  C   UNL     1     170.047 167.194 169.396  1.00  0.00     0.008 C 
BRANCH   6   7
ATOM      7  C   UNL     1     171.417 166.528 169.564  1.00  0.00     0.075 C 
BRANCH   7   8
ATOM      8  C   UNL     1     172.023 166.210 168.225  1.00  0.00     0.129 C 
ATOM      9  O   UNL     1     173.110 165.652 168.167  1.00  0.00    -0.300 OA
ATOM     10  C   UNL     1     171.294 166.549 166.960  1.00  0.00     0.087 C 
ENDBRANCH   7   8
ENDBRANCH   6   7
ENDBRANCH   1   6
TORSDOF 6
ENDMDL
