MODEL 1
REMARK VINA RESULT:    -4.059      0.000      0.000
REMARK INTER + INTRA:          -7.531
REMARK INTER:                  -6.194
REMARK INTRA:                  -1.338
REMARK UNBOUND:                -1.338
REMARK SMILES CCCCCCCCCCC(=O)[O-]
REMARK SMILES IDX 7 1 8 2 9 3 10 4 11 5 12 6 13 7 6 8 5 9 4 10 3 11 2 12 1 13
REMARK H PARENT
REMARK Flexibility Score: inf
ROOT
ATOM      1  C   UNL     1      -8.289 -26.658  28.355  1.00  0.00     0.000 C 
ENDROOT
BRANCH   1   2
ATOM      2  C   UNL     1      -9.660 -27.353  28.433  1.00  0.00     0.000 C 
BRANCH   2   3
ATOM      3  C   UNL     1     -10.839 -26.377  28.274  1.00  0.00     0.006 C 
BRANCH   3   4
ATOM      4  C   UNL     1     -10.370 -24.933  28.049  1.00  0.00     0.053 C 
BRANCH   4   5
ATOM      5  C   UNL     1     -10.692 -24.452  26.668  1.00  0.00     0.041 C 
ATOM      6  O   UNL     1     -10.866 -25.277  25.733  1.00  0.00    -0.550 OA
ATOM      7  O   UNL     1     -10.773 -23.089  26.407  1.00  0.00    -0.550 OA
ENDBRANCH   4   5
ENDBRANCH   3   4
ENDBRANCH   2   3
ENDBRANCH   1   2
BRANCH   1   8
ATOM      8  C   UNL     1      -7.209 -27.227  29.294  1.00  0.00     0.000 C 
BRANCH   8   9
ATOM      9  C   UNL     1      -7.299 -26.666  30.722  1.00  0.00    -0.000 C 
BRANCH   9  10
ATOM     10  C   UNL     1      -7.786 -25.206  30.763  1.00  0.00    -0.000 C 
BRANCH  10  11
ATOM     11  C   UNL     1      -9.098 -24.969  31.539  1.00  0.00    -0.000 C 
BRANCH  11  12
ATOM     12  C   UNL     1      -9.686 -26.217  32.218  1.00  0.00    -0.003 C 
ATOM     13  C   UNL     1     -11.193 -26.358  32.003  1.00  0.00     0.004 C 
ENDBRANCH  11  12
ENDBRANCH  10  11
ENDBRANCH   9  10
ENDBRANCH   8   9
ENDBRANCH   1   8
TORSDOF 9
ENDMDL
MODEL 2
REMARK VINA RESULT:    -3.974      3.035      5.011
REMARK INTER + INTRA:          -7.402
REMARK INTER:                  -6.174
REMARK INTRA:                  -1.228
REMARK UNBOUND:                -1.338
REMARK SMILES CCCCCCCCCCC(=O)[O-]
REMARK SMILES IDX 7 1 8 2 9 3 10 4 11 5 12 6 13 7 6 8 5 9 4 10 3 11 2 12 1 13
REMARK H PARENT
REMARK Flexibility Score: inf
ROOT
ATOM      1  C   UNL     1      -9.757 -26.865  31.940  1.00  0.00     0.000 C 
ENDROOT
BRANCH   1   2
ATOM      2  C   UNL     1      -8.868 -27.947  31.300  1.00  0.00     0.000 C 
BRANCH   2   3
ATOM      3  C   UNL     1      -7.379 -27.561  31.269  1.00  0.00     0.006 C 
BRANCH   3   4
ATOM      4  C   UNL     1      -7.040 -26.477  32.301  1.00  0.00     0.053 C 
BRANCH   4   5
ATOM      5  C   UNL     1      -6.451 -25.260  31.656  1.00  0.00     0.041 C 
ATOM      6  O   UNL     1      -7.096 -24.179  31.633  1.00  0.00    -0.550 OA
ATOM      7  O   UNL     1      -5.200 -25.328  31.055  1.00  0.00    -0.550 OA
ENDBRANCH   4   5
ENDBRANCH   3   4
ENDBRANCH   2   3
ENDBRANCH   1   2
BRANCH   1   8
ATOM      8  C   UNL     1     -10.716 -26.146  30.974  1.00  0.00     0.000 C 
BRANCH   8   9
ATOM      9  C   UNL     1     -10.007 -25.110  30.085  1.00  0.00    -0.000 C 
BRANCH   9  10
ATOM     10  C   UNL     1     -10.116 -25.434  28.584  1.00  0.00    -0.000 C 
BRANCH  10  11
ATOM     11  C   UNL     1      -8.920 -26.204  27.986  1.00  0.00    -0.000 C 
BRANCH  11  12
ATOM     12  C   UNL     1      -9.255 -27.602  27.440  1.00  0.00    -0.003 C 
ATOM     13  C   UNL     1     -10.677 -28.049  27.776  1.00  0.00     0.004 C 
ENDBRANCH  11  12
ENDBRANCH  10  11
ENDBRANCH   9  10
ENDBRANCH   8   9
ENDBRANCH   1   8
TORSDOF 9
ENDMDL
MODEL 3
REMARK VINA RESULT:    -3.964      2.978      5.283
REMARK INTER + INTRA:          -7.387
REMARK INTER:                  -6.571
REMARK INTRA:                  -0.817
REMARK UNBOUND:                -1.338
REMARK SMILES CCCCCCCCCCC(=O)[O-]
REMARK SMILES IDX 7 1 8 2 9 3 10 4 11 5 12 6 13 7 6 8 5 9 4 10 3 11 2 12 1 13
REMARK H PARENT
REMARK Flexibility Score: inf
ROOT
ATOM      1  C   UNL     1      -9.763 -27.247  28.980  1.00  0.00     0.000 C 
ENDROOT
BRANCH   1   2
ATOM      2  C   UNL     1     -10.542 -26.148  29.726  1.00  0.00     0.000 C 
BRANCH   2   3
ATOM      3  C   UNL     1      -9.663 -24.949  30.120  1.00  0.00     0.006 C 
BRANCH   3   4
ATOM      4  C   UNL     1      -9.268 -24.982  31.603  1.00  0.00     0.053 C 
BRANCH   4   5
ATOM      5  C   UNL     1      -7.784 -25.075  31.782  1.00  0.00     0.041 C 
ATOM      6  O   UNL     1      -7.232 -24.557  32.789  1.00  0.00    -0.550 OA
ATOM      7  O   UNL     1      -7.006 -25.711  30.822  1.00  0.00    -0.550 OA
ENDBRANCH   4   5
ENDBRANCH   3   4
ENDBRANCH   2   3
ENDBRANCH   1   2
BRANCH   1   8
ATOM      8  C   UNL     1      -9.615 -27.034  27.463  1.00  0.00     0.000 C 
BRANCH   8   9
ATOM      9  C   UNL     1     -10.965 -26.858  26.747  1.00  0.00    -0.000 C 
BRANCH   9  10
ATOM     10  C   UNL     1     -11.073 -25.520  25.993  1.00  0.00    -0.000 C 
BRANCH  10  11
ATOM     11  C   UNL     1     -10.153 -24.395  26.509  1.00  0.00    -0.000 C 
BRANCH  11  12
ATOM     12  C   UNL     1     -10.835 -23.029  26.694  1.00  0.00    -0.003 C 
ATOM     13  C   UNL     1     -11.799 -22.685  25.558  1.00  0.00     0.004 C 
ENDBRANCH  11  12
ENDBRANCH  10  11
ENDBRANCH   9  10
ENDBRANCH   8   9
ENDBRANCH   1   8
TORSDOF 9
ENDMDL
MODEL 4
REMARK VINA RESULT:    -3.914      3.278      5.215
REMARK INTER + INTRA:          -7.311
REMARK INTER:                  -6.381
REMARK INTRA:                  -0.930
REMARK UNBOUND:                -1.338
REMARK SMILES CCCCCCCCCCC(=O)[O-]
REMARK SMILES IDX 7 1 8 2 9 3 10 4 11 5 12 6 13 7 6 8 5 9 4 10 3 11 2 12 1 13
REMARK H PARENT
REMARK Flexibility Score: inf
ROOT
ATOM      1  C   UNL     1     -10.164 -26.005  30.541  1.00  0.00     0.000 C 
ENDROOT
BRANCH   1   2
ATOM      2  C   UNL     1      -9.607 -25.362  31.824  1.00  0.00     0.000 C 
BRANCH   2   3
ATOM      3  C   UNL     1      -8.534 -24.295  31.546  1.00  0.00     0.006 C 
BRANCH   3   4
ATOM      4  C   UNL     1      -7.199 -24.623  32.228  1.00  0.00     0.053 C 
BRANCH   4   5
ATOM      5  C   UNL     1      -6.728 -26.005  31.893  1.00  0.00     0.041 C 
ATOM      6  O   UNL     1      -6.593 -26.868  32.800  1.00  0.00    -0.550 OA
ATOM      7  O   UNL     1      -6.410 -26.331  30.580  1.00  0.00    -0.550 OA
ENDBRANCH   4   5
ENDBRANCH   3   4
ENDBRANCH   2   3
ENDBRANCH   1   2
BRANCH   1   8
ATOM      8  C   UNL     1     -10.009 -25.161  29.262  1.00  0.00     0.000 C 
BRANCH   8   9
ATOM      9  C   UNL     1      -9.028 -25.778  28.251  1.00  0.00    -0.000 C 
BRANCH   9  10
ATOM     10  C   UNL     1      -9.087 -27.316  28.221  1.00  0.00    -0.000 C 
BRANCH  10  11
ATOM     11  C   UNL     1      -9.714 -27.928  26.952  1.00  0.00    -0.000 C 
BRANCH  11  12
ATOM     12  C   UNL     1     -11.016 -28.713  27.184  1.00  0.00    -0.003 C 
ATOM     13  C   UNL     1     -12.096 -27.885  27.881  1.00  0.00     0.004 C 
ENDBRANCH  11  12
ENDBRANCH  10  11
ENDBRANCH   9  10
ENDBRANCH   8   9
ENDBRANCH   1   8
TORSDOF 9
ENDMDL
MODEL 5
REMARK VINA RESULT:    -3.887      0.896      2.472
REMARK INTER + INTRA:          -7.269
REMARK INTER:                  -6.068
REMARK INTRA:                  -1.201
REMARK UNBOUND:                -1.338
REMARK SMILES CCCCCCCCCCC(=O)[O-]
REMARK SMILES IDX 7 1 8 2 9 3 10 4 11 5 12 6 13 7 6 8 5 9 4 10 3 11 2 12 1 13
REMARK H PARENT
REMARK Flexibility Score: inf
ROOT
ATOM      1  C   UNL     1     -10.716 -26.202  30.294  1.00  0.00     0.000 C 
ENDROOT
BRANCH   1   2
ATOM      2  C   UNL     1     -10.104 -27.244  29.339  1.00  0.00     0.000 C 
BRANCH   2   3
ATOM      3  C   UNL     1      -9.609 -26.631  28.017  1.00  0.00     0.006 C 
BRANCH   3   4
ATOM      4  C   UNL     1      -9.828 -25.113  27.965  1.00  0.00     0.053 C 
BRANCH   4   5
ATOM      5  C   UNL     1     -10.426 -24.681  26.661  1.00  0.00     0.041 C 
ATOM      6  O   UNL     1     -10.795 -25.539  25.817  1.00  0.00    -0.550 OA
ATOM      7  O   UNL     1     -10.551 -23.329  26.367  1.00  0.00    -0.550 OA
ENDBRANCH   4   5
ENDBRANCH   3   4
ENDBRANCH   2   3
ENDBRANCH   1   2
BRANCH   1   8
ATOM      8  C   UNL     1     -10.557 -26.512  31.794  1.00  0.00     0.000 C 
BRANCH   8   9
ATOM      9  C   UNL     1      -9.607 -25.538  32.510  1.00  0.00    -0.000 C 
BRANCH   9  10
ATOM     10  C   UNL     1      -8.858 -24.607  31.538  1.00  0.00    -0.000 C 
BRANCH  10  11
ATOM     11  C   UNL     1      -7.338 -24.849  31.432  1.00  0.00    -0.000 C 
BRANCH  11  12
ATOM     12  C   UNL     1      -6.932 -26.069  30.589  1.00  0.00    -0.003 C 
ATOM     13  C   UNL     1      -6.514 -27.269  31.439  1.00  0.00     0.004 C 
ENDBRANCH  11  12
ENDBRANCH  10  11
ENDBRANCH   9  10
ENDBRANCH   8   9
ENDBRANCH   1   8
TORSDOF 9
ENDMDL
MODEL 6
REMARK VINA RESULT:    -3.879      3.845      5.360
REMARK INTER + INTRA:          -7.258
REMARK INTER:                  -6.030
REMARK INTRA:                  -1.227
REMARK UNBOUND:                -1.338
REMARK SMILES CCCCCCCCCCC(=O)[O-]
REMARK SMILES IDX 7 1 8 2 9 3 10 4 11 5 12 6 13 7 6 8 5 9 4 10 3 11 2 12 1 13
REMARK H PARENT
REMARK Flexibility Score: inf
ROOT
ATOM      1  C   UNL     1      -8.181 -28.073  31.643  1.00  0.00     0.000 C 
ENDROOT
BRANCH   1   2
ATOM      2  C   UNL     1      -6.667 -27.993  31.380  1.00  0.00     0.000 C 
BRANCH   2   3
ATOM      3  C   UNL     1      -6.326 -27.434  29.988  1.00  0.00     0.006 C 
BRANCH   3   4
ATOM      4  C   UNL     1      -4.890 -26.900  29.913  1.00  0.00     0.053 C 
BRANCH   4   5
ATOM      5  C   UNL     1      -3.943 -27.923  29.366  1.00  0.00     0.041 C 
ATOM      6  O   UNL     1      -2.718 -27.875  29.656  1.00  0.00    -0.550 OA
ATOM      7  O   UNL     1      -4.409 -28.915  28.512  1.00  0.00    -0.550 OA
ENDBRANCH   4   5
ENDBRANCH   3   4
ENDBRANCH   2   3
ENDBRANCH   1   2
BRANCH   1   8
ATOM      8  C   UNL     1      -9.076 -27.561  30.499  1.00  0.00     0.000 C 
BRANCH   8   9
ATOM      9  C   UNL     1      -9.965 -26.377  30.916  1.00  0.00    -0.000 C 
BRANCH   9  10
ATOM     10  C   UNL     1      -9.468 -25.030  30.360  1.00  0.00    -0.000 C 
BRANCH  10  11
ATOM     11  C   UNL     1      -8.841 -24.078  31.400  1.00  0.00    -0.000 C 
BRANCH  11  12
ATOM     12  C   UNL     1      -7.317 -24.210  31.566  1.00  0.00    -0.003 C 
ATOM     13  C   UNL     1      -6.905 -24.639  32.974  1.00  0.00     0.004 C 
ENDBRANCH  11  12
ENDBRANCH  10  11
ENDBRANCH   9  10
ENDBRANCH   8   9
ENDBRANCH   1   8
TORSDOF 9
ENDMDL
MODEL 7
REMARK VINA RESULT:    -3.874      3.554      5.265
REMARK INTER + INTRA:          -7.249
REMARK INTER:                  -6.033
REMARK INTRA:                  -1.216
REMARK UNBOUND:                -1.338
REMARK SMILES CCCCCCCCCCC(=O)[O-]
REMARK SMILES IDX 7 1 8 2 9 3 10 4 11 5 12 6 13 7 6 8 5 9 4 10 3 11 2 12 1 13
REMARK H PARENT
REMARK Flexibility Score: inf
ROOT
ATOM      1  C   UNL     1      -9.398 -27.139  31.579  1.00  0.00     0.000 C 
ENDROOT
BRANCH   1   2
ATOM      2  C   UNL     1      -8.187 -28.087  31.497  1.00  0.00     0.000 C 
BRANCH   2   3
ATOM      3  C   UNL     1      -6.843 -27.342  31.434  1.00  0.00     0.006 C 
BRANCH   3   4
ATOM      4  C   UNL     1      -6.240 -27.353  30.023  1.00  0.00     0.053 C 
BRANCH   4   5
ATOM      5  C   UNL     1      -4.742 -27.369  30.058  1.00  0.00     0.041 C 
ATOM      6  O   UNL     1      -4.082 -27.339  28.987  1.00  0.00    -0.550 OA
ATOM      7  O   UNL     1      -4.076 -27.446  31.275  1.00  0.00    -0.550 OA
ENDBRANCH   4   5
ENDBRANCH   3   4
ENDBRANCH   2   3
ENDBRANCH   1   2
BRANCH   1   8
ATOM      8  C   UNL     1      -9.060 -25.665  31.871  1.00  0.00     0.000 C 
BRANCH   8   9
ATOM      9  C   UNL     1      -9.351 -24.736  30.681  1.00  0.00    -0.000 C 
BRANCH   9  10
ATOM     10  C   UNL     1     -10.043 -25.460  29.511  1.00  0.00    -0.000 C 
BRANCH  10  11
ATOM     11  C   UNL     1      -9.176 -25.656  28.251  1.00  0.00    -0.000 C 
BRANCH  11  12
ATOM     12  C   UNL     1      -9.124 -27.097  27.715  1.00  0.00    -0.003 C 
ATOM     13  C   UNL     1     -10.407 -27.882  27.990  1.00  0.00     0.004 C 
ENDBRANCH  11  12
ENDBRANCH  10  11
ENDBRANCH   9  10
ENDBRANCH   8   9
ENDBRANCH   1   8
TORSDOF 9
ENDMDL
MODEL 8
REMARK VINA RESULT:    -3.871      1.715      3.421
REMARK INTER + INTRA:          -7.245
REMARK INTER:                  -6.142
REMARK INTRA:                  -1.103
REMARK UNBOUND:                -1.338
REMARK SMILES CCCCCCCCCCC(=O)[O-]
REMARK SMILES IDX 7 1 8 2 9 3 10 4 11 5 12 6 13 7 6 8 5 9 4 10 3 11 2 12 1 13
REMARK H PARENT
REMARK Flexibility Score: inf
ROOT
ATOM      1  C   UNL     1      -9.331 -25.334  30.995  1.00  0.00     0.000 C 
ENDROOT
BRANCH   1   2
ATOM      2  C   UNL     1      -9.972 -25.393  29.597  1.00  0.00     0.000 C 
BRANCH   2   3
ATOM      3  C   UNL     1      -8.946 -25.620  28.473  1.00  0.00     0.006 C 
BRANCH   3   4
ATOM      4  C   UNL     1      -8.955 -27.068  27.963  1.00  0.00     0.053 C 
BRANCH   4   5
ATOM      5  C   UNL     1     -10.102 -27.323  27.034  1.00  0.00     0.041 C 
ATOM      6  O   UNL     1     -10.613 -28.472  26.956  1.00  0.00    -0.550 OA
ATOM      7  O   UNL     1     -10.590 -26.298  26.233  1.00  0.00    -0.550 OA
ENDBRANCH   4   5
ENDBRANCH   3   4
ENDBRANCH   2   3
ENDBRANCH   1   2
BRANCH   1   8
ATOM      8  C   UNL     1      -9.602 -26.553  31.896  1.00  0.00     0.000 C 
BRANCH   8   9
ATOM      9  C   UNL     1      -8.780 -27.789  31.495  1.00  0.00    -0.000 C 
BRANCH   9  10
ATOM     10  C   UNL     1      -7.280 -27.639  31.807  1.00  0.00    -0.000 C 
BRANCH  10  11
ATOM     11  C   UNL     1      -6.360 -27.504  30.576  1.00  0.00    -0.000 C 
BRANCH  11  12
ATOM     12  C   UNL     1      -5.163 -26.555  30.759  1.00  0.00    -0.003 C 
ATOM     13  C   UNL     1      -5.576 -25.152  31.203  1.00  0.00     0.004 C 
ENDBRANCH  11  12
ENDBRANCH  10  11
ENDBRANCH   9  10
ENDBRANCH   8   9
ENDBRANCH   1   8
TORSDOF 9
ENDMDL
MODEL 9
REMARK VINA RESULT:    -3.760      1.781      3.198
REMARK INTER + INTRA:          -7.076
REMARK INTER:                  -5.937
REMARK INTRA:                  -1.140
REMARK UNBOUND:                -1.338
REMARK SMILES CCCCCCCCCCC(=O)[O-]
REMARK SMILES IDX 7 1 8 2 9 3 10 4 11 5 12 6 13 7 6 8 5 9 4 10 3 11 2 12 1 13
REMARK H PARENT
REMARK Flexibility Score: inf
ROOT
ATOM      1  C   UNL     1      -9.626 -25.006  30.326  1.00  0.00     0.000 C 
ENDROOT
BRANCH   1   2
ATOM      2  C   UNL     1      -9.563 -26.441  29.771  1.00  0.00     0.000 C 
BRANCH   2   3
ATOM      3  C   UNL     1      -8.611 -26.581  28.571  1.00  0.00     0.006 C 
BRANCH   3   4
ATOM      4  C   UNL     1      -9.177 -27.507  27.487  1.00  0.00     0.053 C 
BRANCH   4   5
ATOM      5  C   UNL     1     -10.445 -26.967  26.900  1.00  0.00     0.041 C 
ATOM      6  O   UNL     1     -10.472 -25.811  26.401  1.00  0.00    -0.550 OA
ATOM      7  O   UNL     1     -11.606 -27.729  26.932  1.00  0.00    -0.550 OA
ENDBRANCH   4   5
ENDBRANCH   3   4
ENDBRANCH   2   3
ENDBRANCH   1   2
BRANCH   1   8
ATOM      8  C   UNL     1      -8.851 -24.772  31.636  1.00  0.00     0.000 C 
BRANCH   8   9
ATOM      9  C   UNL     1      -7.404 -24.309  31.402  1.00  0.00    -0.000 C 
BRANCH   9  10
ATOM     10  C   UNL     1      -6.366 -25.407  31.702  1.00  0.00    -0.000 C 
BRANCH  10  11
ATOM     11  C   UNL     1      -6.927 -26.679  32.370  1.00  0.00    -0.000 C 
BRANCH  11  12
ATOM     12  C   UNL     1      -6.764 -27.970  31.550  1.00  0.00    -0.003 C 
ATOM     13  C   UNL     1      -5.668 -27.867  30.489  1.00  0.00     0.004 C 
ENDBRANCH  11  12
ENDBRANCH  10  11
ENDBRANCH   9  10
ENDBRANCH   8   9
ENDBRANCH   1   8
TORSDOF 9
ENDMDL
