MODEL 1
REMARK VINA RESULT:    -5.562      0.000      0.000
REMARK INTER + INTRA:          -5.562
REMARK INTER:                  -5.562
REMARK INTRA:                   0.000
REMARK UNBOUND:                 0.000
REMARK SMILES C=C1CCC[C@]2(C)CC(=O)C(=C(C)C)C[C@H]12
REMARK SMILES IDX 13 1 12 2 11 3 15 4 16 5 2 6 1 7 3 8 4 9 5 10 6 11 8 12 9 13
REMARK SMILES IDX 10 14 7 15 14 16
REMARK H PARENT
REMARK Flexibility Score: inf
ROOT
ATOM      1  C   UNL     1      14.401 -31.211 -27.724  1.00  0.00     0.039 C 
ATOM      2  C   UNL     1      13.652 -32.510 -27.535  1.00  0.00    -0.070 C 
ATOM      3  C   UNL     1      12.973 -33.093 -28.566  1.00  0.00    -0.006 C 
ATOM      4  C   UNL     1      12.936 -32.474 -29.951  1.00  0.00     0.047 C 
ATOM      5  C   UNL     1      12.855 -33.520 -31.089  1.00  0.00     0.025 C 
ATOM      6  C   UNL     1      12.627 -32.809 -32.412  1.00  0.00    -0.073 C 
ATOM      7  C   UNL     1      13.671 -32.350 -33.120  1.00  0.00     0.008 C 
ATOM      8  C   UNL     1      11.225 -32.626 -32.947  1.00  0.00     0.031 C 
ATOM      9  C   UNL     1      10.158 -32.783 -31.858  1.00  0.00     0.005 C 
ATOM     10  C   UNL     1      10.320 -34.030 -30.956  1.00  0.00     0.008 C 
ATOM     11  C   UNL     1      11.767 -34.618 -30.863  1.00  0.00    -0.018 C 
ATOM     12  C   UNL     1      11.989 -35.290 -29.482  1.00  0.00     0.088 C 
ATOM     13  C   UNL     1      12.119 -34.292 -28.373  1.00  0.00     0.159 C 
ATOM     14  O   UNL     1      11.495 -34.485 -27.297  1.00  0.00    -0.295 OA
ATOM     15  C   UNL     1      11.931 -35.736 -31.928  1.00  0.00     0.012 C 
ATOM     16  C   UNL     1      13.722 -33.154 -26.169  1.00  0.00     0.039 C 
ENDROOT
TORSDOF 0
ENDMDL
MODEL 2
REMARK VINA RESULT:    -5.307      2.391      4.558
REMARK INTER + INTRA:          -5.307
REMARK INTER:                  -5.307
REMARK INTRA:                   0.000
REMARK UNBOUND:                 0.000
REMARK SMILES C=C1CCC[C@]2(C)CC(=O)C(=C(C)C)C[C@H]12
REMARK SMILES IDX 13 1 12 2 11 3 15 4 16 5 2 6 1 7 3 8 4 9 5 10 6 11 8 12 9 13
REMARK SMILES IDX 10 14 7 15 14 16
REMARK H PARENT
REMARK Flexibility Score: inf
ROOT
ATOM      1  C   UNL     1      15.617 -32.255 -32.886  1.00  0.00     0.039 C 
ATOM      2  C   UNL     1      14.137 -32.014 -33.079  1.00  0.00    -0.070 C 
ATOM      3  C   UNL     1      13.206 -32.723 -32.378  1.00  0.00    -0.006 C 
ATOM      4  C   UNL     1      13.603 -33.783 -31.367  1.00  0.00     0.047 C 
ATOM      5  C   UNL     1      12.613 -33.902 -30.181  1.00  0.00     0.025 C 
ATOM      6  C   UNL     1      12.984 -35.108 -29.336  1.00  0.00    -0.073 C 
ATOM      7  C   UNL     1      13.896 -34.992 -28.358  1.00  0.00     0.008 C 
ATOM      8  C   UNL     1      12.317 -36.443 -29.578  1.00  0.00     0.031 C 
ATOM      9  C   UNL     1      11.668 -36.530 -30.964  1.00  0.00     0.005 C 
ATOM     10  C   UNL     1      10.788 -35.318 -31.352  1.00  0.00     0.008 C 
ATOM     11  C   UNL     1      11.114 -33.977 -30.614  1.00  0.00    -0.018 C 
ATOM     12  C   UNL     1      10.777 -32.765 -31.522  1.00  0.00     0.088 C 
ATOM     13  C   UNL     1      11.752 -32.603 -32.647  1.00  0.00     0.159 C 
ATOM     14  O   UNL     1      11.317 -32.373 -33.807  1.00  0.00    -0.295 OA
ATOM     15  C   UNL     1      10.207 -33.853 -29.360  1.00  0.00     0.012 C 
ATOM     16  C   UNL     1      13.737 -30.928 -34.052  1.00  0.00     0.039 C 
ENDROOT
TORSDOF 0
ENDMDL
MODEL 3
REMARK VINA RESULT:    -4.915      2.281      4.039
REMARK INTER + INTRA:          -4.915
REMARK INTER:                  -4.915
REMARK INTRA:                   0.000
REMARK UNBOUND:                 0.000
REMARK SMILES C=C1CCC[C@]2(C)CC(=O)C(=C(C)C)C[C@H]12
REMARK SMILES IDX 13 1 12 2 11 3 15 4 16 5 2 6 1 7 3 8 4 9 5 10 6 11 8 12 9 13
REMARK SMILES IDX 10 14 7 15 14 16
REMARK H PARENT
REMARK Flexibility Score: inf
ROOT
ATOM      1  C   UNL     1      14.862 -31.052 -31.827  1.00  0.00     0.039 C 
ATOM      2  C   UNL     1      14.631 -32.506 -32.166  1.00  0.00    -0.070 C 
ATOM      3  C   UNL     1      13.666 -33.236 -31.534  1.00  0.00    -0.006 C 
ATOM      4  C   UNL     1      12.775 -32.629 -30.466  1.00  0.00     0.047 C 
ATOM      5  C   UNL     1      11.351 -33.239 -30.435  1.00  0.00     0.025 C 
ATOM      6  C   UNL     1      10.605 -32.713 -29.220  1.00  0.00    -0.073 C 
ATOM      7  C   UNL     1       9.936 -31.552 -29.290  1.00  0.00     0.008 C 
ATOM      8  C   UNL     1      10.597 -33.501 -27.930  1.00  0.00     0.031 C 
ATOM      9  C   UNL     1      11.735 -34.528 -27.866  1.00  0.00     0.005 C 
ATOM     10  C   UNL     1      11.896 -35.407 -29.128  1.00  0.00     0.008 C 
ATOM     11  C   UNL     1      11.332 -34.800 -30.456  1.00  0.00    -0.018 C 
ATOM     12  C   UNL     1      12.147 -35.312 -31.673  1.00  0.00     0.088 C 
ATOM     13  C   UNL     1      13.510 -34.696 -31.749  1.00  0.00     0.159 C 
ATOM     14  O   UNL     1      14.504 -35.433 -31.989  1.00  0.00    -0.295 OA
ATOM     15  C   UNL     1       9.875 -35.297 -30.663  1.00  0.00     0.012 C 
ATOM     16  C   UNL     1      15.486 -33.104 -33.260  1.00  0.00     0.039 C 
ENDROOT
TORSDOF 0
ENDMDL
MODEL 4
REMARK VINA RESULT:    -4.446      1.794      3.459
REMARK INTER + INTRA:          -4.446
REMARK INTER:                  -4.446
REMARK INTRA:                   0.000
REMARK UNBOUND:                 0.000
REMARK SMILES C=C1CCC[C@]2(C)CC(=O)C(=C(C)C)C[C@H]12
REMARK SMILES IDX 13 1 12 2 11 3 15 4 16 5 2 6 1 7 3 8 4 9 5 10 6 11 8 12 9 13
REMARK SMILES IDX 10 14 7 15 14 16
REMARK H PARENT
REMARK Flexibility Score: inf
ROOT
ATOM      1  C   UNL     1      14.914 -31.540 -32.875  1.00  0.00     0.039 C 
ATOM      2  C   UNL     1      14.777 -31.375 -31.378  1.00  0.00    -0.070 C 
ATOM      3  C   UNL     1      13.888 -32.122 -30.661  1.00  0.00    -0.006 C 
ATOM      4  C   UNL     1      12.996 -33.156 -31.323  1.00  0.00     0.047 C 
ATOM      5  C   UNL     1      12.682 -34.369 -30.413  1.00  0.00     0.025 C 
ATOM      6  C   UNL     1      11.636 -35.243 -31.082  1.00  0.00    -0.073 C 
ATOM      7  C   UNL     1      12.008 -36.194 -31.953  1.00  0.00     0.008 C 
ATOM      8  C   UNL     1      10.170 -35.061 -30.761  1.00  0.00     0.031 C 
ATOM      9  C   UNL     1       9.875 -33.694 -30.131  1.00  0.00     0.005 C 
ATOM     10  C   UNL     1      10.819 -33.290 -28.974  1.00  0.00     0.008 C 
ATOM     11  C   UNL     1      12.226 -33.976 -28.971  1.00  0.00    -0.018 C 
ATOM     12  C   UNL     1      13.283 -33.038 -28.332  1.00  0.00     0.088 C 
ATOM     13  C   UNL     1      13.638 -31.884 -29.218  1.00  0.00     0.159 C 
ATOM     14  O   UNL     1      13.710 -30.729 -28.722  1.00  0.00    -0.295 OA
ATOM     15  C   UNL     1      12.170 -35.247 -28.082  1.00  0.00     0.012 C 
ATOM     16  C   UNL     1      15.694 -30.378 -30.708  1.00  0.00     0.039 C 
ENDROOT
TORSDOF 0
ENDMDL
MODEL 5
REMARK VINA RESULT:    -4.326      2.193      3.743
REMARK INTER + INTRA:          -4.326
REMARK INTER:                  -4.326
REMARK INTRA:                   0.000
REMARK UNBOUND:                 0.000
REMARK SMILES C=C1CCC[C@]2(C)CC(=O)C(=C(C)C)C[C@H]12
REMARK SMILES IDX 13 1 12 2 11 3 15 4 16 5 2 6 1 7 3 8 4 9 5 10 6 11 8 12 9 13
REMARK SMILES IDX 10 14 7 15 14 16
REMARK H PARENT
REMARK Flexibility Score: inf
ROOT
ATOM      1  C   UNL     1      14.608 -30.870 -28.075  1.00  0.00     0.039 C 
ATOM      2  C   UNL     1      14.734 -30.982 -29.577  1.00  0.00    -0.070 C 
ATOM      3  C   UNL     1      13.956 -31.847 -30.291  1.00  0.00    -0.006 C 
ATOM      4  C   UNL     1      12.925 -32.735 -29.620  1.00  0.00     0.047 C 
ATOM      5  C   UNL     1      11.685 -33.014 -30.505  1.00  0.00     0.025 C 
ATOM      6  C   UNL     1      10.811 -34.058 -29.833  1.00  0.00    -0.073 C 
ATOM      7  C   UNL     1       9.887 -33.686 -28.932  1.00  0.00     0.008 C 
ATOM      8  C   UNL     1      10.962 -35.520 -30.184  1.00  0.00     0.031 C 
ATOM      9  C   UNL     1      12.308 -35.825 -30.852  1.00  0.00     0.005 C 
ATOM     10  C   UNL     1      12.699 -34.867 -32.002  1.00  0.00     0.008 C 
ATOM     11  C   UNL     1      12.036 -33.450 -31.963  1.00  0.00    -0.018 C 
ATOM     12  C   UNL     1      12.975 -32.397 -32.607  1.00  0.00     0.088 C 
ATOM     13  C   UNL     1      14.155 -32.076 -31.743  1.00  0.00     0.159 C 
ATOM     14  O   UNL     1      15.299 -32.012 -32.267  1.00  0.00    -0.295 OA
ATOM     15  C   UNL     1      10.742 -33.471 -32.822  1.00  0.00     0.012 C 
ATOM     16  C   UNL     1      15.730 -30.069 -30.255  1.00  0.00     0.039 C 
ENDROOT
TORSDOF 0
ENDMDL
MODEL 6
REMARK VINA RESULT:    -3.514      1.701      3.777
REMARK INTER + INTRA:          -3.514
REMARK INTER:                  -3.514
REMARK INTRA:                   0.000
REMARK UNBOUND:                 0.000
REMARK SMILES C=C1CCC[C@]2(C)CC(=O)C(=C(C)C)C[C@H]12
REMARK SMILES IDX 13 1 12 2 11 3 15 4 16 5 2 6 1 7 3 8 4 9 5 10 6 11 8 12 9 13
REMARK SMILES IDX 10 14 7 15 14 16
REMARK H PARENT
REMARK Flexibility Score: inf
ROOT
ATOM      1  C   UNL     1      12.501 -38.284 -31.217  1.00  0.00     0.039 C 
ATOM      2  C   UNL     1      12.793 -37.368 -30.051  1.00  0.00    -0.070 C 
ATOM      3  C   UNL     1      12.606 -36.019 -30.146  1.00  0.00    -0.006 C 
ATOM      4  C   UNL     1      12.094 -35.371 -31.419  1.00  0.00     0.047 C 
ATOM      5  C   UNL     1      11.233 -34.109 -31.162  1.00  0.00     0.025 C 
ATOM      6  C   UNL     1      10.934 -33.425 -32.485  1.00  0.00    -0.073 C 
ATOM      7  C   UNL     1       9.875 -33.806 -33.217  1.00  0.00     0.008 C 
ATOM      8  C   UNL     1      11.816 -32.301 -32.980  1.00  0.00     0.031 C 
ATOM      9  C   UNL     1      13.188 -32.291 -32.296  1.00  0.00     0.005 C 
ATOM     10  C   UNL     1      13.152 -32.419 -30.754  1.00  0.00     0.008 C 
ATOM     11  C   UNL     1      11.876 -33.100 -30.158  1.00  0.00    -0.018 C 
ATOM     12  C   UNL     1      12.223 -33.835 -28.837  1.00  0.00     0.088 C 
ATOM     13  C   UNL     1      13.014 -35.086 -29.067  1.00  0.00     0.159 C 
ATOM     14  O   UNL     1      14.017 -35.320 -28.343  1.00  0.00    -0.295 OA
ATOM     15  C   UNL     1      10.839 -32.003 -29.791  1.00  0.00     0.012 C 
ATOM     16  C   UNL     1      13.262 -38.013 -28.768  1.00  0.00     0.039 C 
ENDROOT
TORSDOF 0
ENDMDL
