MODEL 1
REMARK VINA RESULT:    -3.157      0.000      0.000
REMARK INTER + INTRA:          -3.438
REMARK INTER:                  -3.342
REMARK INTRA:                  -0.096
REMARK UNBOUND:                -0.096
REMARK SMILES C=C(C)[C@H]1CC=C(C)C(=O)C1
REMARK SMILES IDX 8 1 7 2 6 3 5 4 4 5 11 6 9 7 10 8 2 9 1 10 3 11
REMARK H PARENT
REMARK Flexibility Score: inf
ROOT
ATOM      1  C   UNL     1      10.346  21.675  19.998  1.00  0.00     0.048 C 
ATOM      2  C   UNL     1      10.245  21.852  21.488  1.00  0.00    -0.012 C 
ATOM      3  C   UNL     1      11.125  21.237  22.296  1.00  0.00    -0.019 C 
ATOM      4  C   UNL     1      11.059  21.365  23.794  1.00  0.00     0.036 C 
ATOM      5  C   UNL     1      10.525  22.749  24.210  1.00  0.00     0.025 C 
ATOM      6  C   UNL     1       9.165  23.020  23.539  1.00  0.00     0.089 C 
ATOM      7  C   UNL     1       9.254  22.801  22.053  1.00  0.00     0.158 C 
ATOM      8  O   UNL     1       8.450  23.407  21.295  1.00  0.00    -0.295 OA
ENDROOT
BRANCH   5   9
ATOM      9  C   UNL     1      10.444  22.890  25.723  1.00  0.00    -0.077 C 
ATOM     10  C   UNL     1      11.033  22.000  26.541  1.00  0.00     0.008 C 
ATOM     11  C   UNL     1       9.692  24.043  26.336  1.00  0.00     0.039 C 
ENDBRANCH   5   9
TORSDOF 1
ENDMDL
MODEL 2
REMARK VINA RESULT:    -3.000      1.798      4.266
REMARK INTER + INTRA:          -3.272
REMARK INTER:                  -3.176
REMARK INTRA:                  -0.096
REMARK UNBOUND:                -0.096
REMARK SMILES C=C(C)[C@H]1CC=C(C)C(=O)C1
REMARK SMILES IDX 8 1 7 2 6 3 5 4 4 5 11 6 9 7 10 8 2 9 1 10 3 11
REMARK H PARENT
REMARK Flexibility Score: inf
ROOT
ATOM      1  C   UNL     1      11.125  22.060  27.095  1.00  0.00     0.048 C 
ATOM      2  C   UNL     1      10.750  22.358  25.670  1.00  0.00    -0.012 C 
ATOM      3  C   UNL     1      11.099  21.502  24.694  1.00  0.00    -0.019 C 
ATOM      4  C   UNL     1      10.765  21.760  23.248  1.00  0.00     0.036 C 
ATOM      5  C   UNL     1       9.433  22.523  23.114  1.00  0.00     0.025 C 
ATOM      6  C   UNL     1       9.475  23.820  23.945  1.00  0.00     0.089 C 
ATOM      7  C   UNL     1       9.891  23.528  25.360  1.00  0.00     0.158 C 
ATOM      8  O   UNL     1       9.533  24.313  26.279  1.00  0.00    -0.295 OA
ENDROOT
BRANCH   5   9
ATOM      9  C   UNL     1       9.087  22.799  21.657  1.00  0.00    -0.077 C 
ATOM     10  C   UNL     1       9.594  22.048  20.664  1.00  0.00     0.008 C 
ATOM     11  C   UNL     1       8.161  23.932  21.302  1.00  0.00     0.039 C 
ENDBRANCH   5   9
TORSDOF 1
ENDMDL
MODEL 3
REMARK VINA RESULT:    -2.916      2.530      4.621
REMARK INTER + INTRA:          -3.183
REMARK INTER:                  -3.089
REMARK INTRA:                  -0.094
REMARK UNBOUND:                -0.096
REMARK SMILES C=C(C)[C@H]1CC=C(C)C(=O)C1
REMARK SMILES IDX 8 1 7 2 6 3 5 4 4 5 11 6 9 7 10 8 2 9 1 10 3 11
REMARK H PARENT
REMARK Flexibility Score: inf
ROOT
ATOM      1  C   UNL     1      10.453  21.629  24.373  1.00  0.00     0.048 C 
ATOM      2  C   UNL     1       9.764  22.592  23.446  1.00  0.00    -0.012 C 
ATOM      3  C   UNL     1       9.854  22.420  22.116  1.00  0.00    -0.019 C 
ATOM      4  C   UNL     1       9.200  23.365  21.143  1.00  0.00     0.036 C 
ATOM      5  C   UNL     1       7.895  23.942  21.722  1.00  0.00     0.025 C 
ATOM      6  C   UNL     1       8.163  24.603  23.088  1.00  0.00     0.089 C 
ATOM      7  C   UNL     1       8.889  23.654  24.001  1.00  0.00     0.158 C 
ATOM      8  O   UNL     1       8.775  23.796  25.248  1.00  0.00    -0.295 OA
ENDROOT
BRANCH   5   9
ATOM      9  C   UNL     1       7.227  24.907  20.752  1.00  0.00    -0.077 C 
ATOM     10  C   UNL     1       7.949  25.767  20.013  1.00  0.00     0.008 C 
ATOM     11  C   UNL     1       5.728  24.913  20.604  1.00  0.00     0.039 C 
ENDBRANCH   5   9
TORSDOF 1
ENDMDL
MODEL 4
REMARK VINA RESULT:    -2.847      4.460      6.530
REMARK INTER + INTRA:          -3.109
REMARK INTER:                  -3.015
REMARK INTRA:                  -0.095
REMARK UNBOUND:                -0.096
REMARK SMILES C=C(C)[C@H]1CC=C(C)C(=O)C1
REMARK SMILES IDX 8 1 7 2 6 3 5 4 4 5 11 6 9 7 10 8 2 9 1 10 3 11
REMARK H PARENT
REMARK Flexibility Score: inf
ROOT
ATOM      1  C   UNL     1       9.999  26.062  22.524  1.00  0.00     0.048 C 
ATOM      2  C   UNL     1       8.649  25.993  21.865  1.00  0.00    -0.012 C 
ATOM      3  C   UNL     1       8.559  25.987  20.524  1.00  0.00    -0.019 C 
ATOM      4  C   UNL     1       7.233  25.938  19.812  1.00  0.00     0.036 C 
ATOM      5  C   UNL     1       6.198  25.132  20.621  1.00  0.00     0.025 C 
ATOM      6  C   UNL     1       6.076  25.700  22.047  1.00  0.00     0.089 C 
ATOM      7  C   UNL     1       7.430  25.809  22.692  1.00  0.00     0.158 C 
ATOM      8  O   UNL     1       7.516  25.779  23.949  1.00  0.00    -0.295 OA
ENDROOT
BRANCH   5   9
ATOM      9  C   UNL     1       4.849  25.082  19.917  1.00  0.00    -0.077 C 
ATOM     10  C   UNL     1       4.398  26.122  19.195  1.00  0.00     0.008 C 
ATOM     11  C   UNL     1       3.988  23.850  20.022  1.00  0.00     0.039 C 
ENDBRANCH   5   9
TORSDOF 1
ENDMDL
MODEL 5
REMARK VINA RESULT:    -2.816      1.522      2.612
REMARK INTER + INTRA:          -3.078
REMARK INTER:                  -2.980
REMARK INTRA:                  -0.097
REMARK UNBOUND:                -0.096
REMARK SMILES C=C(C)[C@H]1CC=C(C)C(=O)C1
REMARK SMILES IDX 8 1 7 2 6 3 5 4 4 5 11 6 9 7 10 8 2 9 1 10 3 11
REMARK H PARENT
REMARK Flexibility Score: inf
ROOT
ATOM      1  C   UNL     1       7.217  24.630  21.127  1.00  0.00     0.048 C 
ATOM      2  C   UNL     1       8.124  24.194  22.245  1.00  0.00    -0.012 C 
ATOM      3  C   UNL     1       8.132  24.875  23.403  1.00  0.00    -0.019 C 
ATOM      4  C   UNL     1       9.033  24.493  24.548  1.00  0.00     0.036 C 
ATOM      5  C   UNL     1       9.261  22.970  24.590  1.00  0.00     0.025 C 
ATOM      6  C   UNL     1       9.797  22.473  23.234  1.00  0.00     0.089 C 
ATOM      7  C   UNL     1       8.913  22.944  22.111  1.00  0.00     0.158 C 
ATOM      8  O   UNL     1       8.880  22.284  21.038  1.00  0.00    -0.295 OA
ENDROOT
BRANCH   5   9
ATOM      9  C   UNL     1      10.179  22.571  25.738  1.00  0.00    -0.077 C 
ATOM     10  C   UNL     1      11.125  21.629  25.580  1.00  0.00     0.008 C 
ATOM     11  C   UNL     1      10.038  23.233  27.084  1.00  0.00     0.039 C 
ENDBRANCH   5   9
TORSDOF 1
ENDMDL
MODEL 6
REMARK VINA RESULT:    -2.768      2.078      3.190
REMARK INTER + INTRA:          -3.026
REMARK INTER:                  -2.933
REMARK INTRA:                  -0.094
REMARK UNBOUND:                -0.096
REMARK SMILES C=C(C)[C@H]1CC=C(C)C(=O)C1
REMARK SMILES IDX 8 1 7 2 6 3 5 4 4 5 11 6 9 7 10 8 2 9 1 10 3 11
REMARK H PARENT
REMARK Flexibility Score: inf
ROOT
ATOM      1  C   UNL     1       8.508  25.820  19.822  1.00  0.00     0.048 C 
ATOM      2  C   UNL     1       8.863  24.992  21.027  1.00  0.00    -0.012 C 
ATOM      3  C   UNL     1       8.114  25.075  22.139  1.00  0.00    -0.019 C 
ATOM      4  C   UNL     1       8.434  24.283  23.379  1.00  0.00     0.036 C 
ATOM      5  C   UNL     1       9.071  22.926  23.022  1.00  0.00     0.025 C 
ATOM      6  C   UNL     1      10.307  23.136  22.126  1.00  0.00     0.089 C 
ATOM      7  C   UNL     1       9.962  23.999  20.943  1.00  0.00     0.158 C 
ATOM      8  O   UNL     1      10.645  23.894  19.889  1.00  0.00    -0.295 OA
ENDROOT
BRANCH   5   9
ATOM      9  C   UNL     1       9.409  22.118  24.268  1.00  0.00    -0.077 C 
ATOM     10  C   UNL     1       8.488  21.879  25.217  1.00  0.00     0.008 C 
ATOM     11  C   UNL     1      10.799  21.569  24.457  1.00  0.00     0.039 C 
ENDBRANCH   5   9
TORSDOF 1
ENDMDL
MODEL 7
REMARK VINA RESULT:    -2.664     20.670     21.123
REMARK INTER + INTRA:          -2.916
REMARK INTER:                  -2.821
REMARK INTRA:                  -0.095
REMARK UNBOUND:                -0.096
REMARK SMILES C=C(C)[C@H]1CC=C(C)C(=O)C1
REMARK SMILES IDX 8 1 7 2 6 3 5 4 4 5 11 6 9 7 10 8 2 9 1 10 3 11
REMARK H PARENT
REMARK Flexibility Score: inf
ROOT
ATOM      1  C   UNL     1      -3.352  23.879   6.877  1.00  0.00     0.048 C 
ATOM      2  C   UNL     1      -4.380  24.251   7.910  1.00  0.00    -0.012 C 
ATOM      3  C   UNL     1      -5.462  23.473   8.086  1.00  0.00    -0.019 C 
ATOM      4  C   UNL     1      -6.531  23.808   9.092  1.00  0.00     0.036 C 
ATOM      5  C   UNL     1      -5.934  24.523  10.319  1.00  0.00     0.025 C 
ATOM      6  C   UNL     1      -5.137  25.765   9.877  1.00  0.00     0.089 C 
ATOM      7  C   UNL     1      -4.137  25.402   8.814  1.00  0.00     0.158 C 
ATOM      8  O   UNL     1      -3.106  26.112   8.674  1.00  0.00    -0.295 OA
ENDROOT
BRANCH   5   9
ATOM      9  C   UNL     1      -7.005  24.876  11.342  1.00  0.00    -0.077 C 
ATOM     10  C   UNL     1      -7.491  26.125  11.442  1.00  0.00     0.008 C 
ATOM     11  C   UNL     1      -7.543  23.817  12.269  1.00  0.00     0.039 C 
ENDBRANCH   5   9
TORSDOF 1
ENDMDL
MODEL 8
REMARK VINA RESULT:    -2.656     20.844     21.464
REMARK INTER + INTRA:          -2.908
REMARK INTER:                  -2.812
REMARK INTRA:                  -0.096
REMARK UNBOUND:                -0.096
REMARK SMILES C=C(C)[C@H]1CC=C(C)C(=O)C1
REMARK SMILES IDX 8 1 7 2 6 3 5 4 4 5 11 6 9 7 10 8 2 9 1 10 3 11
REMARK H PARENT
REMARK Flexibility Score: inf
ROOT
ATOM      1  C   UNL     1      -9.118  25.209  14.748  1.00  0.00     0.048 C 
ATOM      2  C   UNL     1      -8.433  25.041  13.419  1.00  0.00    -0.012 C 
ATOM      3  C   UNL     1      -8.062  26.125  12.717  1.00  0.00    -0.019 C 
ATOM      4  C   UNL     1      -7.389  26.015  11.374  1.00  0.00     0.036 C 
ATOM      5  C   UNL     1      -6.510  24.753  11.296  1.00  0.00     0.025 C 
ATOM      6  C   UNL     1      -7.340  23.501  11.639  1.00  0.00     0.089 C 
ATOM      7  C   UNL     1      -8.060  23.685  12.947  1.00  0.00     0.158 C 
ATOM      8  O   UNL     1      -8.376  22.668  13.621  1.00  0.00    -0.295 OA
ENDROOT
BRANCH   5   9
ATOM      9  C   UNL     1      -5.830  24.623   9.939  1.00  0.00    -0.077 C 
ATOM     10  C   UNL     1      -5.600  25.699   9.168  1.00  0.00     0.008 C 
ATOM     11  C   UNL     1      -5.401  23.270   9.436  1.00  0.00     0.039 C 
ENDBRANCH   5   9
TORSDOF 1
ENDMDL
