MODEL 1
REMARK VINA RESULT:    -4.766      0.000      0.000
REMARK INTER + INTRA:          -5.688
REMARK INTER:                  -5.602
REMARK INTRA:                  -0.086
REMARK UNBOUND:                -0.086
REMARK SMILES O=c1c(O)c(-c2ccc(O)c(O)c2)oc2cc(O)ccc12
REMARK SMILES IDX 5 1 3 2 2 3 1 4 21 5 15 6 14 7 16 8 17 9 19 10 20 11 6 12
REMARK SMILES IDX 7 13 8 14 9 15 13 16 11 17 10 18 12 20 4 22 18 24
REMARK H PARENT 10 19 12 21 4 23 18 25
REMARK Flexibility Score: inf
ROOT
ATOM      1  C   UNL     1      23.572  46.210  87.110  1.00  0.00     0.180 A 
ATOM      2  C   UNL     1      23.075  45.428  88.173  1.00  0.00     0.208 A 
ATOM      3  C   UNL     1      21.991  45.913  88.920  1.00  0.00     0.235 A 
ATOM      4  O   UNL     1      21.534  45.237  89.882  1.00  0.00    -0.285 OA
ATOM      5  C   UNL     1      21.415  47.147  88.580  1.00  0.00     0.069 A 
ATOM      6  C   UNL     1      21.956  47.860  87.487  1.00  0.00     0.142 A 
ATOM      7  O   UNL     1      22.989  47.370  86.812  1.00  0.00    -0.452 OA
ATOM      8  C   UNL     1      21.404  49.089  87.112  1.00  0.00     0.094 A 
ATOM      9  C   UNL     1      20.319  49.621  87.816  1.00  0.00     0.119 A 
ATOM     10  C   UNL     1      19.781  48.918  88.903  1.00  0.00     0.047 A 
ATOM     11  C   UNL     1      20.324  47.688  89.286  1.00  0.00     0.020 A 
ENDROOT
BRANCH   1  12
ATOM     12  C   UNL     1      24.725  45.777  86.287  1.00  0.00     0.025 A 
ATOM     13  C   UNL     1      24.706  44.561  85.584  1.00  0.00     0.016 A 
ATOM     14  C   UNL     1      25.816  44.162  84.833  1.00  0.00     0.051 A 
ATOM     15  C   UNL     1      26.962  44.965  84.784  1.00  0.00     0.157 A 
ATOM     16  C   UNL     1      25.884  46.569  86.251  1.00  0.00     0.062 A 
ATOM     17  C   UNL     1      26.996  46.173  85.499  1.00  0.00     0.158 A 
BRANCH  15  18
ATOM     18  O   UNL     1      28.066  44.566  84.032  1.00  0.00    -0.504 OA
ATOM     19  H   UNL     1      28.591  45.223  83.469  1.00  0.00     0.293 HD
ENDBRANCH  15  18
BRANCH  17  20
ATOM     20  O   UNL     1      28.125  46.993  85.477  1.00  0.00    -0.504 OA
ATOM     21  H   UNL     1      29.016  46.672  85.118  1.00  0.00     0.293 HD
ENDBRANCH  17  20
ENDBRANCH   1  12
BRANCH   2  22
ATOM     22  O   UNL     1      23.636  44.180  88.456  1.00  0.00    -0.502 OA
ATOM     23  H   UNL     1      24.177  43.663  87.773  1.00  0.00     0.293 HD
ENDBRANCH   2  22
BRANCH   9  24
ATOM     24  O   UNL     1      19.782  50.847  87.429  1.00  0.00    -0.508 OA
ATOM     25  H   UNL     1      20.261  51.719  87.620  1.00  0.00     0.293 HD
ENDBRANCH   9  24
TORSDOF 5
ENDMDL
MODEL 2
REMARK VINA RESULT:    -4.740      2.550      4.315
REMARK INTER + INTRA:          -5.658
REMARK INTER:                  -5.431
REMARK INTRA:                  -0.227
REMARK UNBOUND:                -0.086
REMARK SMILES O=c1c(O)c(-c2ccc(O)c(O)c2)oc2cc(O)ccc12
REMARK SMILES IDX 5 1 3 2 2 3 1 4 21 5 15 6 14 7 16 8 17 9 19 10 20 11 6 12
REMARK SMILES IDX 7 13 8 14 9 15 13 16 11 17 10 18 12 20 4 22 18 24
REMARK H PARENT 10 19 12 21 4 23 18 25
REMARK Flexibility Score: inf
ROOT
ATOM      1  C   UNL     1      20.141  47.603  88.891  1.00  0.00     0.180 A 
ATOM      2  C   UNL     1      18.946  46.936  89.232  1.00  0.00     0.208 A 
ATOM      3  C   UNL     1      17.843  47.696  89.649  1.00  0.00     0.235 A 
ATOM      4  O   UNL     1      16.765  47.123  89.969  1.00  0.00    -0.285 OA
ATOM      5  C   UNL     1      17.946  49.096  89.695  1.00  0.00     0.069 A 
ATOM      6  C   UNL     1      19.170  49.689  89.316  1.00  0.00     0.142 A 
ATOM      7  O   UNL     1      20.194  48.932  88.937  1.00  0.00    -0.452 OA
ATOM      8  C   UNL     1      19.310  51.081  89.341  1.00  0.00     0.094 A 
ATOM      9  C   UNL     1      18.244  51.890  89.743  1.00  0.00     0.119 A 
ATOM     10  C   UNL     1      17.028  51.305  90.123  1.00  0.00     0.047 A 
ATOM     11  C   UNL     1      16.876  49.916  90.100  1.00  0.00     0.020 A 
ENDROOT
BRANCH   1  12
ATOM     12  C   UNL     1      21.355  46.871  88.461  1.00  0.00     0.025 A 
ATOM     13  C   UNL     1      22.087  46.076  89.359  1.00  0.00     0.016 A 
ATOM     14  C   UNL     1      23.243  45.414  88.935  1.00  0.00     0.051 A 
ATOM     15  C   UNL     1      23.689  45.546  87.614  1.00  0.00     0.157 A 
ATOM     16  C   UNL     1      21.818  47.018  87.144  1.00  0.00     0.062 A 
ATOM     17  C   UNL     1      22.975  46.355  86.716  1.00  0.00     0.158 A 
BRANCH  15  18
ATOM     18  O   UNL     1      24.841  44.883  87.195  1.00  0.00    -0.504 OA
ATOM     19  H   UNL     1      25.708  44.942  87.716  1.00  0.00     0.293 HD
ENDBRANCH  15  18
BRANCH  17  20
ATOM     20  O   UNL     1      23.398  46.514  85.396  1.00  0.00    -0.504 OA
ATOM     21  H   UNL     1      24.302  46.906  85.164  1.00  0.00     0.293 HD
ENDBRANCH  17  20
ENDBRANCH   1  12
BRANCH   2  22
ATOM     22  O   UNL     1      18.857  45.546  89.127  1.00  0.00    -0.502 OA
ATOM     23  H   UNL     1      18.617  45.082  88.259  1.00  0.00     0.293 HD
ENDBRANCH   2  22
BRANCH   9  24
ATOM     24  O   UNL     1      18.400  53.275  89.762  1.00  0.00    -0.508 OA
ATOM     25  H   UNL     1      18.538  53.781  90.629  1.00  0.00     0.293 HD
ENDBRANCH   9  24
TORSDOF 5
ENDMDL
MODEL 3
REMARK VINA RESULT:    -4.583      2.775      7.536
REMARK INTER + INTRA:          -5.473
REMARK INTER:                  -5.359
REMARK INTRA:                  -0.113
REMARK UNBOUND:                -0.086
REMARK SMILES O=c1c(O)c(-c2ccc(O)c(O)c2)oc2cc(O)ccc12
REMARK SMILES IDX 5 1 3 2 2 3 1 4 21 5 15 6 14 7 16 8 17 9 19 10 20 11 6 12
REMARK SMILES IDX 7 13 8 14 9 15 13 16 11 17 10 18 12 20 4 22 18 24
REMARK H PARENT 10 19 12 21 4 23 18 25
REMARK Flexibility Score: inf
ROOT
ATOM      1  C   UNL     1      20.692  48.325  88.368  1.00  0.00     0.180 A 
ATOM      2  C   UNL     1      21.417  48.439  87.164  1.00  0.00     0.208 A 
ATOM      3  C   UNL     1      22.270  47.391  86.787  1.00  0.00     0.235 A 
ATOM      4  O   UNL     1      22.938  47.473  85.720  1.00  0.00    -0.285 OA
ATOM      5  C   UNL     1      22.363  46.250  87.600  1.00  0.00     0.069 A 
ATOM      6  C   UNL     1      21.586  46.203  88.778  1.00  0.00     0.142 A 
ATOM      7  O   UNL     1      20.799  47.222  89.104  1.00  0.00    -0.452 OA
ATOM      8  C   UNL     1      21.645  45.080  89.610  1.00  0.00     0.094 A 
ATOM      9  C   UNL     1      22.473  44.001  89.283  1.00  0.00     0.119 A 
ATOM     10  C   UNL     1      23.248  44.046  88.116  1.00  0.00     0.047 A 
ATOM     11  C   UNL     1      23.196  45.162  87.276  1.00  0.00     0.020 A 
ENDROOT
BRANCH   1  12
ATOM     12  C   UNL     1      19.786  49.397  88.845  1.00  0.00     0.025 A 
ATOM     13  C   UNL     1      18.406  49.178  88.986  1.00  0.00     0.016 A 
ATOM     14  C   UNL     1      17.567  50.212  89.414  1.00  0.00     0.051 A 
ATOM     15  C   UNL     1      18.094  51.478  89.696  1.00  0.00     0.157 A 
ATOM     16  C   UNL     1      20.306  50.674  89.108  1.00  0.00     0.062 A 
ATOM     17  C   UNL     1      19.470  51.711  89.538  1.00  0.00     0.158 A 
BRANCH  15  18
ATOM     18  O   UNL     1      17.256  52.506  90.125  1.00  0.00    -0.504 OA
ATOM     19  H   UNL     1      16.262  52.360  90.259  1.00  0.00     0.293 HD
ENDBRANCH  15  18
BRANCH  17  20
ATOM     20  O   UNL     1      20.025  52.963  89.803  1.00  0.00    -0.504 OA
ATOM     21  H   UNL     1      20.912  53.253  89.409  1.00  0.00     0.293 HD
ENDBRANCH  17  20
ENDBRANCH   1  12
BRANCH   2  22
ATOM     22  O   UNL     1      21.266  49.565  86.350  1.00  0.00    -0.502 OA
ATOM     23  H   UNL     1      21.148  49.495  85.346  1.00  0.00     0.293 HD
ENDBRANCH   2  22
BRANCH   9  24
ATOM     24  O   UNL     1      22.520  42.891  90.123  1.00  0.00    -0.508 OA
ATOM     25  H   UNL     1      22.697  41.960  89.762  1.00  0.00     0.293 HD
ENDBRANCH   9  24
TORSDOF 5
ENDMDL
MODEL 4
REMARK VINA RESULT:    -4.577      2.312      3.641
REMARK INTER + INTRA:          -5.465
REMARK INTER:                  -5.155
REMARK INTRA:                  -0.310
REMARK UNBOUND:                -0.086
REMARK SMILES O=c1c(O)c(-c2ccc(O)c(O)c2)oc2cc(O)ccc12
REMARK SMILES IDX 5 1 3 2 2 3 1 4 21 5 15 6 14 7 16 8 17 9 19 10 20 11 6 12
REMARK SMILES IDX 7 13 8 14 9 15 13 16 11 17 10 18 12 20 4 22 18 24
REMARK H PARENT 10 19 12 21 4 23 18 25
REMARK Flexibility Score: inf
ROOT
ATOM      1  C   UNL     1      20.893  48.081  88.392  1.00  0.00     0.180 A 
ATOM      2  C   UNL     1      20.083  47.085  88.977  1.00  0.00     0.208 A 
ATOM      3  C   UNL     1      18.869  47.463  89.569  1.00  0.00     0.235 A 
ATOM      4  O   UNL     1      18.131  46.593  90.109  1.00  0.00    -0.285 OA
ATOM      5  C   UNL     1      18.480  48.812  89.547  1.00  0.00     0.069 A 
ATOM      6  C   UNL     1      19.335  49.745  88.921  1.00  0.00     0.142 A 
ATOM      7  O   UNL     1      20.481  49.347  88.381  1.00  0.00    -0.452 OA
ATOM      8  C   UNL     1      18.979  51.096  88.871  1.00  0.00     0.094 A 
ATOM      9  C   UNL     1      17.778  51.531  89.440  1.00  0.00     0.119 A 
ATOM     10  C   UNL     1      16.927  50.609  90.064  1.00  0.00     0.047 A 
ATOM     11  C   UNL     1      17.273  49.256  90.119  1.00  0.00     0.020 A 
ENDROOT
BRANCH   1  12
ATOM     12  C   UNL     1      22.197  47.766  87.764  1.00  0.00     0.025 A 
ATOM     13  C   UNL     1      22.302  47.508  86.387  1.00  0.00     0.016 A 
ATOM     14  C   UNL     1      23.540  47.189  85.821  1.00  0.00     0.051 A 
ATOM     15  C   UNL     1      24.685  47.111  86.624  1.00  0.00     0.157 A 
ATOM     16  C   UNL     1      23.344  47.665  88.568  1.00  0.00     0.062 A 
ATOM     17  C   UNL     1      24.585  47.347  88.004  1.00  0.00     0.158 A 
BRANCH  15  18
ATOM     18  O   UNL     1      25.918  46.795  86.056  1.00  0.00    -0.504 OA
ATOM     19  H   UNL     1      26.437  45.971  86.337  1.00  0.00     0.293 HD
ENDBRANCH  15  18
BRANCH  17  20
ATOM     20  O   UNL     1      25.705  47.270  88.832  1.00  0.00    -0.504 OA
ATOM     21  H   UNL     1      25.746  47.741  89.728  1.00  0.00     0.293 HD
ENDBRANCH  17  20
ENDBRANCH   1  12
BRANCH   2  22
ATOM     22  O   UNL     1      20.473  45.744  88.940  1.00  0.00    -0.502 OA
ATOM     23  H   UNL     1      20.301  45.109  89.710  1.00  0.00     0.293 HD
ENDBRANCH   2  22
BRANCH   9  24
ATOM     24  O   UNL     1      17.438  52.881  89.381  1.00  0.00    -0.508 OA
ATOM     25  H   UNL     1      17.042  53.364  90.179  1.00  0.00     0.293 HD
ENDBRANCH   9  24
TORSDOF 5
ENDMDL
MODEL 5
REMARK VINA RESULT:    -4.419      1.343      6.696
REMARK INTER + INTRA:          -5.280
REMARK INTER:                  -4.969
REMARK INTRA:                  -0.312
REMARK UNBOUND:                -0.086
REMARK SMILES O=c1c(O)c(-c2ccc(O)c(O)c2)oc2cc(O)ccc12
REMARK SMILES IDX 5 1 3 2 2 3 1 4 21 5 15 6 14 7 16 8 17 9 19 10 20 11 6 12
REMARK SMILES IDX 7 13 8 14 9 15 13 16 11 17 10 18 12 20 4 22 18 24
REMARK H PARENT 10 19 12 21 4 23 18 25
REMARK Flexibility Score: inf
ROOT
ATOM      1  C   UNL     1      22.889  47.530  87.675  1.00  0.00     0.180 A 
ATOM      2  C   UNL     1      22.438  46.194  87.704  1.00  0.00     0.208 A 
ATOM      3  C   UNL     1      23.230  45.200  87.112  1.00  0.00     0.235 A 
ATOM      4  O   UNL     1      22.843  43.998  87.115  1.00  0.00    -0.285 OA
ATOM      5  C   UNL     1      24.457  45.551  86.526  1.00  0.00     0.069 A 
ATOM      6  C   UNL     1      24.849  46.907  86.559  1.00  0.00     0.142 A 
ATOM      7  O   UNL     1      24.065  47.820  87.122  1.00  0.00    -0.452 OA
ATOM      8  C   UNL     1      26.068  47.296  85.994  1.00  0.00     0.094 A 
ATOM      9  C   UNL     1      26.903  46.348  85.393  1.00  0.00     0.119 A 
ATOM     10  C   UNL     1      26.516  45.001  85.357  1.00  0.00     0.047 A 
ATOM     11  C   UNL     1      25.300  44.602  85.920  1.00  0.00     0.020 A 
ENDROOT
BRANCH   1  12
ATOM     12  C   UNL     1      22.102  48.639  88.261  1.00  0.00     0.025 A 
ATOM     13  C   UNL     1      22.307  49.061  89.586  1.00  0.00     0.016 A 
ATOM     14  C   UNL     1      21.535  50.095  90.125  1.00  0.00     0.051 A 
ATOM     15  C   UNL     1      20.541  50.711  89.354  1.00  0.00     0.157 A 
ATOM     16  C   UNL     1      21.090  49.245  87.500  1.00  0.00     0.062 A 
ATOM     17  C   UNL     1      20.316  50.281  88.036  1.00  0.00     0.158 A 
BRANCH  15  18
ATOM     18  O   UNL     1      19.775  51.742  89.895  1.00  0.00    -0.504 OA
ATOM     19  H   UNL     1      19.754  52.664  89.476  1.00  0.00     0.293 HD
ENDBRANCH  15  18
BRANCH  17  20
ATOM     20  O   UNL     1      19.329  50.869  87.245  1.00  0.00    -0.504 OA
ATOM     21  H   UNL     1      18.359  50.581  87.292  1.00  0.00     0.293 HD
ENDBRANCH  17  20
ENDBRANCH   1  12
BRANCH   2  22
ATOM     22  O   UNL     1      21.236  45.867  88.338  1.00  0.00    -0.502 OA
ATOM     23  H   UNL     1      20.998  46.214  89.259  1.00  0.00     0.293 HD
ENDBRANCH   2  22
BRANCH   9  24
ATOM     24  O   UNL     1      28.114  46.753  84.836  1.00  0.00    -0.508 OA
ATOM     25  H   UNL     1      28.877  46.101  84.696  1.00  0.00     0.293 HD
ENDBRANCH   9  24
TORSDOF 5
ENDMDL
MODEL 6
REMARK VINA RESULT:    -4.323      1.631      6.927
REMARK INTER + INTRA:          -5.167
REMARK INTER:                  -4.847
REMARK INTRA:                  -0.320
REMARK UNBOUND:                -0.086
REMARK SMILES O=c1c(O)c(-c2ccc(O)c(O)c2)oc2cc(O)ccc12
REMARK SMILES IDX 5 1 3 2 2 3 1 4 21 5 15 6 14 7 16 8 17 9 19 10 20 11 6 12
REMARK SMILES IDX 7 13 8 14 9 15 13 16 11 17 10 18 12 20 4 22 18 24
REMARK H PARENT 10 19 12 21 4 23 18 25
REMARK Flexibility Score: inf
ROOT
ATOM      1  C   UNL     1      23.609  47.710  87.758  1.00  0.00     0.180 A 
ATOM      2  C   UNL     1      24.807  48.331  88.168  1.00  0.00     0.208 A 
ATOM      3  C   UNL     1      26.026  47.828  87.690  1.00  0.00     0.235 A 
ATOM      4  O   UNL     1      27.113  48.359  88.050  1.00  0.00    -0.285 OA
ATOM      5  C   UNL     1      26.025  46.741  86.802  1.00  0.00     0.069 A 
ATOM      6  C   UNL     1      24.782  46.190  86.421  1.00  0.00     0.142 A 
ATOM      7  O   UNL     1      23.650  46.689  86.905  1.00  0.00    -0.452 OA
ATOM      8  C   UNL     1      24.738  45.111  85.532  1.00  0.00     0.094 A 
ATOM      9  C   UNL     1      25.921  44.571  85.018  1.00  0.00     0.119 A 
ATOM     10  C   UNL     1      27.158  45.114  85.395  1.00  0.00     0.047 A 
ATOM     11  C   UNL     1      27.213  46.193  86.282  1.00  0.00     0.020 A 
ENDROOT
BRANCH   1  12
ATOM     12  C   UNL     1      22.283  48.168  88.233  1.00  0.00     0.025 A 
ATOM     13  C   UNL     1      21.671  47.594  89.361  1.00  0.00     0.016 A 
ATOM     14  C   UNL     1      20.409  48.027  89.776  1.00  0.00     0.051 A 
ATOM     15  C   UNL     1      19.735  49.029  89.065  1.00  0.00     0.157 A 
ATOM     16  C   UNL     1      21.595  49.157  87.512  1.00  0.00     0.062 A 
ATOM     17  C   UNL     1      20.331  49.593  87.925  1.00  0.00     0.158 A 
BRANCH  15  18
ATOM     18  O   UNL     1      18.477  49.459  89.484  1.00  0.00    -0.504 OA
ATOM     19  H   UNL     1      17.630  49.156  89.018  1.00  0.00     0.293 HD
ENDBRANCH  15  18
BRANCH  17  20
ATOM     20  O   UNL     1      19.683  50.587  87.191  1.00  0.00    -0.504 OA
ATOM     21  H   UNL     1      19.115  51.300  87.634  1.00  0.00     0.293 HD
ENDBRANCH  17  20
ENDBRANCH   1  12
BRANCH   2  22
ATOM     22  O   UNL     1      24.774  49.443  89.013  1.00  0.00    -0.502 OA
ATOM     23  H   UNL     1      24.698  49.356  90.019  1.00  0.00     0.293 HD
ENDBRANCH   2  22
BRANCH   9  24
ATOM     24  O   UNL     1      25.859  43.497  84.133  1.00  0.00    -0.508 OA
ATOM     25  H   UNL     1      26.136  43.593  83.162  1.00  0.00     0.293 HD
ENDBRANCH   9  24
TORSDOF 5
ENDMDL
MODEL 7
REMARK VINA RESULT:    -4.305      2.095      3.813
REMARK INTER + INTRA:          -5.146
REMARK INTER:                  -5.000
REMARK INTRA:                  -0.147
REMARK UNBOUND:                -0.086
REMARK SMILES O=c1c(O)c(-c2ccc(O)c(O)c2)oc2cc(O)ccc12
REMARK SMILES IDX 5 1 3 2 2 3 1 4 21 5 15 6 14 7 16 8 17 9 19 10 20 11 6 12
REMARK SMILES IDX 7 13 8 14 9 15 13 16 11 17 10 18 12 20 4 22 18 24
REMARK H PARENT 10 19 12 21 4 23 18 25
REMARK Flexibility Score: inf
ROOT
ATOM      1  C   UNL     1      21.926  47.682  88.152  1.00  0.00     0.180 A 
ATOM      2  C   UNL     1      21.753  49.081  88.203  1.00  0.00     0.208 A 
ATOM      3  C   UNL     1      20.517  49.594  88.622  1.00  0.00     0.235 A 
ATOM      4  O   UNL     1      20.333  50.841  88.666  1.00  0.00    -0.285 OA
ATOM      5  C   UNL     1      19.494  48.709  89.000  1.00  0.00     0.069 A 
ATOM      6  C   UNL     1      19.754  47.323  88.944  1.00  0.00     0.142 A 
ATOM      7  O   UNL     1      20.936  46.877  88.531  1.00  0.00    -0.452 OA
ATOM      8  C   UNL     1      18.764  46.409  89.320  1.00  0.00     0.094 A 
ATOM      9  C   UNL     1      17.513  46.862  89.752  1.00  0.00     0.119 A 
ATOM     10  C   UNL     1      17.250  48.238  89.807  1.00  0.00     0.047 A 
ATOM     11  C   UNL     1      18.233  49.159  89.434  1.00  0.00     0.020 A 
ENDROOT
BRANCH   1  12
ATOM     12  C   UNL     1      23.194  47.062  87.702  1.00  0.00     0.025 A 
ATOM     13  C   UNL     1      24.394  47.256  88.408  1.00  0.00     0.016 A 
ATOM     14  C   UNL     1      25.583  46.680  87.950  1.00  0.00     0.051 A 
ATOM     15  C   UNL     1      25.593  45.915  86.777  1.00  0.00     0.157 A 
ATOM     16  C   UNL     1      23.213  46.312  86.515  1.00  0.00     0.062 A 
ATOM     17  C   UNL     1      24.402  45.734  86.055  1.00  0.00     0.158 A 
BRANCH  15  18
ATOM     18  O   UNL     1      26.780  45.341  86.325  1.00  0.00    -0.504 OA
ATOM     19  H   UNL     1      27.541  45.127  86.958  1.00  0.00     0.293 HD
ENDBRANCH  15  18
BRANCH  17  20
ATOM     20  O   UNL     1      24.379  44.984  84.878  1.00  0.00    -0.504 OA
ATOM     21  H   UNL     1      24.981  44.181  84.740  1.00  0.00     0.293 HD
ENDBRANCH  17  20
ENDBRANCH   1  12
BRANCH   2  22
ATOM     22  O   UNL     1      22.806  49.936  87.868  1.00  0.00    -0.502 OA
ATOM     23  H   UNL     1      22.744  50.941  87.982  1.00  0.00     0.293 HD
ENDBRANCH   2  22
BRANCH   9  24
ATOM     24  O   UNL     1      16.538  45.939  90.124  1.00  0.00    -0.508 OA
ATOM     25  H   UNL     1      16.182  45.252  89.470  1.00  0.00     0.293 HD
ENDBRANCH   9  24
TORSDOF 5
ENDMDL
MODEL 8
REMARK VINA RESULT:    -4.283      2.251      3.085
REMARK INTER + INTRA:          -5.120
REMARK INTER:                  -5.102
REMARK INTRA:                  -0.017
REMARK UNBOUND:                -0.086
REMARK SMILES O=c1c(O)c(-c2ccc(O)c(O)c2)oc2cc(O)ccc12
REMARK SMILES IDX 5 1 3 2 2 3 1 4 21 5 15 6 14 7 16 8 17 9 19 10 20 11 6 12
REMARK SMILES IDX 7 13 8 14 9 15 13 16 11 17 10 18 12 20 4 22 18 24
REMARK H PARENT 10 19 12 21 4 23 18 25
REMARK Flexibility Score: inf
ROOT
ATOM      1  C   UNL     1      25.067  48.135  87.203  1.00  0.00     0.180 A 
ATOM      2  C   UNL     1      25.618  48.754  88.344  1.00  0.00     0.208 A 
ATOM      3  C   UNL     1      24.809  49.611  89.105  1.00  0.00     0.235 A 
ATOM      4  O   UNL     1      25.281  50.185  90.125  1.00  0.00    -0.285 OA
ATOM      5  C   UNL     1      23.472  49.814  88.729  1.00  0.00     0.069 A 
ATOM      6  C   UNL     1      22.989  49.139  87.586  1.00  0.00     0.142 A 
ATOM      7  O   UNL     1      23.791  48.343  86.887  1.00  0.00    -0.452 OA
ATOM      8  C   UNL     1      21.660  49.308  87.184  1.00  0.00     0.094 A 
ATOM      9  C   UNL     1      20.804  50.146  87.906  1.00  0.00     0.119 A 
ATOM     10  C   UNL     1      21.281  50.820  89.039  1.00  0.00     0.047 A 
ATOM     11  C   UNL     1      22.606  50.657  89.451  1.00  0.00     0.020 A 
ENDROOT
BRANCH   1  12
ATOM     12  C   UNL     1      25.861  47.233  86.337  1.00  0.00     0.025 A 
ATOM     13  C   UNL     1      27.122  47.612  85.847  1.00  0.00     0.016 A 
ATOM     14  C   UNL     1      27.843  46.753  85.012  1.00  0.00     0.051 A 
ATOM     15  C   UNL     1      27.309  45.511  84.645  1.00  0.00     0.157 A 
ATOM     16  C   UNL     1      25.321  45.996  85.950  1.00  0.00     0.062 A 
ATOM     17  C   UNL     1      26.040  45.133  85.114  1.00  0.00     0.158 A 
BRANCH  15  18
ATOM     18  O   UNL     1      28.031  44.656  83.814  1.00  0.00    -0.504 OA
ATOM     19  H   UNL     1      28.961  44.337  84.058  1.00  0.00     0.293 HD
ENDBRANCH  15  18
BRANCH  17  20
ATOM     20  O   UNL     1      25.477  43.906  84.761  1.00  0.00    -0.504 OA
ATOM     21  H   UNL     1      25.571  43.519  83.830  1.00  0.00     0.293 HD
ENDBRANCH  17  20
ENDBRANCH   1  12
BRANCH   2  22
ATOM     22  O   UNL     1      26.937  48.494  88.723  1.00  0.00    -0.502 OA
ATOM     23  H   UNL     1      27.489  47.761  88.294  1.00  0.00     0.293 HD
ENDBRANCH   2  22
BRANCH   9  24
ATOM     24  O   UNL     1      19.484  50.303  87.491  1.00  0.00    -0.508 OA
ATOM     25  H   UNL     1      18.707  50.013  88.074  1.00  0.00     0.293 HD
ENDBRANCH   9  24
TORSDOF 5
ENDMDL
MODEL 9
REMARK VINA RESULT:    -4.014      1.803      2.827
REMARK INTER + INTRA:          -4.804
REMARK INTER:                  -4.513
REMARK INTRA:                  -0.291
REMARK UNBOUND:                -0.086
REMARK SMILES O=c1c(O)c(-c2ccc(O)c(O)c2)oc2cc(O)ccc12
REMARK SMILES IDX 5 1 3 2 2 3 1 4 21 5 15 6 14 7 16 8 17 9 19 10 20 11 6 12
REMARK SMILES IDX 7 13 8 14 9 15 13 16 11 17 10 18 12 20 4 22 18 24
REMARK H PARENT 10 19 12 21 4 23 18 25
REMARK Flexibility Score: inf
ROOT
ATOM      1  C   UNL     1      21.634  46.837  88.481  1.00  0.00     0.180 A 
ATOM      2  C   UNL     1      20.777  45.898  89.091  1.00  0.00     0.208 A 
ATOM      3  C   UNL     1      19.530  46.329  89.565  1.00  0.00     0.235 A 
ATOM      4  O   UNL     1      18.749  45.511  90.125  1.00  0.00    -0.285 OA
ATOM      5  C   UNL     1      19.156  47.673  89.403  1.00  0.00     0.069 A 
ATOM      6  C   UNL     1      20.060  48.546  88.760  1.00  0.00     0.142 A 
ATOM      7  O   UNL     1      21.237  48.099  88.334  1.00  0.00    -0.452 OA
ATOM      8  C   UNL     1      19.721  49.890  88.572  1.00  0.00     0.094 A 
ATOM      9  C   UNL     1      18.489  50.376  89.019  1.00  0.00     0.119 A 
ATOM     10  C   UNL     1      17.589  49.513  89.660  1.00  0.00     0.047 A 
ATOM     11  C   UNL     1      17.917  48.168  89.852  1.00  0.00     0.020 A 
ENDROOT
BRANCH   1  12
ATOM     12  C   UNL     1      22.974  46.464  87.972  1.00  0.00     0.025 A 
ATOM     13  C   UNL     1      24.139  46.742  88.707  1.00  0.00     0.016 A 
ATOM     14  C   UNL     1      25.395  46.402  88.195  1.00  0.00     0.051 A 
ATOM     15  C   UNL     1      25.505  45.793  86.938  1.00  0.00     0.157 A 
ATOM     16  C   UNL     1      23.091  45.873  86.703  1.00  0.00     0.062 A 
ATOM     17  C   UNL     1      24.347  45.531  86.188  1.00  0.00     0.158 A 
BRANCH  15  18
ATOM     18  O   UNL     1      26.759  45.455  86.431  1.00  0.00    -0.504 OA
ATOM     19  H   UNL     1      26.869  45.072  85.500  1.00  0.00     0.293 HD
ENDBRANCH  15  18
BRANCH  17  20
ATOM     20  O   UNL     1      24.423  44.933  84.930  1.00  0.00    -0.504 OA
ATOM     21  H   UNL     1      25.203  45.094  84.304  1.00  0.00     0.293 HD
ENDBRANCH  17  20
ENDBRANCH   1  12
BRANCH   2  22
ATOM     22  O   UNL     1      21.156  44.557  89.194  1.00  0.00    -0.502 OA
ATOM     23  H   UNL     1      21.748  44.107  88.506  1.00  0.00     0.293 HD
ENDBRANCH   2  22
BRANCH   9  24
ATOM     24  O   UNL     1      18.167  51.717  88.823  1.00  0.00    -0.508 OA
ATOM     25  H   UNL     1      18.729  52.462  89.220  1.00  0.00     0.293 HD
ENDBRANCH   9  24
TORSDOF 5
ENDMDL
