MODEL 1
REMARK VINA RESULT:    -6.281      0.000      0.000
REMARK INTER + INTRA:          -7.757
REMARK INTER:                  -7.566
REMARK INTRA:                  -0.191
REMARK UNBOUND:                -0.191
REMARK SMILES O=c1c(O)c(-c2ccc(O)c(O)c2)oc2cc(O)cc(O)c12
REMARK SMILES IDX 5 1 3 2 2 3 1 4 22 5 20 6 19 7 17 8 16 9 15 10 14 11 6 12
REMARK SMILES IDX 7 13 8 14 9 15 13 16 11 17 10 18 12 20 4 22 21 24 18 26
REMARK H PARENT 10 19 12 21 4 23 21 25 18 27
REMARK Flexibility Score: inf
ROOT
ATOM      1  C   UNL     1     -16.752  -1.543 -16.682  1.00  0.00     0.180 A 
ATOM      2  C   UNL     1     -17.804  -2.444 -16.939  1.00  0.00     0.208 A 
ATOM      3  C   UNL     1     -17.500  -3.796 -17.157  1.00  0.00     0.238 A 
ATOM      4  O   UNL     1     -18.434  -4.614 -17.378  1.00  0.00    -0.285 OA
ATOM      5  C   UNL     1     -16.156  -4.222 -17.133  1.00  0.00     0.111 A 
ATOM      6  C   UNL     1     -15.764  -5.565 -17.347  1.00  0.00     0.134 A 
ATOM      7  C   UNL     1     -14.404  -5.908 -17.316  1.00  0.00     0.093 A 
ATOM      8  C   UNL     1     -13.430  -4.935 -17.079  1.00  0.00     0.123 A 
ATOM      9  C   UNL     1     -13.811  -3.607 -16.867  1.00  0.00     0.094 A 
ATOM     10  C   UNL     1     -15.161  -3.245 -16.891  1.00  0.00     0.146 A 
ATOM     11  O   UNL     1     -15.495  -1.977 -16.682  1.00  0.00    -0.452 OA
ENDROOT
BRANCH   1  12
ATOM     12  C   UNL     1     -16.994  -0.105 -16.424  1.00  0.00     0.025 A 
ATOM     13  C   UNL     1     -17.672   0.283 -15.258  1.00  0.00     0.016 A 
ATOM     14  C   UNL     1     -17.929   1.632 -15.004  1.00  0.00     0.051 A 
ATOM     15  C   UNL     1     -17.527   2.612 -15.920  1.00  0.00     0.157 A 
ATOM     16  C   UNL     1     -16.610   0.880 -17.352  1.00  0.00     0.062 A 
ATOM     17  C   UNL     1     -16.869   2.236 -17.099  1.00  0.00     0.158 A 
BRANCH  15  18
ATOM     18  O   UNL     1     -17.780   3.960 -15.671  1.00  0.00    -0.504 OA
ATOM     19  H   UNL     1     -17.913   4.309 -14.729  1.00  0.00     0.293 HD
ENDBRANCH  15  18
BRANCH  17  20
ATOM     20  O   UNL     1     -16.482   3.211 -18.016  1.00  0.00    -0.504 OA
ATOM     21  H   UNL     1     -16.091   4.095 -17.716  1.00  0.00     0.293 HD
ENDBRANCH  17  20
ENDBRANCH   1  12
BRANCH   2  22
ATOM     22  O   UNL     1     -19.123  -1.988 -17.006  1.00  0.00    -0.502 OA
ATOM     23  H   UNL     1     -19.361  -1.005 -16.951  1.00  0.00     0.293 HD
ENDBRANCH   2  22
BRANCH   6  24
ATOM     24  O   UNL     1     -16.713  -6.559 -17.588  1.00  0.00    -0.507 OA
ATOM     25  H   UNL     1     -16.851  -7.332 -16.945  1.00  0.00     0.293 HD
ENDBRANCH   6  24
BRANCH   8  26
ATOM     26  O   UNL     1     -12.087  -5.301 -17.054  1.00  0.00    -0.508 OA
ATOM     27  H   UNL     1     -11.358  -4.665 -17.357  1.00  0.00     0.293 HD
ENDBRANCH   8  26
TORSDOF 6
ENDMDL
MODEL 2
REMARK VINA RESULT:    -6.087      0.658      1.431
REMARK INTER + INTRA:          -7.523
REMARK INTER:                  -7.266
REMARK INTRA:                  -0.257
REMARK UNBOUND:                -0.191
REMARK SMILES O=c1c(O)c(-c2ccc(O)c(O)c2)oc2cc(O)cc(O)c12
REMARK SMILES IDX 5 1 3 2 2 3 1 4 22 5 20 6 19 7 17 8 16 9 15 10 14 11 6 12
REMARK SMILES IDX 7 13 8 14 9 15 13 16 11 17 10 18 12 20 4 22 21 24 18 26
REMARK H PARENT 10 19 12 21 4 23 21 25 18 27
REMARK Flexibility Score: inf
ROOT
ATOM      1  C   UNL     1     -16.748  -1.304 -16.972  1.00  0.00     0.180 A 
ATOM      2  C   UNL     1     -17.848  -2.139 -17.244  1.00  0.00     0.208 A 
ATOM      3  C   UNL     1     -17.635  -3.520 -17.379  1.00  0.00     0.238 A 
ATOM      4  O   UNL     1     -18.614  -4.278 -17.612  1.00  0.00    -0.285 OA
ATOM      5  C   UNL     1     -16.329  -4.038 -17.260  1.00  0.00     0.111 A 
ATOM      6  C   UNL     1     -16.028  -5.415 -17.387  1.00  0.00     0.134 A 
ATOM      7  C   UNL     1     -14.701  -5.852 -17.264  1.00  0.00     0.093 A 
ATOM      8  C   UNL     1     -13.671  -4.941 -17.020  1.00  0.00     0.123 A 
ATOM      9  C   UNL     1     -13.962  -3.579 -16.894  1.00  0.00     0.094 A 
ATOM     10  C   UNL     1     -15.279  -3.124 -17.011  1.00  0.00     0.146 A 
ATOM     11  O   UNL     1     -15.528  -1.826 -16.881  1.00  0.00    -0.452 OA
ENDROOT
BRANCH   1  12
ATOM     12  C   UNL     1     -16.895   0.159 -16.797  1.00  0.00     0.025 A 
ATOM     13  C   UNL     1     -16.374   1.027 -17.770  1.00  0.00     0.016 A 
ATOM     14  C   UNL     1     -16.482   2.411 -17.616  1.00  0.00     0.051 A 
ATOM     15  C   UNL     1     -17.100   2.948 -16.479  1.00  0.00     0.157 A 
ATOM     16  C   UNL     1     -17.495   0.703 -15.647  1.00  0.00     0.062 A 
ATOM     17  C   UNL     1     -17.604   2.093 -15.491  1.00  0.00     0.158 A 
BRANCH  15  18
ATOM     18  O   UNL     1     -17.212   4.329 -16.322  1.00  0.00    -0.504 OA
ATOM     19  H   UNL     1     -18.087   4.761 -16.052  1.00  0.00     0.293 HD
ENDBRANCH  15  18
BRANCH  17  20
ATOM     20  O   UNL     1     -18.204   2.630 -14.354  1.00  0.00    -0.504 OA
ATOM     21  H   UNL     1     -19.133   3.033 -14.385  1.00  0.00     0.293 HD
ENDBRANCH  17  20
ENDBRANCH   1  12
BRANCH   2  22
ATOM     22  O   UNL     1     -19.125  -1.594 -17.406  1.00  0.00    -0.502 OA
ATOM     23  H   UNL     1     -19.459  -1.251 -18.299  1.00  0.00     0.293 HD
ENDBRANCH   2  22
BRANCH   6  24
ATOM     24  O   UNL     1     -17.034  -6.350 -17.633  1.00  0.00    -0.507 OA
ATOM     25  H   UNL     1     -17.368  -6.977 -16.909  1.00  0.00     0.293 HD
ENDBRANCH   6  24
BRANCH   8  26
ATOM     26  O   UNL     1     -12.361  -5.400 -16.904  1.00  0.00    -0.508 OA
ATOM     27  H   UNL     1     -12.021  -6.178 -17.457  1.00  0.00     0.293 HD
ENDBRANCH   8  26
TORSDOF 6
ENDMDL
MODEL 3
REMARK VINA RESULT:    -6.038      3.822      6.726
REMARK INTER + INTRA:          -7.465
REMARK INTER:                  -7.248
REMARK INTRA:                  -0.217
REMARK UNBOUND:                -0.191
REMARK SMILES O=c1c(O)c(-c2ccc(O)c(O)c2)oc2cc(O)cc(O)c12
REMARK SMILES IDX 5 1 3 2 2 3 1 4 22 5 20 6 19 7 17 8 16 9 15 10 14 11 6 12
REMARK SMILES IDX 7 13 8 14 9 15 13 16 11 17 10 18 12 20 4 22 21 24 18 26
REMARK H PARENT 10 19 12 21 4 23 21 25 18 27
REMARK Flexibility Score: inf
ROOT
ATOM      1  C   UNL     1     -12.493  -2.665 -18.763  1.00  0.00     0.180 A 
ATOM      2  C   UNL     1     -12.528  -3.942 -18.172  1.00  0.00     0.208 A 
ATOM      3  C   UNL     1     -13.705  -4.364 -17.535  1.00  0.00     0.238 A 
ATOM      4  O   UNL     1     -13.751  -5.509 -17.012  1.00  0.00    -0.285 OA
ATOM      5  C   UNL     1     -14.817  -3.497 -17.480  1.00  0.00     0.111 A 
ATOM      6  C   UNL     1     -16.038  -3.842 -16.854  1.00  0.00     0.134 A 
ATOM      7  C   UNL     1     -17.096  -2.921 -16.835  1.00  0.00     0.093 A 
ATOM      8  C   UNL     1     -16.955  -1.663 -17.426  1.00  0.00     0.123 A 
ATOM      9  C   UNL     1     -15.752  -1.317 -18.047  1.00  0.00     0.094 A 
ATOM     10  C   UNL     1     -14.686  -2.222 -18.079  1.00  0.00     0.146 A 
ATOM     11  O   UNL     1     -13.556  -1.868 -18.679  1.00  0.00    -0.452 OA
ENDROOT
BRANCH   1  12
ATOM     12  C   UNL     1     -11.295  -2.157 -19.469  1.00  0.00     0.025 A 
ATOM     13  C   UNL     1     -10.921  -2.731 -20.694  1.00  0.00     0.016 A 
ATOM     14  C   UNL     1      -9.782  -2.283 -21.368  1.00  0.00     0.051 A 
ATOM     15  C   UNL     1      -8.993  -1.264 -20.820  1.00  0.00     0.157 A 
ATOM     16  C   UNL     1     -10.488  -1.149 -18.912  1.00  0.00     0.062 A 
ATOM     17  C   UNL     1      -9.344  -0.698 -19.587  1.00  0.00     0.158 A 
BRANCH  15  18
ATOM     18  O   UNL     1      -7.857  -0.812 -21.489  1.00  0.00    -0.504 OA
ATOM     19  H   UNL     1      -7.058  -0.443 -20.987  1.00  0.00     0.293 HD
ENDBRANCH  15  18
BRANCH  17  20
ATOM     20  O   UNL     1      -8.549   0.306 -19.037  1.00  0.00    -0.504 OA
ATOM     21  H   UNL     1      -8.939   1.198 -18.758  1.00  0.00     0.293 HD
ENDBRANCH  17  20
ENDBRANCH   1  12
BRANCH   2  22
ATOM     22  O   UNL     1     -11.397  -4.762 -18.197  1.00  0.00    -0.502 OA
ATOM     23  H   UNL     1     -10.752  -4.775 -18.978  1.00  0.00     0.293 HD
ENDBRANCH   2  22
BRANCH   6  24
ATOM     24  O   UNL     1     -16.209  -5.090 -16.253  1.00  0.00    -0.507 OA
ATOM     25  H   UNL     1     -16.337  -5.187 -15.252  1.00  0.00     0.293 HD
ENDBRANCH   6  24
BRANCH   8  26
ATOM     26  O   UNL     1     -18.020  -0.767 -17.393  1.00  0.00    -0.508 OA
ATOM     27  H   UNL     1     -17.941   0.166 -17.782  1.00  0.00     0.293 HD
ENDBRANCH   8  26
TORSDOF 6
ENDMDL
MODEL 4
REMARK VINA RESULT:    -6.000      1.595      2.794
REMARK INTER + INTRA:          -7.419
REMARK INTER:                  -7.737
REMARK INTRA:                   0.318
REMARK UNBOUND:                -0.191
REMARK SMILES O=c1c(O)c(-c2ccc(O)c(O)c2)oc2cc(O)cc(O)c12
REMARK SMILES IDX 5 1 3 2 2 3 1 4 22 5 20 6 19 7 17 8 16 9 15 10 14 11 6 12
REMARK SMILES IDX 7 13 8 14 9 15 13 16 11 17 10 18 12 20 4 22 21 24 18 26
REMARK H PARENT 10 19 12 21 4 23 21 25 18 27
REMARK Flexibility Score: inf
ROOT
ATOM      1  C   UNL     1     -16.827  -1.296 -16.717  1.00  0.00     0.180 A 
ATOM      2  C   UNL     1     -15.850  -1.719 -17.639  1.00  0.00     0.208 A 
ATOM      3  C   UNL     1     -15.725  -3.090 -17.915  1.00  0.00     0.238 A 
ATOM      4  O   UNL     1     -14.862  -3.479 -18.746  1.00  0.00    -0.285 OA
ATOM      5  C   UNL     1     -16.562  -4.013 -17.254  1.00  0.00     0.111 A 
ATOM      6  C   UNL     1     -16.499  -5.410 -17.471  1.00  0.00     0.134 A 
ATOM      7  C   UNL     1     -17.361  -6.264 -16.768  1.00  0.00     0.093 A 
ATOM      8  C   UNL     1     -18.281  -5.750 -15.851  1.00  0.00     0.123 A 
ATOM      9  C   UNL     1     -18.349  -4.371 -15.632  1.00  0.00     0.094 A 
ATOM     10  C   UNL     1     -17.500  -3.502 -16.325  1.00  0.00     0.146 A 
ATOM     11  O   UNL     1     -17.589  -2.196 -16.101  1.00  0.00    -0.452 OA
ENDROOT
BRANCH   1  12
ATOM     12  C   UNL     1     -17.031   0.133 -16.388  1.00  0.00     0.025 A 
ATOM     13  C   UNL     1     -17.668   0.480 -15.186  1.00  0.00     0.016 A 
ATOM     14  C   UNL     1     -17.891   1.821 -14.864  1.00  0.00     0.051 A 
ATOM     15  C   UNL     1     -17.493   2.834 -15.746  1.00  0.00     0.157 A 
ATOM     16  C   UNL     1     -16.653   1.152 -17.280  1.00  0.00     0.062 A 
ATOM     17  C   UNL     1     -16.877   2.499 -16.959  1.00  0.00     0.158 A 
BRANCH  15  18
ATOM     18  O   UNL     1     -17.711   4.174 -15.429  1.00  0.00    -0.504 OA
ATOM     19  H   UNL     1     -17.730   4.494 -14.468  1.00  0.00     0.293 HD
ENDBRANCH  15  18
BRANCH  17  20
ATOM     20  O   UNL     1     -16.495   3.508 -17.842  1.00  0.00    -0.504 OA
ATOM     21  H   UNL     1     -15.655   4.052 -17.693  1.00  0.00     0.293 HD
ENDBRANCH  17  20
ENDBRANCH   1  12
BRANCH   2  22
ATOM     22  O   UNL     1     -15.000  -0.789 -18.243  1.00  0.00    -0.502 OA
ATOM     23  H   UNL     1     -14.077  -0.581 -17.880  1.00  0.00     0.293 HD
ENDBRANCH   2  22
BRANCH   6  24
ATOM     24  O   UNL     1     -15.590  -5.954 -18.379  1.00  0.00    -0.507 OA
ATOM     25  H   UNL     1     -15.291  -5.446 -19.204  1.00  0.00     0.293 HD
ENDBRANCH   6  24
BRANCH   8  26
ATOM     26  O   UNL     1     -19.125  -6.619 -15.165  1.00  0.00    -0.508 OA
ATOM     27  H   UNL     1     -20.074  -6.358 -14.925  1.00  0.00     0.293 HD
ENDBRANCH   8  26
TORSDOF 6
ENDMDL
MODEL 5
REMARK VINA RESULT:    -5.933      3.531      5.282
REMARK INTER + INTRA:          -7.338
REMARK INTER:                  -7.037
REMARK INTRA:                  -0.301
REMARK UNBOUND:                -0.191
REMARK SMILES O=c1c(O)c(-c2ccc(O)c(O)c2)oc2cc(O)cc(O)c12
REMARK SMILES IDX 5 1 3 2 2 3 1 4 22 5 20 6 19 7 17 8 16 9 15 10 14 11 6 12
REMARK SMILES IDX 7 13 8 14 9 15 13 16 11 17 10 18 12 20 4 22 21 24 18 26
REMARK H PARENT 10 19 12 21 4 23 21 25 18 27
REMARK Flexibility Score: inf
ROOT
ATOM      1  C   UNL     1     -13.986  -2.751 -18.490  1.00  0.00     0.180 A 
ATOM      2  C   UNL     1     -13.945  -3.999 -19.141  1.00  0.00     0.208 A 
ATOM      3  C   UNL     1     -12.823  -4.322 -19.920  1.00  0.00     0.238 A 
ATOM      4  O   UNL     1     -12.771  -5.440 -20.499  1.00  0.00    -0.285 OA
ATOM      5  C   UNL     1     -11.773  -3.389 -20.051  1.00  0.00     0.111 A 
ATOM      6  C   UNL     1     -10.611  -3.634 -20.820  1.00  0.00     0.134 A 
ATOM      7  C   UNL     1      -9.614  -2.651 -20.907  1.00  0.00     0.093 A 
ATOM      8  C   UNL     1      -9.758  -1.429 -20.245  1.00  0.00     0.123 A 
ATOM      9  C   UNL     1     -10.904  -1.182 -19.483  1.00  0.00     0.094 A 
ATOM     10  C   UNL     1     -11.908  -2.150 -19.382  1.00  0.00     0.146 A 
ATOM     11  O   UNL     1     -12.984  -1.890 -18.648  1.00  0.00    -0.452 OA
ENDROOT
BRANCH   1  12
ATOM     12  C   UNL     1     -15.125  -2.346 -17.637  1.00  0.00     0.025 A 
ATOM     13  C   UNL     1     -16.059  -1.419 -18.126  1.00  0.00     0.016 A 
ATOM     14  C   UNL     1     -17.131  -1.006 -17.331  1.00  0.00     0.051 A 
ATOM     15  C   UNL     1     -17.276  -1.503 -16.029  1.00  0.00     0.157 A 
ATOM     16  C   UNL     1     -15.263  -2.825 -16.321  1.00  0.00     0.062 A 
ATOM     17  C   UNL     1     -16.338  -2.411 -15.521  1.00  0.00     0.158 A 
BRANCH  15  18
ATOM     18  O   UNL     1     -18.345  -1.095 -15.232  1.00  0.00    -0.504 OA
ATOM     19  H   UNL     1     -19.012  -0.405 -15.554  1.00  0.00     0.293 HD
ENDBRANCH  15  18
BRANCH  17  20
ATOM     20  O   UNL     1     -16.477  -2.892 -14.221  1.00  0.00    -0.504 OA
ATOM     21  H   UNL     1     -16.636  -3.874 -14.033  1.00  0.00     0.293 HD
ENDBRANCH  17  20
ENDBRANCH   1  12
BRANCH   2  22
ATOM     22  O   UNL     1     -15.020  -4.886 -19.036  1.00  0.00    -0.502 OA
ATOM     23  H   UNL     1     -15.874  -4.647 -18.546  1.00  0.00     0.293 HD
ENDBRANCH   2  22
BRANCH   6  24
ATOM     24  O   UNL     1     -10.438  -4.843 -21.494  1.00  0.00    -0.507 OA
ATOM     25  H   UNL     1     -10.928  -5.686 -21.213  1.00  0.00     0.293 HD
ENDBRANCH   6  24
BRANCH   8  26
ATOM     26  O   UNL     1      -8.754  -0.470 -20.349  1.00  0.00    -0.508 OA
ATOM     27  H   UNL     1      -8.927   0.504 -20.128  1.00  0.00     0.293 HD
ENDBRANCH   8  26
TORSDOF 6
ENDMDL
MODEL 6
REMARK VINA RESULT:    -5.786      3.163      5.646
REMARK INTER + INTRA:          -7.161
REMARK INTER:                  -6.851
REMARK INTRA:                  -0.310
REMARK UNBOUND:                -0.191
REMARK SMILES O=c1c(O)c(-c2ccc(O)c(O)c2)oc2cc(O)cc(O)c12
REMARK SMILES IDX 5 1 3 2 2 3 1 4 22 5 20 6 19 7 17 8 16 9 15 10 14 11 6 12
REMARK SMILES IDX 7 13 8 14 9 15 13 16 11 17 10 18 12 20 4 22 21 24 18 26
REMARK H PARENT 10 19 12 21 4 23 21 25 18 27
REMARK Flexibility Score: inf
ROOT
ATOM      1  C   UNL     1     -13.757  -3.195 -18.140  1.00  0.00     0.180 A 
ATOM      2  C   UNL     1     -14.151  -4.432 -18.685  1.00  0.00     0.208 A 
ATOM      3  C   UNL     1     -15.345  -5.021 -18.239  1.00  0.00     0.238 A 
ATOM      4  O   UNL     1     -15.713  -6.123 -18.727  1.00  0.00    -0.285 OA
ATOM      5  C   UNL     1     -16.111  -4.376 -17.246  1.00  0.00     0.111 A 
ATOM      6  C   UNL     1     -17.323  -4.903 -16.739  1.00  0.00     0.134 A 
ATOM      7  C   UNL     1     -18.024  -4.205 -15.744  1.00  0.00     0.093 A 
ATOM      8  C   UNL     1     -17.536  -2.994 -15.246  1.00  0.00     0.123 A 
ATOM      9  C   UNL     1     -16.340  -2.468 -15.744  1.00  0.00     0.094 A 
ATOM     10  C   UNL     1     -15.628  -3.148 -16.737  1.00  0.00     0.146 A 
ATOM     11  O   UNL     1     -14.497  -2.623 -17.194  1.00  0.00    -0.452 OA
ENDROOT
BRANCH   1  12
ATOM     12  C   UNL     1     -12.522  -2.503 -18.572  1.00  0.00     0.025 A 
ATOM     13  C   UNL     1     -11.295  -2.848 -17.984  1.00  0.00     0.016 A 
ATOM     14  C   UNL     1     -10.119  -2.193 -18.360  1.00  0.00     0.051 A 
ATOM     15  C   UNL     1     -10.156  -1.174 -19.321  1.00  0.00     0.157 A 
ATOM     16  C   UNL     1     -12.557  -1.464 -19.520  1.00  0.00     0.062 A 
ATOM     17  C   UNL     1     -11.377  -0.806 -19.899  1.00  0.00     0.158 A 
BRANCH  15  18
ATOM     18  O   UNL     1      -8.986  -0.519 -19.702  1.00  0.00    -0.504 OA
ATOM     19  H   UNL     1      -8.960   0.484 -19.835  1.00  0.00     0.293 HD
ENDBRANCH  15  18
BRANCH  17  20
ATOM     20  O   UNL     1     -11.413   0.219 -20.843  1.00  0.00    -0.504 OA
ATOM     21  H   UNL     1     -11.129   0.065 -21.803  1.00  0.00     0.293 HD
ENDBRANCH  17  20
ENDBRANCH   1  12
BRANCH   2  22
ATOM     22  O   UNL     1     -13.349  -5.074 -19.632  1.00  0.00    -0.502 OA
ATOM     23  H   UNL     1     -12.467  -5.511 -19.389  1.00  0.00     0.293 HD
ENDBRANCH   2  22
BRANCH   6  24
ATOM     24  O   UNL     1     -17.835  -6.110 -17.215  1.00  0.00    -0.507 OA
ATOM     25  H   UNL     1     -17.658  -6.989 -16.740  1.00  0.00     0.293 HD
ENDBRANCH   6  24
BRANCH   8  26
ATOM     26  O   UNL     1     -18.251  -2.321 -14.258  1.00  0.00    -0.508 OA
ATOM     27  H   UNL     1     -18.679  -1.420 -14.434  1.00  0.00     0.293 HD
ENDBRANCH   8  26
TORSDOF 6
ENDMDL
MODEL 7
REMARK VINA RESULT:    -5.741      3.226      5.278
REMARK INTER + INTRA:          -7.106
REMARK INTER:                  -6.851
REMARK INTRA:                  -0.255
REMARK UNBOUND:                -0.191
REMARK SMILES O=c1c(O)c(-c2ccc(O)c(O)c2)oc2cc(O)cc(O)c12
REMARK SMILES IDX 5 1 3 2 2 3 1 4 22 5 20 6 19 7 17 8 16 9 15 10 14 11 6 12
REMARK SMILES IDX 7 13 8 14 9 15 13 16 11 17 10 18 12 20 4 22 21 24 18 26
REMARK H PARENT 10 19 12 21 4 23 21 25 18 27
REMARK Flexibility Score: inf
ROOT
ATOM      1  C   UNL     1     -14.119  -3.258 -18.202  1.00  0.00     0.180 A 
ATOM      2  C   UNL     1     -13.410  -2.210 -18.819  1.00  0.00     0.208 A 
ATOM      3  C   UNL     1     -12.203  -2.501 -19.473  1.00  0.00     0.238 A 
ATOM      4  O   UNL     1     -11.564  -1.573 -20.039  1.00  0.00    -0.285 OA
ATOM      5  C   UNL     1     -11.716  -3.825 -19.483  1.00  0.00     0.111 A 
ATOM      6  C   UNL     1     -10.507  -4.201 -20.115  1.00  0.00     0.134 A 
ATOM      7  C   UNL     1     -10.086  -5.539 -20.073  1.00  0.00     0.093 A 
ATOM      8  C   UNL     1     -10.848  -6.504 -19.410  1.00  0.00     0.123 A 
ATOM      9  C   UNL     1     -12.043  -6.138 -18.784  1.00  0.00     0.094 A 
ATOM     10  C   UNL     1     -12.481  -4.811 -18.817  1.00  0.00     0.146 A 
ATOM     11  O   UNL     1     -13.622  -4.492 -18.218  1.00  0.00    -0.452 OA
ENDROOT
BRANCH   1  12
ATOM     12  C   UNL     1     -15.408  -3.034 -17.509  1.00  0.00     0.025 A 
ATOM     13  C   UNL     1     -16.568  -2.802 -18.265  1.00  0.00     0.016 A 
ATOM     14  C   UNL     1     -17.791  -2.567 -17.633  1.00  0.00     0.051 A 
ATOM     15  C   UNL     1     -17.869  -2.545 -16.234  1.00  0.00     0.157 A 
ATOM     16  C   UNL     1     -15.488  -2.990 -16.105  1.00  0.00     0.062 A 
ATOM     17  C   UNL     1     -16.715  -2.753 -15.469  1.00  0.00     0.158 A 
BRANCH  15  18
ATOM     18  O   UNL     1     -19.088  -2.313 -15.598  1.00  0.00    -0.504 OA
ATOM     19  H   UNL     1     -19.314  -2.748 -14.712  1.00  0.00     0.293 HD
ENDBRANCH  15  18
BRANCH  17  20
ATOM     20  O   UNL     1     -16.793  -2.717 -14.077  1.00  0.00    -0.504 OA
ATOM     21  H   UNL     1     -16.946  -1.850 -13.578  1.00  0.00     0.293 HD
ENDBRANCH  17  20
ENDBRANCH   1  12
BRANCH   2  22
ATOM     22  O   UNL     1     -13.888  -0.899 -18.753  1.00  0.00    -0.502 OA
ATOM     23  H   UNL     1     -13.525  -0.222 -18.093  1.00  0.00     0.293 HD
ENDBRANCH   2  22
BRANCH   6  24
ATOM     24  O   UNL     1      -9.724  -3.260 -20.784  1.00  0.00    -0.507 OA
ATOM     25  H   UNL     1      -8.716  -3.230 -20.674  1.00  0.00     0.293 HD
ENDBRANCH   6  24
BRANCH   8  26
ATOM     26  O   UNL     1     -10.407  -7.825 -19.382  1.00  0.00    -0.508 OA
ATOM     27  H   UNL     1     -10.908  -8.562 -19.866  1.00  0.00     0.293 HD
ENDBRANCH   8  26
TORSDOF 6
ENDMDL
MODEL 8
REMARK VINA RESULT:    -5.613      2.884      6.352
REMARK INTER + INTRA:          -6.953
REMARK INTER:                  -6.716
REMARK INTRA:                  -0.237
REMARK UNBOUND:                -0.191
REMARK SMILES O=c1c(O)c(-c2ccc(O)c(O)c2)oc2cc(O)cc(O)c12
REMARK SMILES IDX 5 1 3 2 2 3 1 4 22 5 20 6 19 7 17 8 16 9 15 10 14 11 6 12
REMARK SMILES IDX 7 13 8 14 9 15 13 16 11 17 10 18 12 20 4 22 21 24 18 26
REMARK H PARENT 10 19 12 21 4 23 21 25 18 27
REMARK Flexibility Score: inf
ROOT
ATOM      1  C   UNL     1     -14.759  -3.466 -18.103  1.00  0.00     0.180 A 
ATOM      2  C   UNL     1     -15.311  -2.187 -17.894  1.00  0.00     0.208 A 
ATOM      3  C   UNL     1     -16.552  -2.081 -17.248  1.00  0.00     0.238 A 
ATOM      4  O   UNL     1     -17.051  -0.941 -17.047  1.00  0.00    -0.285 OA
ATOM      5  C   UNL     1     -17.229  -3.250 -16.840  1.00  0.00     0.111 A 
ATOM      6  C   UNL     1     -18.484  -3.230 -16.187  1.00  0.00     0.134 A 
ATOM      7  C   UNL     1     -19.097  -4.438 -15.820  1.00  0.00     0.093 A 
ATOM      8  C   UNL     1     -18.481  -5.661 -16.095  1.00  0.00     0.123 A 
ATOM      9  C   UNL     1     -17.241  -5.686 -16.739  1.00  0.00     0.094 A 
ATOM     10  C   UNL     1     -16.613  -4.494 -17.112  1.00  0.00     0.146 A 
ATOM     11  O   UNL     1     -15.432  -4.547 -17.718  1.00  0.00    -0.452 OA
ENDROOT
BRANCH   1  12
ATOM     12  C   UNL     1     -13.447  -3.659 -18.760  1.00  0.00     0.025 A 
ATOM     13  C   UNL     1     -13.388  -4.289 -20.013  1.00  0.00     0.016 A 
ATOM     14  C   UNL     1     -12.159  -4.501 -20.642  1.00  0.00     0.051 A 
ATOM     15  C   UNL     1     -10.969  -4.099 -20.020  1.00  0.00     0.157 A 
ATOM     16  C   UNL     1     -12.249  -3.277 -18.129  1.00  0.00     0.062 A 
ATOM     17  C   UNL     1     -11.014  -3.490 -18.760  1.00  0.00     0.158 A 
BRANCH  15  18
ATOM     18  O   UNL     1      -9.740  -4.307 -20.645  1.00  0.00    -0.504 OA
ATOM     19  H   UNL     1      -9.506  -3.849 -21.518  1.00  0.00     0.293 HD
ENDBRANCH  15  18
BRANCH  17  20
ATOM     20  O   UNL     1      -9.828  -3.105 -18.137  1.00  0.00    -0.504 OA
ATOM     21  H   UNL     1      -9.031  -2.779 -18.669  1.00  0.00     0.293 HD
ENDBRANCH  17  20
ENDBRANCH   1  12
BRANCH   2  22
ATOM     22  O   UNL     1     -14.645  -1.048 -18.352  1.00  0.00    -0.502 OA
ATOM     23  H   UNL     1     -13.777  -1.099 -18.873  1.00  0.00     0.293 HD
ENDBRANCH   2  22
BRANCH   6  24
ATOM     24  O   UNL     1     -19.125  -2.025 -15.900  1.00  0.00    -0.507 OA
ATOM     25  H   UNL     1     -18.756  -1.135 -16.218  1.00  0.00     0.293 HD
ENDBRANCH   6  24
BRANCH   8  26
ATOM     26  O   UNL     1     -19.111  -6.845 -15.721  1.00  0.00    -0.508 OA
ATOM     27  H   UNL     1     -20.108  -6.979 -15.848  1.00  0.00     0.293 HD
ENDBRANCH   8  26
TORSDOF 6
ENDMDL
MODEL 9
REMARK VINA RESULT:    -5.493      2.268      7.002
REMARK INTER + INTRA:          -6.809
REMARK INTER:                  -6.493
REMARK INTRA:                  -0.315
REMARK UNBOUND:                -0.191
REMARK SMILES O=c1c(O)c(-c2ccc(O)c(O)c2)oc2cc(O)cc(O)c12
REMARK SMILES IDX 5 1 3 2 2 3 1 4 22 5 20 6 19 7 17 8 16 9 15 10 14 11 6 12
REMARK SMILES IDX 7 13 8 14 9 15 13 16 11 17 10 18 12 20 4 22 21 24 18 26
REMARK H PARENT 10 19 12 21 4 23 21 25 18 27
REMARK Flexibility Score: inf
ROOT
ATOM      1  C   UNL     1     -15.070  -4.311 -18.132  1.00  0.00     0.180 A 
ATOM      2  C   UNL     1     -15.894  -5.086 -17.294  1.00  0.00     0.208 A 
ATOM      3  C   UNL     1     -16.884  -4.444 -16.534  1.00  0.00     0.238 A 
ATOM      4  O   UNL     1     -17.634  -5.129 -15.788  1.00  0.00    -0.285 OA
ATOM      5  C   UNL     1     -17.021  -3.043 -16.609  1.00  0.00     0.111 A 
ATOM      6  C   UNL     1     -17.990  -2.319 -15.873  1.00  0.00     0.134 A 
ATOM      7  C   UNL     1     -18.058  -0.923 -15.995  1.00  0.00     0.093 A 
ATOM      8  C   UNL     1     -17.176  -0.238 -16.835  1.00  0.00     0.123 A 
ATOM      9  C   UNL     1     -16.218  -0.948 -17.565  1.00  0.00     0.094 A 
ATOM     10  C   UNL     1     -16.135  -2.340 -17.458  1.00  0.00     0.146 A 
ATOM     11  O   UNL     1     -15.218  -2.989 -18.166  1.00  0.00    -0.452 OA
ENDROOT
BRANCH   1  12
ATOM     12  C   UNL     1     -14.017  -4.916 -18.978  1.00  0.00     0.025 A 
ATOM     13  C   UNL     1     -14.314  -5.268 -20.304  1.00  0.00     0.016 A 
ATOM     14  C   UNL     1     -13.342  -5.861 -21.115  1.00  0.00     0.051 A 
ATOM     15  C   UNL     1     -12.063  -6.123 -20.606  1.00  0.00     0.157 A 
ATOM     16  C   UNL     1     -12.738  -5.201 -18.465  1.00  0.00     0.062 A 
ATOM     17  C   UNL     1     -11.762  -5.796 -19.277  1.00  0.00     0.158 A 
BRANCH  15  18
ATOM     18  O   UNL     1     -11.089  -6.712 -21.411  1.00  0.00    -0.504 OA
ATOM     19  H   UNL     1     -10.806  -6.295 -22.289  1.00  0.00     0.293 HD
ENDBRANCH  15  18
BRANCH  17  20
ATOM     20  O   UNL     1     -10.494  -6.072 -18.769  1.00  0.00    -0.504 OA
ATOM     21  H   UNL     1      -9.828  -6.635 -19.283  1.00  0.00     0.293 HD
ENDBRANCH  17  20
ENDBRANCH   1  12
BRANCH   2  22
ATOM     22  O   UNL     1     -15.705  -6.467 -17.200  1.00  0.00    -0.502 OA
ATOM     23  H   UNL     1     -16.439  -7.131 -17.416  1.00  0.00     0.293 HD
ENDBRANCH   2  22
BRANCH   6  24
ATOM     24  O   UNL     1     -18.884  -2.974 -15.025  1.00  0.00    -0.507 OA
ATOM     25  H   UNL     1     -19.738  -3.395 -15.372  1.00  0.00     0.293 HD
ENDBRANCH   6  24
BRANCH   8  26
ATOM     26  O   UNL     1     -17.264   1.148 -16.938  1.00  0.00    -0.508 OA
ATOM     27  H   UNL     1     -17.128   1.749 -16.134  1.00  0.00     0.293 HD
ENDBRANCH   8  26
TORSDOF 6
ENDMDL
