MODEL 1
REMARK VINA RESULT:    -2.800      0.000      0.000
REMARK INTER + INTRA:          -3.155
REMARK INTER:                  -3.128
REMARK INTRA:                  -0.027
REMARK UNBOUND:                -0.027
REMARK SMILES CCCC(=O)[O-]
REMARK SMILES IDX 3 1 4 2 5 3 6 4 2 5 1 6
REMARK H PARENT
REMARK Flexibility Score: inf
ROOT
ATOM      1  C   UNL     1       1.002   8.035  21.490  1.00  0.00     0.052 C 
ENDROOT
BRANCH   1   2
ATOM      2  C   UNL     1      -0.397   8.218  20.986  1.00  0.00     0.041 C 
ATOM      3  O   UNL     1      -1.058   9.240  21.309  1.00  0.00    -0.550 OA
ATOM      4  O   UNL     1      -0.958   7.278  20.130  1.00  0.00    -0.550 OA
ENDBRANCH   1   2
BRANCH   1   5
ATOM      5  C   UNL     1       1.213   6.637  22.086  1.00  0.00     0.003 C 
ATOM      6  C   UNL     1       2.449   5.942  21.515  1.00  0.00     0.004 C 
ENDBRANCH   1   5
TORSDOF 2
ENDMDL
MODEL 2
REMARK VINA RESULT:    -2.765     24.716     25.480
REMARK INTER + INTRA:          -3.116
REMARK INTER:                  -3.093
REMARK INTRA:                  -0.023
REMARK UNBOUND:                -0.027
REMARK SMILES CCCC(=O)[O-]
REMARK SMILES IDX 3 1 4 2 5 3 6 4 2 5 1 6
REMARK H PARENT
REMARK Flexibility Score: inf
ROOT
ATOM      1  C   UNL     1      16.648  -8.763  11.537  1.00  0.00     0.052 C 
ENDROOT
BRANCH   1   2
ATOM      2  C   UNL     1      16.703  -9.413  12.885  1.00  0.00     0.041 C 
ATOM      3  O   UNL     1      17.777  -9.927  13.297  1.00  0.00    -0.550 OA
ATOM      4  O   UNL     1      15.578  -9.421  13.701  1.00  0.00    -0.550 OA
ENDBRANCH   1   2
BRANCH   1   5
ATOM      5  C   UNL     1      16.861  -9.778  10.406  1.00  0.00     0.003 C 
ATOM      6  C   UNL     1      15.561 -10.117   9.676  1.00  0.00     0.004 C 
ENDBRANCH   1   5
TORSDOF 2
ENDMDL
MODEL 3
REMARK VINA RESULT:    -2.639     25.677     26.134
REMARK INTER + INTRA:          -2.975
REMARK INTER:                  -2.970
REMARK INTRA:                  -0.005
REMARK UNBOUND:                -0.027
REMARK SMILES CCCC(=O)[O-]
REMARK SMILES IDX 3 1 4 2 5 3 6 4 2 5 1 6
REMARK H PARENT
REMARK Flexibility Score: inf
ROOT
ATOM      1  C   UNL     1      16.764  -9.073  11.531  1.00  0.00     0.052 C 
ENDROOT
BRANCH   1   2
ATOM      2  C   UNL     1      18.141  -9.001  12.117  1.00  0.00     0.041 C 
ATOM      3  O   UNL     1      18.497  -9.825  13.001  1.00  0.00    -0.550 OA
ATOM      4  O   UNL     1      19.043  -8.047  11.662  1.00  0.00    -0.550 OA
ENDBRANCH   1   2
BRANCH   1   5
ATOM      5  C   UNL     1      16.754  -9.816  10.189  1.00  0.00     0.003 C 
ATOM      6  C   UNL     1      15.338 -10.125   9.706  1.00  0.00     0.004 C 
ENDBRANCH   1   5
TORSDOF 2
ENDMDL
MODEL 4
REMARK VINA RESULT:    -2.414     24.617     25.519
REMARK INTER + INTRA:          -2.723
REMARK INTER:                  -2.717
REMARK INTRA:                  -0.006
REMARK UNBOUND:                -0.027
REMARK SMILES CCCC(=O)[O-]
REMARK SMILES IDX 3 1 4 2 5 3 6 4 2 5 1 6
REMARK H PARENT
REMARK Flexibility Score: inf
ROOT
ATOM      1  C   UNL     1      16.220  -8.986  11.579  1.00  0.00     0.052 C 
ENDROOT
BRANCH   1   2
ATOM      2  C   UNL     1      16.270  -9.721  10.274  1.00  0.00     0.041 C 
ATOM      3  O   UNL     1      17.379 -10.008   9.751  1.00  0.00    -0.550 OA
ATOM      4  O   UNL     1      15.092 -10.121   9.654  1.00  0.00    -0.550 OA
ENDBRANCH   1   2
BRANCH   1   5
ATOM      5  C   UNL     1      16.401  -9.932  12.772  1.00  0.00     0.003 C 
ATOM      6  C   UNL     1      15.627  -9.468  14.005  1.00  0.00     0.004 C 
ENDBRANCH   1   5
TORSDOF 2
ENDMDL
MODEL 5
REMARK VINA RESULT:    -2.386     23.605     24.328
REMARK INTER + INTRA:          -2.692
REMARK INTER:                  -2.679
REMARK INTRA:                  -0.013
REMARK UNBOUND:                -0.027
REMARK SMILES CCCC(=O)[O-]
REMARK SMILES IDX 3 1 4 2 5 3 6 4 2 5 1 6
REMARK H PARENT
REMARK Flexibility Score: inf
ROOT
ATOM      1  C   UNL     1      15.594  -9.411  13.763  1.00  0.00     0.052 C 
ENDROOT
BRANCH   1   2
ATOM      2  C   UNL     1      15.952  -9.299  15.214  1.00  0.00     0.041 C 
ATOM      3  O   UNL     1      15.097  -9.568  16.099  1.00  0.00    -0.550 OA
ATOM      4  O   UNL     1      17.238  -8.930  15.587  1.00  0.00    -0.550 OA
ENDBRANCH   1   2
BRANCH   1   5
ATOM      5  C   UNL     1      16.841  -9.457  12.871  1.00  0.00     0.003 C 
ATOM      6  C   UNL     1      16.563  -8.951  11.456  1.00  0.00     0.004 C 
ENDBRANCH   1   5
TORSDOF 2
ENDMDL
MODEL 6
REMARK VINA RESULT:    -2.331     24.600     25.012
REMARK INTER + INTRA:          -2.631
REMARK INTER:                  -2.612
REMARK INTRA:                  -0.019
REMARK UNBOUND:                -0.027
REMARK SMILES CCCC(=O)[O-]
REMARK SMILES IDX 3 1 4 2 5 3 6 4 2 5 1 6
REMARK H PARENT
REMARK Flexibility Score: inf
ROOT
ATOM      1  C   UNL     1      16.208  -9.443  13.232  1.00  0.00     0.052 C 
ENDROOT
BRANCH   1   2
ATOM      2  C   UNL     1      16.640  -8.999  11.867  1.00  0.00     0.041 C 
ATOM      3  O   UNL     1      15.845  -9.081  10.894  1.00  0.00    -0.550 OA
ATOM      4  O   UNL     1      17.908  -8.462  11.678  1.00  0.00    -0.550 OA
ENDBRANCH   1   2
BRANCH   1   5
ATOM      5  C   UNL     1      17.408  -9.699  14.153  1.00  0.00     0.003 C 
ATOM      6  C   UNL     1      17.147  -9.242  15.588  1.00  0.00     0.004 C 
ENDBRANCH   1   5
TORSDOF 2
ENDMDL
MODEL 7
REMARK VINA RESULT:    -2.283     25.475     26.135
REMARK INTER + INTRA:          -2.578
REMARK INTER:                  -2.546
REMARK INTRA:                  -0.032
REMARK UNBOUND:                -0.027
REMARK SMILES CCCC(=O)[O-]
REMARK SMILES IDX 3 1 4 2 5 3 6 4 2 5 1 6
REMARK H PARENT
REMARK Flexibility Score: inf
ROOT
ATOM      1  C   UNL     1      17.748  -9.813  10.262  1.00  0.00     0.052 C 
ENDROOT
BRANCH   1   2
ATOM      2  C   UNL     1      16.270  -9.599  10.373  1.00  0.00     0.041 C 
ATOM      3  O   UNL     1      15.798  -8.916  11.320  1.00  0.00    -0.550 OA
ATOM      4  O   UNL     1      15.416 -10.125   9.411  1.00  0.00    -0.550 OA
ENDBRANCH   1   2
BRANCH   1   5
ATOM      5  C   UNL     1      18.518  -9.026  11.330  1.00  0.00     0.003 C 
ATOM      6  C   UNL     1      18.964  -9.910  12.495  1.00  0.00     0.004 C 
ENDBRANCH   1   5
TORSDOF 2
ENDMDL
MODEL 8
REMARK VINA RESULT:    -2.227     16.881     17.378
REMARK INTER + INTRA:          -2.515
REMARK INTER:                  -2.507
REMARK INTRA:                  -0.008
REMARK UNBOUND:                -0.027
REMARK SMILES CCCC(=O)[O-]
REMARK SMILES IDX 3 1 4 2 5 3 6 4 2 5 1 6
REMARK H PARENT
REMARK Flexibility Score: inf
ROOT
ATOM      1  C   UNL     1       0.334   5.833   3.535  1.00  0.00     0.052 C 
ENDROOT
BRANCH   1   2
ATOM      2  C   UNL     1       1.336   6.896   3.866  1.00  0.00     0.041 C 
ATOM      3  O   UNL     1       1.016   7.856   4.615  1.00  0.00    -0.550 OA
ATOM      4  O   UNL     1       2.633   6.808   3.375  1.00  0.00    -0.550 OA
ENDBRANCH   1   2
BRANCH   1   5
ATOM      5  C   UNL     1       0.259   4.761   4.629  1.00  0.00     0.003 C 
ATOM      6  C   UNL     1      -1.119   4.105   4.708  1.00  0.00     0.004 C 
ENDBRANCH   1   5
TORSDOF 2
ENDMDL
