MODEL 1
REMARK VINA RESULT:    -4.897      0.000      0.000
REMARK INTER + INTRA:          -5.574
REMARK INTER:                  -5.326
REMARK INTRA:                  -0.247
REMARK UNBOUND:                -0.247
REMARK SMILES CC1=CCC[C@@]2(C)CC[C@H](C(C)(C)O)C[C@@H]12
REMARK SMILES IDX 11 1 12 2 13 3 10 4 1 5 2 6 3 7 16 8 4 9 6 10 15 11 5 12
REMARK SMILES IDX 7 13 8 14 9 15 14 16
REMARK H PARENT 14 17
REMARK Flexibility Score: inf
ROOT
ATOM      1  C   UNL     1     130.366 138.047 146.835  1.00  0.00     0.062 C 
ATOM      2  C   UNL     1     130.822 137.148 145.669  1.00  0.00     0.042 C 
ATOM      3  C   UNL     1     130.315 139.508 146.329  1.00  0.00     0.042 C 
ENDROOT
BRANCH   1   4
ATOM      4  C   UNL     1     128.976 137.608 147.430  1.00  0.00     0.021 C 
ATOM      5  C   UNL     1     126.205 136.907 145.276  1.00  0.00     0.039 C 
ATOM      6  C   UNL     1     125.743 137.181 146.690  1.00  0.00    -0.074 C 
ATOM      7  C   UNL     1     124.556 136.689 147.093  1.00  0.00    -0.028 C 
ATOM      8  C   UNL     1     126.453 138.167 147.622  1.00  0.00     0.021 C 
ATOM      9  C   UNL     1     124.022 137.044 148.449  1.00  0.00     0.028 C 
ATOM     10  C   UNL     1     126.451 137.671 149.125  1.00  0.00    -0.026 C 
ATOM     11  C   UNL     1     127.854 138.633 147.139  1.00  0.00     0.015 C 
ATOM     12  C   UNL     1     125.134 136.880 149.487  1.00  0.00     0.011 C 
ATOM     13  C   UNL     1     126.534 138.900 150.067  1.00  0.00     0.012 C 
ATOM     14  C   UNL     1     127.659 136.727 149.393  1.00  0.00     0.008 C 
ATOM     15  C   UNL     1     129.006 137.301 148.940  1.00  0.00     0.007 C 
ENDBRANCH   1   4
BRANCH   1  16
ATOM     16  O   UNL     1     131.354 137.965 147.837  1.00  0.00    -0.390 OA
ATOM     17  H   UNL     1     132.186 137.614 147.421  1.00  0.00     0.211 HD
ENDBRANCH   1  16
TORSDOF 2
ENDMDL
MODEL 2
REMARK VINA RESULT:    -4.788     10.352     12.931
REMARK INTER + INTRA:          -5.455
REMARK INTER:                  -5.233
REMARK INTRA:                  -0.222
REMARK UNBOUND:                -0.247
REMARK SMILES CC1=CCC[C@@]2(C)CC[C@H](C(C)(C)O)C[C@@H]12
REMARK SMILES IDX 11 1 12 2 13 3 10 4 1 5 2 6 3 7 16 8 4 9 6 10 15 11 5 12
REMARK SMILES IDX 7 13 8 14 9 15 14 16
REMARK H PARENT 14 17
REMARK Flexibility Score: inf
ROOT
ATOM      1  C   UNL     1     141.515 137.378 142.506  1.00  0.00     0.062 C 
ATOM      2  C   UNL     1     142.309 136.314 143.291  1.00  0.00     0.042 C 
ATOM      3  C   UNL     1     142.380 137.846 141.314  1.00  0.00     0.042 C 
ENDROOT
BRANCH   1   4
ATOM      4  C   UNL     1     140.116 136.848 142.014  1.00  0.00     0.021 C 
ATOM      5  C   UNL     1     137.079 138.226 143.313  1.00  0.00     0.039 C 
ATOM      6  C   UNL     1     136.839 136.873 142.681  1.00  0.00    -0.074 C 
ATOM      7  C   UNL     1     135.604 136.570 142.240  1.00  0.00    -0.028 C 
ATOM      8  C   UNL     1     137.876 135.745 142.707  1.00  0.00     0.021 C 
ATOM      9  C   UNL     1     135.313 135.194 141.718  1.00  0.00     0.028 C 
ATOM     10  C   UNL     1     137.870 134.900 141.369  1.00  0.00    -0.026 C 
ATOM     11  C   UNL     1     139.302 136.177 143.146  1.00  0.00     0.015 C 
ATOM     12  C   UNL     1     136.423 134.778 140.751  1.00  0.00     0.011 C 
ATOM     13  C   UNL     1     138.376 133.465 141.670  1.00  0.00     0.012 C 
ATOM     14  C   UNL     1     138.787 135.562 140.299  1.00  0.00     0.008 C 
ATOM     15  C   UNL     1     140.194 135.892 140.808  1.00  0.00     0.007 C 
ENDBRANCH   1   4
BRANCH   1  16
ATOM     16  O   UNL     1     141.325 138.477 143.369  1.00  0.00    -0.390 OA
ATOM     17  H   UNL     1     140.943 138.136 144.221  1.00  0.00     0.211 HD
ENDBRANCH   1  16
TORSDOF 2
ENDMDL
MODEL 3
REMARK VINA RESULT:    -4.776     14.890     17.646
REMARK INTER + INTRA:          -5.442
REMARK INTER:                  -5.191
REMARK INTRA:                  -0.252
REMARK UNBOUND:                -0.247
REMARK SMILES CC1=CCC[C@@]2(C)CC[C@H](C(C)(C)O)C[C@@H]12
REMARK SMILES IDX 11 1 12 2 13 3 10 4 1 5 2 6 3 7 16 8 4 9 6 10 15 11 5 12
REMARK SMILES IDX 7 13 8 14 9 15 14 16
REMARK H PARENT 14 17
REMARK Flexibility Score: inf
ROOT
ATOM      1  C   UNL     1     136.893 129.456 131.971  1.00  0.00     0.062 C 
ATOM      2  C   UNL     1     135.735 130.195 131.272  1.00  0.00     0.042 C 
ATOM      3  C   UNL     1     138.225 129.970 131.377  1.00  0.00     0.042 C 
ENDROOT
BRANCH   1   4
ATOM      4  C   UNL     1     136.868 129.634 133.535  1.00  0.00     0.021 C 
ATOM      5  C   UNL     1     133.950 128.783 135.424  1.00  0.00     0.039 C 
ATOM      6  C   UNL     1     134.856 129.708 136.206  1.00  0.00    -0.074 C 
ATOM      7  C   UNL     1     134.778 129.715 137.549  1.00  0.00    -0.028 C 
ATOM      8  C   UNL     1     135.710 130.793 135.542  1.00  0.00     0.021 C 
ATOM      9  C   UNL     1     135.581 130.705 138.340  1.00  0.00     0.028 C 
ATOM     10  C   UNL     1     137.111 130.969 136.258  1.00  0.00    -0.026 C 
ATOM     11  C   UNL     1     135.827 130.682 133.998  1.00  0.00     0.015 C 
ATOM     12  C   UNL     1     137.017 130.724 137.814  1.00  0.00     0.011 C 
ATOM     13  C   UNL     1     137.617 132.419 136.040  1.00  0.00     0.012 C 
ATOM     14  C   UNL     1     138.150 129.963 135.682  1.00  0.00     0.008 C 
ATOM     15  C   UNL     1     138.239 129.971 134.152  1.00  0.00     0.007 C 
ENDBRANCH   1   4
BRANCH   1  16
ATOM     16  O   UNL     1     136.769 128.089 131.651  1.00  0.00    -0.390 OA
ATOM     17  H   UNL     1     136.729 127.577 132.502  1.00  0.00     0.211 HD
ENDBRANCH   1  16
TORSDOF 2
ENDMDL
MODEL 4
REMARK VINA RESULT:    -4.686      8.859     11.497
REMARK INTER + INTRA:          -5.344
REMARK INTER:                  -5.102
REMARK INTRA:                  -0.241
REMARK UNBOUND:                -0.247
REMARK SMILES CC1=CCC[C@@]2(C)CC[C@H](C(C)(C)O)C[C@@H]12
REMARK SMILES IDX 11 1 12 2 13 3 10 4 1 5 2 6 3 7 16 8 4 9 6 10 15 11 5 12
REMARK SMILES IDX 7 13 8 14 9 15 14 16
REMARK H PARENT 14 17
REMARK Flexibility Score: inf
ROOT
ATOM      1  C   UNL     1     140.890 136.808 142.717  1.00  0.00     0.062 C 
ATOM      2  C   UNL     1     141.147 135.933 141.475  1.00  0.00     0.042 C 
ATOM      3  C   UNL     1     140.688 138.268 142.248  1.00  0.00     0.042 C 
ENDROOT
BRANCH   1   4
ATOM      4  C   UNL     1     139.657 136.312 143.563  1.00  0.00     0.021 C 
ATOM      5  C   UNL     1     136.313 136.874 142.418  1.00  0.00     0.039 C 
ATOM      6  C   UNL     1     136.341 136.581 143.902  1.00  0.00    -0.074 C 
ATOM      7  C   UNL     1     135.232 136.096 144.491  1.00  0.00    -0.028 C 
ATOM      8  C   UNL     1     137.496 137.007 144.813  1.00  0.00     0.021 C 
ATOM      9  C   UNL     1     135.197 135.909 145.979  1.00  0.00     0.028 C 
ATOM     10  C   UNL     1     137.794 135.934 145.937  1.00  0.00    -0.026 C 
ATOM     11  C   UNL     1     138.776 137.479 144.070  1.00  0.00     0.015 C 
ATOM     12  C   UNL     1     136.481 135.209 146.429  1.00  0.00     0.011 C 
ATOM     13  C   UNL     1     138.427 136.642 147.164  1.00  0.00     0.012 C 
ATOM     14  C   UNL     1     138.768 134.841 145.408  1.00  0.00     0.008 C 
ATOM     15  C   UNL     1     140.032 135.403 144.749  1.00  0.00     0.007 C 
ENDBRANCH   1   4
BRANCH   1  16
ATOM     16  O   UNL     1     142.054 136.760 143.511  1.00  0.00    -0.390 OA
ATOM     17  H   UNL     1     141.778 136.808 144.464  1.00  0.00     0.211 HD
ENDBRANCH   1  16
TORSDOF 2
ENDMDL
MODEL 5
REMARK VINA RESULT:    -4.685     10.030     12.339
REMARK INTER + INTRA:          -5.343
REMARK INTER:                  -5.097
REMARK INTRA:                  -0.246
REMARK UNBOUND:                -0.247
REMARK SMILES CC1=CCC[C@@]2(C)CC[C@H](C(C)(C)O)C[C@@H]12
REMARK SMILES IDX 11 1 12 2 13 3 10 4 1 5 2 6 3 7 16 8 4 9 6 10 15 11 5 12
REMARK SMILES IDX 7 13 8 14 9 15 14 16
REMARK H PARENT 14 17
REMARK Flexibility Score: inf
ROOT
ATOM      1  C   UNL     1     141.636 137.059 142.765  1.00  0.00     0.062 C 
ATOM      2  C   UNL     1     142.632 136.121 143.474  1.00  0.00     0.042 C 
ATOM      3  C   UNL     1     142.045 137.166 141.278  1.00  0.00     0.042 C 
ENDROOT
BRANCH   1   4
ATOM      4  C   UNL     1     140.144 136.576 142.905  1.00  0.00     0.021 C 
ATOM      5  C   UNL     1     138.313 135.443 140.046  1.00  0.00     0.039 C 
ATOM      6  C   UNL     1     137.382 135.823 141.176  1.00  0.00    -0.074 C 
ATOM      7  C   UNL     1     136.149 135.284 141.213  1.00  0.00    -0.028 C 
ATOM      8  C   UNL     1     137.689 136.952 142.165  1.00  0.00     0.021 C 
ATOM      9  C   UNL     1     135.168 135.733 142.255  1.00  0.00     0.028 C 
ATOM     10  C   UNL     1     137.189 136.614 143.628  1.00  0.00    -0.026 C 
ATOM     11  C   UNL     1     139.152 137.474 142.129  1.00  0.00     0.015 C 
ATOM     12  C   UNL     1     135.860 135.763 143.619  1.00  0.00     0.011 C 
ATOM     13  C   UNL     1     136.895 137.936 144.384  1.00  0.00     0.012 C 
ATOM     14  C   UNL     1     138.267 135.800 144.401  1.00  0.00     0.008 C 
ATOM     15  C   UNL     1     139.665 136.428 144.362  1.00  0.00     0.007 C 
ENDBRANCH   1   4
BRANCH   1  16
ATOM     16  O   UNL     1     141.774 138.334 143.351  1.00  0.00    -0.390 OA
ATOM     17  H   UNL     1     141.122 138.401 144.097  1.00  0.00     0.211 HD
ENDBRANCH   1  16
TORSDOF 2
ENDMDL
MODEL 6
REMARK VINA RESULT:    -4.675      1.238      2.157
REMARK INTER + INTRA:          -5.332
REMARK INTER:                  -5.097
REMARK INTRA:                  -0.235
REMARK UNBOUND:                -0.247
REMARK SMILES CC1=CCC[C@@]2(C)CC[C@H](C(C)(C)O)C[C@@H]12
REMARK SMILES IDX 11 1 12 2 13 3 10 4 1 5 2 6 3 7 16 8 4 9 6 10 15 11 5 12
REMARK SMILES IDX 7 13 8 14 9 15 14 16
REMARK H PARENT 14 17
REMARK Flexibility Score: inf
ROOT
ATOM      1  C   UNL     1     130.387 138.026 146.567  1.00  0.00     0.062 C 
ATOM      2  C   UNL     1     131.072 137.177 145.478  1.00  0.00     0.042 C 
ATOM      3  C   UNL     1     130.446 139.509 146.134  1.00  0.00     0.042 C 
ENDROOT
BRANCH   1   4
ATOM      4  C   UNL     1     128.902 137.577 146.838  1.00  0.00     0.021 C 
ATOM      5  C   UNL     1     126.469 139.926 148.009  1.00  0.00     0.039 C 
ATOM      6  C   UNL     1     126.028 138.504 148.276  1.00  0.00    -0.074 C 
ATOM      7  C   UNL     1     124.716 138.246 148.424  1.00  0.00    -0.028 C 
ATOM      8  C   UNL     1     127.011 137.375 148.598  1.00  0.00     0.021 C 
ATOM      9  C   UNL     1     124.263 136.867 148.806  1.00  0.00     0.028 C 
ATOM     10  C   UNL     1     126.561 135.995 147.966  1.00  0.00    -0.026 C 
ATOM     11  C   UNL     1     128.504 137.708 148.328  1.00  0.00     0.015 C 
ATOM     12  C   UNL     1     124.991 135.840 147.936  1.00  0.00     0.011 C 
ATOM     13  C   UNL     1     127.132 134.833 148.819  1.00  0.00     0.012 C 
ATOM     14  C   UNL     1     127.077 135.869 146.503  1.00  0.00     0.008 C 
ATOM     15  C   UNL     1     128.574 136.154 146.346  1.00  0.00     0.007 C 
ENDBRANCH   1   4
BRANCH   1  16
ATOM     16  O   UNL     1     131.145 137.882 147.747  1.00  0.00    -0.390 OA
ATOM     17  H   UNL     1     130.515 137.866 148.516  1.00  0.00     0.211 HD
ENDBRANCH   1  16
TORSDOF 2
ENDMDL
MODEL 7
REMARK VINA RESULT:    -4.621     10.738     14.786
REMARK INTER + INTRA:          -5.274
REMARK INTER:                  -5.033
REMARK INTRA:                  -0.241
REMARK UNBOUND:                -0.247
REMARK SMILES CC1=CCC[C@@]2(C)CC[C@H](C(C)(C)O)C[C@@H]12
REMARK SMILES IDX 11 1 12 2 13 3 10 4 1 5 2 6 3 7 16 8 4 9 6 10 15 11 5 12
REMARK SMILES IDX 7 13 8 14 9 15 14 16
REMARK H PARENT 14 17
REMARK Flexibility Score: inf
ROOT
ATOM      1  C   UNL     1     138.238 137.101 143.961  1.00  0.00     0.062 C 
ATOM      2  C   UNL     1     137.095 138.090 143.662  1.00  0.00     0.042 C 
ATOM      3  C   UNL     1     137.624 135.695 144.158  1.00  0.00     0.042 C 
ENDROOT
BRANCH   1   4
ATOM      4  C   UNL     1     139.335 137.084 142.831  1.00  0.00     0.021 C 
ATOM      5  C   UNL     1     138.946 135.010 139.940  1.00  0.00     0.039 C 
ATOM      6  C   UNL     1     140.389 135.423 140.127  1.00  0.00    -0.074 C 
ATOM      7  C   UNL     1     141.209 135.426 139.059  1.00  0.00    -0.028 C 
ATOM      8  C   UNL     1     141.024 135.633 141.505  1.00  0.00     0.021 C 
ATOM      9  C   UNL     1     142.669 135.717 139.238  1.00  0.00     0.028 C 
ATOM     10  C   UNL     1     142.061 136.828 141.506  1.00  0.00    -0.026 C 
ATOM     11  C   UNL     1     140.017 135.702 142.686  1.00  0.00     0.015 C 
ATOM     12  C   UNL     1     142.831 136.948 140.134  1.00  0.00     0.011 C 
ATOM     13  C   UNL     1     143.116 136.587 142.617  1.00  0.00     0.012 C 
ATOM     14  C   UNL     1     141.337 138.182 141.761  1.00  0.00     0.008 C 
ATOM     15  C   UNL     1     140.415 138.171 142.985  1.00  0.00     0.007 C 
ENDBRANCH   1   4
BRANCH   1  16
ATOM     16  O   UNL     1     138.825 137.497 145.180  1.00  0.00    -0.390 OA
ATOM     17  H   UNL     1     139.515 136.824 145.422  1.00  0.00     0.211 HD
ENDBRANCH   1  16
TORSDOF 2
ENDMDL
MODEL 8
REMARK VINA RESULT:    -4.593     15.732     18.763
REMARK INTER + INTRA:          -5.243
REMARK INTER:                  -5.022
REMARK INTRA:                  -0.221
REMARK UNBOUND:                -0.247
REMARK SMILES CC1=CCC[C@@]2(C)CC[C@H](C(C)(C)O)C[C@@H]12
REMARK SMILES IDX 11 1 12 2 13 3 10 4 1 5 2 6 3 7 16 8 4 9 6 10 15 11 5 12
REMARK SMILES IDX 7 13 8 14 9 15 14 16
REMARK H PARENT 14 17
REMARK Flexibility Score: inf
ROOT
ATOM      1  C   UNL     1     136.603 131.141 136.597  1.00  0.00     0.062 C 
ATOM      2  C   UNL     1     135.475 130.093 136.531  1.00  0.00     0.042 C 
ATOM      3  C   UNL     1     137.558 130.754 137.750  1.00  0.00     0.042 C 
ENDROOT
BRANCH   1   4
ATOM      4  C   UNL     1     137.387 131.274 135.237  1.00  0.00     0.021 C 
ATOM      5  C   UNL     1     137.465 134.385 133.470  1.00  0.00     0.039 C 
ATOM      6  C   UNL     1     137.825 133.231 132.561  1.00  0.00    -0.074 C 
ATOM      7  C   UNL     1     138.559 133.474 131.459  1.00  0.00    -0.028 C 
ATOM      8  C   UNL     1     137.220 131.832 132.713  1.00  0.00     0.021 C 
ATOM      9  C   UNL     1     138.828 132.368 130.482  1.00  0.00     0.028 C 
ATOM     10  C   UNL     1     138.267 130.692 132.385  1.00  0.00    -0.026 C 
ATOM     11  C   UNL     1     136.455 131.589 134.043  1.00  0.00     0.015 C 
ATOM     12  C   UNL     1     139.272 131.118 131.245  1.00  0.00     0.011 C 
ATOM     13  C   UNL     1     137.510 129.429 131.895  1.00  0.00     0.012 C 
ATOM     14  C   UNL     1     139.106 130.338 133.647  1.00  0.00     0.008 C 
ATOM     15  C   UNL     1     138.261 130.053 134.893  1.00  0.00     0.007 C 
ENDBRANCH   1   4
BRANCH   1  16
ATOM     16  O   UNL     1     136.006 132.377 136.919  1.00  0.00    -0.390 OA
ATOM     17  H   UNL     1     135.083 132.198 137.241  1.00  0.00     0.211 HD
ENDBRANCH   1  16
TORSDOF 2
ENDMDL
MODEL 9
REMARK VINA RESULT:    -4.573     15.567     18.570
REMARK INTER + INTRA:          -5.222
REMARK INTER:                  -5.003
REMARK INTRA:                  -0.219
REMARK UNBOUND:                -0.247
REMARK SMILES CC1=CCC[C@@]2(C)CC[C@H](C(C)(C)O)C[C@@H]12
REMARK SMILES IDX 11 1 12 2 13 3 10 4 1 5 2 6 3 7 16 8 4 9 6 10 15 11 5 12
REMARK SMILES IDX 7 13 8 14 9 15 14 16
REMARK H PARENT 14 17
REMARK Flexibility Score: inf
ROOT
ATOM      1  C   UNL     1     134.480 128.845 135.406  1.00  0.00     0.062 C 
ATOM      2  C   UNL     1     133.975 129.240 136.808  1.00  0.00     0.042 C 
ATOM      3  C   UNL     1     133.301 128.971 134.413  1.00  0.00     0.042 C 
ENDROOT
BRANCH   1   4
ATOM      4  C   UNL     1     135.706 129.715 134.937  1.00  0.00     0.021 C 
ATOM      5  C   UNL     1     137.190 129.197 131.722  1.00  0.00     0.039 C 
ATOM      6  C   UNL     1     138.133 129.936 132.646  1.00  0.00    -0.074 C 
ATOM      7  C   UNL     1     139.102 130.702 132.112  1.00  0.00    -0.028 C 
ATOM      8  C   UNL     1     138.177 129.692 134.158  1.00  0.00     0.021 C 
ATOM      9  C   UNL     1     140.120 131.349 133.004  1.00  0.00     0.028 C 
ATOM     10  C   UNL     1     138.452 131.024 134.968  1.00  0.00    -0.026 C 
ATOM     11  C   UNL     1     136.986 128.872 134.725  1.00  0.00     0.015 C 
ATOM     12  C   UNL     1     139.407 132.008 134.186  1.00  0.00     0.011 C 
ATOM     13  C   UNL     1     139.139 130.671 136.312  1.00  0.00     0.012 C 
ATOM     14  C   UNL     1     137.120 131.780 135.246  1.00  0.00     0.008 C 
ATOM     15  C   UNL     1     136.026 130.903 135.865  1.00  0.00     0.007 C 
ENDBRANCH   1   4
BRANCH   1  16
ATOM     16  O   UNL     1     134.860 127.489 135.466  1.00  0.00    -0.390 OA
ATOM     17  H   UNL     1     135.807 127.449 135.766  1.00  0.00     0.211 HD
ENDBRANCH   1  16
TORSDOF 2
ENDMDL
