MODEL 1
REMARK VINA RESULT:    -6.868      0.000      0.000
REMARK INTER + INTRA:          -8.366
REMARK INTER:                  -8.072
REMARK INTRA:                  -0.293
REMARK UNBOUND:                -0.293
REMARK SMILES O=c1c(O)c(-c2ccc(O)cc2)oc2cc(O)cc(O)c12
REMARK SMILES IDX 5 1 3 2 2 3 1 4 21 5 19 6 18 7 16 8 15 9 14 10 13 11 6 12
REMARK SMILES IDX 7 13 8 14 9 15 12 16 11 17 10 18 4 20 20 22 17 24
REMARK H PARENT 10 19 4 21 20 23 17 25
REMARK Flexibility Score: inf
ROOT
ATOM      1  C   UNL     1      18.488  24.378  41.858  1.00  0.00     0.180 A 
ATOM      2  C   UNL     1      17.267  24.038  42.471  1.00  0.00     0.208 A 
ATOM      3  C   UNL     1      16.824  24.792  43.568  1.00  0.00     0.238 A 
ATOM      4  O   UNL     1      15.726  24.503  44.117  1.00  0.00    -0.285 OA
ATOM      5  C   UNL     1      17.615  25.855  44.047  1.00  0.00     0.111 A 
ATOM      6  C   UNL     1      17.244  26.662  45.151  1.00  0.00     0.134 A 
ATOM      7  C   UNL     1      18.091  27.698  45.572  1.00  0.00     0.093 A 
ATOM      8  C   UNL     1      19.301  27.940  44.913  1.00  0.00     0.123 A 
ATOM      9  C   UNL     1      19.672  27.149  43.825  1.00  0.00     0.094 A 
ATOM     10  C   UNL     1      18.841  26.114  43.388  1.00  0.00     0.146 A 
ATOM     11  O   UNL     1      19.216  25.379  42.347  1.00  0.00    -0.452 OA
ENDROOT
BRANCH   1  12
ATOM     12  C   UNL     1      19.012  23.643  40.685  1.00  0.00     0.021 A 
ATOM     13  C   UNL     1      18.602  23.960  39.377  1.00  0.00     0.016 A 
ATOM     14  C   UNL     1      19.129  23.268  38.283  1.00  0.00     0.047 A 
ATOM     15  C   UNL     1      20.080  22.262  38.478  1.00  0.00     0.115 A 
ATOM     16  C   UNL     1      19.983  22.645  40.871  1.00  0.00     0.016 A 
ATOM     17  C   UNL     1      20.509  21.954  39.776  1.00  0.00     0.047 A 
BRANCH  15  18
ATOM     18  O   UNL     1      20.596  21.580  37.378  1.00  0.00    -0.508 OA
ATOM     19  H   UNL     1      21.579  21.339  37.318  1.00  0.00     0.293 HD
ENDBRANCH  15  18
ENDBRANCH   1  12
BRANCH   2  20
ATOM     20  O   UNL     1      16.524  22.947  42.008  1.00  0.00    -0.502 OA
ATOM     21  H   UNL     1      16.132  22.915  41.074  1.00  0.00     0.293 HD
ENDBRANCH   2  20
BRANCH   6  22
ATOM     22  O   UNL     1      16.043  26.443  45.828  1.00  0.00    -0.507 OA
ATOM     23  H   UNL     1      16.021  26.229  46.817  1.00  0.00     0.293 HD
ENDBRANCH   6  22
BRANCH   8  24
ATOM     24  O   UNL     1      20.144  28.968  45.332  1.00  0.00    -0.508 OA
ATOM     25  H   UNL     1      20.233  29.214  46.311  1.00  0.00     0.293 HD
ENDBRANCH   8  24
TORSDOF 5
ENDMDL
MODEL 2
REMARK VINA RESULT:    -6.826      1.200      2.916
REMARK INTER + INTRA:          -8.316
REMARK INTER:                  -8.041
REMARK INTRA:                  -0.275
REMARK UNBOUND:                -0.293
REMARK SMILES O=c1c(O)c(-c2ccc(O)cc2)oc2cc(O)cc(O)c12
REMARK SMILES IDX 5 1 3 2 2 3 1 4 21 5 19 6 18 7 16 8 15 9 14 10 13 11 6 12
REMARK SMILES IDX 7 13 8 14 9 15 12 16 11 17 10 18 4 20 20 22 17 24
REMARK H PARENT 10 19 4 21 20 23 17 25
REMARK Flexibility Score: inf
ROOT
ATOM      1  C   UNL     1      19.269  24.810  41.480  1.00  0.00     0.180 A 
ATOM      2  C   UNL     1      20.079  25.944  41.684  1.00  0.00     0.208 A 
ATOM      3  C   UNL     1      19.817  26.776  42.783  1.00  0.00     0.238 A 
ATOM      4  O   UNL     1      20.543  27.788  42.982  1.00  0.00    -0.285 OA
ATOM      5  C   UNL     1      18.743  26.475  43.645  1.00  0.00     0.111 A 
ATOM      6  C   UNL     1      18.409  27.265  44.772  1.00  0.00     0.134 A 
ATOM      7  C   UNL     1      17.318  26.903  45.576  1.00  0.00     0.093 A 
ATOM      8  C   UNL     1      16.554  25.770  45.274  1.00  0.00     0.123 A 
ATOM      9  C   UNL     1      16.879  24.988  44.164  1.00  0.00     0.094 A 
ATOM     10  C   UNL     1      17.964  25.330  43.352  1.00  0.00     0.146 A 
ATOM     11  O   UNL     1      18.254  24.566  42.305  1.00  0.00    -0.452 OA
ENDROOT
BRANCH   1  12
ATOM     12  C   UNL     1      19.494  23.874  40.356  1.00  0.00     0.021 A 
ATOM     13  C   UNL     1      18.993  24.139  39.068  1.00  0.00     0.016 A 
ATOM     14  C   UNL     1      19.240  23.251  38.017  1.00  0.00     0.047 A 
ATOM     15  C   UNL     1      19.997  22.096  38.233  1.00  0.00     0.115 A 
ATOM     16  C   UNL     1      20.271  22.721  40.561  1.00  0.00     0.016 A 
ATOM     17  C   UNL     1      20.515  21.834  39.508  1.00  0.00     0.047 A 
BRANCH  15  18
ATOM     18  O   UNL     1      20.233  21.220  37.176  1.00  0.00    -0.508 OA
ATOM     19  H   UNL     1      20.242  21.540  36.215  1.00  0.00     0.293 HD
ENDBRANCH  15  18
ENDBRANCH   1  12
BRANCH   2  20
ATOM     20  O   UNL     1      21.108  26.247  40.788  1.00  0.00    -0.502 OA
ATOM     21  H   UNL     1      21.095  27.077  40.207  1.00  0.00     0.293 HD
ENDBRANCH   2  20
BRANCH   6  22
ATOM     22  O   UNL     1      19.151  28.401  45.098  1.00  0.00    -0.507 OA
ATOM     23  H   UNL     1      18.827  29.069  45.787  1.00  0.00     0.293 HD
ENDBRANCH   6  22
BRANCH   8  24
ATOM     24  O   UNL     1      15.470  25.411  46.072  1.00  0.00    -0.508 OA
ATOM     25  H   UNL     1      14.768  26.088  46.347  1.00  0.00     0.293 HD
ENDBRANCH   8  24
TORSDOF 5
ENDMDL
MODEL 3
REMARK VINA RESULT:    -6.509      1.467      3.218
REMARK INTER + INTRA:          -7.945
REMARK INTER:                  -7.812
REMARK INTRA:                  -0.133
REMARK UNBOUND:                -0.293
REMARK SMILES O=c1c(O)c(-c2ccc(O)cc2)oc2cc(O)cc(O)c12
REMARK SMILES IDX 5 1 3 2 2 3 1 4 21 5 19 6 18 7 16 8 15 9 14 10 13 11 6 12
REMARK SMILES IDX 7 13 8 14 9 15 12 16 11 17 10 18 4 20 20 22 17 24
REMARK H PARENT 10 19 4 21 20 23 17 25
REMARK Flexibility Score: inf
ROOT
ATOM      1  C   UNL     1      18.803  25.090  41.062  1.00  0.00     0.180 A 
ATOM      2  C   UNL     1      19.865  25.999  41.233  1.00  0.00     0.208 A 
ATOM      3  C   UNL     1      19.930  26.751  42.416  1.00  0.00     0.238 A 
ATOM      4  O   UNL     1      20.882  27.560  42.585  1.00  0.00    -0.285 OA
ATOM      5  C   UNL     1      18.927  26.598  43.395  1.00  0.00     0.111 A 
ATOM      6  C   UNL     1      18.916  27.321  44.613  1.00  0.00     0.134 A 
ATOM      7  C   UNL     1      17.877  27.119  45.533  1.00  0.00     0.093 A 
ATOM      8  C   UNL     1      16.849  26.210  45.258  1.00  0.00     0.123 A 
ATOM      9  C   UNL     1      16.855  25.495  44.060  1.00  0.00     0.094 A 
ATOM     10  C   UNL     1      17.883  25.681  43.131  1.00  0.00     0.146 A 
ATOM     11  O   UNL     1      17.867  24.983  42.000  1.00  0.00    -0.452 OA
ENDROOT
BRANCH   1  12
ATOM     12  C   UNL     1      18.676  24.247  39.851  1.00  0.00     0.021 A 
ATOM     13  C   UNL     1      19.659  23.299  39.511  1.00  0.00     0.016 A 
ATOM     14  C   UNL     1      19.504  22.498  38.376  1.00  0.00     0.047 A 
ATOM     15  C   UNL     1      18.366  22.623  37.575  1.00  0.00     0.115 A 
ATOM     16  C   UNL     1      17.525  24.352  39.053  1.00  0.00     0.016 A 
ATOM     17  C   UNL     1      17.374  23.551  37.918  1.00  0.00     0.047 A 
BRANCH  15  18
ATOM     18  O   UNL     1      18.226  21.818  36.446  1.00  0.00    -0.508 OA
ATOM     19  H   UNL     1      18.254  20.807  36.510  1.00  0.00     0.293 HD
ENDBRANCH  15  18
ENDBRANCH   1  12
BRANCH   2  20
ATOM     20  O   UNL     1      20.820  26.167  40.227  1.00  0.00    -0.502 OA
ATOM     21  H   UNL     1      21.436  25.419  39.932  1.00  0.00     0.293 HD
ENDBRANCH   2  20
BRANCH   6  22
ATOM     22  O   UNL     1      19.927  28.235  44.915  1.00  0.00    -0.507 OA
ATOM     23  H   UNL     1      20.752  27.964  45.437  1.00  0.00     0.293 HD
ENDBRANCH   6  22
BRANCH   8  24
ATOM     24  O   UNL     1      15.816  26.009  46.172  1.00  0.00    -0.508 OA
ATOM     25  H   UNL     1      15.725  26.582  47.002  1.00  0.00     0.293 HD
ENDBRANCH   8  24
TORSDOF 5
ENDMDL
MODEL 4
REMARK VINA RESULT:    -6.107      1.866      6.714
REMARK INTER + INTRA:          -7.471
REMARK INTER:                  -7.185
REMARK INTRA:                  -0.286
REMARK UNBOUND:                -0.293
REMARK SMILES O=c1c(O)c(-c2ccc(O)cc2)oc2cc(O)cc(O)c12
REMARK SMILES IDX 5 1 3 2 2 3 1 4 21 5 19 6 18 7 16 8 15 9 14 10 13 11 6 12
REMARK SMILES IDX 7 13 8 14 9 15 12 16 11 17 10 18 4 20 20 22 17 24
REMARK H PARENT 10 19 4 21 20 23 17 25
REMARK Flexibility Score: inf
ROOT
ATOM      1  C   UNL     1      17.268  25.141  42.406  1.00  0.00     0.180 A 
ATOM      2  C   UNL     1      16.499  25.485  41.278  1.00  0.00     0.208 A 
ATOM      3  C   UNL     1      16.846  24.946  40.030  1.00  0.00     0.238 A 
ATOM      4  O   UNL     1      16.158  25.238  39.015  1.00  0.00    -0.285 OA
ATOM      5  C   UNL     1      17.962  24.092  39.926  1.00  0.00     0.111 A 
ATOM      6  C   UNL     1      18.382  23.510  38.705  1.00  0.00     0.134 A 
ATOM      7  C   UNL     1      19.510  22.676  38.683  1.00  0.00     0.093 A 
ATOM      8  C   UNL     1      20.227  22.416  39.856  1.00  0.00     0.123 A 
ATOM      9  C   UNL     1      19.817  22.987  41.062  1.00  0.00     0.094 A 
ATOM     10  C   UNL     1      18.694  23.818  41.106  1.00  0.00     0.146 A 
ATOM     11  O   UNL     1      18.324  24.344  42.268  1.00  0.00    -0.452 OA
ENDROOT
BRANCH   1  12
ATOM     12  C   UNL     1      16.954  25.653  43.759  1.00  0.00     0.021 A 
ATOM     13  C   UNL     1      15.967  25.050  44.561  1.00  0.00     0.016 A 
ATOM     14  C   UNL     1      15.705  25.537  45.845  1.00  0.00     0.047 A 
ATOM     15  C   UNL     1      16.431  26.620  46.349  1.00  0.00     0.115 A 
ATOM     16  C   UNL     1      17.692  26.728  44.280  1.00  0.00     0.016 A 
ATOM     17  C   UNL     1      17.428  27.213  45.564  1.00  0.00     0.047 A 
BRANCH  15  18
ATOM     18  O   UNL     1      16.158  27.095  47.631  1.00  0.00    -0.508 OA
ATOM     19  H   UNL     1      16.328  26.528  48.453  1.00  0.00     0.293 HD
ENDBRANCH  15  18
ENDBRANCH   1  12
BRANCH   2  20
ATOM     20  O   UNL     1      15.426  26.372  41.399  1.00  0.00    -0.502 OA
ATOM     21  H   UNL     1      15.557  27.363  41.564  1.00  0.00     0.293 HD
ENDBRANCH   2  20
BRANCH   6  22
ATOM     22  O   UNL     1      17.688  23.751  37.518  1.00  0.00    -0.507 OA
ATOM     23  H   UNL     1      17.544  23.025  36.828  1.00  0.00     0.293 HD
ENDBRANCH   6  22
BRANCH   8  24
ATOM     24  O   UNL     1      21.348  21.589  39.834  1.00  0.00    -0.508 OA
ATOM     25  H   UNL     1      22.265  21.946  39.592  1.00  0.00     0.293 HD
ENDBRANCH   8  24
TORSDOF 5
ENDMDL
MODEL 5
REMARK VINA RESULT:    -5.940      3.218      5.967
REMARK INTER + INTRA:          -7.275
REMARK INTER:                  -6.984
REMARK INTRA:                  -0.291
REMARK UNBOUND:                -0.293
REMARK SMILES O=c1c(O)c(-c2ccc(O)cc2)oc2cc(O)cc(O)c12
REMARK SMILES IDX 5 1 3 2 2 3 1 4 21 5 19 6 18 7 16 8 15 9 14 10 13 11 6 12
REMARK SMILES IDX 7 13 8 14 9 15 12 16 11 17 10 18 4 20 20 22 17 24
REMARK H PARENT 10 19 4 21 20 23 17 25
REMARK Flexibility Score: inf
ROOT
ATOM      1  C   UNL     1      16.973  23.727  43.098  1.00  0.00     0.180 A 
ATOM      2  C   UNL     1      15.616  23.864  42.747  1.00  0.00     0.208 A 
ATOM      3  C   UNL     1      14.748  22.781  42.956  1.00  0.00     0.238 A 
ATOM      4  O   UNL     1      13.529  22.896  42.655  1.00  0.00    -0.285 OA
ATOM      5  C   UNL     1      15.252  21.578  43.490  1.00  0.00     0.111 A 
ATOM      6  C   UNL     1      14.445  20.438  43.728  1.00  0.00     0.134 A 
ATOM      7  C   UNL     1      15.024  19.274  44.255  1.00  0.00     0.093 A 
ATOM      8  C   UNL     1      16.392  19.227  44.546  1.00  0.00     0.123 A 
ATOM      9  C   UNL     1      17.191  20.348  44.314  1.00  0.00     0.094 A 
ATOM     10  C   UNL     1      16.633  21.518  43.792  1.00  0.00     0.146 A 
ATOM     11  O   UNL     1      17.416  22.572  43.586  1.00  0.00    -0.452 OA
ENDROOT
BRANCH   1  12
ATOM     12  C   UNL     1      17.945  24.830  42.926  1.00  0.00     0.021 A 
ATOM     13  C   UNL     1      18.243  25.717  43.978  1.00  0.00     0.016 A 
ATOM     14  C   UNL     1      19.183  26.735  43.798  1.00  0.00     0.047 A 
ATOM     15  C   UNL     1      19.846  26.875  42.576  1.00  0.00     0.115 A 
ATOM     16  C   UNL     1      18.631  24.964  41.707  1.00  0.00     0.016 A 
ATOM     17  C   UNL     1      19.570  25.984  41.531  1.00  0.00     0.047 A 
BRANCH  15  18
ATOM     18  O   UNL     1      20.780  27.896  42.411  1.00  0.00    -0.508 OA
ATOM     19  H   UNL     1      20.998  28.271  41.496  1.00  0.00     0.293 HD
ENDBRANCH  15  18
ENDBRANCH   1  12
BRANCH   2  20
ATOM     20  O   UNL     1      15.151  25.051  42.173  1.00  0.00    -0.502 OA
ATOM     21  H   UNL     1      15.513  25.959  42.437  1.00  0.00     0.293 HD
ENDBRANCH   2  20
BRANCH   6  22
ATOM     22  O   UNL     1      13.078  20.454  43.447  1.00  0.00    -0.507 OA
ATOM     23  H   UNL     1      12.555  19.600  43.299  1.00  0.00     0.293 HD
ENDBRANCH   6  22
BRANCH   8  24
ATOM     24  O   UNL     1      16.967  18.070  45.069  1.00  0.00    -0.508 OA
ATOM     25  H   UNL     1      17.464  18.079  45.952  1.00  0.00     0.293 HD
ENDBRANCH   8  24
TORSDOF 5
ENDMDL
MODEL 6
REMARK VINA RESULT:    -5.935      1.715      3.539
REMARK INTER + INTRA:          -7.269
REMARK INTER:                  -7.040
REMARK INTRA:                  -0.229
REMARK UNBOUND:                -0.293
REMARK SMILES O=c1c(O)c(-c2ccc(O)cc2)oc2cc(O)cc(O)c12
REMARK SMILES IDX 5 1 3 2 2 3 1 4 21 5 19 6 18 7 16 8 15 9 14 10 13 11 6 12
REMARK SMILES IDX 7 13 8 14 9 15 12 16 11 17 10 18 4 20 20 22 17 24
REMARK H PARENT 10 19 4 21 20 23 17 25
REMARK Flexibility Score: inf
ROOT
ATOM      1  C   UNL     1      18.265  25.561  42.380  1.00  0.00     0.180 A 
ATOM      2  C   UNL     1      18.919  26.569  43.115  1.00  0.00     0.208 A 
ATOM      3  C   UNL     1      18.411  26.931  44.371  1.00  0.00     0.238 A 
ATOM      4  O   UNL     1      18.996  27.825  45.043  1.00  0.00    -0.285 OA
ATOM      5  C   UNL     1      17.251  26.299  44.862  1.00  0.00     0.111 A 
ATOM      6  C   UNL     1      16.672  26.609  46.117  1.00  0.00     0.134 A 
ATOM      7  C   UNL     1      15.511  25.940  46.532  1.00  0.00     0.093 A 
ATOM      8  C   UNL     1      14.917  24.971  45.716  1.00  0.00     0.123 A 
ATOM      9  C   UNL     1      15.484  24.661  44.478  1.00  0.00     0.094 A 
ATOM     10  C   UNL     1      16.642  25.314  44.049  1.00  0.00     0.146 A 
ATOM     11  O   UNL     1      17.164  24.997  42.868  1.00  0.00    -0.452 OA
ENDROOT
BRANCH   1  12
ATOM     12  C   UNL     1      18.751  25.110  41.057  1.00  0.00     0.021 A 
ATOM     13  C   UNL     1      19.395  23.869  40.895  1.00  0.00     0.016 A 
ATOM     14  C   UNL     1      19.823  23.454  39.631  1.00  0.00     0.047 A 
ATOM     15  C   UNL     1      19.605  24.264  38.512  1.00  0.00     0.115 A 
ATOM     16  C   UNL     1      18.517  25.909  39.925  1.00  0.00     0.016 A 
ATOM     17  C   UNL     1      18.947  25.492  38.662  1.00  0.00     0.047 A 
BRANCH  15  18
ATOM     18  O   UNL     1      20.039  23.837  37.259  1.00  0.00    -0.508 OA
ATOM     19  H   UNL     1      21.001  23.954  36.964  1.00  0.00     0.293 HD
ENDBRANCH  15  18
ENDBRANCH   1  12
BRANCH   2  20
ATOM     20  O   UNL     1      20.040  27.214  42.584  1.00  0.00    -0.502 OA
ATOM     21  H   UNL     1      20.102  28.223  42.513  1.00  0.00     0.293 HD
ENDBRANCH   2  20
BRANCH   6  22
ATOM     22  O   UNL     1      17.240  27.572  46.953  1.00  0.00    -0.507 OA
ATOM     23  H   UNL     1      16.973  27.658  47.926  1.00  0.00     0.293 HD
ENDBRANCH   6  22
BRANCH   8  24
ATOM     24  O   UNL     1      13.763  24.307  46.127  1.00  0.00    -0.508 OA
ATOM     25  H   UNL     1      12.939  24.263  45.538  1.00  0.00     0.293 HD
ENDBRANCH   8  24
TORSDOF 5
ENDMDL
MODEL 7
REMARK VINA RESULT:    -5.906      2.465      6.962
REMARK INTER + INTRA:          -7.235
REMARK INTER:                  -6.944
REMARK INTRA:                  -0.291
REMARK UNBOUND:                -0.293
REMARK SMILES O=c1c(O)c(-c2ccc(O)cc2)oc2cc(O)cc(O)c12
REMARK SMILES IDX 5 1 3 2 2 3 1 4 21 5 19 6 18 7 16 8 15 9 14 10 13 11 6 12
REMARK SMILES IDX 7 13 8 14 9 15 12 16 11 17 10 18 4 20 20 22 17 24
REMARK H PARENT 10 19 4 21 20 23 17 25
REMARK Flexibility Score: inf
ROOT
ATOM      1  C   UNL     1      18.951  25.563  40.710  1.00  0.00     0.180 A 
ATOM      2  C   UNL     1      19.222  24.192  40.537  1.00  0.00     0.208 A 
ATOM      3  C   UNL     1      19.504  23.712  39.249  1.00  0.00     0.238 A 
ATOM      4  O   UNL     1      19.759  22.488  39.085  1.00  0.00    -0.285 OA
ATOM      5  C   UNL     1      19.489  24.602  38.156  1.00  0.00     0.111 A 
ATOM      6  C   UNL     1      19.758  24.199  36.825  1.00  0.00     0.134 A 
ATOM      7  C   UNL     1      19.715  25.144  35.790  1.00  0.00     0.093 A 
ATOM      8  C   UNL     1      19.408  26.482  36.059  1.00  0.00     0.123 A 
ATOM      9  C   UNL     1      19.143  26.885  37.369  1.00  0.00     0.094 A 
ATOM     10  C   UNL     1      19.183  25.959  38.415  1.00  0.00     0.146 A 
ATOM     11  O   UNL     1      18.931  26.370  39.653  1.00  0.00    -0.452 OA
ENDROOT
BRANCH   1  12
ATOM     12  C   UNL     1      18.665  26.148  42.039  1.00  0.00     0.021 A 
ATOM     13  C   UNL     1      17.353  26.219  42.543  1.00  0.00     0.016 A 
ATOM     14  C   UNL     1      17.111  26.754  43.811  1.00  0.00     0.047 A 
ATOM     15  C   UNL     1      18.172  27.212  44.597  1.00  0.00     0.115 A 
ATOM     16  C   UNL     1      19.728  26.592  42.843  1.00  0.00     0.016 A 
ATOM     17  C   UNL     1      19.483  27.127  44.110  1.00  0.00     0.047 A 
BRANCH  15  18
ATOM     18  O   UNL     1      17.915  27.744  45.859  1.00  0.00    -0.508 OA
ATOM     19  H   UNL     1      16.997  28.090  46.111  1.00  0.00     0.293 HD
ENDBRANCH  15  18
ENDBRANCH   1  12
BRANCH   2  20
ATOM     20  O   UNL     1      19.182  23.321  41.630  1.00  0.00    -0.502 OA
ATOM     21  H   UNL     1      19.341  23.635  42.580  1.00  0.00     0.293 HD
ENDBRANCH   2  20
BRANCH   6  22
ATOM     22  O   UNL     1      20.066  22.871  36.525  1.00  0.00    -0.507 OA
ATOM     23  H   UNL     1      20.946  22.453  36.802  1.00  0.00     0.293 HD
ENDBRANCH   6  22
BRANCH   8  24
ATOM     24  O   UNL     1      19.365  27.422  35.031  1.00  0.00    -0.508 OA
ATOM     25  H   UNL     1      19.584  27.171  34.074  1.00  0.00     0.293 HD
ENDBRANCH   8  24
TORSDOF 5
ENDMDL
MODEL 8
REMARK VINA RESULT:    -5.890      2.763      5.497
REMARK INTER + INTRA:          -7.216
REMARK INTER:                  -6.924
REMARK INTRA:                  -0.292
REMARK UNBOUND:                -0.293
REMARK SMILES O=c1c(O)c(-c2ccc(O)cc2)oc2cc(O)cc(O)c12
REMARK SMILES IDX 5 1 3 2 2 3 1 4 21 5 19 6 18 7 16 8 15 9 14 10 13 11 6 12
REMARK SMILES IDX 7 13 8 14 9 15 12 16 11 17 10 18 4 20 20 22 17 24
REMARK H PARENT 10 19 4 21 20 23 17 25
REMARK Flexibility Score: inf
ROOT
ATOM      1  C   UNL     1      17.305  23.429  42.635  1.00  0.00     0.180 A 
ATOM      2  C   UNL     1      17.664  24.559  43.394  1.00  0.00     0.208 A 
ATOM      3  C   UNL     1      18.311  25.628  42.756  1.00  0.00     0.238 A 
ATOM      4  O   UNL     1      18.627  26.650  43.424  1.00  0.00    -0.285 OA
ATOM      5  C   UNL     1      18.606  25.543  41.380  1.00  0.00     0.111 A 
ATOM      6  C   UNL     1      19.260  26.574  40.662  1.00  0.00     0.134 A 
ATOM      7  C   UNL     1      19.526  26.409  39.295  1.00  0.00     0.093 A 
ATOM      8  C   UNL     1      19.154  25.234  38.634  1.00  0.00     0.123 A 
ATOM      9  C   UNL     1      18.509  24.215  39.336  1.00  0.00     0.094 A 
ATOM     10  C   UNL     1      18.232  24.361  40.698  1.00  0.00     0.146 A 
ATOM     11  O   UNL     1      17.613  23.377  41.342  1.00  0.00    -0.452 OA
ENDROOT
BRANCH   1  12
ATOM     12  C   UNL     1      16.603  22.270  43.231  1.00  0.00     0.021 A 
ATOM     13  C   UNL     1      15.200  22.167  43.200  1.00  0.00     0.016 A 
ATOM     14  C   UNL     1      14.561  21.051  43.748  1.00  0.00     0.047 A 
ATOM     15  C   UNL     1      15.312  20.021  44.323  1.00  0.00     0.115 A 
ATOM     16  C   UNL     1      17.351  21.222  43.792  1.00  0.00     0.016 A 
ATOM     17  C   UNL     1      16.710  20.108  44.340  1.00  0.00     0.047 A 
BRANCH  15  18
ATOM     18  O   UNL     1      14.661  18.915  44.867  1.00  0.00    -0.508 OA
ATOM     19  H   UNL     1      14.781  18.656  45.839  1.00  0.00     0.293 HD
ENDBRANCH  15  18
ENDBRANCH   1  12
BRANCH   2  20
ATOM     20  O   UNL     1      17.404  24.599  44.767  1.00  0.00    -0.502 OA
ATOM     21  H   UNL     1      17.938  25.178  45.404  1.00  0.00     0.293 HD
ENDBRANCH   2  20
BRANCH   6  22
ATOM     22  O   UNL     1      19.645  27.757  41.295  1.00  0.00    -0.507 OA
ATOM     23  H   UNL     1      20.394  27.778  41.976  1.00  0.00     0.293 HD
ENDBRANCH   6  22
BRANCH   8  24
ATOM     24  O   UNL     1      19.418  25.069  37.275  1.00  0.00    -0.508 OA
ATOM     25  H   UNL     1      20.336  24.795  36.944  1.00  0.00     0.293 HD
ENDBRANCH   8  24
TORSDOF 5
ENDMDL
MODEL 9
REMARK VINA RESULT:    -5.869      2.295      7.074
REMARK INTER + INTRA:          -7.192
REMARK INTER:                  -7.146
REMARK INTRA:                  -0.046
REMARK UNBOUND:                -0.293
REMARK SMILES O=c1c(O)c(-c2ccc(O)cc2)oc2cc(O)cc(O)c12
REMARK SMILES IDX 5 1 3 2 2 3 1 4 21 5 19 6 18 7 16 8 15 9 14 10 13 11 6 12
REMARK SMILES IDX 7 13 8 14 9 15 12 16 11 17 10 18 4 20 20 22 17 24
REMARK H PARENT 10 19 4 21 20 23 17 25
REMARK Flexibility Score: inf
ROOT
ATOM      1  C   UNL     1      17.652  26.015  44.456  1.00  0.00     0.180 A 
ATOM      2  C   UNL     1      18.846  26.728  44.236  1.00  0.00     0.208 A 
ATOM      3  C   UNL     1      19.411  26.724  42.951  1.00  0.00     0.238 A 
ATOM      4  O   UNL     1      20.474  27.368  42.739  1.00  0.00    -0.285 OA
ATOM      5  C   UNL     1      18.788  25.996  41.918  1.00  0.00     0.111 A 
ATOM      6  C   UNL     1      19.294  25.937  40.597  1.00  0.00     0.134 A 
ATOM      7  C   UNL     1      18.620  25.182  39.626  1.00  0.00     0.093 A 
ATOM      8  C   UNL     1      17.452  24.484  39.951  1.00  0.00     0.123 A 
ATOM      9  C   UNL     1      16.948  24.539  41.251  1.00  0.00     0.094 A 
ATOM     10  C   UNL     1      17.604  25.288  42.233  1.00  0.00     0.146 A 
ATOM     11  O   UNL     1      17.100  25.326  43.461  1.00  0.00    -0.452 OA
ENDROOT
BRANCH   1  12
ATOM     12  C   UNL     1      16.984  25.987  45.778  1.00  0.00     0.021 A 
ATOM     13  C   UNL     1      16.636  27.173  46.450  1.00  0.00     0.016 A 
ATOM     14  C   UNL     1      15.985  27.120  47.685  1.00  0.00     0.047 A 
ATOM     15  C   UNL     1      15.662  25.887  48.259  1.00  0.00     0.115 A 
ATOM     16  C   UNL     1      16.639  24.752  46.351  1.00  0.00     0.016 A 
ATOM     17  C   UNL     1      15.988  24.702  47.587  1.00  0.00     0.047 A 
BRANCH  15  18
ATOM     18  O   UNL     1      15.014  25.850  49.492  1.00  0.00    -0.508 OA
ATOM     19  H   UNL     1      14.302  26.529  49.736  1.00  0.00     0.293 HD
ENDBRANCH  15  18
ENDBRANCH   1  12
BRANCH   2  20
ATOM     20  O   UNL     1      19.471  27.402  45.289  1.00  0.00    -0.502 OA
ATOM     21  H   UNL     1      19.125  28.283  45.650  1.00  0.00     0.293 HD
ENDBRANCH   2  20
BRANCH   6  22
ATOM     22  O   UNL     1      20.458  26.622  40.242  1.00  0.00    -0.507 OA
ATOM     23  H   UNL     1      20.450  27.366  39.556  1.00  0.00     0.293 HD
ENDBRANCH   6  22
BRANCH   8  24
ATOM     24  O   UNL     1      16.781  23.733  38.987  1.00  0.00    -0.508 OA
ATOM     25  H   UNL     1      16.462  24.148  38.120  1.00  0.00     0.293 HD
ENDBRANCH   8  24
TORSDOF 5
ENDMDL
