MODEL 1
REMARK VINA RESULT:    -3.130      0.000      0.000
REMARK INTER + INTRA:          -8.596
REMARK INTER:                  -5.874
REMARK INTRA:                  -2.722
REMARK UNBOUND:                -2.722
REMARK SMILES O=C([O-])CCCCCCCCCCCCCCC(=O)[O-]
REMARK SMILES IDX 10 1 9 2 8 3 7 4 6 5 5 6 4 7 2 8 1 9 3 10 11 11 12 12 13 13
REMARK SMILES IDX 14 14 15 15 16 16 17 17 18 18 19 19 20 20
REMARK H PARENT
REMARK Flexibility Score: inf
ROOT
ATOM      1  C   UNL     1       5.051  10.802  -2.379  1.00  0.00     0.000 C 
ENDROOT
BRANCH   1   2
ATOM      2  C   UNL     1       3.894  10.452  -1.432  1.00  0.00     0.000 C 
BRANCH   2   3
ATOM      3  C   UNL     1       3.590  11.621  -0.483  1.00  0.00     0.000 C 
BRANCH   3   4
ATOM      4  C   UNL     1       3.633  11.211   0.997  1.00  0.00     0.000 C 
BRANCH   4   5
ATOM      5  C   UNL     1       3.466   9.696   1.196  1.00  0.00     0.000 C 
BRANCH   5   6
ATOM      6  C   UNL     1       3.883   9.280   2.613  1.00  0.00     0.006 C 
BRANCH   6   7
ATOM      7  C   UNL     1       4.325   7.814   2.648  1.00  0.00     0.053 C 
BRANCH   7   8
ATOM      8  C   UNL     1       5.533   7.652   3.515  1.00  0.00     0.041 C 
ATOM      9  O   UNL     1       5.984   8.632   4.164  1.00  0.00    -0.550 OA
ATOM     10  O   UNL     1       6.136   6.406   3.641  1.00  0.00    -0.550 OA
ENDBRANCH   7   8
ENDBRANCH   6   7
ENDBRANCH   5   6
ENDBRANCH   4   5
ENDBRANCH   3   4
ENDBRANCH   2   3
ENDBRANCH   1   2
BRANCH   1  11
ATOM     11  C   UNL     1       5.652  12.189  -2.095  1.00  0.00     0.000 C 
BRANCH  11  12
ATOM     12  C   UNL     1       7.095  12.114  -1.575  1.00  0.00     0.000 C 
BRANCH  12  13
ATOM     13  C   UNL     1       7.149  12.399  -0.066  1.00  0.00     0.000 C 
BRANCH  13  14
ATOM     14  C   UNL     1       8.017  11.387   0.699  1.00  0.00     0.000 C 
BRANCH  14  15
ATOM     15  C   UNL     1       7.193  10.234   1.300  1.00  0.00     0.000 C 
BRANCH  15  16
ATOM     16  C   UNL     1       7.609   8.857   0.745  1.00  0.00     0.006 C 
BRANCH  16  17
ATOM     17  C   UNL     1       6.619   8.278  -0.279  1.00  0.00     0.053 C 
BRANCH  17  18
ATOM     18  C   UNL     1       6.822   6.814  -0.509  1.00  0.00     0.041 C 
ATOM     19  O   UNL     1       6.451   5.978   0.356  1.00  0.00    -0.550 OA
ATOM     20  O   UNL     1       7.413   6.370  -1.686  1.00  0.00    -0.550 OA
ENDBRANCH  17  18
ENDBRANCH  16  17
ENDBRANCH  15  16
ENDBRANCH  14  15
ENDBRANCH  13  14
ENDBRANCH  12  13
ENDBRANCH  11  12
ENDBRANCH   1  11
TORSDOF 15
ENDMDL
MODEL 2
REMARK VINA RESULT:    -3.086      2.395      5.573
REMARK INTER + INTRA:          -8.515
REMARK INTER:                  -5.743
REMARK INTRA:                  -2.771
REMARK UNBOUND:                -2.722
REMARK SMILES O=C([O-])CCCCCCCCCCCCCCC(=O)[O-]
REMARK SMILES IDX 10 1 9 2 8 3 7 4 6 5 5 6 4 7 2 8 1 9 3 10 11 11 12 12 13 13
REMARK SMILES IDX 14 14 15 15 16 16 17 17 18 18 19 19 20 20
REMARK H PARENT
REMARK Flexibility Score: inf
ROOT
ATOM      1  C   UNL     1       7.720  10.231   0.551  1.00  0.00     0.000 C 
ENDROOT
BRANCH   1   2
ATOM      2  C   UNL     1       7.014  11.099   1.604  1.00  0.00     0.000 C 
BRANCH   2   3
ATOM      3  C   UNL     1       6.034  12.077   0.938  1.00  0.00     0.000 C 
BRANCH   3   4
ATOM      4  C   UNL     1       6.003  11.936  -0.592  1.00  0.00     0.000 C 
BRANCH   4   5
ATOM      5  C   UNL     1       4.574  11.845  -1.148  1.00  0.00     0.000 C 
BRANCH   5   6
ATOM      6  C   UNL     1       4.531  10.974  -2.410  1.00  0.00     0.006 C 
BRANCH   6   7
ATOM      7  C   UNL     1       5.906  10.909  -3.081  1.00  0.00     0.053 C 
BRANCH   7   8
ATOM      8  C   UNL     1       5.947  11.804  -4.279  1.00  0.00     0.041 C 
ATOM      9  O   UNL     1       5.994  13.054  -4.137  1.00  0.00    -0.550 OA
ATOM     10  O   UNL     1       5.976  11.254  -5.556  1.00  0.00    -0.550 OA
ENDBRANCH   7   8
ENDBRANCH   6   7
ENDBRANCH   5   6
ENDBRANCH   4   5
ENDBRANCH   3   4
ENDBRANCH   2   3
ENDBRANCH   1   2
BRANCH   1  11
ATOM     11  C   UNL     1       8.091   8.837   1.083  1.00  0.00     0.000 C 
BRANCH  11  12
ATOM     12  C   UNL     1       7.384   7.705   0.322  1.00  0.00     0.000 C 
BRANCH  12  13
ATOM     13  C   UNL     1       6.168   8.239  -0.450  1.00  0.00     0.000 C 
BRANCH  13  14
ATOM     14  C   UNL     1       4.832   7.745   0.129  1.00  0.00     0.000 C 
BRANCH  14  15
ATOM     15  C   UNL     1       3.976   8.887   0.703  1.00  0.00     0.000 C 
BRANCH  15  16
ATOM     16  C   UNL     1       4.131   9.033   2.230  1.00  0.00     0.006 C 
BRANCH  16  17
ATOM     17  C   UNL     1       4.321   7.694   2.963  1.00  0.00     0.053 C 
BRANCH  17  18
ATOM     18  C   UNL     1       5.627   7.620   3.690  1.00  0.00     0.041 C 
ATOM     19  O   UNL     1       6.183   8.670   4.107  1.00  0.00    -0.550 OA
ATOM     20  O   UNL     1       6.226   6.387   3.919  1.00  0.00    -0.550 OA
ENDBRANCH  17  18
ENDBRANCH  16  17
ENDBRANCH  15  16
ENDBRANCH  14  15
ENDBRANCH  13  14
ENDBRANCH  12  13
ENDBRANCH  11  12
ENDBRANCH   1  11
TORSDOF 15
ENDMDL
MODEL 3
REMARK VINA RESULT:    -3.050      1.046      4.266
REMARK INTER + INTRA:          -8.447
REMARK INTER:                  -5.884
REMARK INTRA:                  -2.563
REMARK UNBOUND:                -2.722
REMARK SMILES O=C([O-])CCCCCCCCCCCCCCC(=O)[O-]
REMARK SMILES IDX 10 1 9 2 8 3 7 4 6 5 5 6 4 7 2 8 1 9 3 10 11 11 12 12 13 13
REMARK SMILES IDX 14 14 15 15 16 16 17 17 18 18 19 19 20 20
REMARK H PARENT
REMARK Flexibility Score: inf
ROOT
ATOM      1  C   UNL     1       7.504  11.825   1.130  1.00  0.00     0.000 C 
ENDROOT
BRANCH   1   2
ATOM      2  C   UNL     1       7.159  12.778  -0.025  1.00  0.00     0.000 C 
BRANCH   2   3
ATOM      3  C   UNL     1       7.211  12.045  -1.374  1.00  0.00     0.000 C 
BRANCH   3   4
ATOM      4  C   UNL     1       5.831  11.545  -1.830  1.00  0.00     0.000 C 
BRANCH   4   5
ATOM      5  C   UNL     1       5.810  10.033  -2.102  1.00  0.00     0.000 C 
BRANCH   5   6
ATOM      6  C   UNL     1       5.499   9.250  -0.820  1.00  0.00     0.006 C 
BRANCH   6   7
ATOM      7  C   UNL     1       6.747   8.535  -0.295  1.00  0.00     0.053 C 
BRANCH   7   8
ATOM      8  C   UNL     1       6.689   7.075  -0.618  1.00  0.00     0.041 C 
ATOM      9  O   UNL     1       6.343   6.243   0.261  1.00  0.00    -0.550 OA
ATOM     10  O   UNL     1       6.976   6.637  -1.906  1.00  0.00    -0.550 OA
ENDBRANCH   7   8
ENDBRANCH   6   7
ENDBRANCH   5   6
ENDBRANCH   4   5
ENDBRANCH   3   4
ENDBRANCH   2   3
ENDBRANCH   1   2
BRANCH   1  11
ATOM     11  C   UNL     1       6.299  11.533   2.039  1.00  0.00     0.000 C 
BRANCH  11  12
ATOM     12  C   UNL     1       5.096  12.439   1.737  1.00  0.00     0.000 C 
BRANCH  12  13
ATOM     13  C   UNL     1       3.840  11.603   1.446  1.00  0.00     0.000 C 
BRANCH  13  14
ATOM     14  C   UNL     1       3.605  10.499   2.489  1.00  0.00     0.000 C 
BRANCH  14  15
ATOM     15  C   UNL     1       3.032   9.212   1.871  1.00  0.00     0.000 C 
BRANCH  15  16
ATOM     16  C   UNL     1       3.862   7.962   2.229  1.00  0.00     0.006 C 
BRANCH  16  17
ATOM     17  C   UNL     1       4.569   8.059   3.592  1.00  0.00     0.053 C 
BRANCH  17  18
ATOM     18  C   UNL     1       5.948   7.482   3.565  1.00  0.00     0.041 C 
ATOM     19  O   UNL     1       6.177   6.359   4.087  1.00  0.00    -0.550 OA
ATOM     20  O   UNL     1       6.983   8.178   2.952  1.00  0.00    -0.550 OA
ENDBRANCH  17  18
ENDBRANCH  16  17
ENDBRANCH  15  16
ENDBRANCH  14  15
ENDBRANCH  13  14
ENDBRANCH  12  13
ENDBRANCH  11  12
ENDBRANCH   1  11
TORSDOF 15
ENDMDL
MODEL 4
REMARK VINA RESULT:    -3.017      1.174      2.450
REMARK INTER + INTRA:          -8.385
REMARK INTER:                  -5.828
REMARK INTRA:                  -2.557
REMARK UNBOUND:                -2.722
REMARK SMILES O=C([O-])CCCCCCCCCCCCCCC(=O)[O-]
REMARK SMILES IDX 10 1 9 2 8 3 7 4 6 5 5 6 4 7 2 8 1 9 3 10 11 11 12 12 13 13
REMARK SMILES IDX 14 14 15 15 16 16 17 17 18 18 19 19 20 20
REMARK H PARENT
REMARK Flexibility Score: inf
ROOT
ATOM      1  C   UNL     1       6.642  11.226   1.952  1.00  0.00     0.000 C 
ENDROOT
BRANCH   1   2
ATOM      2  C   UNL     1       5.754  12.472   2.092  1.00  0.00     0.000 C 
BRANCH   2   3
ATOM      3  C   UNL     1       4.267  12.097   2.010  1.00  0.00     0.000 C 
BRANCH   3   4
ATOM      4  C   UNL     1       4.039  10.577   1.991  1.00  0.00     0.000 C 
BRANCH   4   5
ATOM      5  C   UNL     1       2.969  10.127   2.998  1.00  0.00     0.000 C 
BRANCH   5   6
ATOM      6  C   UNL     1       3.418   8.866   3.748  1.00  0.00     0.006 C 
BRANCH   6   7
ATOM      7  C   UNL     1       4.320   7.996   2.869  1.00  0.00     0.053 C 
BRANCH   7   8
ATOM      8  C   UNL     1       5.588   7.662   3.589  1.00  0.00     0.041 C 
ATOM      9  O   UNL     1       6.262   8.570   4.142  1.00  0.00    -0.550 OA
ATOM     10  O   UNL     1       6.003   6.339   3.688  1.00  0.00    -0.550 OA
ENDBRANCH   7   8
ENDBRANCH   6   7
ENDBRANCH   5   6
ENDBRANCH   4   5
ENDBRANCH   3   4
ENDBRANCH   2   3
ENDBRANCH   1   2
BRANCH   1  11
ATOM     11  C   UNL     1       7.807  11.435   0.972  1.00  0.00     0.000 C 
BRANCH  11  12
ATOM     12  C   UNL     1       7.549  12.578  -0.022  1.00  0.00     0.000 C 
BRANCH  12  13
ATOM     13  C   UNL     1       7.090  12.030  -1.382  1.00  0.00     0.000 C 
BRANCH  13  14
ATOM     14  C   UNL     1       5.575  12.173  -1.600  1.00  0.00     0.000 C 
BRANCH  14  15
ATOM     15  C   UNL     1       4.866  10.814  -1.736  1.00  0.00     0.000 C 
BRANCH  15  16
ATOM     16  C   UNL     1       5.834   9.623  -1.587  1.00  0.00     0.006 C 
BRANCH  16  17
ATOM     17  C   UNL     1       5.442   8.644  -0.468  1.00  0.00     0.053 C 
BRANCH  17  18
ATOM     18  C   UNL     1       6.509   7.633  -0.191  1.00  0.00     0.041 C 
ATOM     19  O   UNL     1       7.493   7.931   0.536  1.00  0.00    -0.550 OA
ATOM     20  O   UNL     1       6.412   6.354  -0.726  1.00  0.00    -0.550 OA
ENDBRANCH  17  18
ENDBRANCH  16  17
ENDBRANCH  15  16
ENDBRANCH  14  15
ENDBRANCH  13  14
ENDBRANCH  12  13
ENDBRANCH  11  12
ENDBRANCH   1  11
TORSDOF 15
ENDMDL
MODEL 5
REMARK VINA RESULT:    -2.884      1.052      4.198
REMARK INTER + INTRA:          -8.135
REMARK INTER:                  -5.954
REMARK INTRA:                  -2.181
REMARK UNBOUND:                -2.722
REMARK SMILES O=C([O-])CCCCCCCCCCCCCCC(=O)[O-]
REMARK SMILES IDX 10 1 9 2 8 3 7 4 6 5 5 6 4 7 2 8 1 9 3 10 11 11 12 12 13 13
REMARK SMILES IDX 14 14 15 15 16 16 17 17 18 18 19 19 20 20
REMARK H PARENT
REMARK Flexibility Score: inf
ROOT
ATOM      1  C   UNL     1       4.937  11.045  -1.804  1.00  0.00     0.000 C 
ENDROOT
BRANCH   1   2
ATOM      2  C   UNL     1       6.143  11.979  -1.981  1.00  0.00     0.000 C 
BRANCH   2   3
ATOM      3  C   UNL     1       7.060  11.928  -0.749  1.00  0.00     0.000 C 
BRANCH   3   4
ATOM      4  C   UNL     1       6.755  10.732   0.168  1.00  0.00     0.000 C 
BRANCH   4   5
ATOM      5  C   UNL     1       8.015  10.166   0.840  1.00  0.00     0.000 C 
BRANCH   5   6
ATOM      6  C   UNL     1       8.061   8.638   0.720  1.00  0.00     0.006 C 
BRANCH   6   7
ATOM      7  C   UNL     1       6.925   8.121  -0.167  1.00  0.00     0.053 C 
BRANCH   7   8
ATOM      8  C   UNL     1       7.278   6.786  -0.744  1.00  0.00     0.041 C 
ATOM      9  O   UNL     1       8.476   6.507  -1.012  1.00  0.00    -0.550 OA
ATOM     10  O   UNL     1       6.287   5.833  -0.945  1.00  0.00    -0.550 OA
ENDBRANCH   7   8
ENDBRANCH   6   7
ENDBRANCH   5   6
ENDBRANCH   4   5
ENDBRANCH   3   4
ENDBRANCH   2   3
ENDBRANCH   1   2
BRANCH   1  11
ATOM     11  C   UNL     1       3.722  11.755  -1.186  1.00  0.00     0.000 C 
BRANCH  11  12
ATOM     12  C   UNL     1       3.054  10.929  -0.076  1.00  0.00     0.000 C 
BRANCH  12  13
ATOM     13  C   UNL     1       3.053   9.434  -0.430  1.00  0.00     0.000 C 
BRANCH  13  14
ATOM     14  C   UNL     1       3.461   8.543   0.754  1.00  0.00     0.000 C 
BRANCH  14  15
ATOM     15  C   UNL     1       3.561   9.324   2.076  1.00  0.00     0.000 C 
BRANCH  15  16
ATOM     16  C   UNL     1       4.933   9.156   2.761  1.00  0.00     0.006 C 
BRANCH  16  17
ATOM     17  C   UNL     1       4.962   8.045   3.823  1.00  0.00     0.053 C 
BRANCH  17  18
ATOM     18  C   UNL     1       5.936   6.959   3.491  1.00  0.00     0.041 C 
ATOM     19  O   UNL     1       5.845   6.336   2.400  1.00  0.00    -0.550 OA
ATOM     20  O   UNL     1       6.956   6.642   4.381  1.00  0.00    -0.550 OA
ENDBRANCH  17  18
ENDBRANCH  16  17
ENDBRANCH  15  16
ENDBRANCH  14  15
ENDBRANCH  13  14
ENDBRANCH  12  13
ENDBRANCH  11  12
ENDBRANCH   1  11
TORSDOF 15
ENDMDL
MODEL 6
REMARK VINA RESULT:    -2.760      1.425      4.702
REMARK INTER + INTRA:          -7.903
REMARK INTER:                  -5.884
REMARK INTRA:                  -2.019
REMARK UNBOUND:                -2.722
REMARK SMILES O=C([O-])CCCCCCCCCCCCCCC(=O)[O-]
REMARK SMILES IDX 10 1 9 2 8 3 7 4 6 5 5 6 4 7 2 8 1 9 3 10 11 11 12 12 13 13
REMARK SMILES IDX 14 14 15 15 16 16 17 17 18 18 19 19 20 20
REMARK H PARENT
REMARK Flexibility Score: inf
ROOT
ATOM      1  C   UNL     1       5.464  11.439   1.942  1.00  0.00     0.000 C 
ENDROOT
BRANCH   1   2
ATOM      2  C   UNL     1       6.567  12.507   1.901  1.00  0.00     0.000 C 
BRANCH   2   3
ATOM      3  C   UNL     1       7.827  11.966   1.207  1.00  0.00     0.000 C 
BRANCH   3   4
ATOM      4  C   UNL     1       7.556  10.685   0.401  1.00  0.00     0.000 C 
BRANCH   4   5
ATOM      5  C   UNL     1       8.424   9.504   0.858  1.00  0.00     0.000 C 
BRANCH   5   6
ATOM      6  C   UNL     1       7.592   8.220   0.964  1.00  0.00     0.006 C 
BRANCH   6   7
ATOM      7  C   UNL     1       6.767   7.992  -0.306  1.00  0.00     0.053 C 
BRANCH   7   8
ATOM      8  C   UNL     1       7.064   6.647  -0.888  1.00  0.00     0.041 C 
ATOM      9  O   UNL     1       6.163   5.770  -0.953  1.00  0.00    -0.550 OA
ATOM     10  O   UNL     1       8.327   6.375  -1.402  1.00  0.00    -0.550 OA
ENDBRANCH   7   8
ENDBRANCH   6   7
ENDBRANCH   5   6
ENDBRANCH   4   5
ENDBRANCH   3   4
ENDBRANCH   2   3
ENDBRANCH   1   2
BRANCH   1  11
ATOM     11  C   UNL     1       4.053  12.046   2.011  1.00  0.00     0.000 C 
BRANCH  11  12
ATOM     12  C   UNL     1       3.248  11.824   0.722  1.00  0.00     0.000 C 
BRANCH  12  13
ATOM     13  C   UNL     1       3.739  10.572  -0.023  1.00  0.00     0.000 C 
BRANCH  13  14
ATOM     14  C   UNL     1       2.877   9.333   0.268  1.00  0.00     0.000 C 
BRANCH  14  15
ATOM     15  C   UNL     1       3.662   8.221   0.987  1.00  0.00     0.000 C 
BRANCH  15  16
ATOM     16  C   UNL     1       3.118   7.932   2.401  1.00  0.00     0.006 C 
BRANCH  16  17
ATOM     17  C   UNL     1       3.938   8.589   3.524  1.00  0.00     0.053 C 
BRANCH  17  18
ATOM     18  C   UNL     1       5.287   7.963   3.690  1.00  0.00     0.041 C 
ATOM     19  O   UNL     1       6.224   8.609   4.228  1.00  0.00    -0.550 OA
ATOM     20  O   UNL     1       5.507   6.660   3.261  1.00  0.00    -0.550 OA
ENDBRANCH  17  18
ENDBRANCH  16  17
ENDBRANCH  15  16
ENDBRANCH  14  15
ENDBRANCH  13  14
ENDBRANCH  12  13
ENDBRANCH  11  12
ENDBRANCH   1  11
TORSDOF 15
ENDMDL
MODEL 7
REMARK VINA RESULT:    -2.681      2.764      4.733
REMARK INTER + INTRA:          -7.755
REMARK INTER:                  -5.975
REMARK INTRA:                  -1.780
REMARK UNBOUND:                -2.722
REMARK SMILES O=C([O-])CCCCCCCCCCCCCCC(=O)[O-]
REMARK SMILES IDX 10 1 9 2 8 3 7 4 6 5 5 6 4 7 2 8 1 9 3 10 11 11 12 12 13 13
REMARK SMILES IDX 14 14 15 15 16 16 17 17 18 18 19 19 20 20
REMARK H PARENT
REMARK Flexibility Score: inf
ROOT
ATOM      1  C   UNL     1       3.257  10.638   2.132  1.00  0.00     0.000 C 
ENDROOT
BRANCH   1   2
ATOM      2  C   UNL     1       2.932   9.271   1.511  1.00  0.00     0.000 C 
BRANCH   2   3
ATOM      3  C   UNL     1       3.319   8.130   2.465  1.00  0.00     0.000 C 
BRANCH   3   4
ATOM      4  C   UNL     1       4.073   8.628   3.709  1.00  0.00     0.000 C 
BRANCH   4   5
ATOM      5  C   UNL     1       5.469   8.000   3.844  1.00  0.00     0.000 C 
BRANCH   5   6
ATOM      6  C   UNL     1       5.785   7.101   2.643  1.00  0.00     0.006 C 
BRANCH   6   7
ATOM      7  C   UNL     1       6.761   7.787   1.683  1.00  0.00     0.053 C 
BRANCH   7   8
ATOM      8  C   UNL     1       6.604   7.243   0.299  1.00  0.00     0.041 C 
ATOM      9  O   UNL     1       5.456   7.090  -0.197  1.00  0.00    -0.550 OA
ATOM     10  O   UNL     1       7.728   6.945  -0.462  1.00  0.00    -0.550 OA
ENDBRANCH   7   8
ENDBRANCH   6   7
ENDBRANCH   5   6
ENDBRANCH   4   5
ENDBRANCH   3   4
ENDBRANCH   2   3
ENDBRANCH   1   2
BRANCH   1  11
ATOM     11  C   UNL     1       4.173  11.492   1.240  1.00  0.00     0.000 C 
BRANCH  11  12
ATOM     12  C   UNL     1       5.663  11.200   1.469  1.00  0.00     0.000 C 
BRANCH  12  13
ATOM     13  C   UNL     1       6.435  11.214   0.141  1.00  0.00     0.000 C 
BRANCH  13  14
ATOM     14  C   UNL     1       5.620  10.635  -1.026  1.00  0.00     0.000 C 
BRANCH  14  15
ATOM     15  C   UNL     1       5.615  11.556  -2.260  1.00  0.00     0.000 C 
BRANCH  15  16
ATOM     16  C   UNL     1       6.141  10.851  -3.526  1.00  0.00     0.006 C 
BRANCH  16  17
ATOM     17  C   UNL     1       6.872  11.792  -4.499  1.00  0.00     0.053 C 
BRANCH  17  18
ATOM     18  C   UNL     1       6.445  11.593  -5.919  1.00  0.00     0.041 C 
ATOM     19  O   UNL     1       7.286  11.673  -6.852  1.00  0.00    -0.550 OA
ATOM     20  O   UNL     1       5.117  11.305  -6.212  1.00  0.00    -0.550 OA
ENDBRANCH  17  18
ENDBRANCH  16  17
ENDBRANCH  15  16
ENDBRANCH  14  15
ENDBRANCH  13  14
ENDBRANCH  12  13
ENDBRANCH  11  12
ENDBRANCH   1  11
TORSDOF 15
ENDMDL
MODEL 8
REMARK VINA RESULT:    -2.637      2.378      5.018
REMARK INTER + INTRA:          -7.672
REMARK INTER:                  -5.304
REMARK INTRA:                  -2.368
REMARK UNBOUND:                -2.722
REMARK SMILES O=C([O-])CCCCCCCCCCCCCCC(=O)[O-]
REMARK SMILES IDX 10 1 9 2 8 3 7 4 6 5 5 6 4 7 2 8 1 9 3 10 11 11 12 12 13 13
REMARK SMILES IDX 14 14 15 15 16 16 17 17 18 18 19 19 20 20
REMARK H PARENT
REMARK Flexibility Score: inf
ROOT
ATOM      1  C   UNL     1       5.186  11.725   1.910  1.00  0.00     0.000 C 
ENDROOT
BRANCH   1   2
ATOM      2  C   UNL     1       3.695  11.873   1.569  1.00  0.00     0.000 C 
BRANCH   2   3
ATOM      3  C   UNL     1       3.249  10.785   0.581  1.00  0.00     0.000 C 
BRANCH   3   4
ATOM      4  C   UNL     1       3.220  11.280  -0.874  1.00  0.00     0.000 C 
BRANCH   4   5
ATOM      5  C   UNL     1       4.205  10.520  -1.776  1.00  0.00     0.000 C 
BRANCH   5   6
ATOM      6  C   UNL     1       4.884  11.471  -2.769  1.00  0.00     0.006 C 
BRANCH   6   7
ATOM      7  C   UNL     1       6.149  10.840  -3.358  1.00  0.00     0.053 C 
BRANCH   7   8
ATOM      8  C   UNL     1       7.129  11.900  -3.751  1.00  0.00     0.041 C 
ATOM      9  O   UNL     1       7.978  12.318  -2.921  1.00  0.00    -0.550 OA
ATOM     10  O   UNL     1       7.133  12.394  -5.050  1.00  0.00    -0.550 OA
ENDBRANCH   7   8
ENDBRANCH   6   7
ENDBRANCH   5   6
ENDBRANCH   4   5
ENDBRANCH   3   4
ENDBRANCH   2   3
ENDBRANCH   1   2
BRANCH   1  11
ATOM     11  C   UNL     1       6.076  12.696   1.117  1.00  0.00     0.000 C 
BRANCH  11  12
ATOM     12  C   UNL     1       7.432  12.082   0.739  1.00  0.00     0.000 C 
BRANCH  12  13
ATOM     13  C   UNL     1       7.252  10.677   0.144  1.00  0.00     0.000 C 
BRANCH  13  14
ATOM     14  C   UNL     1       8.106   9.616   0.857  1.00  0.00     0.000 C 
BRANCH  14  15
ATOM     15  C   UNL     1       7.448   8.226   0.855  1.00  0.00     0.000 C 
BRANCH  15  16
ATOM     16  C   UNL     1       5.908   8.300   0.840  1.00  0.00     0.006 C 
BRANCH  16  17
ATOM     17  C   UNL     1       5.236   7.437   1.922  1.00  0.00     0.053 C 
BRANCH  17  18
ATOM     18  C   UNL     1       5.056   8.172   3.212  1.00  0.00     0.041 C 
ATOM     19  O   UNL     1       6.025   8.310   4.005  1.00  0.00    -0.550 OA
ATOM     20  O   UNL     1       3.820   8.718   3.536  1.00  0.00    -0.550 OA
ENDBRANCH  17  18
ENDBRANCH  16  17
ENDBRANCH  15  16
ENDBRANCH  14  15
ENDBRANCH  13  14
ENDBRANCH  12  13
ENDBRANCH  11  12
ENDBRANCH   1  11
TORSDOF 15
ENDMDL
MODEL 9
REMARK VINA RESULT:    -2.629      2.570      4.412
REMARK INTER + INTRA:          -7.657
REMARK INTER:                  -5.443
REMARK INTRA:                  -2.214
REMARK UNBOUND:                -2.722
REMARK SMILES O=C([O-])CCCCCCCCCCCCCCC(=O)[O-]
REMARK SMILES IDX 10 1 9 2 8 3 7 4 6 5 5 6 4 7 2 8 1 9 3 10 11 11 12 12 13 13
REMARK SMILES IDX 14 14 15 15 16 16 17 17 18 18 19 19 20 20
REMARK H PARENT
REMARK Flexibility Score: inf
ROOT
ATOM      1  C   UNL     1       3.138  10.842   1.770  1.00  0.00     0.000 C 
ENDROOT
BRANCH   1   2
ATOM      2  C   UNL     1       2.936   9.359   2.120  1.00  0.00     0.000 C 
BRANCH   2   3
ATOM      3  C   UNL     1       3.493   9.045   3.517  1.00  0.00     0.000 C 
BRANCH   3   4
ATOM      4  C   UNL     1       4.512   7.895   3.504  1.00  0.00     0.000 C 
BRANCH   4   5
ATOM      5  C   UNL     1       5.965   8.393   3.537  1.00  0.00     0.000 C 
BRANCH   5   6
ATOM      6  C   UNL     1       6.655   8.163   2.186  1.00  0.00     0.006 C 
BRANCH   6   7
ATOM      7  C   UNL     1       5.876   7.157   1.335  1.00  0.00     0.053 C 
BRANCH   7   8
ATOM      8  C   UNL     1       6.168   7.363  -0.118  1.00  0.00     0.041 C 
ATOM      9  O   UNL     1       5.928   8.473  -0.662  1.00  0.00    -0.550 OA
ATOM     10  O   UNL     1       6.747   6.343  -0.862  1.00  0.00    -0.550 OA
ENDBRANCH   7   8
ENDBRANCH   6   7
ENDBRANCH   5   6
ENDBRANCH   4   5
ENDBRANCH   3   4
ENDBRANCH   2   3
ENDBRANCH   1   2
BRANCH   1  11
ATOM     11  C   UNL     1       4.537  11.133   1.204  1.00  0.00     0.000 C 
BRANCH  11  12
ATOM     12  C   UNL     1       5.259  12.259   1.959  1.00  0.00     0.000 C 
BRANCH  12  13
ATOM     13  C   UNL     1       6.736  11.905   2.190  1.00  0.00     0.000 C 
BRANCH  13  14
ATOM     14  C   UNL     1       7.474  11.554   0.888  1.00  0.00     0.000 C 
BRANCH  14  15
ATOM     15  C   UNL     1       7.992  12.799   0.146  1.00  0.00     0.000 C 
BRANCH  15  16
ATOM     16  C   UNL     1       7.784  12.709  -1.379  1.00  0.00     0.006 C 
BRANCH  16  17
ATOM     17  C   UNL     1       6.651  11.755  -1.793  1.00  0.00     0.053 C 
BRANCH  17  18
ATOM     18  C   UNL     1       5.563  12.450  -2.549  1.00  0.00     0.041 C 
ATOM     19  O   UNL     1       5.710  12.718  -3.770  1.00  0.00    -0.550 OA
ATOM     20  O   UNL     1       4.379  12.793  -1.907  1.00  0.00    -0.550 OA
ENDBRANCH  17  18
ENDBRANCH  16  17
ENDBRANCH  15  16
ENDBRANCH  14  15
ENDBRANCH  13  14
ENDBRANCH  12  13
ENDBRANCH  11  12
ENDBRANCH   1  11
TORSDOF 15
ENDMDL
