MODEL 1
REMARK VINA RESULT:    -5.551      0.000      0.000
REMARK INTER + INTRA:          -6.130
REMARK INTER:                  -6.038
REMARK INTRA:                  -0.092
REMARK UNBOUND:                -0.092
REMARK SMILES C=C(C)[C@@H]1CC[C@@H](C)[C@@H](O)C1
REMARK SMILES IDX 8 1 7 2 6 3 5 4 4 5 11 6 9 7 10 8 2 10 1 11 3 12
REMARK H PARENT 10 9
REMARK Flexibility Score: inf
ROOT
ATOM      1  C   UNL     1     136.500 124.844 134.755  1.00  0.00     0.010 C 
ATOM      2  C   UNL     1     135.837 126.200 135.028  1.00  0.00     0.015 C 
ATOM      3  C   UNL     1     135.970 127.127 133.804  1.00  0.00     0.006 C 
ATOM      4  C   UNL     1     135.293 128.479 134.063  1.00  0.00     0.008 C 
ATOM      5  C   UNL     1     135.869 129.154 135.324  1.00  0.00     0.017 C 
ATOM      6  C   UNL     1     135.743 128.225 136.551  1.00  0.00     0.040 C 
ATOM      7  C   UNL     1     136.420 126.864 136.298  1.00  0.00     0.117 C 
ENDROOT
BRANCH   7   8
ATOM      8  O   UNL     1     137.810 127.029 136.167  1.00  0.00    -0.393 OA
ATOM      9  H   UNL     1     138.224 126.149 136.367  1.00  0.00     0.210 HD
ENDBRANCH   7   8
BRANCH   5  10
ATOM     10  C   UNL     1     135.212 130.504 135.581  1.00  0.00    -0.077 C 
ATOM     11  C   UNL     1     133.908 130.598 135.893  1.00  0.00     0.008 C 
ATOM     12  C   UNL     1     136.024 131.770 135.488  1.00  0.00     0.039 C 
ENDBRANCH   5  10
TORSDOF 2
ENDMDL
MODEL 2
REMARK VINA RESULT:    -5.538      1.386      2.275
REMARK INTER + INTRA:          -6.116
REMARK INTER:                  -6.024
REMARK INTRA:                  -0.092
REMARK UNBOUND:                -0.092
REMARK SMILES C=C(C)[C@@H]1CC[C@@H](C)[C@@H](O)C1
REMARK SMILES IDX 8 1 7 2 6 3 5 4 4 5 11 6 9 7 10 8 2 10 1 11 3 12
REMARK H PARENT 10 9
REMARK Flexibility Score: inf
ROOT
ATOM      1  C   UNL     1     136.483 124.862 134.652  1.00  0.00     0.010 C 
ATOM      2  C   UNL     1     136.610 126.387 134.761  1.00  0.00     0.015 C 
ATOM      3  C   UNL     1     136.341 126.854 136.205  1.00  0.00     0.006 C 
ATOM      4  C   UNL     1     136.485 128.377 136.326  1.00  0.00     0.008 C 
ATOM      5  C   UNL     1     135.552 129.101 135.335  1.00  0.00     0.017 C 
ATOM      6  C   UNL     1     135.815 128.631 133.888  1.00  0.00     0.040 C 
ATOM      7  C   UNL     1     135.673 127.102 133.759  1.00  0.00     0.117 C 
ENDROOT
BRANCH   7   8
ATOM      8  O   UNL     1     134.339 126.717 133.980  1.00  0.00    -0.393 OA
ATOM      9  H   UNL     1     134.014 126.311 133.134  1.00  0.00     0.210 HD
ENDBRANCH   7   8
BRANCH   5  10
ATOM     10  C   UNL     1     135.678 130.614 135.458  1.00  0.00    -0.077 C 
ATOM     11  C   UNL     1     136.820 131.248 135.139  1.00  0.00     0.008 C 
ATOM     12  C   UNL     1     134.511 131.433 135.945  1.00  0.00     0.039 C 
ENDBRANCH   5  10
TORSDOF 2
ENDMDL
MODEL 3
REMARK VINA RESULT:    -5.430      8.474      9.816
REMARK INTER + INTRA:          -5.998
REMARK INTER:                  -5.906
REMARK INTRA:                  -0.092
REMARK UNBOUND:                -0.092
REMARK SMILES C=C(C)[C@@H]1CC[C@@H](C)[C@@H](O)C1
REMARK SMILES IDX 8 1 7 2 6 3 5 4 4 5 11 6 9 7 10 8 2 10 1 11 3 12
REMARK H PARENT 10 9
REMARK Flexibility Score: inf
ROOT
ATOM      1  C   UNL     1     133.969 130.426 141.474  1.00  0.00     0.010 C 
ATOM      2  C   UNL     1     133.660 131.782 142.122  1.00  0.00     0.015 C 
ATOM      3  C   UNL     1     134.727 132.826 141.737  1.00  0.00     0.006 C 
ATOM      4  C   UNL     1     134.415 134.189 142.366  1.00  0.00     0.008 C 
ATOM      5  C   UNL     1     134.291 134.076 143.899  1.00  0.00     0.017 C 
ATOM      6  C   UNL     1     133.226 133.028 144.288  1.00  0.00     0.040 C 
ATOM      7  C   UNL     1     133.532 131.654 143.658  1.00  0.00     0.117 C 
ENDROOT
BRANCH   7   8
ATOM      8  O   UNL     1     134.715 131.123 144.202  1.00  0.00    -0.393 OA
ATOM      9  H   UNL     1     135.467 131.498 143.673  1.00  0.00     0.210 HD
ENDBRANCH   7   8
BRANCH   5  10
ATOM     10  C   UNL     1     133.994 135.429 144.533  1.00  0.00    -0.077 C 
ATOM     11  C   UNL     1     132.801 136.028 144.375  1.00  0.00     0.008 C 
ATOM     12  C   UNL     1     135.046 136.124 145.357  1.00  0.00     0.039 C 
ENDBRANCH   5  10
TORSDOF 2
ENDMDL
MODEL 4
REMARK VINA RESULT:    -5.261      2.644      4.711
REMARK INTER + INTRA:          -5.814
REMARK INTER:                  -5.722
REMARK INTRA:                  -0.093
REMARK UNBOUND:                -0.092
REMARK SMILES C=C(C)[C@@H]1CC[C@@H](C)[C@@H](O)C1
REMARK SMILES IDX 8 1 7 2 6 3 5 4 4 5 11 6 9 7 10 8 2 10 1 11 3 12
REMARK H PARENT 10 9
REMARK Flexibility Score: inf
ROOT
ATOM      1  C   UNL     1     131.033 130.337 138.646  1.00  0.00     0.010 C 
ATOM      2  C   UNL     1     132.376 130.263 137.908  1.00  0.00     0.015 C 
ATOM      3  C   UNL     1     132.276 130.936 136.525  1.00  0.00     0.006 C 
ATOM      4  C   UNL     1     133.621 130.882 135.789  1.00  0.00     0.008 C 
ATOM      5  C   UNL     1     134.120 129.429 135.654  1.00  0.00     0.017 C 
ATOM      6  C   UNL     1     134.215 128.750 137.037  1.00  0.00     0.040 C 
ATOM      7  C   UNL     1     132.868 128.801 137.784  1.00  0.00     0.117 C 
ENDROOT
BRANCH   7   8
ATOM      8  O   UNL     1     131.910 128.021 137.112  1.00  0.00    -0.393 OA
ATOM      9  H   UNL     1     132.200 127.075 137.198  1.00  0.00     0.210 HD
ENDBRANCH   7   8
BRANCH   5  10
ATOM     10  C   UNL     1     135.449 129.365 134.912  1.00  0.00    -0.077 C 
ATOM     11  C   UNL     1     136.404 130.291 135.108  1.00  0.00     0.008 C 
ATOM     12  C   UNL     1     135.715 128.250 133.935  1.00  0.00     0.039 C 
ENDBRANCH   5  10
TORSDOF 2
ENDMDL
MODEL 5
REMARK VINA RESULT:    -5.178      2.226      3.407
REMARK INTER + INTRA:          -5.724
REMARK INTER:                  -5.633
REMARK INTRA:                  -0.091
REMARK UNBOUND:                -0.092
REMARK SMILES C=C(C)[C@@H]1CC[C@@H](C)[C@@H](O)C1
REMARK SMILES IDX 8 1 7 2 6 3 5 4 4 5 11 6 9 7 10 8 2 10 1 11 3 12
REMARK H PARENT 10 9
REMARK Flexibility Score: inf
ROOT
ATOM      1  C   UNL     1     134.628 125.116 139.528  1.00  0.00     0.010 C 
ATOM      2  C   UNL     1     134.630 125.773 138.142  1.00  0.00     0.015 C 
ATOM      3  C   UNL     1     135.963 125.507 137.415  1.00  0.00     0.006 C 
ATOM      4  C   UNL     1     135.965 126.145 136.020  1.00  0.00     0.008 C 
ATOM      5  C   UNL     1     135.682 127.659 136.104  1.00  0.00     0.017 C 
ATOM      6  C   UNL     1     134.350 127.929 136.837  1.00  0.00     0.040 C 
ATOM      7  C   UNL     1     134.340 127.289 138.239  1.00  0.00     0.117 C 
ENDROOT
BRANCH   7   8
ATOM      8  O   UNL     1     135.290 127.915 139.066  1.00  0.00    -0.393 OA
ATOM      9  H   UNL     1     134.786 128.509 139.682  1.00  0.00     0.210 HD
ENDBRANCH   7   8
BRANCH   5  10
ATOM     10  C   UNL     1     135.696 128.304 134.723  1.00  0.00    -0.077 C 
ATOM     11  C   UNL     1     136.021 129.597 134.560  1.00  0.00     0.008 C 
ATOM     12  C   UNL     1     135.340 127.490 133.506  1.00  0.00     0.039 C 
ENDBRANCH   5  10
TORSDOF 2
ENDMDL
MODEL 6
REMARK VINA RESULT:    -5.118      2.852      4.921
REMARK INTER + INTRA:          -5.659
REMARK INTER:                  -5.566
REMARK INTRA:                  -0.092
REMARK UNBOUND:                -0.092
REMARK SMILES C=C(C)[C@@H]1CC[C@@H](C)[C@@H](O)C1
REMARK SMILES IDX 8 1 7 2 6 3 5 4 4 5 11 6 9 7 10 8 2 10 1 11 3 12
REMARK H PARENT 10 9
REMARK Flexibility Score: inf
ROOT
ATOM      1  C   UNL     1     130.788 130.133 138.521  1.00  0.00     0.010 C 
ATOM      2  C   UNL     1     131.773 129.879 137.373  1.00  0.00     0.015 C 
ATOM      3  C   UNL     1     132.714 128.706 137.712  1.00  0.00     0.006 C 
ATOM      4  C   UNL     1     133.689 128.434 136.560  1.00  0.00     0.008 C 
ATOM      5  C   UNL     1     134.499 129.699 136.209  1.00  0.00     0.017 C 
ATOM      6  C   UNL     1     133.559 130.877 135.875  1.00  0.00     0.040 C 
ATOM      7  C   UNL     1     132.574 131.157 137.027  1.00  0.00     0.117 C 
ENDROOT
BRANCH   7   8
ATOM      8  O   UNL     1     133.269 131.616 138.160  1.00  0.00    -0.393 OA
ATOM      9  H   UNL     1     132.670 131.476 138.940  1.00  0.00     0.210 HD
ENDBRANCH   7   8
BRANCH   5  10
ATOM     10  C   UNL     1     135.480 129.434 135.075  1.00  0.00    -0.077 C 
ATOM     11  C   UNL     1     136.489 130.283 134.811  1.00  0.00     0.008 C 
ATOM     12  C   UNL     1     135.333 128.201 134.221  1.00  0.00     0.039 C 
ENDBRANCH   5  10
TORSDOF 2
ENDMDL
MODEL 7
REMARK VINA RESULT:    -5.097      1.821      4.527
REMARK INTER + INTRA:          -5.636
REMARK INTER:                  -5.543
REMARK INTRA:                  -0.093
REMARK UNBOUND:                -0.092
REMARK SMILES C=C(C)[C@@H]1CC[C@@H](C)[C@@H](O)C1
REMARK SMILES IDX 8 1 7 2 6 3 5 4 4 5 11 6 9 7 10 8 2 10 1 11 3 12
REMARK H PARENT 10 9
REMARK Flexibility Score: inf
ROOT
ATOM      1  C   UNL     1     133.100 131.601 137.640  1.00  0.00     0.010 C 
ATOM      2  C   UNL     1     133.571 130.575 136.601  1.00  0.00     0.015 C 
ATOM      3  C   UNL     1     133.429 129.141 137.148  1.00  0.00     0.006 C 
ATOM      4  C   UNL     1     133.880 128.109 136.107  1.00  0.00     0.008 C 
ATOM      5  C   UNL     1     135.329 128.378 135.652  1.00  0.00     0.017 C 
ATOM      6  C   UNL     1     135.476 129.816 135.110  1.00  0.00     0.040 C 
ATOM      7  C   UNL     1     135.023 130.860 136.150  1.00  0.00     0.117 C 
ENDROOT
BRANCH   7   8
ATOM      8  O   UNL     1     135.888 130.848 137.258  1.00  0.00    -0.393 OA
ATOM      9  H   UNL     1     136.496 131.628 137.155  1.00  0.00     0.210 HD
ENDBRANCH   7   8
BRANCH   5  10
ATOM     10  C   UNL     1     135.791 127.349 134.628  1.00  0.00    -0.077 C 
ATOM     11  C   UNL     1     135.487 127.476 133.325  1.00  0.00     0.008 C 
ATOM     12  C   UNL     1     136.604 126.160 135.066  1.00  0.00     0.039 C 
ENDBRANCH   5  10
TORSDOF 2
ENDMDL
MODEL 8
REMARK VINA RESULT:    -5.085      1.765      2.669
REMARK INTER + INTRA:          -5.623
REMARK INTER:                  -5.533
REMARK INTRA:                  -0.089
REMARK UNBOUND:                -0.092
REMARK SMILES C=C(C)[C@@H]1CC[C@@H](C)[C@@H](O)C1
REMARK SMILES IDX 8 1 7 2 6 3 5 4 4 5 11 6 9 7 10 8 2 10 1 11 3 12
REMARK H PARENT 10 9
REMARK Flexibility Score: inf
ROOT
ATOM      1  C   UNL     1     135.629 127.251 133.623  1.00  0.00     0.010 C 
ATOM      2  C   UNL     1     135.041 128.395 134.460  1.00  0.00     0.015 C 
ATOM      3  C   UNL     1     136.123 129.444 134.786  1.00  0.00     0.006 C 
ATOM      4  C   UNL     1     135.538 130.600 135.606  1.00  0.00     0.008 C 
ATOM      5  C   UNL     1     134.875 130.082 136.898  1.00  0.00     0.017 C 
ATOM      6  C   UNL     1     133.795 129.027 136.576  1.00  0.00     0.040 C 
ATOM      7  C   UNL     1     134.374 127.861 135.750  1.00  0.00     0.117 C 
ENDROOT
BRANCH   7   8
ATOM      8  O   UNL     1     135.306 127.139 136.517  1.00  0.00    -0.393 OA
ATOM      9  H   UNL     1     136.206 127.368 136.164  1.00  0.00     0.210 HD
ENDBRANCH   7   8
BRANCH   5  10
ATOM     10  C   UNL     1     134.303 131.225 137.727  1.00  0.00    -0.077 C 
ATOM     11  C   UNL     1     135.071 131.918 138.585  1.00  0.00     0.008 C 
ATOM     12  C   UNL     1     132.850 131.600 137.595  1.00  0.00     0.039 C 
ENDBRANCH   5  10
TORSDOF 2
ENDMDL
MODEL 9
REMARK VINA RESULT:    -5.071      3.375      5.303
REMARK INTER + INTRA:          -5.607
REMARK INTER:                  -5.514
REMARK INTRA:                  -0.093
REMARK UNBOUND:                -0.092
REMARK SMILES C=C(C)[C@@H]1CC[C@@H](C)[C@@H](O)C1
REMARK SMILES IDX 8 1 7 2 6 3 5 4 4 5 11 6 9 7 10 8 2 10 1 11 3 12
REMARK H PARENT 10 9
REMARK Flexibility Score: inf
ROOT
ATOM      1  C   UNL     1     135.015 131.539 135.777  1.00  0.00     0.010 C 
ATOM      2  C   UNL     1     133.856 130.564 136.019  1.00  0.00     0.015 C 
ATOM      3  C   UNL     1     132.727 131.246 136.815  1.00  0.00     0.006 C 
ATOM      4  C   UNL     1     131.556 130.281 137.044  1.00  0.00     0.008 C 
ATOM      5  C   UNL     1     132.028 128.998 137.757  1.00  0.00     0.017 C 
ATOM      6  C   UNL     1     133.163 128.315 136.965  1.00  0.00     0.040 C 
ATOM      7  C   UNL     1     134.343 129.278 136.729  1.00  0.00     0.117 C 
ENDROOT
BRANCH   7   8
ATOM      8  O   UNL     1     134.958 129.602 137.952  1.00  0.00    -0.393 OA
ATOM      9  H   UNL     1     134.710 128.887 138.595  1.00  0.00     0.210 HD
ENDBRANCH   7   8
BRANCH   5  10
ATOM     10  C   UNL     1     130.868 128.040 138.001  1.00  0.00    -0.077 C 
ATOM     11  C   UNL     1     130.536 127.101 137.098  1.00  0.00     0.008 C 
ATOM     12  C   UNL     1     130.067 128.132 139.273  1.00  0.00     0.039 C 
ENDBRANCH   5  10
TORSDOF 2
ENDMDL
