MODEL 1
REMARK VINA RESULT:    -5.742      0.000      0.000
REMARK INTER + INTRA:          -5.910
REMARK INTER:                  -5.910
REMARK INTRA:                   0.000
REMARK UNBOUND:                 0.000
REMARK SMILES O=c1ccc2cc(O)ccc2o1
REMARK SMILES IDX 9 1 10 2 11 3 5 4 4 5 3 6 2 7 1 8 12 9 6 10 7 11 8 12
REMARK H PARENT 8 13
REMARK Flexibility Score: inf
ROOT
ATOM      1  C   UNL     1     -36.138  16.322  50.475  1.00  0.00     0.050 A 
ATOM      2  C   UNL     1     -35.885  15.597  51.645  1.00  0.00     0.052 A 
ATOM      3  C   UNL     1     -34.568  15.337  52.038  1.00  0.00     0.138 A 
ATOM      4  C   UNL     1     -33.495  15.808  51.249  1.00  0.00     0.021 A 
ATOM      5  C   UNL     1     -32.190  15.532  51.666  1.00  0.00     0.019 A 
ATOM      6  C   UNL     1     -31.986  14.806  52.840  1.00  0.00     0.094 A 
ATOM      7  C   UNL     1     -33.097  14.372  53.571  1.00  0.00     0.336 A 
ATOM      8  O   UNL     1     -32.933  13.717  54.633  1.00  0.00    -0.246 OA
ATOM      9  O   UNL     1     -34.329  14.648  53.151  1.00  0.00    -0.423 OA
ATOM     10  C   UNL     1     -33.753  16.532  50.077  1.00  0.00     0.058 A 
ATOM     11  C   UNL     1     -35.077  16.790  49.690  1.00  0.00     0.116 A 
ENDROOT
BRANCH  11  12
ATOM     12  O   UNL     1     -35.350  17.509  48.529  1.00  0.00    -0.508 OA
ATOM     13  H   UNL     1     -34.631  18.046  48.057  1.00  0.00     0.293 HD
ENDBRANCH  11  12
TORSDOF 1
ENDMDL
MODEL 2
REMARK VINA RESULT:    -5.676      1.588      2.296
REMARK INTER + INTRA:          -5.842
REMARK INTER:                  -5.842
REMARK INTRA:                   0.000
REMARK UNBOUND:                 0.000
REMARK SMILES O=c1ccc2cc(O)ccc2o1
REMARK SMILES IDX 9 1 10 2 11 3 5 4 4 5 3 6 2 7 1 8 12 9 6 10 7 11 8 12
REMARK H PARENT 8 13
REMARK Flexibility Score: inf
ROOT
ATOM      1  C   UNL     1     -35.436  16.785  49.547  1.00  0.00     0.050 A 
ATOM      2  C   UNL     1     -34.083  16.599  49.851  1.00  0.00     0.052 A 
ATOM      3  C   UNL     1     -33.714  15.955  51.037  1.00  0.00     0.138 A 
ATOM      4  C   UNL     1     -34.712  15.495  51.925  1.00  0.00     0.021 A 
ATOM      5  C   UNL     1     -34.313  14.857  53.103  1.00  0.00     0.019 A 
ATOM      6  C   UNL     1     -32.953  14.692  53.365  1.00  0.00     0.094 A 
ATOM      7  C   UNL     1     -32.021  15.173  52.439  1.00  0.00     0.336 A 
ATOM      8  O   UNL     1     -30.789  15.034  52.658  1.00  0.00    -0.246 OA
ATOM      9  O   UNL     1     -32.427  15.778  51.326  1.00  0.00    -0.423 OA
ATOM     10  C   UNL     1     -36.066  15.686  51.616  1.00  0.00     0.058 A 
ATOM     11  C   UNL     1     -36.428  16.331  50.424  1.00  0.00     0.116 A 
ENDROOT
BRANCH  11  12
ATOM     12  O   UNL     1     -37.769  16.528  50.102  1.00  0.00    -0.508 OA
ATOM     13  H   UNL     1     -38.504  16.388  50.787  1.00  0.00     0.293 HD
ENDBRANCH  11  12
TORSDOF 1
ENDMDL
MODEL 3
REMARK VINA RESULT:    -5.622      1.586      4.185
REMARK INTER + INTRA:          -5.786
REMARK INTER:                  -5.786
REMARK INTRA:                   0.000
REMARK UNBOUND:                 0.000
REMARK SMILES O=c1ccc2cc(O)ccc2o1
REMARK SMILES IDX 9 1 10 2 11 3 5 4 4 5 3 6 2 7 1 8 12 9 6 10 7 11 8 12
REMARK H PARENT 8 13
REMARK Flexibility Score: inf
ROOT
ATOM      1  C   UNL     1     -32.999  14.714  53.380  1.00  0.00     0.050 A 
ATOM      2  C   UNL     1     -34.362  14.885  53.118  1.00  0.00     0.052 A 
ATOM      3  C   UNL     1     -34.776  15.502  51.932  1.00  0.00     0.138 A 
ATOM      4  C   UNL     1     -33.811  15.952  51.003  1.00  0.00     0.021 A 
ATOM      5  C   UNL     1     -34.254  16.565  49.827  1.00  0.00     0.019 A 
ATOM      6  C   UNL     1     -35.624  16.714  49.607  1.00  0.00     0.094 A 
ATOM      7  C   UNL     1     -36.521  16.245  50.573  1.00  0.00     0.336 A 
ATOM      8  O   UNL     1     -37.760  16.370  50.391  1.00  0.00    -0.246 OA
ATOM      9  O   UNL     1     -36.073  15.665  51.683  1.00  0.00    -0.423 OA
ATOM     10  C   UNL     1     -32.446  15.779  51.272  1.00  0.00     0.058 A 
ATOM     11  C   UNL     1     -32.040  15.158  52.462  1.00  0.00     0.116 A 
ENDROOT
BRANCH  11  12
ATOM     12  O   UNL     1     -30.688  14.978  52.744  1.00  0.00    -0.508 OA
ATOM     13  H   UNL     1     -29.981  15.600  52.367  1.00  0.00     0.293 HD
ENDBRANCH  11  12
TORSDOF 1
ENDMDL
MODEL 4
REMARK VINA RESULT:    -5.542      7.009      7.854
REMARK INTER + INTRA:          -5.704
REMARK INTER:                  -5.704
REMARK INTRA:                   0.000
REMARK UNBOUND:                 0.000
REMARK SMILES O=c1ccc2cc(O)ccc2o1
REMARK SMILES IDX 9 1 10 2 11 3 5 4 4 5 3 6 2 7 1 8 12 9 6 10 7 11 8 12
REMARK H PARENT 8 13
REMARK Flexibility Score: inf
ROOT
ATOM      1  C   UNL     1     -27.027  16.244  54.174  1.00  0.00     0.050 A 
ATOM      2  C   UNL     1     -26.596  14.928  54.367  1.00  0.00     0.052 A 
ATOM      3  C   UNL     1     -26.624  14.019  53.304  1.00  0.00     0.138 A 
ATOM      4  C   UNL     1     -27.091  14.435  52.038  1.00  0.00     0.021 A 
ATOM      5  C   UNL     1     -27.109  13.503  50.995  1.00  0.00     0.019 A 
ATOM      6  C   UNL     1     -26.668  12.202  51.233  1.00  0.00     0.094 A 
ATOM      7  C   UNL     1     -26.219  11.861  52.513  1.00  0.00     0.336 A 
ATOM      8  O   UNL     1     -25.817  10.691  52.747  1.00  0.00    -0.246 OA
ATOM      9  O   UNL     1     -26.213  12.766  53.489  1.00  0.00    -0.423 OA
ATOM     10  C   UNL     1     -27.525  15.755  51.850  1.00  0.00     0.058 A 
ATOM     11  C   UNL     1     -27.492  16.661  52.921  1.00  0.00     0.116 A 
ENDROOT
BRANCH  11  12
ATOM     12  O   UNL     1     -27.918  17.976  52.751  1.00  0.00    -0.508 OA
ATOM     13  H   UNL     1     -28.903  18.215  52.727  1.00  0.00     0.293 HD
ENDBRANCH  11  12
TORSDOF 1
ENDMDL
MODEL 5
REMARK VINA RESULT:    -5.493      1.397      2.135
REMARK INTER + INTRA:          -5.653
REMARK INTER:                  -5.653
REMARK INTRA:                   0.000
REMARK UNBOUND:                 0.000
REMARK SMILES O=c1ccc2cc(O)ccc2o1
REMARK SMILES IDX 9 1 10 2 11 3 5 4 4 5 3 6 2 7 1 8 12 9 6 10 7 11 8 12
REMARK H PARENT 8 13
REMARK Flexibility Score: inf
ROOT
ATOM      1  C   UNL     1     -34.639  16.034  52.023  1.00  0.00     0.050 A 
ATOM      2  C   UNL     1     -34.520  15.223  53.157  1.00  0.00     0.052 A 
ATOM      3  C   UNL     1     -33.283  14.660  53.489  1.00  0.00     0.138 A 
ATOM      4  C   UNL     1     -32.157  14.912  52.674  1.00  0.00     0.021 A 
ATOM      5  C   UNL     1     -30.934  14.335  53.030  1.00  0.00     0.019 A 
ATOM      6  C   UNL     1     -30.862  13.534  54.170  1.00  0.00     0.094 A 
ATOM      7  C   UNL     1     -32.019  13.328  54.929  1.00  0.00     0.336 A 
ATOM      8  O   UNL     1     -31.973  12.609  55.961  1.00  0.00    -0.246 OA
ATOM      9  O   UNL     1     -33.170  13.889  54.568  1.00  0.00    -0.423 OA
ATOM     10  C   UNL     1     -32.282  15.724  51.538  1.00  0.00     0.058 A 
ATOM     11  C   UNL     1     -33.526  16.286  51.213  1.00  0.00     0.116 A 
ENDROOT
BRANCH  11  12
ATOM     12  O   UNL     1     -33.666  17.095  50.088  1.00  0.00    -0.508 OA
ATOM     13  H   UNL     1     -34.512  17.631  49.923  1.00  0.00     0.293 HD
ENDBRANCH  11  12
TORSDOF 1
ENDMDL
MODEL 6
REMARK VINA RESULT:    -5.366      7.376      8.472
REMARK INTER + INTRA:          -5.523
REMARK INTER:                  -5.523
REMARK INTRA:                   0.000
REMARK UNBOUND:                 0.000
REMARK SMILES O=c1ccc2cc(O)ccc2o1
REMARK SMILES IDX 9 1 10 2 11 3 5 4 4 5 3 6 2 7 1 8 12 9 6 10 7 11 8 12
REMARK H PARENT 8 13
REMARK Flexibility Score: inf
ROOT
ATOM      1  C   UNL     1     -27.037  17.243  54.799  1.00  0.00     0.050 A 
ATOM      2  C   UNL     1     -26.426  16.272  55.599  1.00  0.00     0.052 A 
ATOM      3  C   UNL     1     -26.129  15.012  55.067  1.00  0.00     0.138 A 
ATOM      4  C   UNL     1     -26.449  14.726  53.722  1.00  0.00     0.021 A 
ATOM      5  C   UNL     1     -26.141  13.458  53.219  1.00  0.00     0.019 A 
ATOM      6  C   UNL     1     -25.531  12.521  54.053  1.00  0.00     0.094 A 
ATOM      7  C   UNL     1     -25.243  12.876  55.375  1.00  0.00     0.336 A 
ATOM      8  O   UNL     1     -24.692  12.043  56.142  1.00  0.00    -0.246 OA
ATOM      9  O   UNL     1     -25.547  14.089  55.829  1.00  0.00    -0.423 OA
ATOM     10  C   UNL     1     -27.064  15.702  52.925  1.00  0.00     0.058 A 
ATOM     11  C   UNL     1     -27.357  16.963  53.465  1.00  0.00     0.116 A 
ENDROOT
BRANCH  11  12
ATOM     12  O   UNL     1     -27.966  17.944  52.686  1.00  0.00    -0.508 OA
ATOM     13  H   UNL     1     -28.328  18.798  53.098  1.00  0.00     0.293 HD
ENDBRANCH  11  12
TORSDOF 1
ENDMDL
MODEL 7
REMARK VINA RESULT:    -5.298      1.871      2.743
REMARK INTER + INTRA:          -5.453
REMARK INTER:                  -5.453
REMARK INTRA:                   0.000
REMARK UNBOUND:                 0.000
REMARK SMILES O=c1ccc2cc(O)ccc2o1
REMARK SMILES IDX 9 1 10 2 11 3 5 4 4 5 3 6 2 7 1 8 12 9 6 10 7 11 8 12
REMARK H PARENT 8 13
REMARK Flexibility Score: inf
ROOT
ATOM      1  C   UNL     1     -34.647  15.057  52.953  1.00  0.00     0.050 A 
ATOM      2  C   UNL     1     -33.584  14.426  53.607  1.00  0.00     0.052 A 
ATOM      3  C   UNL     1     -32.269  14.651  53.185  1.00  0.00     0.138 A 
ATOM      4  C   UNL     1     -32.020  15.517  52.097  1.00  0.00     0.021 A 
ATOM      5  C   UNL     1     -30.696  15.721  51.698  1.00  0.00     0.019 A 
ATOM      6  C   UNL     1     -29.668  15.071  52.380  1.00  0.00     0.094 A 
ATOM      7  C   UNL     1     -29.990  14.228  53.449  1.00  0.00     0.336 A 
ATOM      8  O   UNL     1     -29.075  13.633  54.076  1.00  0.00    -0.246 OA
ATOM      9  O   UNL     1     -31.258  14.050  53.808  1.00  0.00    -0.423 OA
ATOM     10  C   UNL     1     -33.090  16.146  51.444  1.00  0.00     0.058 A 
ATOM     11  C   UNL     1     -34.406  15.916  51.874  1.00  0.00     0.116 A 
ENDROOT
BRANCH  11  12
ATOM     12  O   UNL     1     -35.479  16.534  51.236  1.00  0.00    -0.508 OA
ATOM     13  H   UNL     1     -35.478  16.694  50.235  1.00  0.00     0.293 HD
ENDBRANCH  11  12
TORSDOF 1
ENDMDL
MODEL 8
REMARK VINA RESULT:    -5.298      1.491      5.057
REMARK INTER + INTRA:          -5.452
REMARK INTER:                  -5.452
REMARK INTRA:                   0.000
REMARK UNBOUND:                 0.000
REMARK SMILES O=c1ccc2cc(O)ccc2o1
REMARK SMILES IDX 9 1 10 2 11 3 5 4 4 5 3 6 2 7 1 8 12 9 6 10 7 11 8 12
REMARK H PARENT 8 13
REMARK Flexibility Score: inf
ROOT
ATOM      1  C   UNL     1     -30.801  13.903  53.563  1.00  0.00     0.050 A 
ATOM      2  C   UNL     1     -31.067  14.688  52.436  1.00  0.00     0.052 A 
ATOM      3  C   UNL     1     -32.366  15.149  52.194  1.00  0.00     0.138 A 
ATOM      4  C   UNL     1     -33.406  14.817  53.090  1.00  0.00     0.021 A 
ATOM      5  C   UNL     1     -34.694  15.290  52.821  1.00  0.00     0.019 A 
ATOM      6  C   UNL     1     -34.913  16.070  51.686  1.00  0.00     0.094 A 
ATOM      7  C   UNL     1     -33.834  16.359  50.843  1.00  0.00     0.336 A 
ATOM      8  O   UNL     1     -34.012  17.062  49.814  1.00  0.00    -0.246 OA
ATOM      9  O   UNL     1     -32.618  15.895  51.121  1.00  0.00    -0.423 OA
ATOM     10  C   UNL     1     -33.134  14.028  54.217  1.00  0.00     0.058 A 
ATOM     11  C   UNL     1     -31.829  13.571  54.454  1.00  0.00     0.116 A 
ENDROOT
BRANCH  11  12
ATOM     12  O   UNL     1     -31.543  12.788  55.570  1.00  0.00    -0.508 OA
ATOM     13  H   UNL     1     -32.262  12.244  56.033  1.00  0.00     0.293 HD
ENDBRANCH  11  12
TORSDOF 1
ENDMDL
MODEL 9
REMARK VINA RESULT:    -5.283      7.249      8.054
REMARK INTER + INTRA:          -5.437
REMARK INTER:                  -5.437
REMARK INTRA:                   0.000
REMARK UNBOUND:                 0.000
REMARK SMILES O=c1ccc2cc(O)ccc2o1
REMARK SMILES IDX 9 1 10 2 11 3 5 4 4 5 3 6 2 7 1 8 12 9 6 10 7 11 8 12
REMARK H PARENT 8 13
REMARK Flexibility Score: inf
ROOT
ATOM      1  C   UNL     1     -27.123  15.705  52.862  1.00  0.00     0.050 A 
ATOM      2  C   UNL     1     -26.812  14.578  53.630  1.00  0.00     0.052 A 
ATOM      3  C   UNL     1     -26.925  14.627  55.024  1.00  0.00     0.138 A 
ATOM      4  C   UNL     1     -27.354  15.818  55.651  1.00  0.00     0.021 A 
ATOM      5  C   UNL     1     -27.456  15.837  57.045  1.00  0.00     0.019 A 
ATOM      6  C   UNL     1     -27.136  14.690  57.770  1.00  0.00     0.094 A 
ATOM      7  C   UNL     1     -26.718  13.546  57.081  1.00  0.00     0.336 A 
ATOM      8  O   UNL     1     -26.425  12.501  57.719  1.00  0.00    -0.246 OA
ATOM      9  O   UNL     1     -26.628  13.554  55.754  1.00  0.00    -0.423 OA
ATOM     10  C   UNL     1     -27.663  16.945  54.876  1.00  0.00     0.058 A 
ATOM     11  C   UNL     1     -27.548  16.887  53.479  1.00  0.00     0.116 A 
ENDROOT
BRANCH  11  12
ATOM     12  O   UNL     1     -27.853  17.998  52.696  1.00  0.00    -0.508 OA
ATOM     13  H   UNL     1     -28.771  18.428  52.721  1.00  0.00     0.293 HD
ENDBRANCH  11  12
TORSDOF 1
ENDMDL
