MODEL 1
REMARK VINA RESULT:    -3.825      0.000      0.000
REMARK INTER + INTRA:          -4.935
REMARK INTER:                  -4.720
REMARK INTRA:                  -0.216
REMARK UNBOUND:                -0.216
REMARK SMILES CCCCCC(=O)[O-]
REMARK SMILES IDX 4 1 5 2 6 3 7 4 8 5 3 6 2 7 1 8
REMARK H PARENT
REMARK Flexibility Score: inf
ROOT
ATOM      1  C   UNL     1      -4.525 -34.700  54.584  1.00  0.00     0.006 C 
ENDROOT
BRANCH   1   2
ATOM      2  C   UNL     1      -3.518 -35.503  55.416  1.00  0.00     0.053 C 
BRANCH   2   3
ATOM      3  C   UNL     1      -2.126 -35.384  54.874  1.00  0.00     0.041 C 
ATOM      4  O   UNL     1      -1.243 -36.216  55.208  1.00  0.00    -0.550 OA
ATOM      5  O   UNL     1      -1.797 -34.333  54.027  1.00  0.00    -0.550 OA
ENDBRANCH   2   3
ENDBRANCH   1   2
BRANCH   1   6
ATOM      6  C   UNL     1      -5.080 -35.508  53.402  1.00  0.00     0.000 C 
BRANCH   6   7
ATOM      7  C   UNL     1      -5.156 -34.648  52.135  1.00  0.00    -0.003 C 
ATOM      8  C   UNL     1      -4.728 -33.211  52.418  1.00  0.00     0.004 C 
ENDBRANCH   6   7
ENDBRANCH   1   6
TORSDOF 4
ENDMDL
MODEL 2
REMARK VINA RESULT:    -3.761     11.597     13.185
REMARK INTER + INTRA:          -4.856
REMARK INTER:                  -4.590
REMARK INTRA:                  -0.266
REMARK UNBOUND:                -0.216
REMARK SMILES CCCCCC(=O)[O-]
REMARK SMILES IDX 4 1 5 2 6 3 7 4 8 5 3 6 2 7 1 8
REMARK H PARENT
REMARK Flexibility Score: inf
ROOT
ATOM      1  C   UNL     1      -9.470 -33.585  40.992  1.00  0.00     0.006 C 
ENDROOT
BRANCH   1   2
ATOM      2  C   UNL     1      -7.978 -33.486  41.333  1.00  0.00     0.053 C 
BRANCH   2   3
ATOM      3  C   UNL     1      -7.659 -32.224  42.075  1.00  0.00     0.041 C 
ATOM      4  O   UNL     1      -7.196 -32.277  43.245  1.00  0.00    -0.550 OA
ATOM      5  O   UNL     1      -7.905 -30.989  41.487  1.00  0.00    -0.550 OA
ENDBRANCH   2   3
ENDBRANCH   1   2
BRANCH   1   6
ATOM      6  C   UNL     1     -10.359 -33.506  42.241  1.00  0.00     0.000 C 
BRANCH   6   7
ATOM      7  C   UNL     1     -10.207 -34.763  43.105  1.00  0.00    -0.003 C 
ATOM      8  C   UNL     1      -9.944 -34.402  44.564  1.00  0.00     0.004 C 
ENDBRANCH   6   7
ENDBRANCH   1   6
TORSDOF 4
ENDMDL
MODEL 3
REMARK VINA RESULT:    -3.752     11.220     12.710
REMARK INTER + INTRA:          -4.845
REMARK INTER:                  -4.615
REMARK INTRA:                  -0.230
REMARK UNBOUND:                -0.216
REMARK SMILES CCCCCC(=O)[O-]
REMARK SMILES IDX 4 1 5 2 6 3 7 4 8 5 3 6 2 7 1 8
REMARK H PARENT
REMARK Flexibility Score: inf
ROOT
ATOM      1  C   UNL     1      -9.898 -34.320  42.233  1.00  0.00     0.006 C 
ENDROOT
BRANCH   1   2
ATOM      2  C   UNL     1     -10.483 -33.626  43.469  1.00  0.00     0.053 C 
BRANCH   2   3
ATOM      3  C   UNL     1      -9.537 -33.665  44.630  1.00  0.00     0.041 C 
ATOM      4  O   UNL     1      -9.830 -34.323  45.663  1.00  0.00    -0.550 OA
ATOM      5  O   UNL     1      -8.349 -32.947  44.585  1.00  0.00    -0.550 OA
ENDBRANCH   2   3
ENDBRANCH   1   2
BRANCH   1   6
ATOM      6  C   UNL     1      -9.805 -33.378  41.024  1.00  0.00     0.000 C 
BRANCH   6   7
ATOM      7  C   UNL     1      -8.541 -32.513  41.097  1.00  0.00    -0.003 C 
ATOM      8  C   UNL     1      -7.285 -33.376  41.178  1.00  0.00     0.004 C 
ENDBRANCH   6   7
ENDBRANCH   1   6
TORSDOF 4
ENDMDL
MODEL 4
REMARK VINA RESULT:    -3.748      2.271      3.854
REMARK INTER + INTRA:          -4.840
REMARK INTER:                  -4.711
REMARK INTRA:                  -0.129
REMARK UNBOUND:                -0.216
REMARK SMILES CCCCCC(=O)[O-]
REMARK SMILES IDX 4 1 5 2 6 3 7 4 8 5 3 6 2 7 1 8
REMARK H PARENT
REMARK Flexibility Score: inf
ROOT
ATOM      1  C   UNL     1      -4.871 -35.092  54.723  1.00  0.00     0.006 C 
ENDROOT
BRANCH   1   2
ATOM      2  C   UNL     1      -4.865 -35.667  53.301  1.00  0.00     0.053 C 
BRANCH   2   3
ATOM      3  C   UNL     1      -4.981 -34.591  52.265  1.00  0.00     0.041 C 
ATOM      4  O   UNL     1      -5.331 -34.879  51.090  1.00  0.00    -0.550 OA
ATOM      5  O   UNL     1      -4.670 -33.276  52.588  1.00  0.00    -0.550 OA
ENDBRANCH   2   3
ENDBRANCH   1   2
BRANCH   1   6
ATOM      6  C   UNL     1      -3.609 -35.472  55.511  1.00  0.00     0.000 C 
BRANCH   6   7
ATOM      7  C   UNL     1      -2.373 -35.474  54.603  1.00  0.00    -0.003 C 
ATOM      8  C   UNL     1      -1.106 -35.778  55.396  1.00  0.00     0.004 C 
ENDBRANCH   6   7
ENDBRANCH   1   6
TORSDOF 4
ENDMDL
MODEL 5
REMARK VINA RESULT:    -3.747      0.832      1.508
REMARK INTER + INTRA:          -4.839
REMARK INTER:                  -4.703
REMARK INTRA:                  -0.136
REMARK UNBOUND:                -0.216
REMARK SMILES CCCCCC(=O)[O-]
REMARK SMILES IDX 4 1 5 2 6 3 7 4 8 5 3 6 2 7 1 8
REMARK H PARENT
REMARK Flexibility Score: inf
ROOT
ATOM      1  C   UNL     1      -4.225 -35.925  53.499  1.00  0.00     0.006 C 
ENDROOT
BRANCH   1   2
ATOM      2  C   UNL     1      -3.538 -35.256  54.696  1.00  0.00     0.053 C 
BRANCH   2   3
ATOM      3  C   UNL     1      -2.067 -35.085  54.469  1.00  0.00     0.041 C 
ATOM      4  O   UNL     1      -1.650 -34.270  53.604  1.00  0.00    -0.550 OA
ATOM      5  O   UNL     1      -1.158 -35.851  55.188  1.00  0.00    -0.550 OA
ENDBRANCH   2   3
ENDBRANCH   1   2
BRANCH   1   6
ATOM      6  C   UNL     1      -5.396 -35.091  52.959  1.00  0.00     0.000 C 
BRANCH   6   7
ATOM      7  C   UNL     1      -4.901 -33.768  52.364  1.00  0.00    -0.003 C 
ATOM      8  C   UNL     1      -5.750 -33.350  51.166  1.00  0.00     0.004 C 
ENDBRANCH   6   7
ENDBRANCH   1   6
TORSDOF 4
ENDMDL
MODEL 6
REMARK VINA RESULT:    -3.599     11.027     12.423
REMARK INTER + INTRA:          -4.657
REMARK INTER:                  -4.440
REMARK INTRA:                  -0.216
REMARK UNBOUND:                -0.216
REMARK SMILES CCCCCC(=O)[O-]
REMARK SMILES IDX 4 1 5 2 6 3 7 4 8 5 3 6 2 7 1 8
REMARK H PARENT
REMARK Flexibility Score: inf
ROOT
ATOM      1  C   UNL     1      -7.733 -33.298  41.762  1.00  0.00     0.006 C 
ENDROOT
BRANCH   1   2
ATOM      2  C   UNL     1      -7.587 -31.971  42.519  1.00  0.00     0.053 C 
BRANCH   2   3
ATOM      3  C   UNL     1      -7.246 -32.188  43.962  1.00  0.00     0.041 C 
ATOM      4  O   UNL     1      -8.101 -32.673  44.749  1.00  0.00    -0.550 OA
ATOM      5  O   UNL     1      -5.995 -31.821  44.444  1.00  0.00    -0.550 OA
ENDBRANCH   2   3
ENDBRANCH   1   2
BRANCH   1   6
ATOM      6  C   UNL     1      -9.101 -33.430  41.077  1.00  0.00     0.000 C 
BRANCH   6   7
ATOM      7  C   UNL     1     -10.229 -33.506  42.112  1.00  0.00    -0.003 C 
ATOM      8  C   UNL     1     -10.161 -34.805  42.909  1.00  0.00     0.004 C 
ENDBRANCH   6   7
ENDBRANCH   1   6
TORSDOF 4
ENDMDL
MODEL 7
REMARK VINA RESULT:    -3.559     10.672     12.349
REMARK INTER + INTRA:          -4.607
REMARK INTER:                  -4.544
REMARK INTRA:                  -0.063
REMARK UNBOUND:                -0.216
REMARK SMILES CCCCCC(=O)[O-]
REMARK SMILES IDX 4 1 5 2 6 3 7 4 8 5 3 6 2 7 1 8
REMARK H PARENT
REMARK Flexibility Score: inf
ROOT
ATOM      1  C   UNL     1      -7.670 -31.939  42.164  1.00  0.00     0.006 C 
ENDROOT
BRANCH   1   2
ATOM      2  C   UNL     1      -7.295 -32.324  43.600  1.00  0.00     0.053 C 
BRANCH   2   3
ATOM      3  C   UNL     1      -6.483 -31.256  44.269  1.00  0.00     0.041 C 
ATOM      4  O   UNL     1      -6.592 -30.056  43.904  1.00  0.00    -0.550 OA
ATOM      5  O   UNL     1      -5.581 -31.592  45.271  1.00  0.00    -0.550 OA
ENDBRANCH   2   3
ENDBRANCH   1   2
BRANCH   1   6
ATOM      6  C   UNL     1      -7.826 -33.166  41.254  1.00  0.00     0.000 C 
BRANCH   6   7
ATOM      7  C   UNL     1      -9.296 -33.390  40.881  1.00  0.00    -0.003 C 
ATOM      8  C   UNL     1     -10.073 -34.000  42.043  1.00  0.00     0.004 C 
ENDBRANCH   6   7
ENDBRANCH   1   6
TORSDOF 4
ENDMDL
MODEL 8
REMARK VINA RESULT:    -3.534     11.437     12.872
REMARK INTER + INTRA:          -4.576
REMARK INTER:                  -4.459
REMARK INTRA:                  -0.117
REMARK UNBOUND:                -0.216
REMARK SMILES CCCCCC(=O)[O-]
REMARK SMILES IDX 4 1 5 2 6 3 7 4 8 5 3 6 2 7 1 8
REMARK H PARENT
REMARK Flexibility Score: inf
ROOT
ATOM      1  C   UNL     1     -10.267 -33.566  42.253  1.00  0.00     0.006 C 
ENDROOT
BRANCH   1   2
ATOM      2  C   UNL     1      -9.749 -34.717  43.125  1.00  0.00     0.053 C 
BRANCH   2   3
ATOM      3  C   UNL     1     -10.012 -34.475  44.580  1.00  0.00     0.041 C 
ATOM      4  O   UNL     1      -9.424 -33.538  45.183  1.00  0.00    -0.550 OA
ATOM      5  O   UNL     1     -10.880 -35.305  45.279  1.00  0.00    -0.550 OA
ENDBRANCH   2   3
ENDBRANCH   1   2
BRANCH   1   6
ATOM      6  C   UNL     1      -9.523 -33.471  40.913  1.00  0.00     0.000 C 
BRANCH   6   7
ATOM      7  C   UNL     1      -8.057 -33.079  41.123  1.00  0.00    -0.003 C 
ATOM      8  C   UNL     1      -7.925 -31.595  41.455  1.00  0.00     0.004 C 
ENDBRANCH   6   7
ENDBRANCH   1   6
TORSDOF 4
ENDMDL
MODEL 9
REMARK VINA RESULT:    -3.502     11.470     13.187
REMARK INTER + INTRA:          -4.537
REMARK INTER:                  -4.453
REMARK INTRA:                  -0.084
REMARK UNBOUND:                -0.216
REMARK SMILES CCCCCC(=O)[O-]
REMARK SMILES IDX 4 1 5 2 6 3 7 4 8 5 3 6 2 7 1 8
REMARK H PARENT
REMARK Flexibility Score: inf
ROOT
ATOM      1  C   UNL     1      -7.625 -32.147  42.201  1.00  0.00     0.006 C 
ENDROOT
BRANCH   1   2
ATOM      2  C   UNL     1      -7.854 -33.447  41.419  1.00  0.00     0.053 C 
BRANCH   2   3
ATOM      3  C   UNL     1      -9.311 -33.703  41.179  1.00  0.00     0.041 C 
ATOM      4  O   UNL     1      -9.882 -33.210  40.171  1.00  0.00    -0.550 OA
ATOM      5  O   UNL     1     -10.044 -34.456  42.087  1.00  0.00    -0.550 OA
ENDBRANCH   2   3
ENDBRANCH   1   2
BRANCH   1   6
ATOM      6  C   UNL     1      -7.439 -32.398  43.705  1.00  0.00     0.000 C 
BRANCH   6   7
ATOM      7  C   UNL     1      -6.867 -31.158  44.402  1.00  0.00    -0.003 C 
ATOM      8  C   UNL     1      -5.594 -31.496  45.172  1.00  0.00     0.004 C 
ENDBRANCH   6   7
ENDBRANCH   1   6
TORSDOF 4
ENDMDL
