MODEL 1
REMARK VINA RESULT:     0.863      0.000      0.000
REMARK INTER + INTRA:           0.825
REMARK INTER:                   1.519
REMARK INTRA:                  -0.693
REMARK UNBOUND:                -0.693
REMARK SMILES CCCCCCCCCCCCCCC(=O)[O-]
REMARK SMILES IDX 9 1 10 2 11 3 12 4 13 5 14 6 15 7 16 8 17 9 8 10 7 11 6 12
REMARK SMILES IDX 5 13 4 14 3 15 2 16 1 17
REMARK H PARENT
REMARK Flexibility Score: inf
ROOT
ATOM      1  C   UNL     1      68.031  76.349  96.959  1.00  0.00     0.000 C 
ENDROOT
BRANCH   1   2
ATOM      2  C   UNL     1      67.883  77.176  95.669  1.00  0.00     0.000 C 
BRANCH   2   3
ATOM      3  C   UNL     1      68.113  76.325  94.403  1.00  0.00     0.000 C 
BRANCH   3   4
ATOM      4  C   UNL     1      67.886  77.099  93.094  1.00  0.00     0.000 C 
BRANCH   4   5
ATOM      5  C   UNL     1      68.279  76.292  91.846  1.00  0.00     0.006 C 
BRANCH   5   6
ATOM      6  C   UNL     1      69.307  75.198  92.162  1.00  0.00     0.053 C 
BRANCH   6   7
ATOM      7  C   UNL     1      69.092  73.975  91.325  1.00  0.00     0.041 C 
ATOM      8  O   UNL     1      67.927  73.633  90.992  1.00  0.00    -0.550 OA
ATOM      9  O   UNL     1      70.181  73.235  90.881  1.00  0.00    -0.550 OA
ENDBRANCH   6   7
ENDBRANCH   5   6
ENDBRANCH   4   5
ENDBRANCH   3   4
ENDBRANCH   2   3
ENDBRANCH   1   2
BRANCH   1  10
ATOM     10  C   UNL     1      67.954  77.212  98.228  1.00  0.00     0.000 C 
BRANCH  10  11
ATOM     11  C   UNL     1      67.876  78.717  97.916  1.00  0.00    -0.000 C 
BRANCH  11  12
ATOM     12  C   UNL     1      68.961  79.526  98.643  1.00  0.00    -0.000 C 
BRANCH  12  13
ATOM     13  C   UNL     1      68.487  80.050 100.011  1.00  0.00    -0.000 C 
BRANCH  13  14
ATOM     14  C   UNL     1      69.549  79.879 101.108  1.00  0.00    -0.000 C 
BRANCH  14  15
ATOM     15  C   UNL     1      68.951  79.405 102.440  1.00  0.00    -0.000 C 
BRANCH  15  16
ATOM     16  C   UNL     1      68.484  77.947 102.343  1.00  0.00    -0.003 C 
ATOM     17  C   UNL     1      68.941  77.140 103.555  1.00  0.00     0.004 C 
ENDBRANCH  15  16
ENDBRANCH  14  15
ENDBRANCH  13  14
ENDBRANCH  12  13
ENDBRANCH  11  12
ENDBRANCH  10  11
ENDBRANCH   1  10
TORSDOF 13
ENDMDL
MODEL 2
REMARK VINA RESULT:     1.556      4.369      9.100
REMARK INTER + INTRA:           2.046
REMARK INTER:                   2.615
REMARK INTRA:                  -0.569
REMARK UNBOUND:                -0.693
REMARK SMILES CCCCCCCCCCCCCCC(=O)[O-]
REMARK SMILES IDX 9 1 10 2 11 3 12 4 13 5 14 6 15 7 16 8 17 9 8 10 7 11 6 12
REMARK SMILES IDX 5 13 4 14 3 15 2 16 1 17
REMARK H PARENT
REMARK Flexibility Score: inf
ROOT
ATOM      1  C   UNL     1      68.323  76.362  96.210  1.00  0.00     0.000 C 
ENDROOT
BRANCH   1   2
ATOM      2  C   UNL     1      67.909  76.803  97.625  1.00  0.00     0.000 C 
BRANCH   2   3
ATOM      3  C   UNL     1      68.868  77.861  98.208  1.00  0.00     0.000 C 
BRANCH   3   4
ATOM      4  C   UNL     1      68.406  79.308  97.966  1.00  0.00     0.000 C 
BRANCH   4   5
ATOM      5  C   UNL     1      68.210  80.100  99.269  1.00  0.00     0.006 C 
BRANCH   5   6
ATOM      6  C   UNL     1      69.400  79.947 100.225  1.00  0.00     0.053 C 
BRANCH   6   7
ATOM      7  C   UNL     1      68.983  79.367 101.542  1.00  0.00     0.041 C 
ATOM      8  O   UNL     1      68.645  80.125 102.489  1.00  0.00    -0.550 OA
ATOM      9  O   UNL     1      68.931  77.989 101.710  1.00  0.00    -0.550 OA
ENDBRANCH   6   7
ENDBRANCH   5   6
ENDBRANCH   4   5
ENDBRANCH   3   4
ENDBRANCH   2   3
ENDBRANCH   1   2
BRANCH   1  10
ATOM     10  C   UNL     1      67.927  77.383  95.132  1.00  0.00     0.000 C 
BRANCH  10  11
ATOM     11  C   UNL     1      67.876  76.765  93.723  1.00  0.00    -0.000 C 
BRANCH  11  12
ATOM     12  C   UNL     1      68.927  77.368  92.778  1.00  0.00    -0.000 C 
BRANCH  12  13
ATOM     13  C   UNL     1      68.651  77.034  91.300  1.00  0.00    -0.000 C 
BRANCH  13  14
ATOM     14  C   UNL     1      67.949  75.679  91.123  1.00  0.00    -0.000 C 
BRANCH  14  15
ATOM     15  C   UNL     1      68.938  74.525  90.905  1.00  0.00    -0.000 C 
BRANCH  15  16
ATOM     16  C   UNL     1      68.545  73.301  91.740  1.00  0.00    -0.003 C 
ATOM     17  C   UNL     1      68.864  72.004  91.001  1.00  0.00     0.004 C 
ENDBRANCH  15  16
ENDBRANCH  14  15
ENDBRANCH  13  14
ENDBRANCH  12  13
ENDBRANCH  11  12
ENDBRANCH  10  11
ENDBRANCH   1  10
TORSDOF 13
ENDMDL
