MODEL 1
REMARK VINA RESULT:    -7.991      0.000      0.000
REMARK INTER + INTRA:          -9.148
REMARK INTER:                  -8.691
REMARK INTRA:                  -0.457
REMARK UNBOUND:                -0.457
REMARK SMILES C=C(C)[C@H]1CC[C@@]2(C)CC[C@@]3(C)[C@@H](CC[C@@H]4[C@]5(C)CC[C@@H](O)C(C)(C)[C@@H]5CC[C@]43C)[C@@H]12
REMARK SMILES IDX 4 1 5 2 6 3 7 4 31 5 13 6 14 7 15 8 16 9 17 10 19 11 20 12
REMARK SMILES IDX 21 13 23 14 26 15 27 16 28 17 29 18 11 19 10 20 9 21 12 22
REMARK SMILES IDX 30 23 24 24 25 25 18 26 8 27 2 28 3 29 1 30 22 31
REMARK H PARENT 22 32
REMARK Flexibility Score: inf
ROOT
ATOM      1  C   UNL     1     110.940 115.745 127.709  1.00  0.00     0.018 C 
ATOM      2  C   UNL     1     109.610 115.698 126.970  1.00  0.00     0.009 C 
ATOM      3  C   UNL     1     109.989 115.542 125.508  1.00  0.00     0.008 C 
ATOM      4  C   UNL     1     111.400 116.173 125.325  1.00  0.00    -0.029 C 
ATOM      5  C   UNL     1     111.948 116.469 126.769  1.00  0.00     0.006 C 
ATOM      6  C   UNL     1     112.403 117.976 126.944  1.00  0.00    -0.000 C 
ATOM      7  C   UNL     1     113.063 118.347 128.302  1.00  0.00     0.005 C 
ATOM      8  C   UNL     1     113.538 119.825 128.386  1.00  0.00     0.005 C 
ATOM      9  C   UNL     1     113.726 120.455 126.985  1.00  0.00     0.002 C 
ATOM     10  C   UNL     1     114.658 121.750 126.889  1.00  0.00    -0.026 C 
ATOM     11  C   UNL     1     114.174 122.906 127.854  1.00  0.00     0.010 C 
ATOM     12  C   UNL     1     114.020 124.320 127.270  1.00  0.00     0.033 C 
ATOM     13  C   UNL     1     115.002 124.626 126.145  1.00  0.00     0.120 C 
ATOM     14  C   UNL     1     114.770 123.698 124.918  1.00  0.00    -0.006 C 
ATOM     15  C   UNL     1     114.841 122.164 125.346  1.00  0.00     0.003 C 
ATOM     16  C   UNL     1     114.184 121.166 124.348  1.00  0.00     0.005 C 
ATOM     17  C   UNL     1     112.732 120.738 124.651  1.00  0.00     0.008 C 
ATOM     18  C   UNL     1     112.355 120.491 126.169  1.00  0.00    -0.024 C 
ATOM     19  C   UNL     1     111.459 119.124 126.433  1.00  0.00    -0.024 C 
ATOM     20  C   UNL     1     110.659 118.634 125.170  1.00  0.00     0.008 C 
ATOM     21  C   UNL     1     111.311 117.446 124.436  1.00  0.00     0.007 C 
ATOM     22  C   UNL     1     110.371 119.351 127.537  1.00  0.00     0.012 C 
ATOM     23  C   UNL     1     111.503 121.721 126.586  1.00  0.00     0.012 C 
ATOM     24  C   UNL     1     113.443 124.097 124.207  1.00  0.00     0.014 C 
ATOM     25  C   UNL     1     115.887 124.002 123.874  1.00  0.00     0.014 C 
ATOM     26  C   UNL     1     116.083 121.334 127.410  1.00  0.00     0.012 C 
ATOM     27  C   UNL     1     112.320 115.156 124.608  1.00  0.00     0.011 C 
ENDROOT
BRANCH   1  28
ATOM     28  C   UNL     1     110.899 116.088 129.194  1.00  0.00    -0.077 C 
ATOM     29  C   UNL     1     109.672 116.688 129.846  1.00  0.00     0.039 C 
ATOM     30  C   UNL     1     111.844 115.561 129.994  1.00  0.00     0.008 C 
ENDBRANCH   1  28
BRANCH  13  31
ATOM     31  O   UNL     1     116.313 124.505 126.641  1.00  0.00    -0.393 OA
ATOM     32  H   UNL     1     116.529 125.344 127.124  1.00  0.00     0.210 HD
ENDBRANCH  13  31
TORSDOF 2
ENDMDL
MODEL 2
REMARK VINA RESULT:    -7.337      2.188      4.668
REMARK INTER + INTRA:          -8.437
REMARK INTER:                  -7.985
REMARK INTRA:                  -0.452
REMARK UNBOUND:                -0.457
REMARK SMILES C=C(C)[C@H]1CC[C@@]2(C)CC[C@@]3(C)[C@@H](CC[C@@H]4[C@]5(C)CC[C@@H](O)C(C)(C)[C@@H]5CC[C@]43C)[C@@H]12
REMARK SMILES IDX 4 1 5 2 6 3 7 4 31 5 13 6 14 7 15 8 16 9 17 10 19 11 20 12
REMARK SMILES IDX 21 13 23 14 26 15 27 16 28 17 29 18 11 19 10 20 9 21 12 22
REMARK SMILES IDX 30 23 24 24 25 25 18 26 8 27 2 28 3 29 1 30 22 31
REMARK H PARENT 22 32
REMARK Flexibility Score: inf
ROOT
ATOM      1  C   UNL     1     109.674 117.451 127.379  1.00  0.00     0.018 C 
ATOM      2  C   UNL     1     109.681 115.936 127.532  1.00  0.00     0.009 C 
ATOM      3  C   UNL     1     110.093 115.700 128.975  1.00  0.00     0.008 C 
ATOM      4  C   UNL     1     110.956 116.918 129.416  1.00  0.00    -0.029 C 
ATOM      5  C   UNL     1     110.821 117.996 128.280  1.00  0.00     0.006 C 
ATOM      6  C   UNL     1     112.228 118.478 127.736  1.00  0.00    -0.000 C 
ATOM      7  C   UNL     1     112.209 119.625 126.686  1.00  0.00     0.005 C 
ATOM      8  C   UNL     1     113.623 120.088 126.237  1.00  0.00     0.005 C 
ATOM      9  C   UNL     1     114.715 119.698 127.263  1.00  0.00     0.002 C 
ATOM     10  C   UNL     1     116.091 120.510 127.205  1.00  0.00    -0.026 C 
ATOM     11  C   UNL     1     116.760 120.447 125.773  1.00  0.00     0.010 C 
ATOM     12  C   UNL     1     118.247 120.068 125.685  1.00  0.00     0.033 C 
ATOM     13  C   UNL     1     119.065 120.517 126.890  1.00  0.00     0.120 C 
ATOM     14  C   UNL     1     118.587 119.817 128.195  1.00  0.00    -0.006 C 
ATOM     15  C   UNL     1     117.029 120.059 128.430  1.00  0.00     0.003 C 
ATOM     16  C   UNL     1     116.345 119.061 129.410  1.00  0.00     0.005 C 
ATOM     17  C   UNL     1     115.623 117.853 128.775  1.00  0.00     0.008 C 
ATOM     18  C   UNL     1     114.817 118.115 127.436  1.00  0.00    -0.024 C 
ATOM     19  C   UNL     1     113.323 117.404 127.392  1.00  0.00    -0.024 C 
ATOM     20  C   UNL     1     113.178 116.168 128.354  1.00  0.00     0.008 C 
ATOM     21  C   UNL     1     112.426 116.476 129.664  1.00  0.00     0.007 C 
ATOM     22  C   UNL     1     112.991 116.847 125.966  1.00  0.00     0.012 C 
ATOM     23  C   UNL     1     115.687 117.497 126.307  1.00  0.00     0.012 C 
ATOM     24  C   UNL     1     118.998 118.316 128.160  1.00  0.00     0.014 C 
ATOM     25  C   UNL     1     119.396 120.423 129.382  1.00  0.00     0.014 C 
ATOM     26  C   UNL     1     115.744 122.025 127.445  1.00  0.00     0.012 C 
ATOM     27  C   UNL     1     110.397 117.477 130.746  1.00  0.00     0.011 C 
ENDROOT
BRANCH   1  28
ATOM     28  C   UNL     1     109.480 118.006 125.972  1.00  0.00    -0.077 C 
ATOM     29  C   UNL     1     109.611 117.136 124.740  1.00  0.00     0.039 C 
ATOM     30  C   UNL     1     108.875 119.200 125.838  1.00  0.00     0.008 C 
ENDBRANCH   1  28
BRANCH  13  31
ATOM     31  O   UNL     1     118.983 121.918 126.998  1.00  0.00    -0.393 OA
ATOM     32  H   UNL     1     119.522 122.190 127.785  1.00  0.00     0.210 HD
ENDBRANCH  13  31
TORSDOF 2
ENDMDL
MODEL 3
REMARK VINA RESULT:    -7.154      1.945      2.506
REMARK INTER + INTRA:          -8.238
REMARK INTER:                  -7.874
REMARK INTRA:                  -0.364
REMARK UNBOUND:                -0.457
REMARK SMILES C=C(C)[C@H]1CC[C@@]2(C)CC[C@@]3(C)[C@@H](CC[C@@H]4[C@]5(C)CC[C@@H](O)C(C)(C)[C@@H]5CC[C@]43C)[C@@H]12
REMARK SMILES IDX 4 1 5 2 6 3 7 4 31 5 13 6 14 7 15 8 16 9 17 10 19 11 20 12
REMARK SMILES IDX 21 13 23 14 26 15 27 16 28 17 29 18 11 19 10 20 9 21 12 22
REMARK SMILES IDX 30 23 24 24 25 25 18 26 8 27 2 28 3 29 1 30 22 31
REMARK H PARENT 22 32
REMARK Flexibility Score: inf
ROOT
ATOM      1  C   UNL     1     110.518 116.022 128.341  1.00  0.00     0.018 C 
ATOM      2  C   UNL     1     109.269 116.709 127.806  1.00  0.00     0.009 C 
ATOM      3  C   UNL     1     109.327 116.492 126.304  1.00  0.00     0.008 C 
ATOM      4  C   UNL     1     110.826 116.336 125.915  1.00  0.00    -0.029 C 
ATOM      5  C   UNL     1     111.625 116.206 127.263  1.00  0.00     0.006 C 
ATOM      6  C   UNL     1     112.804 117.259 127.368  1.00  0.00    -0.000 C 
ATOM      7  C   UNL     1     113.727 117.144 128.614  1.00  0.00     0.005 C 
ATOM      8  C   UNL     1     114.896 118.169 128.626  1.00  0.00     0.005 C 
ATOM      9  C   UNL     1     115.199 118.721 127.211  1.00  0.00     0.002 C 
ATOM     10  C   UNL     1     116.641 119.370 126.979  1.00  0.00    -0.026 C 
ATOM     11  C   UNL     1     116.942 120.538 128.003  1.00  0.00     0.010 C 
ATOM     12  C   UNL     1     117.459 121.874 127.447  1.00  0.00     0.033 C 
ATOM     13  C   UNL     1     118.307 121.725 126.189  1.00  0.00     0.120 C 
ATOM     14  C   UNL     1     117.480 121.135 125.011  1.00  0.00    -0.006 C 
ATOM     15  C   UNL     1     116.812 119.749 125.426  1.00  0.00     0.003 C 
ATOM     16  C   UNL     1     115.617 119.297 124.535  1.00  0.00     0.005 C 
ATOM     17  C   UNL     1     114.203 119.639 125.049  1.00  0.00     0.008 C 
ATOM     18  C   UNL     1     113.948 119.504 126.607  1.00  0.00    -0.024 C 
ATOM     19  C   UNL     1     112.522 118.762 127.001  1.00  0.00    -0.024 C 
ATOM     20  C   UNL     1     111.431 118.837 125.869  1.00  0.00     0.008 C 
ATOM     21  C   UNL     1     111.286 117.541 125.048  1.00  0.00     0.007 C 
ATOM     22  C   UNL     1     111.852 119.424 128.252  1.00  0.00     0.012 C 
ATOM     23  C   UNL     1     113.904 120.961 127.143  1.00  0.00     0.012 C 
ATOM     24  C   UNL     1     116.466 122.201 124.503  1.00  0.00     0.014 C 
ATOM     25  C   UNL     1     118.453 120.910 123.814  1.00  0.00     0.014 C 
ATOM     26  C   UNL     1     117.706 118.254 127.285  1.00  0.00     0.012 C 
ATOM     27  C   UNL     1     110.997 115.050 125.072  1.00  0.00     0.011 C 
ENDROOT
BRANCH   1  28
ATOM     28  C   UNL     1     110.847 116.228 129.816  1.00  0.00    -0.077 C 
ATOM     29  C   UNL     1     110.064 117.187 130.687  1.00  0.00     0.039 C 
ATOM     30  C   UNL     1     111.629 115.319 130.425  1.00  0.00     0.008 C 
ENDBRANCH   1  28
BRANCH  13  31
ATOM     31  O   UNL     1     119.424 120.922 126.488  1.00  0.00    -0.393 OA
ATOM     32  H   UNL     1     119.086 120.037 126.784  1.00  0.00     0.210 HD
ENDBRANCH  13  31
TORSDOF 2
ENDMDL
MODEL 4
REMARK VINA RESULT:    -7.015      2.894      7.303
REMARK INTER + INTRA:          -8.087
REMARK INTER:                  -7.644
REMARK INTRA:                  -0.443
REMARK UNBOUND:                -0.457
REMARK SMILES C=C(C)[C@H]1CC[C@@]2(C)CC[C@@]3(C)[C@@H](CC[C@@H]4[C@]5(C)CC[C@@H](O)C(C)(C)[C@@H]5CC[C@]43C)[C@@H]12
REMARK SMILES IDX 4 1 5 2 6 3 7 4 31 5 13 6 14 7 15 8 16 9 17 10 19 11 20 12
REMARK SMILES IDX 21 13 23 14 26 15 27 16 28 17 29 18 11 19 10 20 9 21 12 22
REMARK SMILES IDX 30 23 24 24 25 25 18 26 8 27 2 28 3 29 1 30 22 31
REMARK H PARENT 22 32
REMARK Flexibility Score: inf
ROOT
ATOM      1  C   UNL     1     113.752 123.290 124.605  1.00  0.00     0.018 C 
ATOM      2  C   UNL     1     115.088 124.021 124.614  1.00  0.00     0.009 C 
ATOM      3  C   UNL     1     116.005 123.152 123.770  1.00  0.00     0.008 C 
ATOM      4  C   UNL     1     115.477 121.691 123.866  1.00  0.00    -0.029 C 
ATOM      5  C   UNL     1     114.076 121.768 124.575  1.00  0.00     0.006 C 
ATOM      6  C   UNL     1     113.986 120.814 125.837  1.00  0.00    -0.000 C 
ATOM      7  C   UNL     1     112.605 120.732 126.546  1.00  0.00     0.005 C 
ATOM      8  C   UNL     1     112.571 119.736 127.740  1.00  0.00     0.005 C 
ATOM      9  C   UNL     1     113.710 118.690 127.657  1.00  0.00     0.002 C 
ATOM     10  C   UNL     1     113.520 117.342 128.494  1.00  0.00    -0.026 C 
ATOM     11  C   UNL     1     113.264 117.624 130.029  1.00  0.00     0.010 C 
ATOM     12  C   UNL     1     114.107 116.852 131.057  1.00  0.00     0.033 C 
ATOM     13  C   UNL     1     114.507 115.456 130.594  1.00  0.00     0.120 C 
ATOM     14  C   UNL     1     115.426 115.514 129.340  1.00  0.00    -0.006 C 
ATOM     15  C   UNL     1     114.730 116.335 128.165  1.00  0.00     0.003 C 
ATOM     16  C   UNL     1     115.695 116.855 127.059  1.00  0.00     0.005 C 
ATOM     17  C   UNL     1     116.191 118.310 127.201  1.00  0.00     0.008 C 
ATOM     18  C   UNL     1     115.146 119.382 127.716  1.00  0.00    -0.024 C 
ATOM     19  C   UNL     1     115.166 120.809 126.876  1.00  0.00    -0.024 C 
ATOM     20  C   UNL     1     116.526 121.095 126.140  1.00  0.00     0.008 C 
ATOM     21  C   UNL     1     116.497 120.798 124.628  1.00  0.00     0.007 C 
ATOM     22  C   UNL     1     114.952 122.039 127.822  1.00  0.00     0.012 C 
ATOM     23  C   UNL     1     115.551 119.676 129.187  1.00  0.00     0.012 C 
ATOM     24  C   UNL     1     116.829 116.053 129.748  1.00  0.00     0.014 C 
ATOM     25  C   UNL     1     115.684 114.048 128.873  1.00  0.00     0.014 C 
ATOM     26  C   UNL     1     112.210 116.650 127.966  1.00  0.00     0.012 C 
ATOM     27  C   UNL     1     115.317 121.118 122.438  1.00  0.00     0.011 C 
ENDROOT
BRANCH   1  28
ATOM     28  C   UNL     1     112.663 123.821 125.531  1.00  0.00    -0.077 C 
ATOM     29  C   UNL     1     112.986 124.612 126.780  1.00  0.00     0.039 C 
ATOM     30  C   UNL     1     111.401 123.864 125.067  1.00  0.00     0.008 C 
ENDBRANCH   1  28
BRANCH  13  31
ATOM     31  O   UNL     1     113.341 114.709 130.344  1.00  0.00    -0.393 OA
ATOM     32  H   UNL     1     113.573 113.749 130.441  1.00  0.00     0.210 HD
ENDBRANCH  13  31
TORSDOF 2
ENDMDL
MODEL 5
REMARK VINA RESULT:    -6.977      2.378      4.572
REMARK INTER + INTRA:          -8.045
REMARK INTER:                  -7.582
REMARK INTRA:                  -0.463
REMARK UNBOUND:                -0.457
REMARK SMILES C=C(C)[C@H]1CC[C@@]2(C)CC[C@@]3(C)[C@@H](CC[C@@H]4[C@]5(C)CC[C@@H](O)C(C)(C)[C@@H]5CC[C@]43C)[C@@H]12
REMARK SMILES IDX 4 1 5 2 6 3 7 4 31 5 13 6 14 7 15 8 16 9 17 10 19 11 20 12
REMARK SMILES IDX 21 13 23 14 26 15 27 16 28 17 29 18 11 19 10 20 9 21 12 22
REMARK SMILES IDX 30 23 24 24 25 25 18 26 8 27 2 28 3 29 1 30 22 31
REMARK H PARENT 22 32
REMARK Flexibility Score: inf
ROOT
ATOM      1  C   UNL     1     110.088 116.747 125.640  1.00  0.00     0.018 C 
ATOM      2  C   UNL     1     109.791 115.970 126.915  1.00  0.00     0.009 C 
ATOM      3  C   UNL     1     109.562 117.039 127.969  1.00  0.00     0.008 C 
ATOM      4  C   UNL     1     110.367 118.299 127.535  1.00  0.00    -0.029 C 
ATOM      5  C   UNL     1     110.862 118.029 126.067  1.00  0.00     0.006 C 
ATOM      6  C   UNL     1     112.427 118.216 125.915  1.00  0.00    -0.000 C 
ATOM      7  C   UNL     1     113.004 118.079 124.477  1.00  0.00     0.005 C 
ATOM      8  C   UNL     1     114.536 118.331 124.390  1.00  0.00     0.005 C 
ATOM      9  C   UNL     1     115.062 119.142 125.599  1.00  0.00     0.002 C 
ATOM     10  C   UNL     1     116.461 119.892 125.418  1.00  0.00    -0.026 C 
ATOM     11  C   UNL     1     117.618 118.902 124.989  1.00  0.00     0.010 C 
ATOM     12  C   UNL     1     118.939 118.950 125.773  1.00  0.00     0.033 C 
ATOM     13  C   UNL     1     119.280 120.334 126.312  1.00  0.00     0.120 C 
ATOM     14  C   UNL     1     118.225 120.818 127.347  1.00  0.00    -0.006 C 
ATOM     15  C   UNL     1     116.760 120.787 126.720  1.00  0.00     0.003 C 
ATOM     16  C   UNL     1     115.597 120.796 127.755  1.00  0.00     0.005 C 
ATOM     17  C   UNL     1     114.997 119.425 128.135  1.00  0.00     0.008 C 
ATOM     18  C   UNL     1     114.833 118.362 126.972  1.00  0.00    -0.024 C 
ATOM     19  C   UNL     1     113.382 117.565 126.980  1.00  0.00    -0.024 C 
ATOM     20  C   UNL     1     112.676 117.543 128.385  1.00  0.00     0.008 C 
ATOM     21  C   UNL     1     111.532 118.565 128.530  1.00  0.00     0.007 C 
ATOM     22  C   UNL     1     113.549 116.057 126.589  1.00  0.00     0.012 C 
ATOM     23  C   UNL     1     115.963 117.322 127.204  1.00  0.00     0.012 C 
ATOM     24  C   UNL     1     118.371 119.996 128.661  1.00  0.00     0.014 C 
ATOM     25  C   UNL     1     118.591 122.279 127.750  1.00  0.00     0.014 C 
ATOM     26  C   UNL     1     116.296 120.896 124.218  1.00  0.00     0.012 C 
ATOM     27  C   UNL     1     109.430 119.530 127.560  1.00  0.00     0.011 C 
ENDROOT
BRANCH   1  28
ATOM     28  C   UNL     1     110.551 115.944 124.429  1.00  0.00    -0.077 C 
ATOM     29  C   UNL     1     111.127 114.552 124.561  1.00  0.00     0.039 C 
ATOM     30  C   UNL     1     110.150 116.347 123.209  1.00  0.00     0.008 C 
ENDBRANCH   1  28
BRANCH  13  31
ATOM     31  O   UNL     1     119.389 121.228 125.230  1.00  0.00    -0.393 OA
ATOM     32  H   UNL     1     118.815 120.884 124.498  1.00  0.00     0.210 HD
ENDBRANCH  13  31
TORSDOF 2
ENDMDL
MODEL 6
REMARK VINA RESULT:    -6.971      1.557      3.911
REMARK INTER + INTRA:          -8.039
REMARK INTER:                  -7.601
REMARK INTRA:                  -0.438
REMARK UNBOUND:                -0.457
REMARK SMILES C=C(C)[C@H]1CC[C@@]2(C)CC[C@@]3(C)[C@@H](CC[C@@H]4[C@]5(C)CC[C@@H](O)C(C)(C)[C@@H]5CC[C@]43C)[C@@H]12
REMARK SMILES IDX 4 1 5 2 6 3 7 4 31 5 13 6 14 7 15 8 16 9 17 10 19 11 20 12
REMARK SMILES IDX 21 13 23 14 26 15 27 16 28 17 29 18 11 19 10 20 9 21 12 22
REMARK SMILES IDX 30 23 24 24 25 25 18 26 8 27 2 28 3 29 1 30 22 31
REMARK H PARENT 22 32
REMARK Flexibility Score: inf
ROOT
ATOM      1  C   UNL     1     109.784 116.770 125.083  1.00  0.00     0.018 C 
ATOM      2  C   UNL     1     110.403 115.606 125.846  1.00  0.00     0.009 C 
ATOM      3  C   UNL     1     110.378 116.046 127.299  1.00  0.00     0.008 C 
ATOM      4  C   UNL     1     110.423 117.601 127.314  1.00  0.00    -0.029 C 
ATOM      5  C   UNL     1     110.210 118.069 125.828  1.00  0.00     0.006 C 
ATOM      6  C   UNL     1     111.356 119.044 125.333  1.00  0.00    -0.000 C 
ATOM      7  C   UNL     1     111.182 119.652 123.913  1.00  0.00     0.005 C 
ATOM      8  C   UNL     1     112.310 120.644 123.512  1.00  0.00     0.005 C 
ATOM      9  C   UNL     1     113.059 121.202 124.748  1.00  0.00     0.002 C 
ATOM     10  C   UNL     1     113.874 122.562 124.550  1.00  0.00    -0.026 C 
ATOM     11  C   UNL     1     114.931 122.459 123.377  1.00  0.00     0.010 C 
ATOM     12  C   UNL     1     116.371 122.918 123.658  1.00  0.00     0.033 C 
ATOM     13  C   UNL     1     116.464 124.052 124.673  1.00  0.00     0.120 C 
ATOM     14  C   UNL     1     115.943 123.611 126.070  1.00  0.00    -0.006 C 
ATOM     15  C   UNL     1     114.456 123.047 125.968  1.00  0.00     0.003 C 
ATOM     16  C   UNL     1     113.999 122.165 127.167  1.00  0.00     0.005 C 
ATOM     17  C   UNL     1     114.131 120.637 126.993  1.00  0.00     0.008 C 
ATOM     18  C   UNL     1     113.781 120.039 125.569  1.00  0.00    -0.024 C 
ATOM     19  C   UNL     1     112.855 118.668 125.616  1.00  0.00    -0.024 C 
ATOM     20  C   UNL     1     112.959 117.876 126.971  1.00  0.00     0.008 C 
ATOM     21  C   UNL     1     111.766 118.097 127.921  1.00  0.00     0.007 C 
ATOM     22  C   UNL     1     113.288 117.641 124.515  1.00  0.00     0.012 C 
ATOM     23  C   UNL     1     115.149 119.684 124.925  1.00  0.00     0.012 C 
ATOM     24  C   UNL     1     116.956 122.618 126.713  1.00  0.00     0.014 C 
ATOM     25  C   UNL     1     115.966 124.861 127.002  1.00  0.00     0.014 C 
ATOM     26  C   UNL     1     112.842 123.658 124.095  1.00  0.00     0.012 C 
ATOM     27  C   UNL     1     109.274 118.131 128.206  1.00  0.00     0.011 C 
ENDROOT
BRANCH   1  28
ATOM     28  C   UNL     1     109.840 116.710 123.560  1.00  0.00    -0.077 C 
ATOM     29  C   UNL     1     110.701 115.706 122.826  1.00  0.00     0.039 C 
ATOM     30  C   UNL     1     108.876 117.340 122.865  1.00  0.00     0.008 C 
ENDBRANCH   1  28
BRANCH  13  31
ATOM     31  O   UNL     1     115.747 125.160 124.182  1.00  0.00    -0.393 OA
ATOM     32  H   UNL     1     115.350 124.898 123.311  1.00  0.00     0.210 HD
ENDBRANCH  13  31
TORSDOF 2
ENDMDL
MODEL 7
REMARK VINA RESULT:    -6.928      1.830      3.545
REMARK INTER + INTRA:          -7.992
REMARK INTER:                  -7.530
REMARK INTRA:                  -0.463
REMARK UNBOUND:                -0.457
REMARK SMILES C=C(C)[C@H]1CC[C@@]2(C)CC[C@@]3(C)[C@@H](CC[C@@H]4[C@]5(C)CC[C@@H](O)C(C)(C)[C@@H]5CC[C@]43C)[C@@H]12
REMARK SMILES IDX 4 1 5 2 6 3 7 4 31 5 13 6 14 7 15 8 16 9 17 10 19 11 20 12
REMARK SMILES IDX 21 13 23 14 26 15 27 16 28 17 29 18 11 19 10 20 9 21 12 22
REMARK SMILES IDX 30 23 24 24 25 25 18 26 8 27 2 28 3 29 1 30 22 31
REMARK H PARENT 22 32
REMARK Flexibility Score: inf
ROOT
ATOM      1  C   UNL     1     112.134 115.041 123.692  1.00  0.00     0.018 C 
ATOM      2  C   UNL     1     111.276 114.441 124.798  1.00  0.00     0.009 C 
ATOM      3  C   UNL     1     109.977 115.227 124.742  1.00  0.00     0.008 C 
ATOM      4  C   UNL     1     110.308 116.631 124.159  1.00  0.00    -0.029 C 
ATOM      5  C   UNL     1     111.787 116.558 123.630  1.00  0.00     0.006 C 
ATOM      6  C   UNL     1     112.700 117.704 124.232  1.00  0.00    -0.000 C 
ATOM      7  C   UNL     1     114.155 117.788 123.689  1.00  0.00     0.005 C 
ATOM      8  C   UNL     1     114.977 118.969 124.277  1.00  0.00     0.005 C 
ATOM      9  C   UNL     1     114.066 120.079 124.857  1.00  0.00     0.002 C 
ATOM     10  C   UNL     1     114.712 121.531 125.033  1.00  0.00    -0.026 C 
ATOM     11  C   UNL     1     116.021 121.498 125.920  1.00  0.00     0.010 C 
ATOM     12  C   UNL     1     116.139 122.507 127.074  1.00  0.00     0.033 C 
ATOM     13  C   UNL     1     115.433 123.831 126.802  1.00  0.00     0.120 C 
ATOM     14  C   UNL     1     113.898 123.636 126.644  1.00  0.00    -0.006 C 
ATOM     15  C   UNL     1     113.577 122.566 125.507  1.00  0.00     0.003 C 
ATOM     16  C   UNL     1     112.149 121.948 125.564  1.00  0.00     0.005 C 
ATOM     17  C   UNL     1     112.011 120.588 126.282  1.00  0.00     0.008 C 
ATOM     18  C   UNL     1     113.173 119.535 126.062  1.00  0.00    -0.024 C 
ATOM     19  C   UNL     1     112.647 117.992 125.776  1.00  0.00    -0.024 C 
ATOM     20  C   UNL     1     111.201 117.701 126.323  1.00  0.00     0.008 C 
ATOM     21  C   UNL     1     110.103 117.727 125.242  1.00  0.00     0.007 C 
ATOM     22  C   UNL     1     113.564 116.931 126.474  1.00  0.00     0.012 C 
ATOM     23  C   UNL     1     113.985 119.537 127.387  1.00  0.00     0.012 C 
ATOM     24  C   UNL     1     113.271 123.299 128.029  1.00  0.00     0.014 C 
ATOM     25  C   UNL     1     113.283 125.015 126.254  1.00  0.00     0.014 C 
ATOM     26  C   UNL     1     115.178 122.005 123.607  1.00  0.00     0.012 C 
ATOM     27  C   UNL     1     109.342 116.932 122.988  1.00  0.00     0.011 C 
ENDROOT
BRANCH   1  28
ATOM     28  C   UNL     1     113.587 114.586 123.615  1.00  0.00    -0.077 C 
ATOM     29  C   UNL     1     114.279 113.910 124.778  1.00  0.00     0.039 C 
ATOM     30  C   UNL     1     114.162 114.497 122.402  1.00  0.00     0.008 C 
ENDBRANCH   1  28
BRANCH  13  31
ATOM     31  O   UNL     1     115.999 124.420 125.656  1.00  0.00    -0.393 OA
ATOM     32  H   UNL     1     116.116 125.387 125.843  1.00  0.00     0.210 HD
ENDBRANCH  13  31
TORSDOF 2
ENDMDL
MODEL 8
REMARK VINA RESULT:    -6.882      2.185      3.106
REMARK INTER + INTRA:          -7.942
REMARK INTER:                  -7.501
REMARK INTRA:                  -0.441
REMARK UNBOUND:                -0.457
REMARK SMILES C=C(C)[C@H]1CC[C@@]2(C)CC[C@@]3(C)[C@@H](CC[C@@H]4[C@]5(C)CC[C@@H](O)C(C)(C)[C@@H]5CC[C@]43C)[C@@H]12
REMARK SMILES IDX 4 1 5 2 6 3 7 4 31 5 13 6 14 7 15 8 16 9 17 10 19 11 20 12
REMARK SMILES IDX 21 13 23 14 26 15 27 16 28 17 29 18 11 19 10 20 9 21 12 22
REMARK SMILES IDX 30 23 24 24 25 25 18 26 8 27 2 28 3 29 1 30 22 31
REMARK H PARENT 22 32
REMARK Flexibility Score: inf
ROOT
ATOM      1  C   UNL     1     110.258 115.913 126.148  1.00  0.00     0.018 C 
ATOM      2  C   UNL     1     109.654 116.174 124.775  1.00  0.00     0.009 C 
ATOM      3  C   UNL     1     110.574 115.449 123.808  1.00  0.00     0.008 C 
ATOM      4  C   UNL     1     111.983 115.387 124.467  1.00  0.00    -0.029 C 
ATOM      5  C   UNL     1     111.802 115.862 125.955  1.00  0.00     0.006 C 
ATOM      6  C   UNL     1     112.785 117.045 126.334  1.00  0.00    -0.000 C 
ATOM      7  C   UNL     1     112.764 117.516 127.816  1.00  0.00     0.005 C 
ATOM      8  C   UNL     1     113.792 118.638 128.133  1.00  0.00     0.005 C 
ATOM      9  C   UNL     1     114.935 118.690 127.089  1.00  0.00     0.002 C 
ATOM     10  C   UNL     1     116.288 119.419 127.529  1.00  0.00    -0.026 C 
ATOM     11  C   UNL     1     116.036 120.904 128.011  1.00  0.00     0.010 C 
ATOM     12  C   UNL     1     116.917 122.017 127.420  1.00  0.00     0.033 C 
ATOM     13  C   UNL     1     118.327 121.557 127.069  1.00  0.00     0.120 C 
ATOM     14  C   UNL     1     118.312 120.473 125.954  1.00  0.00    -0.006 C 
ATOM     15  C   UNL     1     117.390 119.242 126.372  1.00  0.00     0.003 C 
ATOM     16  C   UNL     1     116.924 118.334 125.196  1.00  0.00     0.005 C 
ATOM     17  C   UNL     1     115.527 118.625 124.608  1.00  0.00     0.008 C 
ATOM     18  C   UNL     1     114.381 119.015 125.629  1.00  0.00    -0.024 C 
ATOM     19  C   UNL     1     112.935 118.260 125.348  1.00  0.00    -0.024 C 
ATOM     20  C   UNL     1     112.750 117.769 123.865  1.00  0.00     0.008 C 
ATOM     21  C   UNL     1     112.992 116.260 123.668  1.00  0.00     0.007 C 
ATOM     22  C   UNL     1     111.723 119.218 125.610  1.00  0.00     0.012 C 
ATOM     23  C   UNL     1     114.176 120.545 125.450  1.00  0.00     0.012 C 
ATOM     24  C   UNL     1     117.918 121.129 124.597  1.00  0.00     0.014 C 
ATOM     25  C   UNL     1     119.778 119.984 125.747  1.00  0.00     0.014 C 
ATOM     26  C   UNL     1     116.838 118.653 128.788  1.00  0.00     0.012 C 
ATOM     27  C   UNL     1     112.491 113.925 124.437  1.00  0.00     0.011 C 
ENDROOT
BRANCH   1  28
ATOM     28  C   UNL     1     109.660 116.675 127.326  1.00  0.00    -0.077 C 
ATOM     29  C   UNL     1     108.950 117.999 127.150  1.00  0.00     0.039 C 
ATOM     30  C   UNL     1     109.482 116.014 128.485  1.00  0.00     0.008 C 
ENDBRANCH   1  28
BRANCH  13  31
ATOM     31  O   UNL     1     118.955 121.085 128.237  1.00  0.00    -0.393 OA
ATOM     32  H   UNL     1     118.409 120.335 128.589  1.00  0.00     0.210 HD
ENDBRANCH  13  31
TORSDOF 2
ENDMDL
MODEL 9
REMARK VINA RESULT:    -6.732      3.939      7.051
REMARK INTER + INTRA:          -7.779
REMARK INTER:                  -7.315
REMARK INTRA:                  -0.463
REMARK UNBOUND:                -0.457
REMARK SMILES C=C(C)[C@H]1CC[C@@]2(C)CC[C@@]3(C)[C@@H](CC[C@@H]4[C@]5(C)CC[C@@H](O)C(C)(C)[C@@H]5CC[C@]43C)[C@@H]12
REMARK SMILES IDX 4 1 5 2 6 3 7 4 31 5 13 6 14 7 15 8 16 9 17 10 19 11 20 12
REMARK SMILES IDX 21 13 23 14 26 15 27 16 28 17 29 18 11 19 10 20 9 21 12 22
REMARK SMILES IDX 30 23 24 24 25 25 18 26 8 27 2 28 3 29 1 30 22 31
REMARK H PARENT 22 32
REMARK Flexibility Score: inf
ROOT
ATOM      1  C   UNL     1     118.670 118.608 122.308  1.00  0.00     0.018 C 
ATOM      2  C   UNL     1     119.055 117.149 122.104  1.00  0.00     0.009 C 
ATOM      3  C   UNL     1     118.070 116.635 121.068  1.00  0.00     0.008 C 
ATOM      4  C   UNL     1     116.775 117.489 121.195  1.00  0.00    -0.029 C 
ATOM      5  C   UNL     1     117.123 118.687 122.153  1.00  0.00     0.006 C 
ATOM      6  C   UNL     1     116.111 118.801 123.367  1.00  0.00    -0.000 C 
ATOM      7  C   UNL     1     116.300 120.020 124.314  1.00  0.00     0.005 C 
ATOM      8  C   UNL     1     115.241 120.104 125.448  1.00  0.00     0.005 C 
ATOM      9  C   UNL     1     113.964 119.295 125.112  1.00  0.00     0.002 C 
ATOM     10  C   UNL     1     112.632 119.674 125.910  1.00  0.00    -0.026 C 
ATOM     11  C   UNL     1     112.831 119.590 127.477  1.00  0.00     0.010 C 
ATOM     12  C   UNL     1     111.792 118.809 128.298  1.00  0.00     0.033 C 
ATOM     13  C   UNL     1     110.387 118.856 127.708  1.00  0.00     0.120 C 
ATOM     14  C   UNL     1     110.333 118.176 126.310  1.00  0.00    -0.006 C 
ATOM     15  C   UNL     1     111.398 118.829 125.320  1.00  0.00     0.003 C 
ATOM     16  C   UNL     1     111.766 117.964 124.079  1.00  0.00     0.005 C 
ATOM     17  C   UNL     1     113.041 117.101 124.191  1.00  0.00     0.008 C 
ATOM     18  C   UNL     1     114.284 117.741 124.936  1.00  0.00    -0.024 C 
ATOM     19  C   UNL     1     115.732 117.505 124.171  1.00  0.00    -0.024 C 
ATOM     20  C   UNL     1     115.748 116.259 123.209  1.00  0.00     0.008 C 
ATOM     21  C   UNL     1     115.601 116.614 121.717  1.00  0.00     0.007 C 
ATOM     22  C   UNL     1     116.889 117.241 125.192  1.00  0.00     0.012 C 
ATOM     23  C   UNL     1     114.341 117.036 126.319  1.00  0.00     0.012 C 
ATOM     24  C   UNL     1     110.483 116.634 126.476  1.00  0.00     0.014 C 
ATOM     25  C   UNL     1     108.896 118.376 125.740  1.00  0.00     0.014 C 
ATOM     26  C   UNL     1     112.323 121.185 125.602  1.00  0.00     0.012 C 
ATOM     27  C   UNL     1     116.385 118.026 119.797  1.00  0.00     0.011 C 
ENDROOT
BRANCH   1  28
ATOM     28  C   UNL     1     119.363 119.358 123.441  1.00  0.00    -0.077 C 
ATOM     29  C   UNL     1     120.043 118.636 124.584  1.00  0.00     0.039 C 
ATOM     30  C   UNL     1     119.648 120.660 123.259  1.00  0.00     0.008 C 
ENDBRANCH   1  28
BRANCH  13  31
ATOM     31  O   UNL     1     109.966 120.197 127.645  1.00  0.00    -0.393 OA
ATOM     32  H   UNL     1     109.359 120.284 126.865  1.00  0.00     0.210 HD
ENDBRANCH  13  31
TORSDOF 2
ENDMDL
