MODEL 1
REMARK VINA RESULT:    -3.981      0.000      0.000
REMARK INTER + INTRA:          -5.172
REMARK INTER:                  -4.912
REMARK INTRA:                  -0.260
REMARK UNBOUND:                -0.260
REMARK SMILES CCCCC=CC(C)=O
REMARK SMILES IDX 4 1 3 2 2 3 1 4 5 5 6 6 7 7 9 8 8 9
REMARK H PARENT
REMARK Flexibility Score: inf
ROOT
ATOM      1  C   UNL     1     -13.326   6.176 -17.088  1.00  0.00     0.027 C 
ENDROOT
BRANCH   1   2
ATOM      2  C   UNL     1     -14.494   6.967 -16.479  1.00  0.00     0.004 C 
BRANCH   2   3
ATOM      3  C   UNL     1     -14.020   8.093 -15.548  1.00  0.00    -0.003 C 
ATOM      4  C   UNL     1     -12.505   8.096 -15.345  1.00  0.00     0.004 C 
ENDBRANCH   2   3
ENDBRANCH   1   2
BRANCH   1   5
ATOM      5  C   UNL     1     -13.334   4.749 -16.619  1.00  0.00    -0.023 C 
ATOM      6  C   UNL     1     -12.337   4.250 -15.879  1.00  0.00     0.042 C 
BRANCH   6   7
ATOM      7  C   UNL     1     -12.318   2.849 -15.421  1.00  0.00     0.152 C 
ATOM      8  O   UNL     1     -11.409   2.434 -14.652  1.00  0.00    -0.295 OA
ATOM      9  C   UNL     1     -13.385   1.907 -15.876  1.00  0.00     0.093 C 
ENDBRANCH   6   7
ENDBRANCH   1   5
TORSDOF 4
ENDMDL
MODEL 2
REMARK VINA RESULT:    -3.926      2.390      4.908
REMARK INTER + INTRA:          -5.103
REMARK INTER:                  -4.827
REMARK INTRA:                  -0.276
REMARK UNBOUND:                -0.260
REMARK SMILES CCCCC=CC(C)=O
REMARK SMILES IDX 4 1 3 2 2 3 1 4 5 5 6 6 7 7 9 8 8 9
REMARK H PARENT
REMARK Flexibility Score: inf
ROOT
ATOM      1  C   UNL     1     -12.242   3.802 -17.066  1.00  0.00     0.027 C 
ENDROOT
BRANCH   1   2
ATOM      2  C   UNL     1     -11.747   3.560 -15.631  1.00  0.00     0.004 C 
BRANCH   2   3
ATOM      3  C   UNL     1     -12.497   2.414 -14.935  1.00  0.00    -0.003 C 
ATOM      4  C   UNL     1     -13.490   1.708 -15.859  1.00  0.00     0.004 C 
ENDBRANCH   2   3
ENDBRANCH   1   2
BRANCH   1   5
ATOM      5  C   UNL     1     -12.738   5.208 -17.237  1.00  0.00    -0.023 C 
ATOM      6  C   UNL     1     -13.739   5.692 -16.493  1.00  0.00     0.042 C 
BRANCH   6   7
ATOM      7  C   UNL     1     -14.252   7.066 -16.656  1.00  0.00     0.152 C 
ATOM      8  O   UNL     1     -14.933   7.384 -17.670  1.00  0.00    -0.295 OA
ATOM      9  C   UNL     1     -13.958   8.094 -15.613  1.00  0.00     0.093 C 
ENDBRANCH   6   7
ENDBRANCH   1   5
TORSDOF 4
ENDMDL
MODEL 3
REMARK VINA RESULT:    -3.881      2.353      4.782
REMARK INTER + INTRA:          -5.048
REMARK INTER:                  -4.767
REMARK INTRA:                  -0.281
REMARK UNBOUND:                -0.260
REMARK SMILES CCCCC=CC(C)=O
REMARK SMILES IDX 4 1 3 2 2 3 1 4 5 5 6 6 7 7 9 8 8 9
REMARK H PARENT
REMARK Flexibility Score: inf
ROOT
ATOM      1  C   UNL     1     -12.222   3.900 -17.051  1.00  0.00     0.027 C 
ENDROOT
BRANCH   1   2
ATOM      2  C   UNL     1     -11.783   3.681 -15.594  1.00  0.00     0.004 C 
BRANCH   2   3
ATOM      3  C   UNL     1     -12.414   2.426 -14.973  1.00  0.00    -0.003 C 
ATOM      4  C   UNL     1     -13.430   1.754 -15.896  1.00  0.00     0.004 C 
ENDBRANCH   2   3
ENDBRANCH   1   2
BRANCH   1   5
ATOM      5  C   UNL     1     -12.835   5.258 -17.233  1.00  0.00    -0.023 C 
ATOM      6  C   UNL     1     -13.674   5.774 -16.327  1.00  0.00     0.042 C 
BRANCH   6   7
ATOM      7  C   UNL     1     -14.299   7.100 -16.494  1.00  0.00     0.152 C 
ATOM      8  O   UNL     1     -14.146   7.999 -15.623  1.00  0.00    -0.295 OA
ATOM      9  C   UNL     1     -15.128   7.380 -17.705  1.00  0.00     0.093 C 
ENDBRANCH   6   7
ENDBRANCH   1   5
TORSDOF 4
ENDMDL
MODEL 4
REMARK VINA RESULT:    -3.813      2.226      4.559
REMARK INTER + INTRA:          -4.965
REMARK INTER:                  -4.691
REMARK INTRA:                  -0.274
REMARK UNBOUND:                -0.260
REMARK SMILES CCCCC=CC(C)=O
REMARK SMILES IDX 4 1 3 2 2 3 1 4 5 5 6 6 7 7 9 8 8 9
REMARK H PARENT
REMARK Flexibility Score: inf
ROOT
ATOM      1  C   UNL     1     -12.471   3.316 -16.636  1.00  0.00     0.027 C 
ENDROOT
BRANCH   1   2
ATOM      2  C   UNL     1     -12.726   2.423 -15.412  1.00  0.00     0.004 C 
BRANCH   2   3
ATOM      3  C   UNL     1     -11.843   2.800 -14.214  1.00  0.00    -0.003 C 
ATOM      4  C   UNL     1     -10.373   2.978 -14.593  1.00  0.00     0.004 C 
ENDBRANCH   2   3
ENDBRANCH   1   2
BRANCH   1   5
ATOM      5  C   UNL     1     -13.272   4.583 -16.559  1.00  0.00    -0.023 C 
ATOM      6  C   UNL     1     -12.688   5.769 -16.350  1.00  0.00     0.042 C 
BRANCH   6   7
ATOM      7  C   UNL     1     -13.458   7.023 -16.256  1.00  0.00     0.152 C 
ATOM      8  O   UNL     1     -13.098   7.944 -15.473  1.00  0.00    -0.295 OA
ATOM      9  C   UNL     1     -14.683   7.204 -17.092  1.00  0.00     0.093 C 
ENDBRANCH   6   7
ENDBRANCH   1   5
TORSDOF 4
ENDMDL
MODEL 5
REMARK VINA RESULT:    -3.777      1.593      2.007
REMARK INTER + INTRA:          -4.919
REMARK INTER:                  -4.783
REMARK INTRA:                  -0.137
REMARK UNBOUND:                -0.260
REMARK SMILES CCCCC=CC(C)=O
REMARK SMILES IDX 4 1 3 2 2 3 1 4 5 5 6 6 7 7 9 8 8 9
REMARK H PARENT
REMARK Flexibility Score: inf
ROOT
ATOM      1  C   UNL     1     -13.690   7.360 -16.120  1.00  0.00     0.027 C 
ENDROOT
BRANCH   1   2
ATOM      2  C   UNL     1     -12.372   7.776 -15.447  1.00  0.00     0.004 C 
BRANCH   2   3
ATOM      3  C   UNL     1     -12.506   9.080 -14.647  1.00  0.00    -0.003 C 
ATOM      4  C   UNL     1     -11.232   9.925 -14.673  1.00  0.00     0.004 C 
ENDBRANCH   2   3
ENDBRANCH   1   2
BRANCH   1   5
ATOM      5  C   UNL     1     -13.594   5.974 -16.690  1.00  0.00    -0.023 C 
ATOM      6  C   UNL     1     -12.698   5.091 -16.234  1.00  0.00     0.042 C 
BRANCH   6   7
ATOM      7  C   UNL     1     -12.576   3.731 -16.790  1.00  0.00     0.152 C 
ATOM      8  O   UNL     1     -12.042   3.539 -17.916  1.00  0.00    -0.295 OA
ATOM      9  C   UNL     1     -13.098   2.565 -16.014  1.00  0.00     0.093 C 
ENDBRANCH   6   7
ENDBRANCH   1   5
TORSDOF 4
ENDMDL
MODEL 6
REMARK VINA RESULT:    -3.616      1.986      2.730
REMARK INTER + INTRA:          -4.722
REMARK INTER:                  -4.438
REMARK INTRA:                  -0.284
REMARK UNBOUND:                -0.260
REMARK SMILES CCCCC=CC(C)=O
REMARK SMILES IDX 4 1 3 2 2 3 1 4 5 5 6 6 7 7 9 8 8 9
REMARK H PARENT
REMARK Flexibility Score: inf
ROOT
ATOM      1  C   UNL     1     -12.961   3.745 -16.415  1.00  0.00     0.027 C 
ENDROOT
BRANCH   1   2
ATOM      2  C   UNL     1     -12.542   5.055 -17.100  1.00  0.00     0.004 C 
BRANCH   2   3
ATOM      3  C   UNL     1     -13.550   6.189 -16.868  1.00  0.00    -0.003 C 
ATOM      4  C   UNL     1     -13.042   7.243 -15.884  1.00  0.00     0.004 C 
ENDBRANCH   2   3
ENDBRANCH   1   2
BRANCH   1   5
ATOM      5  C   UNL     1     -11.915   3.283 -15.442  1.00  0.00    -0.023 C 
ATOM      6  C   UNL     1     -10.851   4.039 -15.147  1.00  0.00     0.042 C 
BRANCH   6   7
ATOM      7  C   UNL     1      -9.805   3.598 -14.206  1.00  0.00     0.152 C 
ATOM      8  O   UNL     1      -9.307   4.402 -13.371  1.00  0.00    -0.295 OA
ATOM      9  C   UNL     1      -9.324   2.184 -14.244  1.00  0.00     0.093 C 
ENDBRANCH   6   7
ENDBRANCH   1   5
TORSDOF 4
ENDMDL
MODEL 7
REMARK VINA RESULT:    -3.555      2.573      4.028
REMARK INTER + INTRA:          -4.646
REMARK INTER:                  -4.382
REMARK INTRA:                  -0.264
REMARK UNBOUND:                -0.260
REMARK SMILES CCCCC=CC(C)=O
REMARK SMILES IDX 4 1 3 2 2 3 1 4 5 5 6 6 7 7 9 8 8 9
REMARK H PARENT
REMARK Flexibility Score: inf
ROOT
ATOM      1  C   UNL     1     -11.610   5.072 -16.159  1.00  0.00     0.027 C 
ENDROOT
BRANCH   1   2
ATOM      2  C   UNL     1     -12.359   3.928 -16.861  1.00  0.00     0.004 C 
BRANCH   2   3
ATOM      3  C   UNL     1     -13.446   3.304 -15.973  1.00  0.00    -0.003 C 
ATOM      4  C   UNL     1     -13.329   1.784 -15.871  1.00  0.00     0.004 C 
ENDBRANCH   2   3
ENDBRANCH   1   2
BRANCH   1   5
ATOM      5  C   UNL     1     -10.984   4.604 -14.878  1.00  0.00    -0.023 C 
ATOM      6  C   UNL     1     -10.003   3.693 -14.870  1.00  0.00     0.042 C 
BRANCH   6   7
ATOM      7  C   UNL     1      -9.385   3.209 -13.622  1.00  0.00     0.152 C 
ATOM      8  O   UNL     1      -8.975   4.020 -12.748  1.00  0.00    -0.295 OA
ATOM      9  C   UNL     1      -9.235   1.740 -13.392  1.00  0.00     0.093 C 
ENDBRANCH   6   7
ENDBRANCH   1   5
TORSDOF 4
ENDMDL
MODEL 8
REMARK VINA RESULT:    -3.537      5.643      6.648
REMARK INTER + INTRA:          -4.624
REMARK INTER:                  -4.380
REMARK INTRA:                  -0.243
REMARK UNBOUND:                -0.260
REMARK SMILES CCCCC=CC(C)=O
REMARK SMILES IDX 4 1 3 2 2 3 1 4 5 5 6 6 7 7 9 8 8 9
REMARK H PARENT
REMARK Flexibility Score: inf
ROOT
ATOM      1  C   UNL     1     -16.115   1.784 -11.266  1.00  0.00     0.027 C 
ENDROOT
BRANCH   1   2
ATOM      2  C   UNL     1     -15.661   3.120 -10.656  1.00  0.00     0.004 C 
BRANCH   2   3
ATOM      3  C   UNL     1     -14.137   3.196 -10.476  1.00  0.00    -0.003 C 
ATOM      4  C   UNL     1     -13.371   2.494 -11.596  1.00  0.00     0.004 C 
ENDBRANCH   2   3
ENDBRANCH   1   2
BRANCH   1   5
ATOM      5  C   UNL     1     -16.867   2.001 -12.547  1.00  0.00    -0.023 C 
ATOM      6  C   UNL     1     -17.377   3.196 -12.865  1.00  0.00     0.042 C 
BRANCH   6   7
ATOM      7  C   UNL     1     -18.131   3.427 -14.111  1.00  0.00     0.152 C 
ATOM      8  O   UNL     1     -17.620   4.074 -15.065  1.00  0.00    -0.295 OA
ATOM      9  C   UNL     1     -19.520   2.892 -14.245  1.00  0.00     0.093 C 
ENDBRANCH   6   7
ENDBRANCH   1   5
TORSDOF 4
ENDMDL
MODEL 9
REMARK VINA RESULT:    -3.468     12.277     13.609
REMARK INTER + INTRA:          -4.539
REMARK INTER:                  -4.388
REMARK INTRA:                  -0.151
REMARK UNBOUND:                -0.260
REMARK SMILES CCCCC=CC(C)=O
REMARK SMILES IDX 4 1 3 2 2 3 1 4 5 5 6 6 7 7 9 8 8 9
REMARK H PARENT
REMARK Flexibility Score: inf
ROOT
ATOM      1  C   UNL     1     -23.206   7.009 -21.754  1.00  0.00     0.027 C 
ENDROOT
BRANCH   1   2
ATOM      2  C   UNL     1     -22.747   8.408 -22.193  1.00  0.00     0.004 C 
BRANCH   2   3
ATOM      3  C   UNL     1     -21.556   8.922 -21.370  1.00  0.00    -0.003 C 
ATOM      4  C   UNL     1     -21.690  10.397 -20.991  1.00  0.00     0.004 C 
ENDBRANCH   2   3
ENDBRANCH   1   2
BRANCH   1   5
ATOM      5  C   UNL     1     -24.589   7.052 -21.169  1.00  0.00    -0.023 C 
ATOM      6  C   UNL     1     -25.676   6.901 -21.933  1.00  0.00     0.042 C 
BRANCH   6   7
ATOM      7  C   UNL     1     -27.043   6.955 -21.382  1.00  0.00     0.152 C 
ATOM      8  O   UNL     1     -28.045   7.006 -22.146  1.00  0.00    -0.295 OA
ATOM      9  C   UNL     1     -27.244   6.953 -19.901  1.00  0.00     0.093 C 
ENDBRANCH   6   7
ENDBRANCH   1   5
TORSDOF 4
ENDMDL
