MODEL 1
REMARK VINA RESULT:    -8.787      0.000      0.000
REMARK INTER + INTRA:         -13.613
REMARK INTER:                 -12.126
REMARK INTRA:                  -1.487
REMARK UNBOUND:                -1.487
REMARK SMILES O=C([O-])[C@H]1O[C@@H](Oc2cc3oc(-c4ccccc4)cc(=O)c3c(O)c2O)[C@@H](O)[C@H](O)[C@H]1O
REMARK SMILES IDX 7 1 6 2 4 3 31 4 5 5 29 6 27 7 2 8 1 9 3 10 32 11 30 13
REMARK SMILES IDX 28 15 8 17 25 18 9 19 23 20 10 21 22 22 11 23 20 24 12 25
REMARK SMILES IDX 19 26 21 27 26 28 24 30 13 32 14 33 18 34 15 35 17 36 16 37
REMARK H PARENT 32 12 30 14 28 16 26 29 24 31
REMARK Flexibility Score: inf
ROOT
ATOM      1  O   UNL     1      35.920  -0.421  -3.953  1.00  0.00    -0.458 OA
ENDROOT
BRANCH   1   2
ATOM      2  C   UNL     1      36.042  -1.128  -5.190  1.00  0.00     0.339 C 
ATOM      3  C   UNL     1      33.882  -2.137  -5.142  1.00  0.00     0.199 C 
ATOM      4  C   UNL     1      34.485  -3.533  -4.846  1.00  0.00     0.180 C 
ATOM      5  O   UNL     1      34.783  -1.283  -5.837  1.00  0.00    -0.328 OA
ATOM      6  C   UNL     1      35.855  -3.421  -4.159  1.00  0.00     0.181 C 
ATOM      7  C   UNL     1      36.748  -2.479  -4.969  1.00  0.00     0.214 C 
BRANCH   3   8
ATOM      8  C   UNL     1      33.254  -1.439  -3.956  1.00  0.00     0.073 C 
ATOM      9  O   UNL     1      32.596  -0.382  -4.138  1.00  0.00    -0.547 OA
ATOM     10  O   UNL     1      33.409  -1.924  -2.664  1.00  0.00    -0.547 OA
ENDBRANCH   3   8
BRANCH   4  11
ATOM     11  O   UNL     1      33.595  -4.284  -4.058  1.00  0.00    -0.387 OA
ATOM     12  H   UNL     1      33.783  -5.242  -4.239  1.00  0.00     0.211 HD
ENDBRANCH   4  11
BRANCH   6  13
ATOM     13  O   UNL     1      36.465  -4.684  -4.092  1.00  0.00    -0.387 OA
ATOM     14  H   UNL     1      37.280  -4.584  -3.535  1.00  0.00     0.211 HD
ENDBRANCH   6  13
BRANCH   7  15
ATOM     15  O   UNL     1      37.961  -2.287  -4.288  1.00  0.00    -0.384 OA
ATOM     16  H   UNL     1      38.033  -1.314  -4.100  1.00  0.00     0.211 HD
ENDBRANCH   7  15
ENDBRANCH   1   2
BRANCH   1  17
ATOM     17  C   UNL     1      36.041   0.966  -3.738  1.00  0.00     0.172 A 
ATOM     18  C   UNL     1      35.183   1.945  -4.300  1.00  0.00     0.201 A 
ATOM     19  C   UNL     1      37.088   1.367  -2.907  1.00  0.00     0.098 A 
ATOM     20  C   UNL     1      35.373   3.316  -3.978  1.00  0.00     0.176 A 
ATOM     21  C   UNL     1      37.302   2.709  -2.610  1.00  0.00     0.146 A 
ATOM     22  C   UNL     1      36.449   3.699  -3.140  1.00  0.00     0.111 A 
ATOM     23  O   UNL     1      38.318   3.038  -1.818  1.00  0.00    -0.456 OA
ATOM     24  C   UNL     1      36.715   5.041  -2.787  1.00  0.00     0.197 A 
ATOM     25  C   UNL     1      38.602   4.293  -1.476  1.00  0.00     0.138 A 
ATOM     26  C   UNL     1      37.794   5.335  -1.952  1.00  0.00     0.100 A 
ATOM     27  O   UNL     1      35.997   5.988  -3.207  1.00  0.00    -0.289 OA
BRANCH  18  28
ATOM     28  O   UNL     1      34.173   1.546  -5.178  1.00  0.00    -0.502 OA
ATOM     29  H   UNL     1      33.934   0.588  -5.387  1.00  0.00     0.293 HD
ENDBRANCH  18  28
BRANCH  20  30
ATOM     30  O   UNL     1      34.507   4.305  -4.459  1.00  0.00    -0.504 OA
ATOM     31  H   UNL     1      33.923   4.890  -3.881  1.00  0.00     0.293 HD
ENDBRANCH  20  30
BRANCH  25  32
ATOM     32  C   UNL     1      39.762   4.544  -0.584  1.00  0.00     0.017 A 
ATOM     33  C   UNL     1      41.034   4.762  -1.146  1.00  0.00     0.012 A 
ATOM     34  C   UNL     1      39.621   4.603   0.818  1.00  0.00     0.012 A 
ATOM     35  C   UNL     1      42.140   5.009  -0.328  1.00  0.00     0.001 A 
ATOM     36  C   UNL     1      40.731   4.852   1.631  1.00  0.00     0.001 A 
ATOM     37  C   UNL     1      41.989   5.051   1.059  1.00  0.00     0.000 A 
ENDBRANCH  25  32
ENDBRANCH   1  17
TORSDOF 9
ENDMDL
MODEL 2
REMARK VINA RESULT:    -8.426      1.095      2.435
REMARK INTER + INTRA:         -13.115
REMARK INTER:                 -11.724
REMARK INTRA:                  -1.391
REMARK UNBOUND:                -1.487
REMARK SMILES O=C([O-])[C@H]1O[C@@H](Oc2cc3oc(-c4ccccc4)cc(=O)c3c(O)c2O)[C@@H](O)[C@H](O)[C@H]1O
REMARK SMILES IDX 7 1 6 2 4 3 31 4 5 5 29 6 27 7 2 8 1 9 3 10 32 11 30 13
REMARK SMILES IDX 28 15 8 17 25 18 9 19 23 20 10 21 22 22 11 23 20 24 12 25
REMARK SMILES IDX 19 26 21 27 26 28 24 30 13 32 14 33 18 34 15 35 17 36 16 37
REMARK H PARENT 32 12 30 14 28 16 26 29 24 31
REMARK Flexibility Score: inf
ROOT
ATOM      1  O   UNL     1      35.571  -0.799  -4.194  1.00  0.00    -0.458 OA
ENDROOT
BRANCH   1   2
ATOM      2  C   UNL     1      34.499  -1.645  -3.769  1.00  0.00     0.339 C 
ATOM      3  C   UNL     1      35.864  -3.419  -2.947  1.00  0.00     0.199 C 
ATOM      4  C   UNL     1      35.472  -4.338  -4.131  1.00  0.00     0.180 C 
ATOM      5  O   UNL     1      34.869  -2.446  -2.651  1.00  0.00    -0.328 OA
ATOM      6  C   UNL     1      35.050  -3.521  -5.362  1.00  0.00     0.181 C 
ATOM      7  C   UNL     1      33.990  -2.498  -4.947  1.00  0.00     0.214 C 
BRANCH   3   8
ATOM      8  C   UNL     1      37.241  -2.802  -3.035  1.00  0.00     0.073 C 
ATOM      9  O   UNL     1      37.732  -2.236  -2.023  1.00  0.00    -0.547 OA
ATOM     10  O   UNL     1      37.969  -2.819  -4.219  1.00  0.00    -0.547 OA
ENDBRANCH   3   8
BRANCH   4  11
ATOM     11  O   UNL     1      36.540  -5.196  -4.448  1.00  0.00    -0.387 OA
ATOM     12  H   UNL     1      37.035  -4.780  -5.201  1.00  0.00     0.211 HD
ENDBRANCH   4  11
BRANCH   6  13
ATOM     13  O   UNL     1      34.507  -4.370  -6.339  1.00  0.00    -0.387 OA
ATOM     14  H   UNL     1      34.674  -3.943  -7.220  1.00  0.00     0.211 HD
ENDBRANCH   6  13
BRANCH   7  15
ATOM     15  O   UNL     1      33.681  -1.677  -6.043  1.00  0.00    -0.384 OA
ATOM     16  H   UNL     1      34.500  -1.155  -6.249  1.00  0.00     0.211 HD
ENDBRANCH   7  15
ENDBRANCH   1   2
BRANCH   1  17
ATOM     17  C   UNL     1      35.664   0.601  -4.069  1.00  0.00     0.172 A 
ATOM     18  C   UNL     1      34.817   1.525  -4.732  1.00  0.00     0.201 A 
ATOM     19  C   UNL     1      36.668   1.075  -3.225  1.00  0.00     0.098 A 
ATOM     20  C   UNL     1      34.974   2.918  -4.496  1.00  0.00     0.176 A 
ATOM     21  C   UNL     1      36.851   2.438  -3.010  1.00  0.00     0.146 A 
ATOM     22  C   UNL     1      36.008   3.375  -3.642  1.00  0.00     0.111 A 
ATOM     23  O   UNL     1      37.827   2.836  -2.201  1.00  0.00    -0.456 OA
ATOM     24  C   UNL     1      36.240   4.742  -3.370  1.00  0.00     0.197 A 
ATOM     25  C   UNL     1      38.079   4.115  -1.933  1.00  0.00     0.138 A 
ATOM     26  C   UNL     1      37.277   5.110  -2.512  1.00  0.00     0.100 A 
ATOM     27  O   UNL     1      35.527   5.646  -3.883  1.00  0.00    -0.289 OA
BRANCH  18  28
ATOM     28  O   UNL     1      33.851   1.051  -5.622  1.00  0.00    -0.502 OA
ATOM     29  H   UNL     1      33.827   1.254  -6.610  1.00  0.00     0.293 HD
ENDBRANCH  18  28
BRANCH  20  30
ATOM     30  O   UNL     1      34.115   3.858  -5.079  1.00  0.00    -0.504 OA
ATOM     31  H   UNL     1      33.400   3.641  -5.757  1.00  0.00     0.293 HD
ENDBRANCH  20  30
BRANCH  25  32
ATOM     32  C   UNL     1      39.196   4.446  -1.012  1.00  0.00     0.017 A 
ATOM     33  C   UNL     1      38.989   4.378   0.379  1.00  0.00     0.012 A 
ATOM     34  C   UNL     1      40.474   4.797  -1.492  1.00  0.00     0.012 A 
ATOM     35  C   UNL     1      40.027   4.677   1.267  1.00  0.00     0.001 A 
ATOM     36  C   UNL     1      41.508   5.092  -0.599  1.00  0.00     0.001 A 
ATOM     37  C   UNL     1      41.284   5.036   0.778  1.00  0.00     0.000 A 
ENDBRANCH  25  32
ENDBRANCH   1  17
TORSDOF 9
ENDMDL
MODEL 3
REMARK VINA RESULT:    -7.488      5.852      8.142
REMARK INTER + INTRA:         -11.820
REMARK INTER:                 -10.311
REMARK INTRA:                  -1.509
REMARK UNBOUND:                -1.487
REMARK SMILES O=C([O-])[C@H]1O[C@@H](Oc2cc3oc(-c4ccccc4)cc(=O)c3c(O)c2O)[C@@H](O)[C@H](O)[C@H]1O
REMARK SMILES IDX 7 1 6 2 4 3 31 4 5 5 29 6 27 7 2 8 1 9 3 10 32 11 30 13
REMARK SMILES IDX 28 15 8 17 25 18 9 19 23 20 10 21 22 22 11 23 20 24 12 25
REMARK SMILES IDX 19 26 21 27 26 28 24 30 13 32 14 33 18 34 15 35 17 36 16 37
REMARK H PARENT 32 12 30 14 28 16 26 29 24 31
REMARK Flexibility Score: inf
ROOT
ATOM      1  O   UNL     1      36.399  -4.928  -2.498  1.00  0.00    -0.458 OA
ENDROOT
BRANCH   1   2
ATOM      2  C   UNL     1      35.740  -3.672  -2.675  1.00  0.00     0.339 C 
ATOM      3  C   UNL     1      33.558  -4.560  -3.041  1.00  0.00     0.199 C 
ATOM      4  C   UNL     1      33.605  -4.195  -4.545  1.00  0.00     0.180 C 
ATOM      5  O   UNL     1      34.384  -3.721  -2.243  1.00  0.00    -0.328 OA
ATOM      6  C   UNL     1      35.052  -4.114  -5.059  1.00  0.00     0.181 C 
ATOM      7  C   UNL     1      35.863  -3.203  -4.137  1.00  0.00     0.214 C 
BRANCH   3   8
ATOM      8  C   UNL     1      33.774  -6.023  -2.723  1.00  0.00     0.073 C 
ATOM      9  O   UNL     1      33.578  -6.437  -1.551  1.00  0.00    -0.547 OA
ATOM     10  O   UNL     1      34.213  -6.918  -3.691  1.00  0.00    -0.547 OA
ENDBRANCH   3   8
BRANCH   4  11
ATOM     11  O   UNL     1      32.865  -5.129  -5.292  1.00  0.00    -0.387 OA
ATOM     12  H   UNL     1      32.966  -4.883  -6.248  1.00  0.00     0.211 HD
ENDBRANCH   4  11
BRANCH   6  13
ATOM     13  O   UNL     1      35.071  -3.583  -6.359  1.00  0.00    -0.387 OA
ATOM     14  H   UNL     1      34.379  -2.871  -6.392  1.00  0.00     0.211 HD
ENDBRANCH   6  13
BRANCH   7  15
ATOM     15  O   UNL     1      37.209  -3.213  -4.538  1.00  0.00    -0.384 OA
ATOM     16  H   UNL     1      37.656  -3.932  -4.020  1.00  0.00     0.211 HD
ENDBRANCH   7  15
ENDBRANCH   1   2
BRANCH   1  17
ATOM     17  C   UNL     1      36.939  -5.457  -1.309  1.00  0.00     0.172 A 
ATOM     18  C   UNL     1      37.032  -6.841  -1.014  1.00  0.00     0.201 A 
ATOM     19  C   UNL     1      37.407  -4.526  -0.381  1.00  0.00     0.098 A 
ATOM     20  C   UNL     1      37.637  -7.263   0.201  1.00  0.00     0.176 A 
ATOM     21  C   UNL     1      37.973  -4.927   0.825  1.00  0.00     0.146 A 
ATOM     22  C   UNL     1      38.095  -6.298   1.131  1.00  0.00     0.111 A 
ATOM     23  O   UNL     1      38.397  -3.999   1.677  1.00  0.00    -0.456 OA
ATOM     24  C   UNL     1      38.691  -6.636   2.366  1.00  0.00     0.197 A 
ATOM     25  C   UNL     1      38.953  -4.283   2.852  1.00  0.00     0.138 A 
ATOM     26  C   UNL     1      39.121  -5.625   3.226  1.00  0.00     0.100 A 
ATOM     27  O   UNL     1      38.849  -7.837   2.715  1.00  0.00    -0.289 OA
BRANCH  18  28
ATOM     28  O   UNL     1      36.509  -7.769  -1.918  1.00  0.00    -0.502 OA
ATOM     29  H   UNL     1      37.038  -8.506  -2.360  1.00  0.00     0.293 HD
ENDBRANCH  18  28
BRANCH  20  30
ATOM     30  O   UNL     1      37.806  -8.621   0.498  1.00  0.00    -0.504 OA
ATOM     31  H   UNL     1      38.040  -9.333  -0.178  1.00  0.00     0.293 HD
ENDBRANCH  20  30
BRANCH  25  32
ATOM     32  C   UNL     1      39.391  -3.165   3.724  1.00  0.00     0.017 A 
ATOM     33  C   UNL     1      38.426  -2.320   4.304  1.00  0.00     0.012 A 
ATOM     34  C   UNL     1      40.752  -2.942   4.017  1.00  0.00     0.012 A 
ATOM     35  C   UNL     1      38.813  -1.264   5.136  1.00  0.00     0.001 A 
ATOM     36  C   UNL     1      41.133  -1.885   4.850  1.00  0.00     0.001 A 
ATOM     37  C   UNL     1      40.165  -1.046   5.406  1.00  0.00     0.000 A 
ENDBRANCH  25  32
ENDBRANCH   1  17
TORSDOF 9
ENDMDL
MODEL 4
REMARK VINA RESULT:    -7.327      2.190      3.892
REMARK INTER + INTRA:         -11.598
REMARK INTER:                 -10.100
REMARK INTRA:                  -1.498
REMARK UNBOUND:                -1.487
REMARK SMILES O=C([O-])[C@H]1O[C@@H](Oc2cc3oc(-c4ccccc4)cc(=O)c3c(O)c2O)[C@@H](O)[C@H](O)[C@H]1O
REMARK SMILES IDX 7 1 6 2 4 3 31 4 5 5 29 6 27 7 2 8 1 9 3 10 32 11 30 13
REMARK SMILES IDX 28 15 8 17 25 18 9 19 23 20 10 21 22 22 11 23 20 24 12 25
REMARK SMILES IDX 19 26 21 27 26 28 24 30 13 32 14 33 18 34 15 35 17 36 16 37
REMARK H PARENT 32 12 30 14 28 16 26 29 24 31
REMARK Flexibility Score: inf
ROOT
ATOM      1  O   UNL     1      35.241  -3.085  -3.512  1.00  0.00    -0.458 OA
ENDROOT
BRANCH   1   2
ATOM      2  C   UNL     1      36.220  -4.080  -3.820  1.00  0.00     0.339 C 
ATOM      3  C   UNL     1      34.753  -5.955  -3.684  1.00  0.00     0.199 C 
ATOM      4  C   UNL     1      35.399  -6.429  -2.358  1.00  0.00     0.180 C 
ATOM      5  O   UNL     1      35.645  -5.197  -4.492  1.00  0.00    -0.328 OA
ATOM      6  C   UNL     1      36.048  -5.261  -1.599  1.00  0.00     0.181 C 
ATOM      7  C   UNL     1      36.978  -4.501  -2.547  1.00  0.00     0.214 C 
BRANCH   3   8
ATOM      8  C   UNL     1      33.410  -5.274  -3.542  1.00  0.00     0.073 C 
ATOM      9  O   UNL     1      32.770  -4.948  -4.575  1.00  0.00    -0.547 OA
ATOM     10  O   UNL     1      32.879  -4.972  -2.294  1.00  0.00    -0.547 OA
ENDBRANCH   3   8
BRANCH   4  11
ATOM     11  O   UNL     1      34.437  -7.068  -1.555  1.00  0.00    -0.387 OA
ATOM     12  H   UNL     1      34.064  -6.380  -0.943  1.00  0.00     0.211 HD
ENDBRANCH   4  11
BRANCH   6  13
ATOM     13  O   UNL     1      36.798  -5.748  -0.517  1.00  0.00    -0.387 OA
ATOM     14  H   UNL     1      37.424  -5.025  -0.248  1.00  0.00     0.211 HD
ENDBRANCH   6  13
BRANCH   7  15
ATOM     15  O   UNL     1      37.489  -3.369  -1.891  1.00  0.00    -0.384 OA
ATOM     16  H   UNL     1      37.123  -3.384  -0.967  1.00  0.00     0.211 HD
ENDBRANCH   7  15
ENDBRANCH   1   2
BRANCH   1  17
ATOM     17  C   UNL     1      35.084  -1.818  -4.107  1.00  0.00     0.172 A 
ATOM     18  C   UNL     1      34.310  -1.565  -5.268  1.00  0.00     0.201 A 
ATOM     19  C   UNL     1      35.748  -0.762  -3.483  1.00  0.00     0.098 A 
ATOM     20  C   UNL     1      34.186  -0.236  -5.756  1.00  0.00     0.176 A 
ATOM     21  C   UNL     1      35.659   0.539  -3.970  1.00  0.00     0.146 A 
ATOM     22  C   UNL     1      34.879   0.818  -5.110  1.00  0.00     0.111 A 
ATOM     23  O   UNL     1      36.317   1.508  -3.341  1.00  0.00    -0.456 OA
ATOM     24  C   UNL     1      34.821   2.161  -5.544  1.00  0.00     0.197 A 
ATOM     25  C   UNL     1      36.293   2.780  -3.730  1.00  0.00     0.138 A 
ATOM     26  C   UNL     1      35.529   3.143  -4.850  1.00  0.00     0.100 A 
ATOM     27  O   UNL     1      34.139   2.501  -6.548  1.00  0.00    -0.289 OA
BRANCH  18  28
ATOM     28  O   UNL     1      33.694  -2.633  -5.925  1.00  0.00    -0.502 OA
ATOM     29  H   UNL     1      32.944  -2.544  -6.593  1.00  0.00     0.293 HD
ENDBRANCH  18  28
BRANCH  20  30
ATOM     30  O   UNL     1      33.378   0.063  -6.860  1.00  0.00    -0.504 OA
ATOM     31  H   UNL     1      33.678   0.016  -7.822  1.00  0.00     0.293 HD
ENDBRANCH  20  30
BRANCH  25  32
ATOM     32  C   UNL     1      37.066   3.780  -2.951  1.00  0.00     0.017 A 
ATOM     33  C   UNL     1      36.391   4.853  -2.339  1.00  0.00     0.012 A 
ATOM     34  C   UNL     1      38.461   3.669  -2.778  1.00  0.00     0.012 A 
ATOM     35  C   UNL     1      37.095   5.803  -1.593  1.00  0.00     0.001 A 
ATOM     36  C   UNL     1      39.159   4.621  -2.030  1.00  0.00     0.001 A 
ATOM     37  C   UNL     1      38.478   5.689  -1.441  1.00  0.00     0.000 A 
ENDBRANCH  25  32
ENDBRANCH   1  17
TORSDOF 9
ENDMDL
MODEL 5
REMARK VINA RESULT:    -7.208      2.049      4.009
REMARK INTER + INTRA:         -11.435
REMARK INTER:                  -9.968
REMARK INTRA:                  -1.466
REMARK UNBOUND:                -1.487
REMARK SMILES O=C([O-])[C@H]1O[C@@H](Oc2cc3oc(-c4ccccc4)cc(=O)c3c(O)c2O)[C@@H](O)[C@H](O)[C@H]1O
REMARK SMILES IDX 7 1 6 2 4 3 31 4 5 5 29 6 27 7 2 8 1 9 3 10 32 11 30 13
REMARK SMILES IDX 28 15 8 17 25 18 9 19 23 20 10 21 22 22 11 23 20 24 12 25
REMARK SMILES IDX 19 26 21 27 26 28 24 30 13 32 14 33 18 34 15 35 17 36 16 37
REMARK H PARENT 32 12 30 14 28 16 26 29 24 31
REMARK Flexibility Score: inf
ROOT
ATOM      1  O   UNL     1      35.272  -3.078  -3.707  1.00  0.00    -0.458 OA
ENDROOT
BRANCH   1   2
ATOM      2  C   UNL     1      34.378  -3.791  -2.847  1.00  0.00     0.339 C 
ATOM      3  C   UNL     1      36.055  -4.976  -1.634  1.00  0.00     0.199 C 
ATOM      4  C   UNL     1      35.681  -6.312  -2.323  1.00  0.00     0.180 C 
ATOM      5  O   UNL     1      34.967  -4.060  -1.579  1.00  0.00    -0.328 OA
ATOM      6  C   UNL     1      35.026  -6.075  -3.693  1.00  0.00     0.181 C 
ATOM      7  C   UNL     1      33.880  -5.075  -3.537  1.00  0.00     0.214 C 
BRANCH   3   8
ATOM      8  C   UNL     1      37.316  -4.316  -2.145  1.00  0.00     0.073 C 
ATOM      9  O   UNL     1      37.751  -3.284  -1.570  1.00  0.00    -0.547 OA
ATOM     10  O   UNL     1      37.991  -4.805  -3.256  1.00  0.00    -0.547 OA
ENDBRANCH   3   8
BRANCH   4  11
ATOM     11  O   UNL     1      36.822  -7.123  -2.452  1.00  0.00    -0.387 OA
ATOM     12  H   UNL     1      37.600  -6.516  -2.562  1.00  0.00     0.211 HD
ENDBRANCH   4  11
BRANCH   6  13
ATOM     13  O   UNL     1      34.514  -7.282  -4.197  1.00  0.00    -0.387 OA
ATOM     14  H   UNL     1      35.152  -7.603  -4.887  1.00  0.00     0.211 HD
ENDBRANCH   6  13
BRANCH   7  15
ATOM     15  O   UNL     1      33.350  -4.772  -4.802  1.00  0.00    -0.384 OA
ATOM     16  H   UNL     1      32.467  -5.222  -4.858  1.00  0.00     0.211 HD
ENDBRANCH   7  15
ENDBRANCH   1   2
BRANCH   1  17
ATOM     17  C   UNL     1      35.146  -1.755  -4.174  1.00  0.00     0.172 A 
ATOM     18  C   UNL     1      34.297  -1.355  -5.236  1.00  0.00     0.201 A 
ATOM     19  C   UNL     1      35.924  -0.799  -3.520  1.00  0.00     0.098 A 
ATOM     20  C   UNL     1      34.217   0.018  -5.594  1.00  0.00     0.176 A 
ATOM     21  C   UNL     1      35.877   0.544  -3.883  1.00  0.00     0.146 A 
ATOM     22  C   UNL     1      35.024   0.969  -4.922  1.00  0.00     0.111 A 
ATOM     23  O   UNL     1      36.643   1.413  -3.232  1.00  0.00    -0.456 OA
ATOM     24  C   UNL     1      35.015   2.347  -5.231  1.00  0.00     0.197 A 
ATOM     25  C   UNL     1      36.666   2.716  -3.505  1.00  0.00     0.138 A 
ATOM     26  C   UNL     1      35.837   3.221  -4.518  1.00  0.00     0.100 A 
ATOM     27  O   UNL     1      34.275   2.815  -6.138  1.00  0.00    -0.289 OA
BRANCH  18  28
ATOM     28  O   UNL     1      33.564  -2.322  -5.927  1.00  0.00    -0.502 OA
ATOM     29  H   UNL     1      33.304  -2.264  -6.900  1.00  0.00     0.293 HD
ENDBRANCH  18  28
BRANCH  20  30
ATOM     30  O   UNL     1      33.341   0.461  -6.593  1.00  0.00    -0.504 OA
ATOM     31  H   UNL     1      33.528   1.225  -7.225  1.00  0.00     0.293 HD
ENDBRANCH  20  30
BRANCH  25  32
ATOM     32  C   UNL     1      37.561   3.596  -2.713  1.00  0.00     0.017 A 
ATOM     33  C   UNL     1      38.953   3.385  -2.753  1.00  0.00     0.012 A 
ATOM     34  C   UNL     1      37.060   4.663  -1.941  1.00  0.00     0.012 A 
ATOM     35  C   UNL     1      39.818   4.205  -2.022  1.00  0.00     0.001 A 
ATOM     36  C   UNL     1      37.930   5.481  -1.213  1.00  0.00     0.001 A 
ATOM     37  C   UNL     1      39.306   5.250  -1.251  1.00  0.00     0.000 A 
ENDBRANCH  25  32
ENDBRANCH   1  17
TORSDOF 9
ENDMDL
MODEL 6
REMARK VINA RESULT:    -7.129      7.282     11.532
REMARK INTER + INTRA:         -11.325
REMARK INTER:                 -10.084
REMARK INTRA:                  -1.241
REMARK UNBOUND:                -1.487
REMARK SMILES O=C([O-])[C@H]1O[C@@H](Oc2cc3oc(-c4ccccc4)cc(=O)c3c(O)c2O)[C@@H](O)[C@H](O)[C@H]1O
REMARK SMILES IDX 7 1 6 2 4 3 31 4 5 5 29 6 27 7 2 8 1 9 3 10 32 11 30 13
REMARK SMILES IDX 28 15 8 17 25 18 9 19 23 20 10 21 22 22 11 23 20 24 12 25
REMARK SMILES IDX 19 26 21 27 26 28 24 30 13 32 14 33 18 34 15 35 17 36 16 37
REMARK H PARENT 32 12 30 14 28 16 26 29 24 31
REMARK Flexibility Score: inf
ROOT
ATOM      1  O   UNL     1      40.191  -3.512   3.720  1.00  0.00    -0.458 OA
ENDROOT
BRANCH   1   2
ATOM      2  C   UNL     1      41.294  -3.837   4.570  1.00  0.00     0.339 C 
ATOM      3  C   UNL     1      40.515  -2.656   6.489  1.00  0.00     0.199 C 
ATOM      4  C   UNL     1      41.598  -1.562   6.318  1.00  0.00     0.180 C 
ATOM      5  O   UNL     1      40.905  -3.909   5.937  1.00  0.00    -0.328 OA
ATOM      6  C   UNL     1      42.064  -1.454   4.858  1.00  0.00     0.181 C 
ATOM      7  C   UNL     1      42.451  -2.844   4.350  1.00  0.00     0.214 C 
BRANCH   3   8
ATOM      8  C   UNL     1      39.122  -2.262   6.052  1.00  0.00     0.073 C 
ATOM      9  O   UNL     1      38.170  -3.066   6.223  1.00  0.00    -0.547 OA
ATOM     10  O   UNL     1      38.874  -1.041   5.438  1.00  0.00    -0.547 OA
ENDBRANCH   3   8
BRANCH   4  11
ATOM     11  O   UNL     1      41.109  -0.325   6.775  1.00  0.00    -0.387 OA
ATOM     12  H   UNL     1      41.517   0.379   6.206  1.00  0.00     0.211 HD
ENDBRANCH   4  11
BRANCH   6  13
ATOM     13  O   UNL     1      43.182  -0.608   4.771  1.00  0.00    -0.387 OA
ATOM     14  H   UNL     1      43.987  -1.189   4.783  1.00  0.00     0.211 HD
ENDBRANCH   6  13
BRANCH   7  15
ATOM     15  O   UNL     1      42.773  -2.768   2.985  1.00  0.00    -0.384 OA
ATOM     16  H   UNL     1      43.735  -3.000   2.904  1.00  0.00     0.211 HD
ENDBRANCH   7  15
ENDBRANCH   1   2
BRANCH   1  17
ATOM     17  C   UNL     1      39.231  -4.392   3.182  1.00  0.00     0.172 A 
ATOM     18  C   UNL     1      38.683  -5.503   3.871  1.00  0.00     0.201 A 
ATOM     19  C   UNL     1      38.812  -4.118   1.880  1.00  0.00     0.098 A 
ATOM     20  C   UNL     1      37.685  -6.298   3.244  1.00  0.00     0.176 A 
ATOM     21  C   UNL     1      37.858  -4.908   1.245  1.00  0.00     0.146 A 
ATOM     22  C   UNL     1      37.284  -6.006   1.917  1.00  0.00     0.111 A 
ATOM     23  O   UNL     1      37.499  -4.607   0.001  1.00  0.00    -0.456 OA
ATOM     24  C   UNL     1      36.312  -6.758   1.220  1.00  0.00     0.197 A 
ATOM     25  C   UNL     1      36.595  -5.301  -0.688  1.00  0.00     0.138 A 
ATOM     26  C   UNL     1      35.968  -6.402  -0.085  1.00  0.00     0.100 A 
ATOM     27  O   UNL     1      35.740  -7.749   1.749  1.00  0.00    -0.289 OA
BRANCH  18  28
ATOM     28  O   UNL     1      39.147  -5.810   5.152  1.00  0.00    -0.502 OA
ATOM     29  H   UNL     1      39.849  -5.286   5.652  1.00  0.00     0.293 HD
ENDBRANCH  18  28
BRANCH  20  30
ATOM     30  O   UNL     1      37.073  -7.363   3.916  1.00  0.00    -0.504 OA
ATOM     31  H   UNL     1      36.107  -7.379   4.210  1.00  0.00     0.293 HD
ENDBRANCH  20  30
BRANCH  25  32
ATOM     32  C   UNL     1      36.270  -4.874  -2.072  1.00  0.00     0.017 A 
ATOM     33  C   UNL     1      35.386  -5.649  -2.846  1.00  0.00     0.012 A 
ATOM     34  C   UNL     1      36.798  -3.691  -2.627  1.00  0.00     0.012 A 
ATOM     35  C   UNL     1      35.057  -5.264  -4.149  1.00  0.00     0.001 A 
ATOM     36  C   UNL     1      36.464  -3.310  -3.930  1.00  0.00     0.001 A 
ATOM     37  C   UNL     1      35.598  -4.097  -4.691  1.00  0.00     0.000 A 
ENDBRANCH  25  32
ENDBRANCH   1  17
TORSDOF 9
ENDMDL
MODEL 7
REMARK VINA RESULT:    -7.027      7.570     11.833
REMARK INTER + INTRA:         -11.184
REMARK INTER:                  -9.874
REMARK INTRA:                  -1.311
REMARK UNBOUND:                -1.487
REMARK SMILES O=C([O-])[C@H]1O[C@@H](Oc2cc3oc(-c4ccccc4)cc(=O)c3c(O)c2O)[C@@H](O)[C@H](O)[C@H]1O
REMARK SMILES IDX 7 1 6 2 4 3 31 4 5 5 29 6 27 7 2 8 1 9 3 10 32 11 30 13
REMARK SMILES IDX 28 15 8 17 25 18 9 19 23 20 10 21 22 22 11 23 20 24 12 25
REMARK SMILES IDX 19 26 21 27 26 28 24 30 13 32 14 33 18 34 15 35 17 36 16 37
REMARK H PARENT 32 12 30 14 28 16 26 29 24 31
REMARK Flexibility Score: inf
ROOT
ATOM      1  O   UNL     1      40.423  -4.132   4.112  1.00  0.00    -0.458 OA
ENDROOT
BRANCH   1   2
ATOM      2  C   UNL     1      40.492  -4.393   5.516  1.00  0.00     0.339 C 
ATOM      3  C   UNL     1      39.532  -2.328   6.224  1.00  0.00     0.199 C 
ATOM      4  C   UNL     1      40.897  -1.814   6.746  1.00  0.00     0.180 C 
ATOM      5  O   UNL     1      39.440  -3.748   6.226  1.00  0.00    -0.328 OA
ATOM      6  C   UNL     1      42.070  -2.492   6.020  1.00  0.00     0.181 C 
ATOM      7  C   UNL     1      41.879  -4.009   6.066  1.00  0.00     0.214 C 
BRANCH   3   8
ATOM      8  C   UNL     1      39.082  -1.741   4.905  1.00  0.00     0.073 C 
ATOM      9  O   UNL     1      37.990  -2.114   4.402  1.00  0.00    -0.547 OA
ATOM     10  O   UNL     1      39.861  -0.818   4.219  1.00  0.00    -0.547 OA
ENDBRANCH   3   8
BRANCH   4  11
ATOM     11  O   UNL     1      40.969  -0.417   6.609  1.00  0.00    -0.387 OA
ATOM     12  H   UNL     1      41.877  -0.141   6.904  1.00  0.00     0.211 HD
ENDBRANCH   4  11
BRANCH   6  13
ATOM     13  O   UNL     1      43.280  -2.164   6.652  1.00  0.00    -0.387 OA
ATOM     14  H   UNL     1      44.011  -2.429   6.034  1.00  0.00     0.211 HD
ENDBRANCH   6  13
BRANCH   7  15
ATOM     15  O   UNL     1      42.889  -4.628   5.310  1.00  0.00    -0.384 OA
ATOM     16  H   UNL     1      42.547  -4.699   4.380  1.00  0.00     0.211 HD
ENDBRANCH   7  15
ENDBRANCH   1   2
BRANCH   1  17
ATOM     17  C   UNL     1      40.043  -5.022   3.088  1.00  0.00     0.172 A 
ATOM     18  C   UNL     1      40.663  -6.273   2.840  1.00  0.00     0.201 A 
ATOM     19  C   UNL     1      38.979  -4.613   2.285  1.00  0.00     0.098 A 
ATOM     20  C   UNL     1      40.166  -7.112   1.805  1.00  0.00     0.176 A 
ATOM     21  C   UNL     1      38.504  -5.412   1.250  1.00  0.00     0.146 A 
ATOM     22  C   UNL     1      39.090  -6.669   0.997  1.00  0.00     0.111 A 
ATOM     23  O   UNL     1      37.491  -4.972   0.510  1.00  0.00    -0.456 OA
ATOM     24  C   UNL     1      38.551  -7.435  -0.061  1.00  0.00     0.197 A 
ATOM     25  C   UNL     1      36.968  -5.664  -0.500  1.00  0.00     0.138 A 
ATOM     26  C   UNL     1      37.487  -6.930  -0.808  1.00  0.00     0.100 A 
ATOM     27  O   UNL     1      39.008  -8.575  -0.349  1.00  0.00    -0.289 OA
BRANCH  18  28
ATOM     28  O   UNL     1      41.766  -6.654   3.607  1.00  0.00    -0.502 OA
ATOM     29  H   UNL     1      41.867  -7.545   4.070  1.00  0.00     0.293 HD
ENDBRANCH  18  28
BRANCH  20  30
ATOM     30  O   UNL     1      40.708  -8.381   1.572  1.00  0.00    -0.504 OA
ATOM     31  H   UNL     1      41.654  -8.556   1.268  1.00  0.00     0.293 HD
ENDBRANCH  20  30
BRANCH  25  32
ATOM     32  C   UNL     1      35.836  -5.074  -1.258  1.00  0.00     0.017 A 
ATOM     33  C   UNL     1      36.081  -4.026  -2.166  1.00  0.00     0.012 A 
ATOM     34  C   UNL     1      34.518  -5.556  -1.120  1.00  0.00     0.012 A 
ATOM     35  C   UNL     1      35.034  -3.460  -2.898  1.00  0.00     0.001 A 
ATOM     36  C   UNL     1      33.475  -4.987  -1.856  1.00  0.00     0.001 A 
ATOM     37  C   UNL     1      33.732  -3.938  -2.741  1.00  0.00     0.000 A 
ENDBRANCH  25  32
ENDBRANCH   1  17
TORSDOF 9
ENDMDL
MODEL 8
REMARK VINA RESULT:    -6.964      6.649     10.746
REMARK INTER + INTRA:         -11.097
REMARK INTER:                  -9.580
REMARK INTRA:                  -1.516
REMARK UNBOUND:                -1.487
REMARK SMILES O=C([O-])[C@H]1O[C@@H](Oc2cc3oc(-c4ccccc4)cc(=O)c3c(O)c2O)[C@@H](O)[C@H](O)[C@H]1O
REMARK SMILES IDX 7 1 6 2 4 3 31 4 5 5 29 6 27 7 2 8 1 9 3 10 32 11 30 13
REMARK SMILES IDX 28 15 8 17 25 18 9 19 23 20 10 21 22 22 11 23 20 24 12 25
REMARK SMILES IDX 19 26 21 27 26 28 24 30 13 32 14 33 18 34 15 35 17 36 16 37
REMARK H PARENT 32 12 30 14 28 16 26 29 24 31
REMARK Flexibility Score: inf
ROOT
ATOM      1  O   UNL     1      38.325  -4.877   2.796  1.00  0.00    -0.458 OA
ENDROOT
BRANCH   1   2
ATOM      2  C   UNL     1      39.549  -4.290   3.246  1.00  0.00     0.339 C 
ATOM      3  C   UNL     1      39.381  -5.013   5.512  1.00  0.00     0.199 C 
ATOM      4  C   UNL     1      39.078  -3.575   6.002  1.00  0.00     0.180 C 
ATOM      5  O   UNL     1      40.136  -5.037   4.306  1.00  0.00    -0.328 OA
ATOM      6  C   UNL     1      38.455  -2.720   4.887  1.00  0.00     0.181 C 
ATOM      7  C   UNL     1      39.327  -2.816   3.633  1.00  0.00     0.214 C 
BRANCH   3   8
ATOM      8  C   UNL     1      38.186  -5.938   5.442  1.00  0.00     0.073 C 
ATOM      9  O   UNL     1      38.357  -7.148   5.142  1.00  0.00    -0.547 OA
ATOM     10  O   UNL     1      36.897  -5.474   5.674  1.00  0.00    -0.547 OA
ENDBRANCH   3   8
BRANCH   4  11
ATOM     11  O   UNL     1      38.234  -3.617   7.125  1.00  0.00    -0.387 OA
ATOM     12  H   UNL     1      37.530  -2.930   6.987  1.00  0.00     0.211 HD
ENDBRANCH   4  11
BRANCH   6  13
ATOM     13  O   UNL     1      38.385  -1.378   5.293  1.00  0.00    -0.387 OA
ATOM     14  H   UNL     1      39.101  -1.240   5.967  1.00  0.00     0.211 HD
ENDBRANCH   6  13
BRANCH   7  15
ATOM     15  O   UNL     1      38.705  -2.126   2.580  1.00  0.00    -0.384 OA
ATOM     16  H   UNL     1      39.007  -2.557   1.738  1.00  0.00     0.211 HD
ENDBRANCH   7  15
ENDBRANCH   1   2
BRANCH   1  17
ATOM     17  C   UNL     1      38.076  -5.509   1.562  1.00  0.00     0.172 A 
ATOM     18  C   UNL     1      38.242  -6.896   1.321  1.00  0.00     0.201 A 
ATOM     19  C   UNL     1      37.634  -4.682   0.529  1.00  0.00     0.098 A 
ATOM     20  C   UNL     1      37.917  -7.433   0.045  1.00  0.00     0.176 A 
ATOM     21  C   UNL     1      37.342  -5.191  -0.732  1.00  0.00     0.146 A 
ATOM     22  C   UNL     1      37.479  -6.571  -0.990  1.00  0.00     0.111 A 
ATOM     23  O   UNL     1      36.930  -4.359  -1.683  1.00  0.00    -0.456 OA
ATOM     24  C   UNL     1      37.154  -7.024  -2.288  1.00  0.00     0.197 A 
ATOM     25  C   UNL     1      36.626  -4.751  -2.918  1.00  0.00     0.138 A 
ATOM     26  C   UNL     1      36.725  -6.110  -3.252  1.00  0.00     0.100 A 
ATOM     27  O   UNL     1      37.238  -8.242  -2.602  1.00  0.00    -0.289 OA
BRANCH  18  28
ATOM     28  O   UNL     1      38.741  -7.712   2.338  1.00  0.00    -0.502 OA
ATOM     29  H   UNL     1      39.056  -8.663   2.214  1.00  0.00     0.293 HD
ENDBRANCH  18  28
BRANCH  20  30
ATOM     30  O   UNL     1      38.005  -8.807  -0.212  1.00  0.00    -0.504 OA
ATOM     31  H   UNL     1      37.711  -9.252  -1.068  1.00  0.00     0.293 HD
ENDBRANCH  20  30
BRANCH  25  32
ATOM     32  C   UNL     1      36.175  -3.733  -3.900  1.00  0.00     0.017 A 
ATOM     33  C   UNL     1      36.573  -2.393  -3.740  1.00  0.00     0.012 A 
ATOM     34  C   UNL     1      35.380  -4.076  -5.013  1.00  0.00     0.012 A 
ATOM     35  C   UNL     1      36.168  -1.416  -4.656  1.00  0.00     0.001 A 
ATOM     36  C   UNL     1      34.980  -3.096  -5.926  1.00  0.00     0.001 A 
ATOM     37  C   UNL     1      35.370  -1.768  -5.746  1.00  0.00     0.000 A 
ENDBRANCH  25  32
ENDBRANCH   1  17
TORSDOF 9
ENDMDL
