MODEL 1
REMARK VINA RESULT:    -4.819      0.000      0.000
REMARK INTER + INTRA:          -8.604
REMARK INTER:                  -7.636
REMARK INTRA:                  -0.968
REMARK UNBOUND:                -0.968
REMARK SMILES CCCCCCCCCCCC(=O)[O-]
REMARK SMILES IDX 7 1 8 2 9 3 10 4 11 5 12 6 13 7 14 8 6 9 5 10 4 11 3 12 2 13
REMARK SMILES IDX 1 14
REMARK H PARENT
REMARK Flexibility Score: inf
ROOT
ATOM      1  C   UNL     1     -22.065 -28.101  38.490  1.00  0.00     0.000 C 
ENDROOT
BRANCH   1   2
ATOM      2  C   UNL     1     -22.352 -28.205  40.001  1.00  0.00     0.000 C 
BRANCH   2   3
ATOM      3  C   UNL     1     -23.191 -29.425  40.422  1.00  0.00     0.000 C 
BRANCH   3   4
ATOM      4  C   UNL     1     -24.585 -29.040  40.936  1.00  0.00     0.006 C 
BRANCH   4   5
ATOM      5  C   UNL     1     -25.577 -28.897  39.777  1.00  0.00     0.053 C 
BRANCH   5   6
ATOM      6  C   UNL     1     -25.391 -30.005  38.789  1.00  0.00     0.041 C 
ATOM      7  O   UNL     1     -25.715 -31.184  39.090  1.00  0.00    -0.550 OA
ATOM      8  O   UNL     1     -24.905 -29.728  37.517  1.00  0.00    -0.550 OA
ENDBRANCH   5   6
ENDBRANCH   4   5
ENDBRANCH   3   4
ENDBRANCH   2   3
ENDBRANCH   1   2
BRANCH   1   9
ATOM      9  C   UNL     1     -21.124 -26.951  38.080  1.00  0.00     0.000 C 
BRANCH   9  10
ATOM     10  C   UNL     1     -20.462 -26.206  39.252  1.00  0.00    -0.000 C 
BRANCH  10  11
ATOM     11  C   UNL     1     -21.058 -24.808  39.484  1.00  0.00    -0.000 C 
BRANCH  11  12
ATOM     12  C   UNL     1     -21.613 -24.639  40.914  1.00  0.00    -0.000 C 
BRANCH  12  13
ATOM     13  C   UNL     1     -23.099 -24.248  40.955  1.00  0.00    -0.003 C 
ATOM     14  C   UNL     1     -23.985 -25.326  41.576  1.00  0.00     0.004 C 
ENDBRANCH  12  13
ENDBRANCH  11  12
ENDBRANCH  10  11
ENDBRANCH   9  10
ENDBRANCH   1   9
TORSDOF 10
ENDMDL
MODEL 2
REMARK VINA RESULT:    -4.762      2.377      2.696
REMARK INTER + INTRA:          -8.513
REMARK INTER:                  -7.538
REMARK INTRA:                  -0.975
REMARK UNBOUND:                -0.968
REMARK SMILES CCCCCCCCCCCC(=O)[O-]
REMARK SMILES IDX 7 1 8 2 9 3 10 4 11 5 12 6 13 7 14 8 6 9 5 10 4 11 3 12 2 13
REMARK SMILES IDX 1 14
REMARK H PARENT
REMARK Flexibility Score: inf
ROOT
ATOM      1  C   UNL     1     -22.129 -28.135  38.127  1.00  0.00     0.000 C 
ENDROOT
BRANCH   1   2
ATOM      2  C   UNL     1     -22.772 -28.757  39.383  1.00  0.00     0.000 C 
BRANCH   2   3
ATOM      3  C   UNL     1     -24.214 -29.260  39.195  1.00  0.00     0.000 C 
BRANCH   3   4
ATOM      4  C   UNL     1     -25.192 -28.662  40.216  1.00  0.00     0.006 C 
BRANCH   4   5
ATOM      5  C   UNL     1     -24.442 -27.902  41.314  1.00  0.00     0.053 C 
BRANCH   5   6
ATOM      6  C   UNL     1     -25.300 -26.814  41.878  1.00  0.00     0.041 C 
ATOM      7  O   UNL     1     -25.037 -26.320  43.006  1.00  0.00    -0.550 OA
ATOM      8  O   UNL     1     -26.362 -26.312  41.137  1.00  0.00    -0.550 OA
ENDBRANCH   5   6
ENDBRANCH   4   5
ENDBRANCH   3   4
ENDBRANCH   2   3
ENDBRANCH   1   2
BRANCH   1   9
ATOM      9  C   UNL     1     -21.121 -27.001  38.401  1.00  0.00     0.000 C 
BRANCH   9  10
ATOM     10  C   UNL     1     -21.142 -26.448  39.836  1.00  0.00    -0.000 C 
BRANCH  10  11
ATOM     11  C   UNL     1     -20.364 -25.129  39.980  1.00  0.00    -0.000 C 
BRANCH  11  12
ATOM     12  C   UNL     1     -21.251 -23.983  40.510  1.00  0.00    -0.000 C 
BRANCH  12  13
ATOM     13  C   UNL     1     -22.531 -24.468  41.211  1.00  0.00    -0.003 C 
ATOM     14  C   UNL     1     -23.752 -23.609  40.890  1.00  0.00     0.004 C 
ENDBRANCH  12  13
ENDBRANCH  11  12
ENDBRANCH  10  11
ENDBRANCH   9  10
ENDBRANCH   1   9
TORSDOF 10
ENDMDL
MODEL 3
REMARK VINA RESULT:    -4.720      0.999      2.275
REMARK INTER + INTRA:          -8.447
REMARK INTER:                  -7.503
REMARK INTRA:                  -0.945
REMARK UNBOUND:                -0.968
REMARK SMILES CCCCCCCCCCCC(=O)[O-]
REMARK SMILES IDX 7 1 8 2 9 3 10 4 11 5 12 6 13 7 14 8 6 9 5 10 4 11 3 12 2 13
REMARK SMILES IDX 1 14
REMARK H PARENT
REMARK Flexibility Score: inf
ROOT
ATOM      1  C   UNL     1     -20.831 -26.190  39.478  1.00  0.00     0.000 C 
ENDROOT
BRANCH   1   2
ATOM      2  C   UNL     1     -21.114 -27.023  38.212  1.00  0.00     0.000 C 
BRANCH   2   3
ATOM      3  C   UNL     1     -22.157 -28.142  38.389  1.00  0.00     0.000 C 
BRANCH   3   4
ATOM      4  C   UNL     1     -22.725 -28.207  39.814  1.00  0.00     0.006 C 
BRANCH   4   5
ATOM      5  C   UNL     1     -23.362 -29.573  40.088  1.00  0.00     0.053 C 
BRANCH   5   6
ATOM      6  C   UNL     1     -24.783 -29.591  39.622  1.00  0.00     0.041 C 
ATOM      7  O   UNL     1     -25.707 -29.217  40.391  1.00  0.00    -0.550 OA
ATOM      8  O   UNL     1     -25.083 -29.975  38.321  1.00  0.00    -0.550 OA
ENDBRANCH   5   6
ENDBRANCH   4   5
ENDBRANCH   3   4
ENDBRANCH   2   3
ENDBRANCH   1   2
BRANCH   1   9
ATOM      9  C   UNL     1     -21.039 -24.671  39.322  1.00  0.00     0.000 C 
BRANCH   9  10
ATOM     10  C   UNL     1     -21.608 -23.964  40.565  1.00  0.00    -0.000 C 
BRANCH  10  11
ATOM     11  C   UNL     1     -22.713 -24.777  41.261  1.00  0.00    -0.000 C 
BRANCH  11  12
ATOM     12  C   UNL     1     -24.103 -24.123  41.108  1.00  0.00    -0.000 C 
BRANCH  12  13
ATOM     13  C   UNL     1     -25.264 -25.041  41.524  1.00  0.00    -0.003 C 
ATOM     14  C   UNL     1     -24.797 -26.323  42.211  1.00  0.00     0.004 C 
ENDBRANCH  12  13
ENDBRANCH  11  12
ENDBRANCH  10  11
ENDBRANCH   9  10
ENDBRANCH   1   9
TORSDOF 10
ENDMDL
MODEL 4
REMARK VINA RESULT:    -4.619      3.197      5.221
REMARK INTER + INTRA:          -8.286
REMARK INTER:                  -7.597
REMARK INTRA:                  -0.689
REMARK UNBOUND:                -0.968
REMARK SMILES CCCCCCCCCCCC(=O)[O-]
REMARK SMILES IDX 7 1 8 2 9 3 10 4 11 5 12 6 13 7 14 8 6 9 5 10 4 11 3 12 2 13
REMARK SMILES IDX 1 14
REMARK H PARENT
REMARK Flexibility Score: inf
ROOT
ATOM      1  C   UNL     1     -22.691 -28.647  39.575  1.00  0.00     0.000 C 
ENDROOT
BRANCH   1   2
ATOM      2  C   UNL     1     -22.059 -28.118  38.272  1.00  0.00     0.000 C 
BRANCH   2   3
ATOM      3  C   UNL     1     -21.081 -26.944  38.454  1.00  0.00     0.000 C 
BRANCH   3   4
ATOM      4  C   UNL     1     -21.027 -26.431  39.900  1.00  0.00     0.006 C 
BRANCH   4   5
ATOM      5  C   UNL     1     -20.341 -25.063  39.971  1.00  0.00     0.053 C 
BRANCH   5   6
ATOM      6  C   UNL     1     -21.352 -23.980  40.179  1.00  0.00     0.041 C 
ATOM      7  O   UNL     1     -21.781 -23.317  39.199  1.00  0.00    -0.550 OA
ATOM      8  O   UNL     1     -21.858 -23.736  41.450  1.00  0.00    -0.550 OA
ENDBRANCH   5   6
ENDBRANCH   4   5
ENDBRANCH   3   4
ENDBRANCH   2   3
ENDBRANCH   1   2
BRANCH   1   9
ATOM      9  C   UNL     1     -24.013 -29.419  39.395  1.00  0.00     0.000 C 
BRANCH   9  10
ATOM     10  C   UNL     1     -24.983 -29.329  40.586  1.00  0.00    -0.000 C 
BRANCH  10  11
ATOM     11  C   UNL     1     -25.497 -27.900  40.831  1.00  0.00    -0.000 C 
BRANCH  11  12
ATOM     12  C   UNL     1     -24.790 -27.222  42.024  1.00  0.00    -0.000 C 
BRANCH  12  13
ATOM     13  C   UNL     1     -24.692 -25.693  41.892  1.00  0.00    -0.003 C 
ATOM     14  C   UNL     1     -26.020 -25.037  41.520  1.00  0.00     0.004 C 
ENDBRANCH  12  13
ENDBRANCH  11  12
ENDBRANCH  10  11
ENDBRANCH   9  10
ENDBRANCH   1   9
TORSDOF 10
ENDMDL
MODEL 5
REMARK VINA RESULT:    -4.549      1.549      3.534
REMARK INTER + INTRA:          -8.176
REMARK INTER:                  -7.238
REMARK INTRA:                  -0.938
REMARK UNBOUND:                -0.968
REMARK SMILES CCCCCCCCCCCC(=O)[O-]
REMARK SMILES IDX 7 1 8 2 9 3 10 4 11 5 12 6 13 7 14 8 6 9 5 10 4 11 3 12 2 13
REMARK SMILES IDX 1 14
REMARK H PARENT
REMARK Flexibility Score: inf
ROOT
ATOM      1  C   UNL     1     -23.322 -23.470  40.913  1.00  0.00     0.000 C 
ENDROOT
BRANCH   1   2
ATOM      2  C   UNL     1     -23.361 -24.897  41.497  1.00  0.00     0.000 C 
BRANCH   2   3
ATOM      3  C   UNL     1     -24.754 -25.553  41.519  1.00  0.00     0.000 C 
BRANCH   3   4
ATOM      4  C   UNL     1     -24.715 -27.018  41.974  1.00  0.00     0.006 C 
BRANCH   4   5
ATOM      5  C   UNL     1     -25.225 -27.950  40.870  1.00  0.00     0.053 C 
BRANCH   5   6
ATOM      6  C   UNL     1     -24.095 -28.737  40.286  1.00  0.00     0.041 C 
ATOM      7  O   UNL     1     -24.094 -29.031  39.062  1.00  0.00    -0.550 OA
ATOM      8  O   UNL     1     -23.018 -29.105  41.083  1.00  0.00    -0.550 OA
ENDBRANCH   5   6
ENDBRANCH   4   5
ENDBRANCH   3   4
ENDBRANCH   2   3
ENDBRANCH   1   2
BRANCH   1   9
ATOM      9  C   UNL     1     -21.956 -23.030  40.351  1.00  0.00     0.000 C 
BRANCH   9  10
ATOM     10  C   UNL     1     -21.355 -23.975  39.295  1.00  0.00    -0.000 C 
BRANCH  10  11
ATOM     11  C   UNL     1     -19.993 -24.551  39.714  1.00  0.00    -0.000 C 
BRANCH  11  12
ATOM     12  C   UNL     1     -19.852 -26.044  39.346  1.00  0.00    -0.000 C 
BRANCH  12  13
ATOM     13  C   UNL     1     -21.194 -26.731  39.041  1.00  0.00    -0.003 C 
ATOM     14  C   UNL     1     -21.251 -27.340  37.642  1.00  0.00     0.004 C 
ENDBRANCH  12  13
ENDBRANCH  11  12
ENDBRANCH  10  11
ENDBRANCH   9  10
ENDBRANCH   1   9
TORSDOF 10
ENDMDL
MODEL 6
REMARK VINA RESULT:    -4.539      3.381      5.215
REMARK INTER + INTRA:          -8.160
REMARK INTER:                  -7.328
REMARK INTRA:                  -0.832
REMARK UNBOUND:                -0.968
REMARK SMILES CCCCCCCCCCCC(=O)[O-]
REMARK SMILES IDX 7 1 8 2 9 3 10 4 11 5 12 6 13 7 14 8 6 9 5 10 4 11 3 12 2 13
REMARK SMILES IDX 1 14
REMARK H PARENT
REMARK Flexibility Score: inf
ROOT
ATOM      1  C   UNL     1     -25.108 -28.623  39.647  1.00  0.00     0.000 C 
ENDROOT
BRANCH   1   2
ATOM      2  C   UNL     1     -23.705 -29.170  39.979  1.00  0.00     0.000 C 
BRANCH   2   3
ATOM      3  C   UNL     1     -22.545 -28.482  39.236  1.00  0.00     0.000 C 
BRANCH   3   4
ATOM      4  C   UNL     1     -21.946 -27.308  40.024  1.00  0.00     0.006 C 
BRANCH   4   5
ATOM      5  C   UNL     1     -21.011 -26.476  39.141  1.00  0.00     0.053 C 
BRANCH   5   6
ATOM      6  C   UNL     1     -20.449 -25.325  39.913  1.00  0.00     0.041 C 
ATOM      7  O   UNL     1     -19.250 -24.978  39.751  1.00  0.00    -0.550 OA
ATOM      8  O   UNL     1     -21.263 -24.603  40.777  1.00  0.00    -0.550 OA
ENDBRANCH   5   6
ENDBRANCH   4   5
ENDBRANCH   3   4
ENDBRANCH   2   3
ENDBRANCH   1   2
BRANCH   1   9
ATOM      9  C   UNL     1     -25.889 -28.051  40.846  1.00  0.00     0.000 C 
BRANCH   9  10
ATOM     10  C   UNL     1     -25.027 -27.320  41.891  1.00  0.00    -0.000 C 
BRANCH  10  11
ATOM     11  C   UNL     1     -24.943 -25.804  41.642  1.00  0.00    -0.000 C 
BRANCH  11  12
ATOM     12  C   UNL     1     -26.330 -25.129  41.683  1.00  0.00    -0.000 C 
BRANCH  12  13
ATOM     13  C   UNL     1     -27.106 -25.396  42.984  1.00  0.00    -0.003 C 
ATOM     14  C   UNL     1     -28.495 -25.985  42.743  1.00  0.00     0.004 C 
ENDBRANCH  12  13
ENDBRANCH  11  12
ENDBRANCH  10  11
ENDBRANCH   9  10
ENDBRANCH   1   9
TORSDOF 10
ENDMDL
MODEL 7
REMARK VINA RESULT:    -4.490      1.004      3.191
REMARK INTER + INTRA:          -8.082
REMARK INTER:                  -7.288
REMARK INTRA:                  -0.794
REMARK UNBOUND:                -0.968
REMARK SMILES CCCCCCCCCCCC(=O)[O-]
REMARK SMILES IDX 7 1 8 2 9 3 10 4 11 5 12 6 13 7 14 8 6 9 5 10 4 11 3 12 2 13
REMARK SMILES IDX 1 14
REMARK H PARENT
REMARK Flexibility Score: inf
ROOT
ATOM      1  C   UNL     1     -24.391 -25.571  42.023  1.00  0.00     0.000 C 
ENDROOT
BRANCH   1   2
ATOM      2  C   UNL     1     -25.800 -25.947  41.521  1.00  0.00     0.000 C 
BRANCH   2   3
ATOM      3  C   UNL     1     -25.923 -27.361  40.926  1.00  0.00     0.000 C 
BRANCH   3   4
ATOM      4  C   UNL     1     -24.575 -28.091  40.840  1.00  0.00     0.006 C 
BRANCH   4   5
ATOM      5  C   UNL     1     -24.778 -29.587  40.582  1.00  0.00     0.053 C 
BRANCH   5   6
ATOM      6  C   UNL     1     -25.123 -29.829  39.146  1.00  0.00     0.041 C 
ATOM      7  O   UNL     1     -24.533 -29.189  38.236  1.00  0.00    -0.550 OA
ATOM      8  O   UNL     1     -26.062 -30.796  38.810  1.00  0.00    -0.550 OA
ENDBRANCH   5   6
ENDBRANCH   4   5
ENDBRANCH   3   4
ENDBRANCH   2   3
ENDBRANCH   1   2
BRANCH   1   9
ATOM      9  C   UNL     1     -23.623 -24.574  41.135  1.00  0.00     0.000 C 
BRANCH   9  10
ATOM     10  C   UNL     1     -22.093 -24.609  41.294  1.00  0.00    -0.000 C 
BRANCH  10  11
ATOM     11  C   UNL     1     -21.349 -24.357  39.972  1.00  0.00    -0.000 C 
BRANCH  11  12
ATOM     12  C   UNL     1     -20.538 -25.588  39.514  1.00  0.00    -0.000 C 
BRANCH  12  13
ATOM     13  C   UNL     1     -21.409 -26.818  39.207  1.00  0.00    -0.003 C 
ATOM     14  C   UNL     1     -21.200 -27.362  37.795  1.00  0.00     0.004 C 
ENDBRANCH  12  13
ENDBRANCH  11  12
ENDBRANCH  10  11
ENDBRANCH   9  10
ENDBRANCH   1   9
TORSDOF 10
ENDMDL
MODEL 8
REMARK VINA RESULT:    -4.489      2.201      4.532
REMARK INTER + INTRA:          -8.080
REMARK INTER:                  -7.128
REMARK INTRA:                  -0.952
REMARK UNBOUND:                -0.968
REMARK SMILES CCCCCCCCCCCC(=O)[O-]
REMARK SMILES IDX 7 1 8 2 9 3 10 4 11 5 12 6 13 7 14 8 6 9 5 10 4 11 3 12 2 13
REMARK SMILES IDX 1 14
REMARK H PARENT
REMARK Flexibility Score: inf
ROOT
ATOM      1  C   UNL     1     -20.972 -25.664  40.146  1.00  0.00     0.000 C 
ENDROOT
BRANCH   1   2
ATOM      2  C   UNL     1     -21.317 -24.182  39.892  1.00  0.00     0.000 C 
BRANCH   2   3
ATOM      3  C   UNL     1     -22.546 -23.660  40.658  1.00  0.00     0.000 C 
BRANCH   3   4
ATOM      4  C   UNL     1     -23.238 -24.750  41.489  1.00  0.00     0.006 C 
BRANCH   4   5
ATOM      5  C   UNL     1     -24.760 -24.679  41.326  1.00  0.00     0.053 C 
BRANCH   5   6
ATOM      6  C   UNL     1     -25.387 -25.987  41.693  1.00  0.00     0.041 C 
ATOM      7  O   UNL     1     -24.883 -26.699  42.600  1.00  0.00    -0.550 OA
ATOM      8  O   UNL     1     -26.557 -26.396  41.067  1.00  0.00    -0.550 OA
ENDBRANCH   5   6
ENDBRANCH   4   5
ENDBRANCH   3   4
ENDBRANCH   2   3
ENDBRANCH   1   2
BRANCH   1   9
ATOM      9  C   UNL     1     -20.912 -26.548  38.885  1.00  0.00     0.000 C 
BRANCH   9  10
ATOM     10  C   UNL     1     -21.883 -27.742  38.884  1.00  0.00    -0.000 C 
BRANCH  10  11
ATOM     11  C   UNL     1     -22.526 -27.989  40.258  1.00  0.00    -0.000 C 
BRANCH  11  12
ATOM     12  C   UNL     1     -23.113 -29.412  40.380  1.00  0.00    -0.000 C 
BRANCH  12  13
ATOM     13  C   UNL     1     -24.648 -29.454  40.292  1.00  0.00    -0.003 C 
ATOM     14  C   UNL     1     -25.160 -29.672  38.870  1.00  0.00     0.004 C 
ENDBRANCH  12  13
ENDBRANCH  11  12
ENDBRANCH  10  11
ENDBRANCH   9  10
ENDBRANCH   1   9
TORSDOF 10
ENDMDL
MODEL 9
REMARK VINA RESULT:    -4.465      3.274      5.423
REMARK INTER + INTRA:          -8.043
REMARK INTER:                  -7.141
REMARK INTRA:                  -0.902
REMARK UNBOUND:                -0.968
REMARK SMILES CCCCCCCCCCCC(=O)[O-]
REMARK SMILES IDX 7 1 8 2 9 3 10 4 11 5 12 6 13 7 14 8 6 9 5 10 4 11 3 12 2 13
REMARK SMILES IDX 1 14
REMARK H PARENT
REMARK Flexibility Score: inf
ROOT
ATOM      1  C   UNL     1     -21.513 -27.409  38.664  1.00  0.00     0.000 C 
ENDROOT
BRANCH   1   2
ATOM      2  C   UNL     1     -21.377 -26.672  40.011  1.00  0.00     0.000 C 
BRANCH   2   3
ATOM      3  C   UNL     1     -20.402 -25.480  40.006  1.00  0.00     0.000 C 
BRANCH   3   4
ATOM      4  C   UNL     1     -21.118 -24.125  40.088  1.00  0.00     0.006 C 
BRANCH   4   5
ATOM      5  C   UNL     1     -22.172 -24.128  41.200  1.00  0.00     0.053 C 
BRANCH   5   6
ATOM      6  C   UNL     1     -23.109 -22.973  41.037  1.00  0.00     0.041 C 
ATOM      7  O   UNL     1     -22.672 -21.793  41.073  1.00  0.00    -0.550 OA
ATOM      8  O   UNL     1     -24.458 -23.201  40.796  1.00  0.00    -0.550 OA
ENDBRANCH   5   6
ENDBRANCH   4   5
ENDBRANCH   3   4
ENDBRANCH   2   3
ENDBRANCH   1   2
BRANCH   1   9
ATOM      9  C   UNL     1     -22.592 -28.509  38.625  1.00  0.00     0.000 C 
BRANCH   9  10
ATOM     10  C   UNL     1     -22.933 -29.131  39.990  1.00  0.00    -0.000 C 
BRANCH  10  11
ATOM     11  C   UNL     1     -24.426 -29.463  40.140  1.00  0.00    -0.000 C 
BRANCH  11  12
ATOM     12  C   UNL     1     -25.249 -28.250  40.623  1.00  0.00    -0.000 C 
BRANCH  12  13
ATOM     13  C   UNL     1     -24.557 -27.441  41.734  1.00  0.00    -0.003 C 
ATOM     14  C   UNL     1     -25.401 -26.273  42.238  1.00  0.00     0.004 C 
ENDBRANCH  12  13
ENDBRANCH  11  12
ENDBRANCH  10  11
ENDBRANCH   9  10
ENDBRANCH   1   9
TORSDOF 10
ENDMDL
