MODEL 1
REMARK VINA RESULT:    -3.022      0.000      0.000
REMARK INTER + INTRA:          -3.607
REMARK INTER:                  -3.552
REMARK INTRA:                  -0.055
REMARK UNBOUND:                -0.055
REMARK SMILES O=C([O-])CCC(=O)[O-]
REMARK SMILES IDX 4 1 2 2 1 3 3 4 5 5 6 6 7 7 8 8
REMARK H PARENT
REMARK Flexibility Score: inf
ROOT
ATOM      1  C   UNL     1      17.063  14.032  27.659  1.00  0.00     0.059 C 
ENDROOT
BRANCH   1   2
ATOM      2  C   UNL     1      16.709  14.921  26.506  1.00  0.00     0.042 C 
ATOM      3  O   UNL     1      16.065  15.984  26.701  1.00  0.00    -0.550 OA
ATOM      4  O   UNL     1      17.124  14.593  25.221  1.00  0.00    -0.550 OA
ENDBRANCH   1   2
BRANCH   1   5
ATOM      5  C   UNL     1      16.612  14.633  28.995  1.00  0.00     0.059 C 
BRANCH   5   6
ATOM      6  C   UNL     1      16.019  13.593  29.896  1.00  0.00     0.042 C 
ATOM      7  O   UNL     1      16.571  13.317  30.993  1.00  0.00    -0.550 OA
ATOM      8  O   UNL     1      14.835  12.959  29.542  1.00  0.00    -0.550 OA
ENDBRANCH   5   6
ENDBRANCH   1   5
TORSDOF 3
ENDMDL
MODEL 2
REMARK VINA RESULT:    -2.898      0.399      4.189
REMARK INTER + INTRA:          -3.461
REMARK INTER:                  -3.421
REMARK INTRA:                  -0.041
REMARK UNBOUND:                -0.055
REMARK SMILES O=C([O-])CCC(=O)[O-]
REMARK SMILES IDX 4 1 2 2 1 3 3 4 5 5 6 6 7 7 8 8
REMARK H PARENT
REMARK Flexibility Score: inf
ROOT
ATOM      1  C   UNL     1      16.357  14.288  29.042  1.00  0.00     0.059 C 
ENDROOT
BRANCH   1   2
ATOM      2  C   UNL     1      15.915  13.116  29.864  1.00  0.00     0.042 C 
ATOM      3  O   UNL     1      16.674  12.639  30.747  1.00  0.00    -0.550 OA
ATOM      4  O   UNL     1      14.648  12.575  29.680  1.00  0.00    -0.550 OA
ENDBRANCH   1   2
BRANCH   1   5
ATOM      5  C   UNL     1      16.965  13.845  27.707  1.00  0.00     0.059 C 
BRANCH   5   6
ATOM      6  C   UNL     1      16.666  14.824  26.613  1.00  0.00     0.042 C 
ATOM      7  O   UNL     1      16.031  15.882  26.864  1.00  0.00    -0.550 OA
ATOM      8  O   UNL     1      17.125  14.588  25.322  1.00  0.00    -0.550 OA
ENDBRANCH   5   6
ENDBRANCH   1   5
TORSDOF 3
ENDMDL
MODEL 3
REMARK VINA RESULT:    -2.885     20.272     21.379
REMARK INTER + INTRA:          -3.447
REMARK INTER:                  -3.287
REMARK INTRA:                  -0.160
REMARK UNBOUND:                -0.055
REMARK SMILES O=C([O-])CCC(=O)[O-]
REMARK SMILES IDX 4 1 2 2 1 3 3 4 5 5 6 6 7 7 8 8
REMARK H PARENT
REMARK Flexibility Score: inf
ROOT
ATOM      1  C   UNL     1      -1.913   9.664  36.710  1.00  0.00     0.059 C 
ENDROOT
BRANCH   1   2
ATOM      2  C   UNL     1      -1.920   8.495  37.647  1.00  0.00     0.042 C 
ATOM      3  O   UNL     1      -0.836   7.991  38.039  1.00  0.00    -0.550 OA
ATOM      4  O   UNL     1      -3.125   7.988  38.119  1.00  0.00    -0.550 OA
ENDBRANCH   1   2
BRANCH   1   5
ATOM      5  C   UNL     1      -2.947   9.496  35.590  1.00  0.00     0.059 C 
BRANCH   5   6
ATOM      6  C   UNL     1      -2.521   8.458  34.597  1.00  0.00     0.042 C 
ATOM      7  O   UNL     1      -1.600   8.706  33.777  1.00  0.00    -0.550 OA
ATOM      8  O   UNL     1      -3.115   7.202  34.605  1.00  0.00    -0.550 OA
ENDBRANCH   5   6
ENDBRANCH   1   5
TORSDOF 3
ENDMDL
MODEL 4
REMARK VINA RESULT:    -2.819     16.035     16.803
REMARK INTER + INTRA:          -3.369
REMARK INTER:                  -3.325
REMARK INTRA:                  -0.044
REMARK UNBOUND:                -0.055
REMARK SMILES O=C([O-])CCC(=O)[O-]
REMARK SMILES IDX 4 1 2 2 1 3 3 4 5 5 6 6 7 7 8 8
REMARK H PARENT
REMARK Flexibility Score: inf
ROOT
ATOM      1  C   UNL     1       8.504   2.599  18.199  1.00  0.00     0.059 C 
ENDROOT
BRANCH   1   2
ATOM      2  C   UNL     1       7.363   3.487  18.593  1.00  0.00     0.042 C 
ATOM      3  O   UNL     1       6.332   3.551  17.875  1.00  0.00    -0.550 OA
ATOM      4  O   UNL     1       7.424   4.215  19.776  1.00  0.00    -0.550 OA
ENDBRANCH   1   2
BRANCH   1   5
ATOM      5  C   UNL     1       9.768   3.408  17.887  1.00  0.00     0.059 C 
BRANCH   5   6
ATOM      6  C   UNL     1      11.009   2.667  18.282  1.00  0.00     0.042 C 
ATOM      7  O   UNL     1      12.143   3.127  17.987  1.00  0.00    -0.550 OA
ATOM      8  O   UNL     1      10.913   1.488  19.012  1.00  0.00    -0.550 OA
ENDBRANCH   5   6
ENDBRANCH   1   5
TORSDOF 3
ENDMDL
MODEL 5
REMARK VINA RESULT:    -2.798     15.939     16.532
REMARK INTER + INTRA:          -3.344
REMARK INTER:                  -3.314
REMARK INTRA:                  -0.030
REMARK UNBOUND:                -0.055
REMARK SMILES O=C([O-])CCC(=O)[O-]
REMARK SMILES IDX 4 1 2 2 1 3 3 4 5 5 6 6 7 7 8 8
REMARK H PARENT
REMARK Flexibility Score: inf
ROOT
ATOM      1  C   UNL     1       9.573   2.482  18.268  1.00  0.00     0.059 C 
ENDROOT
BRANCH   1   2
ATOM      2  C   UNL     1      11.070   2.549  18.282  1.00  0.00     0.042 C 
ATOM      3  O   UNL     1      11.745   1.545  18.628  1.00  0.00    -0.550 OA
ATOM      4  O   UNL     1      11.719   3.708  17.875  1.00  0.00    -0.550 OA
ENDBRANCH   1   2
BRANCH   1   5
ATOM      5  C   UNL     1       8.946   3.880  18.227  1.00  0.00     0.059 C 
BRANCH   5   6
ATOM      6  C   UNL     1       7.561   3.880  18.798  1.00  0.00     0.042 C 
ATOM      7  O   UNL     1       6.585   3.509  18.095  1.00  0.00    -0.550 OA
ATOM      8  O   UNL     1       7.353   4.251  20.121  1.00  0.00    -0.550 OA
ENDBRANCH   5   6
ENDBRANCH   1   5
TORSDOF 3
ENDMDL
MODEL 6
REMARK VINA RESULT:    -2.730     20.626     21.344
REMARK INTER + INTRA:          -3.265
REMARK INTER:                  -3.273
REMARK INTRA:                   0.008
REMARK UNBOUND:                -0.055
REMARK SMILES O=C([O-])CCC(=O)[O-]
REMARK SMILES IDX 4 1 2 2 1 3 3 4 5 5 6 6 7 7 8 8
REMARK H PARENT
REMARK Flexibility Score: inf
ROOT
ATOM      1  C   UNL     1      -1.942   8.961  35.288  1.00  0.00     0.059 C 
ENDROOT
BRANCH   1   2
ATOM      2  C   UNL     1      -2.742   8.023  34.436  1.00  0.00     0.042 C 
ATOM      3  O   UNL     1      -3.125   8.378  33.291  1.00  0.00    -0.550 OA
ATOM      4  O   UNL     1      -3.031   6.743  34.893  1.00  0.00    -0.550 OA
ENDBRANCH   1   2
BRANCH   1   5
ATOM      5  C   UNL     1      -2.583   9.159  36.666  1.00  0.00     0.059 C 
BRANCH   5   6
ATOM      6  C   UNL     1      -2.085   8.151  37.656  1.00  0.00     0.042 C 
ATOM      7  O   UNL     1      -0.908   8.223  38.096  1.00  0.00    -0.550 OA
ATOM      8  O   UNL     1      -2.935   7.156  38.124  1.00  0.00    -0.550 OA
ENDBRANCH   5   6
ENDBRANCH   1   5
TORSDOF 3
ENDMDL
MODEL 7
REMARK VINA RESULT:    -2.695     13.858     14.777
REMARK INTER + INTRA:          -3.223
REMARK INTER:                  -3.192
REMARK INTRA:                  -0.031
REMARK UNBOUND:                -0.055
REMARK SMILES O=C([O-])CCC(=O)[O-]
REMARK SMILES IDX 4 1 2 2 1 3 3 4 5 5 6 6 7 7 8 8
REMARK H PARENT
REMARK Flexibility Score: inf
ROOT
ATOM      1  C   UNL     1      11.571   5.151  18.285  1.00  0.00     0.059 C 
ENDROOT
BRANCH   1   2
ATOM      2  C   UNL     1      12.559   6.041  18.976  1.00  0.00     0.042 C 
ATOM      3  O   UNL     1      13.723   6.171  18.517  1.00  0.00    -0.550 OA
ATOM      4  O   UNL     1      12.179   6.756  20.105  1.00  0.00    -0.550 OA
ENDBRANCH   1   2
BRANCH   1   5
ATOM      5  C   UNL     1      12.186   3.792  17.931  1.00  0.00     0.059 C 
BRANCH   5   6
ATOM      6  C   UNL     1      11.222   2.670  18.170  1.00  0.00     0.042 C 
ATOM      7  O   UNL     1      11.622   1.585  18.667  1.00  0.00    -0.550 OA
ATOM      8  O   UNL     1       9.873   2.839  17.881  1.00  0.00    -0.550 OA
ENDBRANCH   5   6
ENDBRANCH   1   5
TORSDOF 3
ENDMDL
MODEL 8
REMARK VINA RESULT:    -2.692     13.847     14.895
REMARK INTER + INTRA:          -3.220
REMARK INTER:                  -3.188
REMARK INTRA:                  -0.031
REMARK UNBOUND:                -0.055
REMARK SMILES O=C([O-])CCC(=O)[O-]
REMARK SMILES IDX 4 1 2 2 1 3 3 4 5 5 6 6 7 7 8 8
REMARK H PARENT
REMARK Flexibility Score: inf
ROOT
ATOM      1  C   UNL     1      12.133   3.820  17.928  1.00  0.00     0.059 C 
ENDROOT
BRANCH   1   2
ATOM      2  C   UNL     1      11.202   2.678  18.201  1.00  0.00     0.042 C 
ATOM      3  O   UNL     1      11.649   1.588  18.643  1.00  0.00    -0.550 OA
ATOM      4  O   UNL     1       9.835   2.831  18.004  1.00  0.00    -0.550 OA
ENDBRANCH   1   2
BRANCH   1   5
ATOM      5  C   UNL     1      11.513   5.162  18.332  1.00  0.00     0.059 C 
BRANCH   5   6
ATOM      6  C   UNL     1      12.519   6.060  18.985  1.00  0.00     0.042 C 
ATOM      7  O   UNL     1      13.664   6.202  18.480  1.00  0.00    -0.550 OA
ATOM      8  O   UNL     1      12.178   6.772  20.128  1.00  0.00    -0.550 OA
ENDBRANCH   5   6
ENDBRANCH   1   5
TORSDOF 3
ENDMDL
MODEL 9
REMARK VINA RESULT:    -2.581     12.318     13.394
REMARK INTER + INTRA:          -3.089
REMARK INTER:                  -2.976
REMARK INTRA:                  -0.113
REMARK UNBOUND:                -0.055
REMARK SMILES O=C([O-])CCC(=O)[O-]
REMARK SMILES IDX 4 1 2 2 1 3 3 4 5 5 6 6 7 7 8 8
REMARK H PARENT
REMARK Flexibility Score: inf
ROOT
ATOM      1  C   UNL     1      12.354   6.434  19.757  1.00  0.00     0.059 C 
ENDROOT
BRANCH   1   2
ATOM      2  C   UNL     1      13.814   6.764  19.814  1.00  0.00     0.042 C 
ATOM      3  O   UNL     1      14.314   7.244  20.865  1.00  0.00    -0.550 OA
ATOM      4  O   UNL     1      14.630   6.504  18.720  1.00  0.00    -0.550 OA
ENDBRANCH   1   2
BRANCH   1   5
ATOM      5  C   UNL     1      11.899   6.132  18.325  1.00  0.00     0.059 C 
BRANCH   5   6
ATOM      6  C   UNL     1      11.431   4.716  18.182  1.00  0.00     0.042 C 
ATOM      7  O   UNL     1      12.235   3.762  18.348  1.00  0.00    -0.550 OA
ATOM      8  O   UNL     1      10.095   4.448  17.904  1.00  0.00    -0.550 OA
ENDBRANCH   5   6
ENDBRANCH   1   5
TORSDOF 3
ENDMDL
