MODEL 1
REMARK VINA RESULT:    -4.820      0.000      0.000
REMARK INTER + INTRA:          -8.813
REMARK INTER:                  -7.357
REMARK INTRA:                  -1.456
REMARK UNBOUND:                -1.456
REMARK SMILES OC[C@@H]1O[C@](CO)(O[C@@H]2O[C@H](CO)[C@@H](O)[C@@H](O)[C@H]2O)[C@@H](O)[C@H]1O
REMARK SMILES IDX 8 1 9 2 11 3 14 4 10 5 16 6 18 7 12 8 13 9 15 11 17 13 19 15
REMARK SMILES IDX 5 17 20 18 4 19 22 20 3 21 6 22 7 23 21 25 23 27 2 29 1 30
REMARK H PARENT 13 10 15 12 17 14 19 16 7 24 21 26 23 28 1 31
REMARK Flexibility Score: inf
ROOT
ATOM      1  O   UNL     1      16.137  13.941  36.121  1.00  0.00    -0.313 OA
ENDROOT
BRANCH   1   2
ATOM      2  C   UNL     1      16.257  12.862  37.040  1.00  0.00     0.285 C 
ATOM      3  C   UNL     1      18.035  13.477  38.555  1.00  0.00     0.178 C 
ATOM      4  C   UNL     1      18.895  13.623  37.266  1.00  0.00     0.177 C 
ATOM      5  O   UNL     1      16.632  13.387  38.310  1.00  0.00    -0.341 OA
ATOM      6  C   UNL     1      18.638  12.461  36.271  1.00  0.00     0.179 C 
ATOM      7  C   UNL     1      17.251  11.817  36.496  1.00  0.00     0.202 C 
BRANCH   3   8
ATOM      8  C   UNL     1      18.278  14.661  39.504  1.00  0.00     0.191 C 
BRANCH   8   9
ATOM      9  O   UNL     1      17.110  15.420  39.656  1.00  0.00    -0.394 OA
ATOM     10  H   UNL     1      17.392  16.365  39.757  1.00  0.00     0.210 HD
ENDBRANCH   8   9
ENDBRANCH   3   8
BRANCH   4  11
ATOM     11  O   UNL     1      20.265  13.749  37.564  1.00  0.00    -0.387 OA
ATOM     12  H   UNL     1      20.435  13.268  38.416  1.00  0.00     0.211 HD
ENDBRANCH   4  11
BRANCH   6  13
ATOM     13  O   UNL     1      19.638  11.475  36.359  1.00  0.00    -0.387 OA
ATOM     14  H   UNL     1      19.567  10.913  35.543  1.00  0.00     0.211 HD
ENDBRANCH   6  13
BRANCH   7  15
ATOM     15  O   UNL     1      17.332  10.751  37.412  1.00  0.00    -0.385 OA
ATOM     16  H   UNL     1      18.273  10.440  37.413  1.00  0.00     0.211 HD
ENDBRANCH   7  15
ENDBRANCH   1   2
BRANCH   1  17
ATOM     17  C   UNL     1      14.892  14.633  36.176  1.00  0.00     0.224 C 
ATOM     18  C   UNL     1      15.071  16.004  36.848  1.00  0.00     0.208 C 
ATOM     19  O   UNL     1      13.918  13.915  36.915  1.00  0.00    -0.337 OA
ATOM     20  C   UNL     1      13.719  16.259  37.474  1.00  0.00     0.180 C 
ATOM     21  C   UNL     1      13.138  14.845  37.643  1.00  0.00     0.179 C 
BRANCH  17  22
ATOM     22  C   UNL     1      14.386  14.755  34.724  1.00  0.00     0.225 C 
BRANCH  22  23
ATOM     23  O   UNL     1      15.466  15.037  33.872  1.00  0.00    -0.391 OA
ATOM     24  H   UNL     1      15.678  16.002  33.972  1.00  0.00     0.210 HD
ENDBRANCH  22  23
ENDBRANCH  17  22
BRANCH  18  25
ATOM     25  O   UNL     1      15.445  17.009  35.938  1.00  0.00    -0.385 OA
ATOM     26  H   UNL     1      16.421  16.901  35.784  1.00  0.00     0.211 HD
ENDBRANCH  18  25
BRANCH  20  27
ATOM     27  O   UNL     1      12.910  17.024  36.616  1.00  0.00    -0.387 OA
ATOM     28  H   UNL     1      12.452  17.697  37.185  1.00  0.00     0.211 HD
ENDBRANCH  20  27
BRANCH  21  29
ATOM     29  C   UNL     1      13.093  14.432  39.121  1.00  0.00     0.191 C 
BRANCH  29  30
ATOM     30  O   UNL     1      14.377  14.480  39.682  1.00  0.00    -0.394 OA
ATOM     31  H   UNL     1      14.890  15.155  39.166  1.00  0.00     0.210 HD
ENDBRANCH  29  30
ENDBRANCH  21  29
ENDBRANCH   1  17
TORSDOF 13
ENDMDL
MODEL 2
REMARK VINA RESULT:    -4.641      1.447      5.449
REMARK INTER + INTRA:          -8.539
REMARK INTER:                  -7.333
REMARK INTRA:                  -1.206
REMARK UNBOUND:                -1.456
REMARK SMILES OC[C@@H]1O[C@](CO)(O[C@@H]2O[C@H](CO)[C@@H](O)[C@@H](O)[C@H]2O)[C@@H](O)[C@H]1O
REMARK SMILES IDX 8 1 9 2 11 3 14 4 10 5 16 6 18 7 12 8 13 9 15 11 17 13 19 15
REMARK SMILES IDX 5 17 20 18 4 19 22 20 3 21 6 22 7 23 21 25 23 27 2 29 1 30
REMARK H PARENT 13 10 15 12 17 14 19 16 7 24 21 26 23 28 1 31
REMARK Flexibility Score: inf
ROOT
ATOM      1  O   UNL     1      16.242  13.532  36.509  1.00  0.00    -0.313 OA
ENDROOT
BRANCH   1   2
ATOM      2  C   UNL     1      16.044  14.919  36.751  1.00  0.00     0.285 C 
ATOM      3  C   UNL     1      14.003  15.083  38.032  1.00  0.00     0.178 C 
ATOM      4  C   UNL     1      13.360  14.305  36.845  1.00  0.00     0.177 C 
ATOM      5  O   UNL     1      15.429  15.073  38.027  1.00  0.00    -0.341 OA
ATOM      6  C   UNL     1      13.856  14.839  35.476  1.00  0.00     0.179 C 
ATOM      7  C   UNL     1      15.226  15.543  35.602  1.00  0.00     0.202 C 
BRANCH   3   8
ATOM      8  C   UNL     1      13.526  14.507  39.375  1.00  0.00     0.191 C 
BRANCH   8   9
ATOM      9  O   UNL     1      12.289  15.059  39.737  1.00  0.00    -0.394 OA
ATOM     10  H   UNL     1      11.787  14.349  40.213  1.00  0.00     0.210 HD
ENDBRANCH   8   9
ENDBRANCH   3   8
BRANCH   4  11
ATOM     11  O   UNL     1      11.954  14.309  36.919  1.00  0.00    -0.387 OA
ATOM     12  H   UNL     1      11.664  15.239  37.116  1.00  0.00     0.211 HD
ENDBRANCH   4  11
BRANCH   6  13
ATOM     13  O   UNL     1      12.923  15.719  34.896  1.00  0.00    -0.387 OA
ATOM     14  H   UNL     1      13.441  16.439  34.447  1.00  0.00     0.211 HD
ENDBRANCH   6  13
BRANCH   7  15
ATOM     15  O   UNL     1      15.066  16.918  35.856  1.00  0.00    -0.385 OA
ATOM     16  H   UNL     1      15.088  17.379  34.980  1.00  0.00     0.211 HD
ENDBRANCH   7  15
ENDBRANCH   1   2
BRANCH   1  17
ATOM     17  C   UNL     1      17.556  13.060  36.795  1.00  0.00     0.224 C 
ATOM     18  C   UNL     1      17.523  12.057  37.959  1.00  0.00     0.208 C 
ATOM     19  O   UNL     1      18.431  14.114  37.159  1.00  0.00    -0.337 OA
ATOM     20  C   UNL     1      18.884  12.221  38.594  1.00  0.00     0.180 C 
ATOM     21  C   UNL     1      19.299  13.641  38.172  1.00  0.00     0.179 C 
BRANCH  17  22
ATOM     22  C   UNL     1      18.096  12.428  35.495  1.00  0.00     0.225 C 
BRANCH  22  23
ATOM     23  O   UNL     1      18.019  13.364  34.451  1.00  0.00    -0.391 OA
ATOM     24  H   UNL     1      18.229  14.255  34.835  1.00  0.00     0.210 HD
ENDBRANCH  22  23
ENDBRANCH  17  22
BRANCH  18  25
ATOM     25  O   UNL     1      17.278  10.739  37.533  1.00  0.00    -0.385 OA
ATOM     26  H   UNL     1      17.148  10.780  36.549  1.00  0.00     0.211 HD
ENDBRANCH  18  25
BRANCH  20  27
ATOM     27  O   UNL     1      19.788  11.273  38.084  1.00  0.00    -0.387 OA
ATOM     28  H   UNL     1      20.156  11.656  37.245  1.00  0.00     0.211 HD
ENDBRANCH  20  27
BRANCH  21  29
ATOM     29  C   UNL     1      19.274  14.608  39.363  1.00  0.00     0.191 C 
BRANCH  29  30
ATOM     30  O   UNL     1      18.228  15.531  39.222  1.00  0.00    -0.394 OA
ATOM     31  H   UNL     1      17.607  15.379  39.981  1.00  0.00     0.210 HD
ENDBRANCH  29  30
ENDBRANCH  21  29
ENDBRANCH   1  17
TORSDOF 13
ENDMDL
MODEL 3
REMARK VINA RESULT:    -4.615      1.588      5.651
REMARK INTER + INTRA:          -8.500
REMARK INTER:                  -7.469
REMARK INTRA:                  -1.031
REMARK UNBOUND:                -1.456
REMARK SMILES OC[C@@H]1O[C@](CO)(O[C@@H]2O[C@H](CO)[C@@H](O)[C@@H](O)[C@H]2O)[C@@H](O)[C@H]1O
REMARK SMILES IDX 8 1 9 2 11 3 14 4 10 5 16 6 18 7 12 8 13 9 15 11 17 13 19 15
REMARK SMILES IDX 5 17 20 18 4 19 22 20 3 21 6 22 7 23 21 25 23 27 2 29 1 30
REMARK H PARENT 13 10 15 12 17 14 19 16 7 24 21 26 23 28 1 31
REMARK Flexibility Score: inf
ROOT
ATOM      1  O   UNL     1      16.237  13.517  37.206  1.00  0.00    -0.313 OA
ENDROOT
BRANCH   1   2
ATOM      2  C   UNL     1      16.155  14.928  37.050  1.00  0.00     0.285 C 
ATOM      3  C   UNL     1      14.234  15.626  38.338  1.00  0.00     0.178 C 
ATOM      4  C   UNL     1      13.450  14.606  37.461  1.00  0.00     0.177 C 
ATOM      5  O   UNL     1      15.652  15.490  38.259  1.00  0.00    -0.341 OA
ATOM      6  C   UNL     1      13.875  14.686  35.971  1.00  0.00     0.179 C 
ATOM      7  C   UNL     1      15.296  15.273  35.816  1.00  0.00     0.202 C 
BRANCH   3   8
ATOM      8  C   UNL     1      13.823  15.497  39.813  1.00  0.00     0.191 C 
BRANCH   8   9
ATOM      9  O   UNL     1      12.711  16.304  40.088  1.00  0.00    -0.394 OA
ATOM     10  H   UNL     1      12.335  15.991  40.951  1.00  0.00     0.210 HD
ENDBRANCH   8   9
ENDBRANCH   3   8
BRANCH   4  11
ATOM     11  O   UNL     1      12.058  14.755  37.605  1.00  0.00    -0.387 OA
ATOM     12  H   UNL     1      11.736  14.030  38.203  1.00  0.00     0.211 HD
ENDBRANCH   4  11
BRANCH   6  13
ATOM     13  O   UNL     1      12.964  15.446  35.214  1.00  0.00    -0.387 OA
ATOM     14  H   UNL     1      13.337  15.519  34.296  1.00  0.00     0.211 HD
ENDBRANCH   6  13
BRANCH   7  15
ATOM     15  O   UNL     1      15.252  16.672  35.673  1.00  0.00    -0.385 OA
ATOM     16  H   UNL     1      14.882  17.039  36.516  1.00  0.00     0.211 HD
ENDBRANCH   7  15
ENDBRANCH   1   2
BRANCH   1  17
ATOM     17  C   UNL     1      17.536  12.970  36.993  1.00  0.00     0.224 C 
ATOM     18  C   UNL     1      18.614  14.029  37.270  1.00  0.00     0.208 C 
ATOM     19  O   UNL     1      17.709  12.517  35.661  1.00  0.00    -0.337 OA
ATOM     20  C   UNL     1      19.748  13.612  36.362  1.00  0.00     0.180 C 
ATOM     21  C   UNL     1      19.038  12.801  35.264  1.00  0.00     0.179 C 
BRANCH  17  22
ATOM     22  C   UNL     1      17.662  11.748  37.927  1.00  0.00     0.225 C 
BRANCH  22  23
ATOM     23  O   UNL     1      17.191  10.602  37.267  1.00  0.00    -0.391 OA
ATOM     24  H   UNL     1      17.039  10.847  36.317  1.00  0.00     0.210 HD
ENDBRANCH  22  23
ENDBRANCH  17  22
BRANCH  18  25
ATOM     25  O   UNL     1      18.994  14.076  38.624  1.00  0.00    -0.385 OA
ATOM     26  H   UNL     1      19.290  13.159  38.866  1.00  0.00     0.211 HD
ENDBRANCH  18  25
BRANCH  20  27
ATOM     27  O   UNL     1      20.667  12.804  37.053  1.00  0.00    -0.387 OA
ATOM     28  H   UNL     1      20.173  12.402  37.815  1.00  0.00     0.211 HD
ENDBRANCH  20  27
BRANCH  21  29
ATOM     29  C   UNL     1      19.023  13.559  33.930  1.00  0.00     0.191 C 
BRANCH  29  30
ATOM     30  O   UNL     1      17.717  13.951  33.603  1.00  0.00    -0.394 OA
ATOM     31  H   UNL     1      17.105  13.375  34.130  1.00  0.00     0.210 HD
ENDBRANCH  29  30
ENDBRANCH  21  29
ENDBRANCH   1  17
TORSDOF 13
ENDMDL
MODEL 4
REMARK VINA RESULT:    -4.595     11.918     15.015
REMARK INTER + INTRA:          -8.469
REMARK INTER:                  -7.835
REMARK INTRA:                  -0.633
REMARK UNBOUND:                -1.456
REMARK SMILES OC[C@@H]1O[C@](CO)(O[C@@H]2O[C@H](CO)[C@@H](O)[C@@H](O)[C@H]2O)[C@@H](O)[C@H]1O
REMARK SMILES IDX 8 1 9 2 11 3 14 4 10 5 16 6 18 7 12 8 13 9 15 11 17 13 19 15
REMARK SMILES IDX 5 17 20 18 4 19 22 20 3 21 6 22 7 23 21 25 23 27 2 29 1 30
REMARK H PARENT 13 10 15 12 17 14 19 16 7 24 21 26 23 28 1 31
REMARK Flexibility Score: inf
ROOT
ATOM      1  O   UNL     1      11.939  15.111  22.668  1.00  0.00    -0.313 OA
ENDROOT
BRANCH   1   2
ATOM      2  C   UNL     1      12.719  14.017  23.134  1.00  0.00     0.285 C 
ATOM      3  C   UNL     1      13.352  12.768  21.166  1.00  0.00     0.178 C 
ATOM      4  C   UNL     1      11.821  12.693  20.891  1.00  0.00     0.177 C 
ATOM      5  O   UNL     1      13.717  13.723  22.160  1.00  0.00    -0.341 OA
ATOM      6  C   UNL     1      11.022  12.391  22.186  1.00  0.00     0.179 C 
ATOM      7  C   UNL     1      11.806  12.815  23.449  1.00  0.00     0.202 C 
BRANCH   3   8
ATOM      8  C   UNL     1      14.115  13.108  19.875  1.00  0.00     0.191 C 
BRANCH   8   9
ATOM      9  O   UNL     1      15.022  14.153  20.099  1.00  0.00    -0.394 OA
ATOM     10  H   UNL     1      14.495  14.926  20.425  1.00  0.00     0.210 HD
ENDBRANCH   8   9
ENDBRANCH   3   8
BRANCH   4  11
ATOM     11  O   UNL     1      11.518  11.767  19.875  1.00  0.00    -0.387 OA
ATOM     12  H   UNL     1      11.656  10.855  20.245  1.00  0.00     0.211 HD
ENDBRANCH   4  11
BRANCH   6  13
ATOM     13  O   UNL     1      10.680  11.029  22.277  1.00  0.00    -0.387 OA
ATOM     14  H   UNL     1      10.525  10.705  21.350  1.00  0.00     0.211 HD
ENDBRANCH   6  13
BRANCH   7  15
ATOM     15  O   UNL     1      12.600  11.757  23.930  1.00  0.00    -0.385 OA
ATOM     16  H   UNL     1      13.156  12.122  24.664  1.00  0.00     0.211 HD
ENDBRANCH   7  15
ENDBRANCH   1   2
BRANCH   1  17
ATOM     17  C   UNL     1      11.571  16.050  23.675  1.00  0.00     0.224 C 
ATOM     18  C   UNL     1      12.724  17.032  23.937  1.00  0.00     0.208 C 
ATOM     19  O   UNL     1      11.258  15.416  24.903  1.00  0.00    -0.337 OA
ATOM     20  C   UNL     1      12.524  17.419  25.384  1.00  0.00     0.180 C 
ATOM     21  C   UNL     1      11.732  16.231  25.959  1.00  0.00     0.179 C 
BRANCH  17  22
ATOM     22  C   UNL     1      10.298  16.763  23.175  1.00  0.00     0.225 C 
BRANCH  22  23
ATOM     23  O   UNL     1       9.557  15.888  22.364  1.00  0.00    -0.391 OA
ATOM     24  H   UNL     1      10.201  15.270  21.928  1.00  0.00     0.210 HD
ENDBRANCH  22  23
ENDBRANCH  17  22
BRANCH  18  25
ATOM     25  O   UNL     1      12.699  18.141  23.072  1.00  0.00    -0.385 OA
ATOM     26  H   UNL     1      13.421  18.752  23.375  1.00  0.00     0.211 HD
ENDBRANCH  18  25
BRANCH  20  27
ATOM     27  O   UNL     1      11.775  18.604  25.484  1.00  0.00    -0.387 OA
ATOM     28  H   UNL     1      10.972  18.385  26.027  1.00  0.00     0.211 HD
ENDBRANCH  20  27
BRANCH  21  29
ATOM     29  C   UNL     1      12.594  15.391  26.910  1.00  0.00     0.191 C 
BRANCH  29  30
ATOM     30  O   UNL     1      12.612  14.050  26.499  1.00  0.00    -0.394 OA
ATOM     31  H   UNL     1      11.671  13.733  26.515  1.00  0.00     0.210 HD
ENDBRANCH  29  30
ENDBRANCH  21  29
ENDBRANCH   1  17
TORSDOF 13
ENDMDL
MODEL 5
REMARK VINA RESULT:    -4.542     12.831     16.129
REMARK INTER + INTRA:          -8.388
REMARK INTER:                  -7.339
REMARK INTRA:                  -1.049
REMARK UNBOUND:                -1.456
REMARK SMILES OC[C@@H]1O[C@](CO)(O[C@@H]2O[C@H](CO)[C@@H](O)[C@@H](O)[C@H]2O)[C@@H](O)[C@H]1O
REMARK SMILES IDX 8 1 9 2 11 3 14 4 10 5 16 6 18 7 12 8 13 9 15 11 17 13 19 15
REMARK SMILES IDX 5 17 20 18 4 19 22 20 3 21 6 22 7 23 21 25 23 27 2 29 1 30
REMARK H PARENT 13 10 15 12 17 14 19 16 7 24 21 26 23 28 1 31
REMARK Flexibility Score: inf
ROOT
ATOM      1  O   UNL     1      10.894  14.124  23.106  1.00  0.00    -0.313 OA
ENDROOT
BRANCH   1   2
ATOM      2  C   UNL     1      11.173  14.153  21.712  1.00  0.00     0.285 C 
ATOM      3  C   UNL     1       9.117  13.523  20.611  1.00  0.00     0.178 C 
ATOM      4  C   UNL     1       9.202  12.241  21.491  1.00  0.00     0.177 C 
ATOM      5  O   UNL     1       9.998  14.568  21.022  1.00  0.00    -0.341 OA
ATOM      6  C   UNL     1      10.647  11.680  21.546  1.00  0.00     0.179 C 
ATOM      7  C   UNL     1      11.695  12.777  21.251  1.00  0.00     0.202 C 
BRANCH   3   8
ATOM      8  C   UNL     1       7.685  14.080  20.607  1.00  0.00     0.191 C 
BRANCH   8   9
ATOM      9  O   UNL     1       6.968  13.606  21.715  1.00  0.00    -0.394 OA
ATOM     10  H   UNL     1       6.047  13.416  21.401  1.00  0.00     0.210 HD
ENDBRANCH   8   9
ENDBRANCH   3   8
BRANCH   4  11
ATOM     11  O   UNL     1       8.287  11.258  21.070  1.00  0.00    -0.387 OA
ATOM     12  H   UNL     1       7.408  11.465  21.485  1.00  0.00     0.211 HD
ENDBRANCH   4  11
BRANCH   6  13
ATOM     13  O   UNL     1      10.820  10.607  20.651  1.00  0.00    -0.387 OA
ATOM     14  H   UNL     1      10.739   9.770  21.180  1.00  0.00     0.211 HD
ENDBRANCH   6  13
BRANCH   7  15
ATOM     15  O   UNL     1      11.985  12.841  19.875  1.00  0.00    -0.385 OA
ATOM     16  H   UNL     1      12.970  12.786  19.783  1.00  0.00     0.211 HD
ENDBRANCH   7  15
ENDBRANCH   1   2
BRANCH   1  17
ATOM     17  C   UNL     1      11.707  14.991  23.893  1.00  0.00     0.224 C 
ATOM     18  C   UNL     1      10.841  15.778  24.889  1.00  0.00     0.208 C 
ATOM     19  O   UNL     1      12.408  15.930  23.096  1.00  0.00    -0.337 OA
ATOM     20  C   UNL     1      11.617  17.060  25.082  1.00  0.00     0.180 C 
ATOM     21  C   UNL     1      12.455  17.160  23.795  1.00  0.00     0.179 C 
BRANCH  17  22
ATOM     22  C   UNL     1      12.750  14.101  24.601  1.00  0.00     0.225 C 
BRANCH  22  23
ATOM     23  O   UNL     1      12.296  12.773  24.627  1.00  0.00    -0.391 OA
ATOM     24  H   UNL     1      12.471  12.417  25.536  1.00  0.00     0.210 HD
ENDBRANCH  22  23
ENDBRANCH  17  22
BRANCH  18  25
ATOM     25  O   UNL     1      10.634  15.083  26.095  1.00  0.00    -0.385 OA
ATOM     26  H   UNL     1      10.981  15.667  26.820  1.00  0.00     0.211 HD
ENDBRANCH  18  25
BRANCH  20  27
ATOM     27  O   UNL     1      12.454  16.971  26.208  1.00  0.00    -0.387 OA
ATOM     28  H   UNL     1      11.883  16.665  26.961  1.00  0.00     0.211 HD
ENDBRANCH  20  27
BRANCH  21  29
ATOM     29  C   UNL     1      11.951  18.287  22.885  1.00  0.00     0.191 C 
BRANCH  29  30
ATOM     30  O   UNL     1      10.559  18.418  22.992  1.00  0.00    -0.394 OA
ATOM     31  H   UNL     1      10.386  19.005  23.774  1.00  0.00     0.210 HD
ENDBRANCH  29  30
ENDBRANCH  21  29
ENDBRANCH   1  17
TORSDOF 13
ENDMDL
MODEL 6
REMARK VINA RESULT:    -4.484      1.389      2.959
REMARK INTER + INTRA:          -8.300
REMARK INTER:                  -6.959
REMARK INTRA:                  -1.341
REMARK UNBOUND:                -1.456
REMARK SMILES OC[C@@H]1O[C@](CO)(O[C@@H]2O[C@H](CO)[C@@H](O)[C@@H](O)[C@H]2O)[C@@H](O)[C@H]1O
REMARK SMILES IDX 8 1 9 2 11 3 14 4 10 5 16 6 18 7 12 8 13 9 15 11 17 13 19 15
REMARK SMILES IDX 5 17 20 18 4 19 22 20 3 21 6 22 7 23 21 25 23 27 2 29 1 30
REMARK H PARENT 13 10 15 12 17 14 19 16 7 24 21 26 23 28 1 31
REMARK Flexibility Score: inf
ROOT
ATOM      1  O   UNL     1      16.454  14.473  35.822  1.00  0.00    -0.313 OA
ENDROOT
BRANCH   1   2
ATOM      2  C   UNL     1      16.273  13.238  36.503  1.00  0.00     0.285 C 
ATOM      3  C   UNL     1      17.579  13.399  38.528  1.00  0.00     0.178 C 
ATOM      4  C   UNL     1      18.770  13.700  37.571  1.00  0.00     0.177 C 
ATOM      5  O   UNL     1      16.298  13.485  37.905  1.00  0.00    -0.341 OA
ATOM      6  C   UNL     1      18.757  12.768  36.331  1.00  0.00     0.179 C 
ATOM      7  C   UNL     1      17.339  12.223  36.045  1.00  0.00     0.202 C 
BRANCH   3   8
ATOM      8  C   UNL     1      17.592  14.363  39.725  1.00  0.00     0.191 C 
BRANCH   8   9
ATOM      9  O   UNL     1      17.954  15.654  39.316  1.00  0.00    -0.394 OA
ATOM     10  H   UNL     1      17.251  15.964  38.689  1.00  0.00     0.210 HD
ENDBRANCH   8   9
ENDBRANCH   3   8
BRANCH   4  11
ATOM     11  O   UNL     1      20.006  13.643  38.242  1.00  0.00    -0.387 OA
ATOM     12  H   UNL     1      19.849  13.228  39.131  1.00  0.00     0.211 HD
ENDBRANCH   4  11
BRANCH   6  13
ATOM     13  O   UNL     1      19.655  11.695  36.482  1.00  0.00    -0.387 OA
ATOM     14  H   UNL     1      20.099  11.560  35.604  1.00  0.00     0.211 HD
ENDBRANCH   6  13
BRANCH   7  15
ATOM     15  O   UNL     1      17.121  11.005  36.715  1.00  0.00    -0.385 OA
ATOM     16  H   UNL     1      16.253  10.649  36.396  1.00  0.00     0.211 HD
ENDBRANCH   7  15
ENDBRANCH   1   2
BRANCH   1  17
ATOM     17  C   UNL     1      15.246  15.120  35.431  1.00  0.00     0.224 C 
ATOM     18  C   UNL     1      14.036  14.225  35.741  1.00  0.00     0.208 C 
ATOM     19  O   UNL     1      15.223  15.409  34.044  1.00  0.00    -0.337 OA
ATOM     20  C   UNL     1      13.027  14.635  34.693  1.00  0.00     0.180 C 
ATOM     21  C   UNL     1      13.904  15.215  33.570  1.00  0.00     0.179 C 
BRANCH  17  22
ATOM     22  C   UNL     1      15.192  16.461  36.192  1.00  0.00     0.225 C 
BRANCH  22  23
ATOM     23  O   UNL     1      15.742  16.296  37.473  1.00  0.00    -0.391 OA
ATOM     24  H   UNL     1      16.353  17.061  37.635  1.00  0.00     0.210 HD
ENDBRANCH  22  23
ENDBRANCH  17  22
BRANCH  18  25
ATOM     25  O   UNL     1      13.556  14.397  37.052  1.00  0.00    -0.385 OA
ATOM     26  H   UNL     1      13.601  15.371  37.244  1.00  0.00     0.211 HD
ENDBRANCH  18  25
BRANCH  20  27
ATOM     27  O   UNL     1      12.158  15.619  35.197  1.00  0.00    -0.387 OA
ATOM     28  H   UNL     1      11.236  15.265  35.086  1.00  0.00     0.211 HD
ENDBRANCH  20  27
BRANCH  21  29
ATOM     29  C   UNL     1      13.929  14.290  32.346  1.00  0.00     0.191 C 
BRANCH  29  30
ATOM     30  O   UNL     1      12.694  14.322  31.683  1.00  0.00    -0.394 OA
ATOM     31  H   UNL     1      11.994  14.393  32.383  1.00  0.00     0.210 HD
ENDBRANCH  29  30
ENDBRANCH  21  29
ENDBRANCH   1  17
TORSDOF 13
ENDMDL
MODEL 7
REMARK VINA RESULT:    -4.405      3.602      6.452
REMARK INTER + INTRA:          -8.179
REMARK INTER:                  -7.421
REMARK INTRA:                  -0.758
REMARK UNBOUND:                -1.456
REMARK SMILES OC[C@@H]1O[C@](CO)(O[C@@H]2O[C@H](CO)[C@@H](O)[C@@H](O)[C@H]2O)[C@@H](O)[C@H]1O
REMARK SMILES IDX 8 1 9 2 11 3 14 4 10 5 16 6 18 7 12 8 13 9 15 11 17 13 19 15
REMARK SMILES IDX 5 17 20 18 4 19 22 20 3 21 6 22 7 23 21 25 23 27 2 29 1 30
REMARK H PARENT 13 10 15 12 17 14 19 16 7 24 21 26 23 28 1 31
REMARK Flexibility Score: inf
ROOT
ATOM      1  O   UNL     1      13.285  15.838  33.362  1.00  0.00    -0.313 OA
ENDROOT
BRANCH   1   2
ATOM      2  C   UNL     1      13.490  14.752  34.256  1.00  0.00     0.285 C 
ATOM      3  C   UNL     1      12.142  15.231  36.202  1.00  0.00     0.178 C 
ATOM      4  C   UNL     1      12.942  16.566  36.255  1.00  0.00     0.177 C 
ATOM      5  O   UNL     1      12.282  14.520  34.973  1.00  0.00    -0.341 OA
ATOM      6  C   UNL     1      14.452  16.340  35.980  1.00  0.00     0.179 C 
ATOM      7  C   UNL     1      14.695  15.045  35.173  1.00  0.00     0.202 C 
BRANCH   3   8
ATOM      8  C   UNL     1      10.645  15.490  36.437  1.00  0.00     0.191 C 
BRANCH   8   9
ATOM      9  O   UNL     1       9.905  15.180  35.287  1.00  0.00    -0.394 OA
ATOM     10  H   UNL     1       9.121  15.787  35.278  1.00  0.00     0.210 HD
ENDBRANCH   8   9
ENDBRANCH   3   8
BRANCH   4  11
ATOM     11  O   UNL     1      12.739  17.249  37.469  1.00  0.00    -0.387 OA
ATOM     12  H   UNL     1      12.792  18.223  37.282  1.00  0.00     0.211 HD
ENDBRANCH   4  11
BRANCH   6  13
ATOM     13  O   UNL     1      15.194  16.299  37.176  1.00  0.00    -0.387 OA
ATOM     14  H   UNL     1      15.451  17.235  37.392  1.00  0.00     0.211 HD
ENDBRANCH   6  13
BRANCH   7  15
ATOM     15  O   UNL     1      14.889  13.945  36.030  1.00  0.00    -0.385 OA
ATOM     16  H   UNL     1      15.836  13.669  35.938  1.00  0.00     0.211 HD
ENDBRANCH   7  15
ENDBRANCH   1   2
BRANCH   1  17
ATOM     17  C   UNL     1      12.953  15.457  32.029  1.00  0.00     0.224 C 
ATOM     18  C   UNL     1      12.942  16.687  31.108  1.00  0.00     0.208 C 
ATOM     19  O   UNL     1      11.675  14.850  31.954  1.00  0.00    -0.337 OA
ATOM     20  C   UNL     1      11.936  16.312  30.045  1.00  0.00     0.180 C 
ATOM     21  C   UNL     1      11.057  15.262  30.748  1.00  0.00     0.179 C 
BRANCH  17  22
ATOM     22  C   UNL     1      13.998  14.409  31.593  1.00  0.00     0.225 C 
BRANCH  22  23
ATOM     23  O   UNL     1      13.360  13.372  30.895  1.00  0.00    -0.391 OA
ATOM     24  H   UNL     1      14.057  12.712  30.640  1.00  0.00     0.210 HD
ENDBRANCH  22  23
ENDBRANCH  17  22
BRANCH  18  25
ATOM     25  O   UNL     1      14.211  16.977  30.575  1.00  0.00    -0.385 OA
ATOM     26  H   UNL     1      14.058  17.330  29.659  1.00  0.00     0.211 HD
ENDBRANCH  18  25
BRANCH  20  27
ATOM     27  O   UNL     1      12.577  15.748  28.929  1.00  0.00    -0.387 OA
ATOM     28  H   UNL     1      12.635  16.465  28.244  1.00  0.00     0.211 HD
ENDBRANCH  20  27
BRANCH  21  29
ATOM     29  C   UNL     1       9.658  15.815  31.051  1.00  0.00     0.191 C 
BRANCH  29  30
ATOM     30  O   UNL     1       9.249  15.435  32.336  1.00  0.00    -0.394 OA
ATOM     31  H   UNL     1       8.451  15.983  32.557  1.00  0.00     0.210 HD
ENDBRANCH  29  30
ENDBRANCH  21  29
ENDBRANCH   1  17
TORSDOF 13
ENDMDL
MODEL 8
REMARK VINA RESULT:    -4.387     13.900     16.238
REMARK INTER + INTRA:          -8.151
REMARK INTER:                  -6.666
REMARK INTRA:                  -1.485
REMARK UNBOUND:                -1.456
REMARK SMILES OC[C@@H]1O[C@](CO)(O[C@@H]2O[C@H](CO)[C@@H](O)[C@@H](O)[C@H]2O)[C@@H](O)[C@H]1O
REMARK SMILES IDX 8 1 9 2 11 3 14 4 10 5 16 6 18 7 12 8 13 9 15 11 17 13 19 15
REMARK SMILES IDX 5 17 20 18 4 19 22 20 3 21 6 22 7 23 21 25 23 27 2 29 1 30
REMARK H PARENT 13 10 15 12 17 14 19 16 7 24 21 26 23 28 1 31
REMARK Flexibility Score: inf
ROOT
ATOM      1  O   UNL     1       9.543  12.708  22.891  1.00  0.00    -0.313 OA
ENDROOT
BRANCH   1   2
ATOM      2  C   UNL     1       8.498  13.599  22.524  1.00  0.00     0.285 C 
ATOM      3  C   UNL     1       7.344  14.147  24.574  1.00  0.00     0.178 C 
ATOM      4  C   UNL     1       7.165  12.607  24.721  1.00  0.00     0.177 C 
ATOM      5  O   UNL     1       8.300  14.528  23.586  1.00  0.00    -0.341 OA
ATOM      6  C   UNL     1       6.776  11.945  23.374  1.00  0.00     0.179 C 
ATOM      7  C   UNL     1       7.226  12.802  22.169  1.00  0.00     0.202 C 
BRANCH   3   8
ATOM      8  C   UNL     1       7.768  14.771  25.914  1.00  0.00     0.191 C 
BRANCH   8   9
ATOM      9  O   UNL     1       9.131  15.101  25.895  1.00  0.00    -0.394 OA
ATOM     10  H   UNL     1       9.455  14.927  24.975  1.00  0.00     0.210 HD
ENDBRANCH   8   9
ENDBRANCH   3   8
BRANCH   4  11
ATOM     11  O   UNL     1       6.243  12.284  25.736  1.00  0.00    -0.387 OA
ATOM     12  H   UNL     1       6.062  13.111  26.255  1.00  0.00     0.211 HD
ENDBRANCH   4  11
BRANCH   6  13
ATOM     13  O   UNL     1       5.391  11.708  23.295  1.00  0.00    -0.387 OA
ATOM     14  H   UNL     1       5.258  10.726  23.364  1.00  0.00     0.211 HD
ENDBRANCH   6  13
BRANCH   7  15
ATOM     15  O   UNL     1       6.217  13.707  21.788  1.00  0.00    -0.385 OA
ATOM     16  H   UNL     1       5.476  13.172  21.406  1.00  0.00     0.211 HD
ENDBRANCH   7  15
ENDBRANCH   1   2
BRANCH   1  17
ATOM     17  C   UNL     1      10.833  13.075  22.411  1.00  0.00     0.224 C 
ATOM     18  C   UNL     1      11.869  12.987  23.542  1.00  0.00     0.208 C 
ATOM     19  O   UNL     1      10.855  14.401  21.909  1.00  0.00    -0.337 OA
ATOM     20  C   UNL     1      12.895  14.025  23.151  1.00  0.00     0.180 C 
ATOM     21  C   UNL     1      12.098  14.986  22.252  1.00  0.00     0.179 C 
BRANCH  17  22
ATOM     22  C   UNL     1      11.162  12.124  21.242  1.00  0.00     0.225 C 
BRANCH  22  23
ATOM     23  O   UNL     1      10.577  10.869  21.479  1.00  0.00    -0.391 OA
ATOM     24  H   UNL     1      10.055  10.627  20.670  1.00  0.00     0.210 HD
ENDBRANCH  22  23
ENDBRANCH  17  22
BRANCH  18  25
ATOM     25  O   UNL     1      12.423  11.700  23.672  1.00  0.00    -0.385 OA
ATOM     26  H   UNL     1      13.187  11.784  24.301  1.00  0.00     0.211 HD
ENDBRANCH  18  25
BRANCH  20  27
ATOM     27  O   UNL     1      13.949  13.437  22.430  1.00  0.00    -0.387 OA
ATOM     28  H   UNL     1      13.660  12.512  22.211  1.00  0.00     0.211 HD
ENDBRANCH  20  27
BRANCH  21  29
ATOM     29  C   UNL     1      11.857  16.333  22.947  1.00  0.00     0.191 C 
BRANCH  29  30
ATOM     30  O   UNL     1      10.620  16.329  23.607  1.00  0.00    -0.394 OA
ATOM     31  H   UNL     1      10.255  15.409  23.527  1.00  0.00     0.210 HD
ENDBRANCH  29  30
ENDBRANCH  21  29
ENDBRANCH   1  17
TORSDOF 13
ENDMDL
MODEL 9
REMARK VINA RESULT:    -4.387     13.968     16.742
REMARK INTER + INTRA:          -8.151
REMARK INTER:                  -6.909
REMARK INTRA:                  -1.242
REMARK UNBOUND:                -1.456
REMARK SMILES OC[C@@H]1O[C@](CO)(O[C@@H]2O[C@H](CO)[C@@H](O)[C@@H](O)[C@H]2O)[C@@H](O)[C@H]1O
REMARK SMILES IDX 8 1 9 2 11 3 14 4 10 5 16 6 18 7 12 8 13 9 15 11 17 13 19 15
REMARK SMILES IDX 5 17 20 18 4 19 22 20 3 21 6 22 7 23 21 25 23 27 2 29 1 30
REMARK H PARENT 13 10 15 12 17 14 19 16 7 24 21 26 23 28 1 31
REMARK Flexibility Score: inf
ROOT
ATOM      1  O   UNL     1       9.612  13.101  22.993  1.00  0.00    -0.313 OA
ENDROOT
BRANCH   1   2
ATOM      2  C   UNL     1       9.827  14.369  22.387  1.00  0.00     0.285 C 
ATOM      3  C   UNL     1      12.091  14.326  21.546  1.00  0.00     0.178 C 
ATOM      4  C   UNL     1      12.482  13.983  23.014  1.00  0.00     0.177 C 
ATOM      5  O   UNL     1      10.697  14.197  21.272  1.00  0.00    -0.341 OA
ATOM      6  C   UNL     1      11.694  14.848  24.033  1.00  0.00     0.179 C 
ATOM      7  C   UNL     1      10.368  15.367  23.432  1.00  0.00     0.202 C 
BRANCH   3   8
ATOM      8  C   UNL     1      12.856  13.427  20.561  1.00  0.00     0.191 C 
BRANCH   8   9
ATOM      9  O   UNL     1      12.003  12.459  20.012  1.00  0.00    -0.394 OA
ATOM     10  H   UNL     1      12.383  12.208  19.132  1.00  0.00     0.210 HD
ENDBRANCH   8   9
ENDBRANCH   3   8
BRANCH   4  11
ATOM     11  O   UNL     1      13.871  14.085  23.222  1.00  0.00    -0.387 OA
ATOM     12  H   UNL     1      14.322  13.546  22.520  1.00  0.00     0.211 HD
ENDBRANCH   4  11
BRANCH   6  13
ATOM     13  O   UNL     1      12.463  15.935  24.492  1.00  0.00    -0.387 OA
ATOM     14  H   UNL     1      12.047  16.250  25.337  1.00  0.00     0.211 HD
ENDBRANCH   6  13
BRANCH   7  15
ATOM     15  O   UNL     1      10.549  16.617  22.811  1.00  0.00    -0.385 OA
ATOM     16  H   UNL     1       9.923  17.250  23.246  1.00  0.00     0.211 HD
ENDBRANCH   7  15
ENDBRANCH   1   2
BRANCH   1  17
ATOM     17  C   UNL     1       8.591  12.316  22.383  1.00  0.00     0.224 C 
ATOM     18  C   UNL     1       8.139  12.960  21.063  1.00  0.00     0.208 C 
ATOM     19  O   UNL     1       7.450  12.189  23.214  1.00  0.00    -0.337 OA
ATOM     20  C   UNL     1       6.700  12.516  20.938  1.00  0.00     0.180 C 
ATOM     21  C   UNL     1       6.297  12.219  22.393  1.00  0.00     0.179 C 
BRANCH  17  22
ATOM     22  C   UNL     1       9.180  10.905  22.173  1.00  0.00     0.225 C 
BRANCH  22  23
ATOM     23  O   UNL     1      10.581  10.985  22.115  1.00  0.00    -0.391 OA
ATOM     24  H   UNL     1      10.870  10.527  21.283  1.00  0.00     0.210 HD
ENDBRANCH  22  23
ENDBRANCH  17  22
BRANCH  18  25
ATOM     25  O   UNL     1       8.926  12.562  19.967  1.00  0.00    -0.385 OA
ATOM     26  H   UNL     1       8.951  13.334  19.342  1.00  0.00     0.211 HD
ENDBRANCH  18  25
BRANCH  20  27
ATOM     27  O   UNL     1       6.604  11.352  20.155  1.00  0.00    -0.387 OA
ATOM     28  H   UNL     1       5.751  11.420  19.651  1.00  0.00     0.211 HD
ENDBRANCH  20  27
BRANCH  21  29
ATOM     29  C   UNL     1       5.315  13.271  22.927  1.00  0.00     0.191 C 
BRANCH  29  30
ATOM     30  O   UNL     1       5.916  14.034  23.938  1.00  0.00    -0.394 OA
ATOM     31  H   UNL     1       5.712  14.984  23.739  1.00  0.00     0.210 HD
ENDBRANCH  29  30
ENDBRANCH  21  29
ENDBRANCH   1  17
TORSDOF 13
ENDMDL
