MODEL 1
REMARK VINA RESULT:    -4.858      0.000      0.000
REMARK INTER + INTRA:         -14.012
REMARK INTER:                 -11.107
REMARK INTRA:                  -2.905
REMARK UNBOUND:                -2.905
REMARK SMILES CCCCCCCCCCCCCCCCCCCCCCCC(=O)[O-]
REMARK SMILES IDX 13 1 14 2 15 3 16 4 17 5 18 6 19 7 20 8 21 9 22 10 23 11
REMARK SMILES IDX 24 12 25 13 26 14 12 15 11 16 10 17 9 18 8 19 7 20 6 21 5 22
REMARK SMILES IDX 4 23 3 24 2 25 1 26
REMARK H PARENT
REMARK Flexibility Score: inf
ROOT
ATOM      1  C   UNL     1      40.629  43.421  16.400  1.00  0.00     0.000 C 
ENDROOT
BRANCH   1   2
ATOM      2  C   UNL     1      40.993  42.298  15.415  1.00  0.00     0.000 C 
BRANCH   2   3
ATOM      3  C   UNL     1      40.979  40.911  16.075  1.00  0.00     0.000 C 
BRANCH   3   4
ATOM      4  C   UNL     1      42.361  40.246  15.995  1.00  0.00     0.000 C 
BRANCH   4   5
ATOM      5  C   UNL     1      43.300  40.948  15.000  1.00  0.00     0.000 C 
BRANCH   5   6
ATOM      6  C   UNL     1      44.357  39.999  14.408  1.00  0.00     0.000 C 
BRANCH   6   7
ATOM      7  C   UNL     1      44.160  38.539  14.871  1.00  0.00     0.000 C 
BRANCH   7   8
ATOM      8  C   UNL     1      43.994  37.543  13.709  1.00  0.00     0.000 C 
BRANCH   8   9
ATOM      9  C   UNL     1      42.651  36.790  13.691  1.00  0.00     0.000 C 
BRANCH   9  10
ATOM     10  C   UNL     1      41.398  37.692  13.669  1.00  0.00     0.006 C 
BRANCH  10  11
ATOM     11  C   UNL     1      40.190  37.091  12.932  1.00  0.00     0.053 C 
BRANCH  11  12
ATOM     12  C   UNL     1      39.267  38.149  12.412  1.00  0.00     0.041 C 
ATOM     13  O   UNL     1      38.291  37.836  11.680  1.00  0.00    -0.550 OA
ATOM     14  O   UNL     1      39.468  39.479  12.759  1.00  0.00    -0.550 OA
ENDBRANCH  11  12
ENDBRANCH  10  11
ENDBRANCH   9  10
ENDBRANCH   8   9
ENDBRANCH   7   8
ENDBRANCH   6   7
ENDBRANCH   5   6
ENDBRANCH   4   5
ENDBRANCH   3   4
ENDBRANCH   2   3
ENDBRANCH   1   2
BRANCH   1  15
ATOM     15  C   UNL     1      41.188  44.788  15.968  1.00  0.00     0.000 C 
BRANCH  15  16
ATOM     16  C   UNL     1      42.665  44.719  15.551  1.00  0.00     0.000 C 
BRANCH  16  17
ATOM     17  C   UNL     1      43.621  44.868  16.747  1.00  0.00     0.000 C 
BRANCH  17  18
ATOM     18  C   UNL     1      43.616  46.283  17.348  1.00  0.00    -0.000 C 
BRANCH  18  19
ATOM     19  C   UNL     1      44.901  46.633  18.130  1.00  0.00    -0.000 C 
BRANCH  19  20
ATOM     20  C   UNL     1      44.797  46.420  19.653  1.00  0.00    -0.000 C 
BRANCH  20  21
ATOM     21  C   UNL     1      45.105  44.993  20.150  1.00  0.00    -0.000 C 
BRANCH  21  22
ATOM     22  C   UNL     1      44.351  44.588  21.435  1.00  0.00    -0.000 C 
BRANCH  22  23
ATOM     23  C   UNL     1      43.571  43.271  21.262  1.00  0.00    -0.000 C 
BRANCH  23  24
ATOM     24  C   UNL     1      43.530  42.782  19.803  1.00  0.00    -0.000 C 
BRANCH  24  25
ATOM     25  C   UNL     1      42.207  42.121  19.380  1.00  0.00    -0.003 C 
ATOM     26  C   UNL     1      42.083  40.671  19.848  1.00  0.00     0.004 C 
ENDBRANCH  24  25
ENDBRANCH  23  24
ENDBRANCH  22  23
ENDBRANCH  21  22
ENDBRANCH  20  21
ENDBRANCH  19  20
ENDBRANCH  18  19
ENDBRANCH  17  18
ENDBRANCH  16  17
ENDBRANCH  15  16
ENDBRANCH   1  15
TORSDOF 22
ENDMDL
MODEL 2
REMARK VINA RESULT:    -4.507      2.531      8.229
REMARK INTER + INTRA:         -13.208
REMARK INTER:                 -11.167
REMARK INTRA:                  -2.041
REMARK UNBOUND:                -2.905
REMARK SMILES CCCCCCCCCCCCCCCCCCCCCCCC(=O)[O-]
REMARK SMILES IDX 13 1 14 2 15 3 16 4 17 5 18 6 19 7 20 8 21 9 22 10 23 11
REMARK SMILES IDX 24 12 25 13 26 14 12 15 11 16 10 17 9 18 8 19 7 20 6 21 5 22
REMARK SMILES IDX 4 23 3 24 2 25 1 26
REMARK H PARENT
REMARK Flexibility Score: inf
ROOT
ATOM      1  C   UNL     1      41.652  40.768  18.900  1.00  0.00     0.000 C 
ENDROOT
BRANCH   1   2
ATOM      2  C   UNL     1      41.723  41.595  20.195  1.00  0.00     0.000 C 
BRANCH   2   3
ATOM      3  C   UNL     1      43.169  41.911  20.610  1.00  0.00     0.000 C 
BRANCH   3   4
ATOM      4  C   UNL     1      43.647  43.230  19.987  1.00  0.00     0.000 C 
BRANCH   4   5
ATOM      5  C   UNL     1      44.372  44.135  20.997  1.00  0.00     0.000 C 
BRANCH   5   6
ATOM      6  C   UNL     1      45.105  45.309  20.325  1.00  0.00     0.000 C 
BRANCH   6   7
ATOM      7  C   UNL     1      44.780  46.663  20.993  1.00  0.00     0.000 C 
BRANCH   7   8
ATOM      8  C   UNL     1      44.353  47.755  19.996  1.00  0.00     0.000 C 
BRANCH   8   9
ATOM      9  C   UNL     1      44.533  47.382  18.513  1.00  0.00     0.000 C 
BRANCH   9  10
ATOM     10  C   UNL     1      43.326  47.705  17.607  1.00  0.00     0.006 C 
BRANCH  10  11
ATOM     11  C   UNL     1      43.286  46.918  16.288  1.00  0.00     0.053 C 
BRANCH  11  12
ATOM     12  C   UNL     1      42.791  45.520  16.482  1.00  0.00     0.041 C 
ATOM     13  O   UNL     1      43.594  44.598  16.788  1.00  0.00    -0.550 OA
ATOM     14  O   UNL     1      41.437  45.237  16.353  1.00  0.00    -0.550 OA
ENDBRANCH  11  12
ENDBRANCH  10  11
ENDBRANCH   9  10
ENDBRANCH   8   9
ENDBRANCH   7   8
ENDBRANCH   6   7
ENDBRANCH   5   6
ENDBRANCH   4   5
ENDBRANCH   3   4
ENDBRANCH   2   3
ENDBRANCH   1   2
BRANCH   1  15
ATOM     15  C   UNL     1      41.001  41.543  17.742  1.00  0.00     0.000 C 
BRANCH  15  16
ATOM     16  C   UNL     1      40.469  40.619  16.636  1.00  0.00     0.000 C 
BRANCH  16  17
ATOM     17  C   UNL     1      40.983  41.014  15.241  1.00  0.00     0.000 C 
BRANCH  17  18
ATOM     18  C   UNL     1      42.325  41.762  15.284  1.00  0.00    -0.000 C 
BRANCH  18  19
ATOM     19  C   UNL     1      43.505  40.961  14.691  1.00  0.00    -0.000 C 
BRANCH  19  20
ATOM     20  C   UNL     1      43.449  39.446  14.970  1.00  0.00    -0.000 C 
BRANCH  20  21
ATOM     21  C   UNL     1      44.324  38.566  14.054  1.00  0.00    -0.000 C 
BRANCH  21  22
ATOM     22  C   UNL     1      43.621  37.296  13.528  1.00  0.00    -0.000 C 
BRANCH  22  23
ATOM     23  C   UNL     1      42.248  37.074  14.189  1.00  0.00    -0.000 C 
BRANCH  23  24
ATOM     24  C   UNL     1      41.084  37.097  13.182  1.00  0.00    -0.000 C 
BRANCH  24  25
ATOM     25  C   UNL     1      40.264  38.398  13.172  1.00  0.00    -0.003 C 
ATOM     26  C   UNL     1      39.073  38.351  12.216  1.00  0.00     0.004 C 
ENDBRANCH  24  25
ENDBRANCH  23  24
ENDBRANCH  22  23
ENDBRANCH  21  22
ENDBRANCH  20  21
ENDBRANCH  19  20
ENDBRANCH  18  19
ENDBRANCH  17  18
ENDBRANCH  16  17
ENDBRANCH  15  16
ENDBRANCH   1  15
TORSDOF 22
ENDMDL
MODEL 3
REMARK VINA RESULT:    -4.305      2.228      4.204
REMARK INTER + INTRA:         -12.747
REMARK INTER:                 -10.149
REMARK INTRA:                  -2.598
REMARK UNBOUND:                -2.905
REMARK SMILES CCCCCCCCCCCCCCCCCCCCCCCC(=O)[O-]
REMARK SMILES IDX 13 1 14 2 15 3 16 4 17 5 18 6 19 7 20 8 21 9 22 10 23 11
REMARK SMILES IDX 24 12 25 13 26 14 12 15 11 16 10 17 9 18 8 19 7 20 6 21 5 22
REMARK SMILES IDX 4 23 3 24 2 25 1 26
REMARK H PARENT
REMARK Flexibility Score: inf
ROOT
ATOM      1  C   UNL     1      40.494  42.471  17.021  1.00  0.00     0.000 C 
ENDROOT
BRANCH   1   2
ATOM      2  C   UNL     1      41.648  42.115  17.972  1.00  0.00     0.000 C 
BRANCH   2   3
ATOM      3  C   UNL     1      42.160  40.681  17.763  1.00  0.00     0.000 C 
BRANCH   3   4
ATOM      4  C   UNL     1      42.017  40.252  16.295  1.00  0.00     0.000 C 
BRANCH   4   5
ATOM      5  C   UNL     1      43.230  40.653  15.439  1.00  0.00     0.000 C 
BRANCH   5   6
ATOM      6  C   UNL     1      44.098  39.449  15.036  1.00  0.00     0.000 C 
BRANCH   6   7
ATOM      7  C   UNL     1      43.758  38.926  13.623  1.00  0.00     0.000 C 
BRANCH   7   8
ATOM      8  C   UNL     1      43.655  37.393  13.542  1.00  0.00     0.000 C 
BRANCH   8   9
ATOM      9  C   UNL     1      42.297  36.813  13.979  1.00  0.00     0.000 C 
BRANCH   9  10
ATOM     10  C   UNL     1      41.071  37.678  13.617  1.00  0.00     0.006 C 
BRANCH  10  11
ATOM     11  C   UNL     1      40.060  36.996  12.683  1.00  0.00     0.053 C 
BRANCH  11  12
ATOM     12  C   UNL     1      39.066  37.967  12.126  1.00  0.00     0.041 C 
ATOM     13  O   UNL     1      39.310  39.202  12.138  1.00  0.00    -0.550 OA
ATOM     14  O   UNL     1      37.880  37.505  11.568  1.00  0.00    -0.550 OA
ENDBRANCH  11  12
ENDBRANCH  10  11
ENDBRANCH   9  10
ENDBRANCH   8   9
ENDBRANCH   7   8
ENDBRANCH   6   7
ENDBRANCH   5   6
ENDBRANCH   4   5
ENDBRANCH   3   4
ENDBRANCH   2   3
ENDBRANCH   1   2
BRANCH   1  15
ATOM     15  C   UNL     1      40.702  43.829  16.326  1.00  0.00     0.000 C 
BRANCH  15  16
ATOM     16  C   UNL     1      42.184  44.145  16.076  1.00  0.00     0.000 C 
BRANCH  16  17
ATOM     17  C   UNL     1      42.589  43.943  14.606  1.00  0.00     0.000 C 
BRANCH  17  18
ATOM     18  C   UNL     1      44.013  44.437  14.302  1.00  0.00    -0.000 C 
BRANCH  18  19
ATOM     19  C   UNL     1      44.495  45.567  15.238  1.00  0.00    -0.000 C 
BRANCH  19  20
ATOM     20  C   UNL     1      44.421  46.978  14.623  1.00  0.00    -0.000 C 
BRANCH  20  21
ATOM     21  C   UNL     1      43.013  47.606  14.561  1.00  0.00    -0.000 C 
BRANCH  21  22
ATOM     22  C   UNL     1      42.239  47.569  15.896  1.00  0.00    -0.000 C 
BRANCH  22  23
ATOM     23  C   UNL     1      40.770  48.003  15.731  1.00  0.00    -0.000 C 
BRANCH  23  24
ATOM     24  C   UNL     1      40.021  47.197  14.655  1.00  0.00    -0.000 C 
BRANCH  24  25
ATOM     25  C   UNL     1      38.510  47.472  14.576  1.00  0.00    -0.003 C 
ATOM     26  C   UNL     1      37.921  47.202  13.193  1.00  0.00     0.004 C 
ENDBRANCH  24  25
ENDBRANCH  23  24
ENDBRANCH  22  23
ENDBRANCH  21  22
ENDBRANCH  20  21
ENDBRANCH  19  20
ENDBRANCH  18  19
ENDBRANCH  17  18
ENDBRANCH  16  17
ENDBRANCH  15  16
ENDBRANCH   1  15
TORSDOF 22
ENDMDL
MODEL 4
REMARK VINA RESULT:    -4.294      2.903      6.862
REMARK INTER + INTRA:         -12.722
REMARK INTER:                  -9.992
REMARK INTRA:                  -2.731
REMARK UNBOUND:                -2.905
REMARK SMILES CCCCCCCCCCCCCCCCCCCCCCCC(=O)[O-]
REMARK SMILES IDX 13 1 14 2 15 3 16 4 17 5 18 6 19 7 20 8 21 9 22 10 23 11
REMARK SMILES IDX 24 12 25 13 26 14 12 15 11 16 10 17 9 18 8 19 7 20 6 21 5 22
REMARK SMILES IDX 4 23 3 24 2 25 1 26
REMARK H PARENT
REMARK Flexibility Score: inf
ROOT
ATOM      1  C   UNL     1      43.926  38.359  13.555  1.00  0.00     0.000 C 
ENDROOT
BRANCH   1   2
ATOM      2  C   UNL     1      44.803  39.028  14.626  1.00  0.00     0.000 C 
BRANCH   2   3
ATOM      3  C   UNL     1      44.113  40.236  15.280  1.00  0.00     0.000 C 
BRANCH   3   4
ATOM      4  C   UNL     1      43.865  41.352  14.255  1.00  0.00     0.000 C 
BRANCH   4   5
ATOM      5  C   UNL     1      43.387  42.660  14.907  1.00  0.00     0.000 C 
BRANCH   5   6
ATOM      6  C   UNL     1      43.585  43.885  13.998  1.00  0.00     0.000 C 
BRANCH   6   7
ATOM      7  C   UNL     1      44.221  45.076  14.748  1.00  0.00     0.000 C 
BRANCH   7   8
ATOM      8  C   UNL     1      43.794  45.173  16.223  1.00  0.00     0.000 C 
BRANCH   8   9
ATOM      9  C   UNL     1      43.892  46.584  16.833  1.00  0.00     0.000 C 
BRANCH   9  10
ATOM     10  C   UNL     1      42.609  47.434  16.720  1.00  0.00     0.006 C 
BRANCH  10  11
ATOM     11  C   UNL     1      41.364  46.657  16.263  1.00  0.00     0.053 C 
BRANCH  11  12
ATOM     12  C   UNL     1      40.799  47.200  14.988  1.00  0.00     0.041 C 
ATOM     13  O   UNL     1      39.599  47.583  14.938  1.00  0.00    -0.550 OA
ATOM     14  O   UNL     1      41.604  47.311  13.862  1.00  0.00    -0.550 OA
ENDBRANCH  11  12
ENDBRANCH  10  11
ENDBRANCH   9  10
ENDBRANCH   8   9
ENDBRANCH   7   8
ENDBRANCH   6   7
ENDBRANCH   5   6
ENDBRANCH   4   5
ENDBRANCH   3   4
ENDBRANCH   2   3
ENDBRANCH   1   2
BRANCH   1  15
ATOM     15  C   UNL     1      42.606  37.815  14.131  1.00  0.00     0.000 C 
BRANCH  15  16
ATOM     16  C   UNL     1      41.419  38.007  13.175  1.00  0.00     0.000 C 
BRANCH  16  17
ATOM     17  C   UNL     1      40.240  38.739  13.840  1.00  0.00     0.000 C 
BRANCH  17  18
ATOM     18  C   UNL     1      40.622  40.127  14.380  1.00  0.00    -0.000 C 
BRANCH  18  19
ATOM     19  C   UNL     1      40.621  40.218  15.921  1.00  0.00    -0.000 C 
BRANCH  19  20
ATOM     20  C   UNL     1      40.621  41.658  16.473  1.00  0.00    -0.000 C 
BRANCH  20  21
ATOM     21  C   UNL     1      41.056  41.808  17.946  1.00  0.00    -0.000 C 
BRANCH  21  22
ATOM     22  C   UNL     1      41.511  40.492  18.613  1.00  0.00    -0.000 C 
BRANCH  22  23
ATOM     23  C   UNL     1      42.110  40.725  20.014  1.00  0.00    -0.000 C 
BRANCH  23  24
ATOM     24  C   UNL     1      41.939  42.172  20.508  1.00  0.00    -0.000 C 
BRANCH  24  25
ATOM     25  C   UNL     1      43.231  42.844  21.002  1.00  0.00    -0.003 C 
ATOM     26  C   UNL     1      44.008  43.546  19.889  1.00  0.00     0.004 C 
ENDBRANCH  24  25
ENDBRANCH  23  24
ENDBRANCH  22  23
ENDBRANCH  21  22
ENDBRANCH  20  21
ENDBRANCH  19  20
ENDBRANCH  18  19
ENDBRANCH  17  18
ENDBRANCH  16  17
ENDBRANCH  15  16
ENDBRANCH   1  15
TORSDOF 22
ENDMDL
MODEL 5
REMARK VINA RESULT:    -4.246     11.764     17.147
REMARK INTER + INTRA:         -12.611
REMARK INTER:                 -10.464
REMARK INTRA:                  -2.148
REMARK UNBOUND:                -2.905
REMARK SMILES CCCCCCCCCCCCCCCCCCCCCCCC(=O)[O-]
REMARK SMILES IDX 13 1 14 2 15 3 16 4 17 5 18 6 19 7 20 8 21 9 22 10 23 11
REMARK SMILES IDX 24 12 25 13 26 14 12 15 11 16 10 17 9 18 8 19 7 20 6 21 5 22
REMARK SMILES IDX 4 23 3 24 2 25 1 26
REMARK H PARENT
REMARK Flexibility Score: inf
ROOT
ATOM      1  C   UNL     1      33.411  30.689  12.373  1.00  0.00     0.000 C 
ENDROOT
BRANCH   1   2
ATOM      2  C   UNL     1      34.064  32.024  12.767  1.00  0.00     0.000 C 
BRANCH   2   3
ATOM      3  C   UNL     1      35.252  31.836  13.723  1.00  0.00     0.000 C 
BRANCH   3   4
ATOM      4  C   UNL     1      35.508  30.348  14.001  1.00  0.00     0.000 C 
BRANCH   4   5
ATOM      5  C   UNL     1      36.786  30.109  14.822  1.00  0.00     0.000 C 
BRANCH   5   6
ATOM      6  C   UNL     1      38.015  30.821  14.231  1.00  0.00     0.000 C 
BRANCH   6   7
ATOM      7  C   UNL     1      38.984  29.839  13.536  1.00  0.00     0.000 C 
BRANCH   7   8
ATOM      8  C   UNL     1      39.912  29.095  14.513  1.00  0.00     0.000 C 
BRANCH   8   9
ATOM      9  C   UNL     1      41.110  29.919  15.020  1.00  0.00     0.000 C 
BRANCH   9  10
ATOM     10  C   UNL     1      41.052  30.303  16.514  1.00  0.00     0.006 C 
BRANCH  10  11
ATOM     11  C   UNL     1      42.342  30.932  17.064  1.00  0.00     0.053 C 
BRANCH  11  12
ATOM     12  C   UNL     1      43.041  30.026  18.029  1.00  0.00     0.041 C 
ATOM     13  O   UNL     1      42.436  29.039  18.526  1.00  0.00    -0.550 OA
ATOM     14  O   UNL     1      44.371  30.254  18.359  1.00  0.00    -0.550 OA
ENDBRANCH  11  12
ENDBRANCH  10  11
ENDBRANCH   9  10
ENDBRANCH   8   9
ENDBRANCH   7   8
ENDBRANCH   6   7
ENDBRANCH   5   6
ENDBRANCH   4   5
ENDBRANCH   3   4
ENDBRANCH   2   3
ENDBRANCH   1   2
BRANCH   1  15
ATOM     15  C   UNL     1      32.427  30.839  11.198  1.00  0.00     0.000 C 
BRANCH  15  16
ATOM     16  C   UNL     1      31.307  29.788  11.226  1.00  0.00     0.000 C 
BRANCH  16  17
ATOM     17  C   UNL     1      30.601  29.646   9.867  1.00  0.00     0.000 C 
BRANCH  17  18
ATOM     18  C   UNL     1      29.134  30.104   9.901  1.00  0.00    -0.000 C 
BRANCH  18  19
ATOM     19  C   UNL     1      28.401  29.949   8.550  1.00  0.00    -0.000 C 
BRANCH  19  20
ATOM     20  C   UNL     1      29.163  29.110   7.505  1.00  0.00    -0.000 C 
BRANCH  20  21
ATOM     21  C   UNL     1      29.739  29.896   6.309  1.00  0.00    -0.000 C 
BRANCH  21  22
ATOM     22  C   UNL     1      28.884  31.104   5.870  1.00  0.00    -0.000 C 
BRANCH  22  23
ATOM     23  C   UNL     1      29.632  32.440   6.040  1.00  0.00    -0.000 C 
BRANCH  23  24
ATOM     24  C   UNL     1      30.963  32.293   6.798  1.00  0.00    -0.000 C 
BRANCH  24  25
ATOM     25  C   UNL     1      31.019  33.018   8.153  1.00  0.00    -0.003 C 
ATOM     26  C   UNL     1      29.653  33.509   8.629  1.00  0.00     0.004 C 
ENDBRANCH  24  25
ENDBRANCH  23  24
ENDBRANCH  22  23
ENDBRANCH  21  22
ENDBRANCH  20  21
ENDBRANCH  19  20
ENDBRANCH  18  19
ENDBRANCH  17  18
ENDBRANCH  16  17
ENDBRANCH  15  16
ENDBRANCH   1  15
TORSDOF 22
ENDMDL
MODEL 6
REMARK VINA RESULT:    -4.218      3.241      6.644
REMARK INTER + INTRA:         -12.548
REMARK INTER:                 -10.268
REMARK INTRA:                  -2.280
REMARK UNBOUND:                -2.905
REMARK SMILES CCCCCCCCCCCCCCCCCCCCCCCC(=O)[O-]
REMARK SMILES IDX 13 1 14 2 15 3 16 4 17 5 18 6 19 7 20 8 21 9 22 10 23 11
REMARK SMILES IDX 24 12 25 13 26 14 12 15 11 16 10 17 9 18 8 19 7 20 6 21 5 22
REMARK SMILES IDX 4 23 3 24 2 25 1 26
REMARK H PARENT
REMARK Flexibility Score: inf
ROOT
ATOM      1  C   UNL     1      44.690  38.364  14.368  1.00  0.00     0.000 C 
ENDROOT
BRANCH   1   2
ATOM      2  C   UNL     1      43.590  38.017  13.352  1.00  0.00     0.000 C 
BRANCH   2   3
ATOM      3  C   UNL     1      42.724  36.831  13.807  1.00  0.00     0.000 C 
BRANCH   3   4
ATOM      4  C   UNL     1      41.234  37.202  13.805  1.00  0.00     0.000 C 
BRANCH   4   5
ATOM      5  C   UNL     1      40.945  38.494  13.024  1.00  0.00     0.000 C 
BRANCH   5   6
ATOM      6  C   UNL     1      40.227  39.556  13.874  1.00  0.00     0.000 C 
BRANCH   6   7
ATOM      7  C   UNL     1      40.867  39.722  15.270  1.00  0.00     0.000 C 
BRANCH   7   8
ATOM      8  C   UNL     1      40.433  41.008  15.997  1.00  0.00     0.000 C 
BRANCH   8   9
ATOM      9  C   UNL     1      40.504  40.937  17.533  1.00  0.00     0.000 C 
BRANCH   9  10
ATOM     10  C   UNL     1      41.900  40.614  18.107  1.00  0.00     0.006 C 
BRANCH  10  11
ATOM     11  C   UNL     1      42.694  41.840  18.586  1.00  0.00     0.053 C 
BRANCH  11  12
ATOM     12  C   UNL     1      42.469  42.123  20.038  1.00  0.00     0.041 C 
ATOM     13  O   UNL     1      41.475  41.630  20.635  1.00  0.00    -0.550 OA
ATOM     14  O   UNL     1      43.371  42.911  20.742  1.00  0.00    -0.550 OA
ENDBRANCH  11  12
ENDBRANCH  10  11
ENDBRANCH   9  10
ENDBRANCH   8   9
ENDBRANCH   7   8
ENDBRANCH   6   7
ENDBRANCH   5   6
ENDBRANCH   4   5
ENDBRANCH   3   4
ENDBRANCH   2   3
ENDBRANCH   1   2
BRANCH   1  15
ATOM     15  C   UNL     1      45.021  39.867  14.387  1.00  0.00     0.000 C 
BRANCH  15  16
ATOM     16  C   UNL     1      43.928  40.706  15.066  1.00  0.00     0.000 C 
BRANCH  16  17
ATOM     17  C   UNL     1      43.569  41.968  14.263  1.00  0.00     0.000 C 
BRANCH  17  18
ATOM     18  C   UNL     1      43.201  43.164  15.156  1.00  0.00    -0.000 C 
BRANCH  18  19
ATOM     19  C   UNL     1      43.515  44.536  14.521  1.00  0.00    -0.000 C 
BRANCH  19  20
ATOM     20  C   UNL     1      43.743  45.671  15.540  1.00  0.00    -0.000 C 
BRANCH  20  21
ATOM     21  C   UNL     1      42.842  46.911  15.370  1.00  0.00    -0.000 C 
BRANCH  21  22
ATOM     22  C   UNL     1      42.333  47.137  13.930  1.00  0.00    -0.000 C 
BRANCH  22  23
ATOM     23  C   UNL     1      41.115  48.080  13.883  1.00  0.00    -0.000 C 
BRANCH  23  24
ATOM     24  C   UNL     1      39.873  47.493  14.577  1.00  0.00    -0.000 C 
BRANCH  24  25
ATOM     25  C   UNL     1      38.533  48.093  14.119  1.00  0.00    -0.003 C 
ATOM     26  C   UNL     1      37.650  47.095  13.372  1.00  0.00     0.004 C 
ENDBRANCH  24  25
ENDBRANCH  23  24
ENDBRANCH  22  23
ENDBRANCH  21  22
ENDBRANCH  20  21
ENDBRANCH  19  20
ENDBRANCH  18  19
ENDBRANCH  17  18
ENDBRANCH  16  17
ENDBRANCH  15  16
ENDBRANCH   1  15
TORSDOF 22
ENDMDL
MODEL 7
REMARK VINA RESULT:    -4.202      1.703      3.842
REMARK INTER + INTRA:         -12.511
REMARK INTER:                  -9.723
REMARK INTRA:                  -2.788
REMARK UNBOUND:                -2.905
REMARK SMILES CCCCCCCCCCCCCCCCCCCCCCCC(=O)[O-]
REMARK SMILES IDX 13 1 14 2 15 3 16 4 17 5 18 6 19 7 20 8 21 9 22 10 23 11
REMARK SMILES IDX 24 12 25 13 26 14 12 15 11 16 10 17 9 18 8 19 7 20 6 21 5 22
REMARK SMILES IDX 4 23 3 24 2 25 1 26
REMARK H PARENT
REMARK Flexibility Score: inf
ROOT
ATOM      1  C   UNL     1      40.251  40.840  17.584  1.00  0.00     0.000 C 
ENDROOT
BRANCH   1   2
ATOM      2  C   UNL     1      41.043  40.438  16.328  1.00  0.00     0.000 C 
BRANCH   2   3
ATOM      3  C   UNL     1      41.306  41.629  15.394  1.00  0.00     0.000 C 
BRANCH   3   4
ATOM      4  C   UNL     1      42.624  41.450  14.627  1.00  0.00     0.000 C 
BRANCH   4   5
ATOM      5  C   UNL     1      43.514  40.349  15.227  1.00  0.00     0.000 C 
BRANCH   5   6
ATOM      6  C   UNL     1      44.698  39.979  14.317  1.00  0.00     0.000 C 
BRANCH   6   7
ATOM      7  C   UNL     1      44.787  38.459  14.058  1.00  0.00     0.000 C 
BRANCH   7   8
ATOM      8  C   UNL     1      43.713  37.936  13.086  1.00  0.00     0.000 C 
BRANCH   8   9
ATOM      9  C   UNL     1      42.763  36.881  13.681  1.00  0.00     0.000 C 
BRANCH   9  10
ATOM     10  C   UNL     1      41.381  37.417  14.112  1.00  0.00     0.006 C 
BRANCH  10  11
ATOM     11  C   UNL     1      40.226  37.038  13.171  1.00  0.00     0.053 C 
BRANCH  11  12
ATOM     12  C   UNL     1      39.525  38.243  12.628  1.00  0.00     0.041 C 
ATOM     13  O   UNL     1      38.683  38.123  11.699  1.00  0.00    -0.550 OA
ATOM     14  O   UNL     1      39.780  39.498  13.167  1.00  0.00    -0.550 OA
ENDBRANCH  11  12
ENDBRANCH  10  11
ENDBRANCH   9  10
ENDBRANCH   8   9
ENDBRANCH   7   8
ENDBRANCH   6   7
ENDBRANCH   5   6
ENDBRANCH   4   5
ENDBRANCH   3   4
ENDBRANCH   2   3
ENDBRANCH   1   2
BRANCH   1  15
ATOM     15  C   UNL     1      40.883  42.034  18.321  1.00  0.00     0.000 C 
BRANCH  15  16
ATOM     16  C   UNL     1      42.305  41.736  18.820  1.00  0.00     0.000 C 
BRANCH  16  17
ATOM     17  C   UNL     1      43.372  42.571  18.093  1.00  0.00     0.000 C 
BRANCH  17  18
ATOM     18  C   UNL     1      42.859  43.953  17.655  1.00  0.00    -0.000 C 
BRANCH  18  19
ATOM     19  C   UNL     1      43.607  44.539  16.438  1.00  0.00    -0.000 C 
BRANCH  19  20
ATOM     20  C   UNL     1      44.585  45.680  16.781  1.00  0.00    -0.000 C 
BRANCH  20  21
ATOM     21  C   UNL     1      44.487  46.934  15.888  1.00  0.00    -0.000 C 
BRANCH  21  22
ATOM     22  C   UNL     1      43.490  47.999  16.391  1.00  0.00    -0.000 C 
BRANCH  22  23
ATOM     23  C   UNL     1      42.258  48.125  15.475  1.00  0.00    -0.000 C 
BRANCH  23  24
ATOM     24  C   UNL     1      41.120  47.163  15.861  1.00  0.00    -0.000 C 
BRANCH  24  25
ATOM     25  C   UNL     1      40.166  46.797  14.712  1.00  0.00    -0.003 C 
ATOM     26  C   UNL     1      39.301  47.969  14.251  1.00  0.00     0.004 C 
ENDBRANCH  24  25
ENDBRANCH  23  24
ENDBRANCH  22  23
ENDBRANCH  21  22
ENDBRANCH  20  21
ENDBRANCH  19  20
ENDBRANCH  18  19
ENDBRANCH  17  18
ENDBRANCH  16  17
ENDBRANCH  15  16
ENDBRANCH   1  15
TORSDOF 22
ENDMDL
MODEL 8
REMARK VINA RESULT:    -4.103     11.994     14.926
REMARK INTER + INTRA:         -12.285
REMARK INTER:                 -10.711
REMARK INTRA:                  -1.574
REMARK UNBOUND:                -2.905
REMARK SMILES CCCCCCCCCCCCCCCCCCCCCCCC(=O)[O-]
REMARK SMILES IDX 13 1 14 2 15 3 16 4 17 5 18 6 19 7 20 8 21 9 22 10 23 11
REMARK SMILES IDX 24 12 25 13 26 14 12 15 11 16 10 17 9 18 8 19 7 20 6 21 5 22
REMARK SMILES IDX 4 23 3 24 2 25 1 26
REMARK H PARENT
REMARK Flexibility Score: inf
ROOT
ATOM      1  C   UNL     1      35.141  30.491  14.354  1.00  0.00     0.000 C 
ENDROOT
BRANCH   1   2
ATOM      2  C   UNL     1      34.267  30.130  13.140  1.00  0.00     0.000 C 
BRANCH   2   3
ATOM      3  C   UNL     1      33.658  31.369  12.467  1.00  0.00     0.000 C 
BRANCH   3   4
ATOM      4  C   UNL     1      32.696  30.969  11.338  1.00  0.00     0.000 C 
BRANCH   4   5
ATOM      5  C   UNL     1      31.849  29.735  11.692  1.00  0.00     0.000 C 
BRANCH   5   6
ATOM      6  C   UNL     1      30.543  29.658  10.881  1.00  0.00     0.000 C 
BRANCH   6   7
ATOM      7  C   UNL     1      30.450  30.769   9.812  1.00  0.00     0.000 C 
BRANCH   7   8
ATOM      8  C   UNL     1      29.010  31.238   9.537  1.00  0.00     0.000 C 
BRANCH   8   9
ATOM      9  C   UNL     1      28.894  32.654   8.944  1.00  0.00     0.000 C 
BRANCH   9  10
ATOM     10  C   UNL     1      30.100  33.107   8.094  1.00  0.00     0.006 C 
BRANCH  10  11
ATOM     11  C   UNL     1      29.871  33.045   6.575  1.00  0.00     0.053 C 
BRANCH  11  12
ATOM     12  C   UNL     1      30.568  31.878   5.949  1.00  0.00     0.041 C 
ATOM     13  O   UNL     1      30.149  30.707   6.148  1.00  0.00    -0.550 OA
ATOM     14  O   UNL     1      31.665  32.085   5.122  1.00  0.00    -0.550 OA
ENDBRANCH  11  12
ENDBRANCH  10  11
ENDBRANCH   9  10
ENDBRANCH   8   9
ENDBRANCH   7   8
ENDBRANCH   6   7
ENDBRANCH   5   6
ENDBRANCH   4   5
ENDBRANCH   3   4
ENDBRANCH   2   3
ENDBRANCH   1   2
BRANCH   1  15
ATOM     15  C   UNL     1      35.817  31.865  14.203  1.00  0.00     0.000 C 
BRANCH  15  16
ATOM     16  C   UNL     1      37.350  31.776  14.222  1.00  0.00     0.000 C 
BRANCH  16  17
ATOM     17  C   UNL     1      37.854  30.355  14.529  1.00  0.00     0.000 C 
BRANCH  17  18
ATOM     18  C   UNL     1      38.993  29.907  13.600  1.00  0.00    -0.000 C 
BRANCH  18  19
ATOM     19  C   UNL     1      39.671  28.589  14.035  1.00  0.00    -0.000 C 
BRANCH  19  20
ATOM     20  C   UNL     1      41.156  28.735  14.422  1.00  0.00    -0.000 C 
BRANCH  20  21
ATOM     21  C   UNL     1      41.557  30.095  15.031  1.00  0.00    -0.000 C 
BRANCH  21  22
ATOM     22  C   UNL     1      41.260  30.230  16.540  1.00  0.00    -0.000 C 
BRANCH  22  23
ATOM     23  C   UNL     1      42.543  30.410  17.373  1.00  0.00    -0.000 C 
BRANCH  23  24
ATOM     24  C   UNL     1      43.188  29.073  17.781  1.00  0.00    -0.000 C 
BRANCH  24  25
ATOM     25  C   UNL     1      43.291  28.842  19.298  1.00  0.00    -0.003 C 
ATOM     26  C   UNL     1      44.373  29.690  19.964  1.00  0.00     0.004 C 
ENDBRANCH  24  25
ENDBRANCH  23  24
ENDBRANCH  22  23
ENDBRANCH  21  22
ENDBRANCH  20  21
ENDBRANCH  19  20
ENDBRANCH  18  19
ENDBRANCH  17  18
ENDBRANCH  16  17
ENDBRANCH  15  16
ENDBRANCH   1  15
TORSDOF 22
ENDMDL
MODEL 9
REMARK VINA RESULT:    -4.065     11.789     15.318
REMARK INTER + INTRA:         -12.197
REMARK INTER:                 -10.582
REMARK INTRA:                  -1.615
REMARK UNBOUND:                -2.905
REMARK SMILES CCCCCCCCCCCCCCCCCCCCCCCC(=O)[O-]
REMARK SMILES IDX 13 1 14 2 15 3 16 4 17 5 18 6 19 7 20 8 21 9 22 10 23 11
REMARK SMILES IDX 24 12 25 13 26 14 12 15 11 16 10 17 9 18 8 19 7 20 6 21 5 22
REMARK SMILES IDX 4 23 3 24 2 25 1 26
REMARK H PARENT
REMARK Flexibility Score: inf
ROOT
ATOM      1  C   UNL     1      33.287  31.099  11.707  1.00  0.00     0.000 C 
ENDROOT
BRANCH   1   2
ATOM      2  C   UNL     1      32.113  30.105  11.682  1.00  0.00     0.000 C 
BRANCH   2   3
ATOM      3  C   UNL     1      31.265  30.231  10.407  1.00  0.00     0.000 C 
BRANCH   3   4
ATOM      4  C   UNL     1      31.961  31.117   9.364  1.00  0.00     0.000 C 
BRANCH   4   5
ATOM      5  C   UNL     1      31.005  31.598   8.260  1.00  0.00     0.000 C 
BRANCH   5   6
ATOM      6  C   UNL     1      30.852  33.129   8.231  1.00  0.00     0.000 C 
BRANCH   6   7
ATOM      7  C   UNL     1      29.397  33.579   8.487  1.00  0.00     0.000 C 
BRANCH   7   8
ATOM      8  C   UNL     1      28.584  32.580   9.331  1.00  0.00     0.000 C 
BRANCH   8   9
ATOM      9  C   UNL     1      27.604  33.225  10.327  1.00  0.00     0.000 C 
BRANCH   9  10
ATOM     10  C   UNL     1      27.045  32.270  11.403  1.00  0.00     0.006 C 
BRANCH  10  11
ATOM     11  C   UNL     1      27.786  30.929  11.517  1.00  0.00     0.053 C 
BRANCH  11  12
ATOM     12  C   UNL     1      28.402  30.739  12.867  1.00  0.00     0.041 C 
ATOM     13  O   UNL     1      28.967  29.653  13.161  1.00  0.00    -0.550 OA
ATOM     14  O   UNL     1      28.376  31.774  13.795  1.00  0.00    -0.550 OA
ENDBRANCH  11  12
ENDBRANCH  10  11
ENDBRANCH   9  10
ENDBRANCH   8   9
ENDBRANCH   7   8
ENDBRANCH   6   7
ENDBRANCH   5   6
ENDBRANCH   4   5
ENDBRANCH   3   4
ENDBRANCH   2   3
ENDBRANCH   1   2
BRANCH   1  15
ATOM     15  C   UNL     1      34.221  30.877  12.909  1.00  0.00     0.000 C 
BRANCH  15  16
ATOM     16  C   UNL     1      34.732  32.193  13.514  1.00  0.00     0.000 C 
BRANCH  16  17
ATOM     17  C   UNL     1      36.031  32.007  14.316  1.00  0.00     0.000 C 
BRANCH  17  18
ATOM     18  C   UNL     1      37.130  31.283  13.522  1.00  0.00    -0.000 C 
BRANCH  18  19
ATOM     19  C   UNL     1      37.728  30.063  14.256  1.00  0.00    -0.000 C 
BRANCH  19  20
ATOM     20  C   UNL     1      39.077  30.336  14.950  1.00  0.00    -0.000 C 
BRANCH  20  21
ATOM     21  C   UNL     1      40.306  29.655  14.311  1.00  0.00    -0.000 C 
BRANCH  21  22
ATOM     22  C   UNL     1      41.502  29.470  15.270  1.00  0.00    -0.000 C 
BRANCH  22  23
ATOM     23  C   UNL     1      41.338  30.279  16.570  1.00  0.00    -0.000 C 
BRANCH  23  24
ATOM     24  C   UNL     1      42.648  30.939  17.038  1.00  0.00    -0.000 C 
BRANCH  24  25
ATOM     25  C   UNL     1      43.600  30.010  17.810  1.00  0.00    -0.003 C 
ATOM     26  C   UNL     1      42.869  28.979  18.669  1.00  0.00     0.004 C 
ENDBRANCH  24  25
ENDBRANCH  23  24
ENDBRANCH  22  23
ENDBRANCH  21  22
ENDBRANCH  20  21
ENDBRANCH  19  20
ENDBRANCH  18  19
ENDBRANCH  17  18
ENDBRANCH  16  17
ENDBRANCH  15  16
ENDBRANCH   1  15
TORSDOF 22
ENDMDL
