MODEL 1
REMARK VINA RESULT:    -3.436      0.000      0.000
REMARK INTER + INTRA:          -4.644
REMARK INTER:                  -4.441
REMARK INTRA:                  -0.203
REMARK UNBOUND:                -0.203
REMARK SMILES CCCCCCC(C)=O
REMARK SMILES IDX 4 1 3 2 2 3 1 4 5 5 6 6 7 7 9 8 8 9
REMARK H PARENT
REMARK Flexibility Score: inf
ROOT
ATOM      1  C   UNL     1     167.478 166.749 166.670  1.00  0.00     0.000 C 
ENDROOT
BRANCH   1   2
ATOM      2  C   UNL     1     168.036 166.886 165.237  1.00  0.00    -0.000 C 
BRANCH   2   3
ATOM      3  C   UNL     1     169.553 166.650 165.142  1.00  0.00    -0.003 C 
ATOM      4  C   UNL     1     170.302 167.055 166.411  1.00  0.00     0.004 C 
ENDBRANCH   2   3
ENDBRANCH   1   2
BRANCH   1   5
ATOM      5  C   UNL     1     165.981 166.392 166.679  1.00  0.00     0.008 C 
BRANCH   5   6
ATOM      6  C   UNL     1     165.557 165.643 165.408  1.00  0.00     0.075 C 
BRANCH   6   7
ATOM      7  C   UNL     1     164.723 164.430 165.720  1.00  0.00     0.129 C 
ATOM      8  O   UNL     1     165.074 163.662 166.605  1.00  0.00    -0.300 OA
ATOM      9  C   UNL     1     163.451 164.171 164.971  1.00  0.00     0.087 C 
ENDBRANCH   6   7
ENDBRANCH   5   6
ENDBRANCH   1   5
TORSDOF 5
ENDMDL
MODEL 2
REMARK VINA RESULT:    -3.398      1.806      5.000
REMARK INTER + INTRA:          -4.593
REMARK INTER:                  -4.353
REMARK INTRA:                  -0.241
REMARK UNBOUND:                -0.203
REMARK SMILES CCCCCCC(C)=O
REMARK SMILES IDX 4 1 3 2 2 3 1 4 5 5 6 6 7 7 9 8 8 9
REMARK H PARENT
REMARK Flexibility Score: inf
ROOT
ATOM      1  C   UNL     1     165.282 165.014 166.746  1.00  0.00     0.000 C 
ENDROOT
BRANCH   1   2
ATOM      2  C   UNL     1     164.810 164.807 165.291  1.00  0.00    -0.000 C 
BRANCH   2   3
ATOM      3  C   UNL     1     163.707 163.745 165.147  1.00  0.00    -0.003 C 
ATOM      4  C   UNL     1     162.341 164.234 165.623  1.00  0.00     0.004 C 
ENDBRANCH   2   3
ENDBRANCH   1   2
BRANCH   1   5
ATOM      5  C   UNL     1     165.759 166.455 167.004  1.00  0.00     0.008 C 
BRANCH   5   6
ATOM      6  C   UNL     1     167.289 166.564 167.017  1.00  0.00     0.075 C 
BRANCH   6   7
ATOM      7  C   UNL     1     167.828 167.111 165.722  1.00  0.00     0.129 C 
ATOM      8  O   UNL     1     167.129 167.841 165.034  1.00  0.00    -0.300 OA
ATOM      9  C   UNL     1     169.225 166.789 165.285  1.00  0.00     0.087 C 
ENDBRANCH   6   7
ENDBRANCH   5   6
ENDBRANCH   1   5
TORSDOF 5
ENDMDL
MODEL 3
REMARK VINA RESULT:    -3.336      2.306      5.587
REMARK INTER + INTRA:          -4.514
REMARK INTER:                  -4.321
REMARK INTRA:                  -0.194
REMARK UNBOUND:                -0.203
REMARK SMILES CCCCCCC(C)=O
REMARK SMILES IDX 4 1 3 2 2 3 1 4 5 5 6 6 7 7 9 8 8 9
REMARK H PARENT
REMARK Flexibility Score: inf
ROOT
ATOM      1  C   UNL     1     163.787 164.544 166.404  1.00  0.00     0.000 C 
ENDROOT
BRANCH   1   2
ATOM      2  C   UNL     1     162.887 164.090 165.235  1.00  0.00    -0.000 C 
BRANCH   2   3
ATOM      3  C   UNL     1     161.427 164.558 165.364  1.00  0.00    -0.003 C 
ATOM      4  C   UNL     1     160.789 164.165 166.696  1.00  0.00     0.004 C 
ENDBRANCH   2   3
ENDBRANCH   1   2
BRANCH   1   5
ATOM      5  C   UNL     1     165.270 164.618 166.001  1.00  0.00     0.008 C 
BRANCH   5   6
ATOM      6  C   UNL     1     165.572 165.843 165.128  1.00  0.00     0.075 C 
BRANCH   6   7
ATOM      7  C   UNL     1     166.301 166.915 165.892  1.00  0.00     0.129 C 
ATOM      8  O   UNL     1     166.191 168.085 165.553  1.00  0.00    -0.300 OA
ATOM      9  C   UNL     1     167.141 166.561 167.082  1.00  0.00     0.087 C 
ENDBRANCH   6   7
ENDBRANCH   5   6
ENDBRANCH   1   5
TORSDOF 5
ENDMDL
MODEL 4
REMARK VINA RESULT:    -3.307      2.510      4.837
REMARK INTER + INTRA:          -4.477
REMARK INTER:                  -4.233
REMARK INTRA:                  -0.243
REMARK UNBOUND:                -0.203
REMARK SMILES CCCCCCC(C)=O
REMARK SMILES IDX 4 1 3 2 2 3 1 4 5 5 6 6 7 7 9 8 8 9
REMARK H PARENT
REMARK Flexibility Score: inf
ROOT
ATOM      1  C   UNL     1     164.967 165.146 166.634  1.00  0.00     0.000 C 
ENDROOT
BRANCH   1   2
ATOM      2  C   UNL     1     165.096 164.395 165.292  1.00  0.00    -0.000 C 
BRANCH   2   3
ATOM      3  C   UNL     1     163.857 163.556 164.934  1.00  0.00    -0.003 C 
ATOM      4  C   UNL     1     162.543 164.256 165.278  1.00  0.00     0.004 C 
ENDBRANCH   2   3
ENDBRANCH   1   2
BRANCH   1   5
ATOM      5  C   UNL     1     166.251 165.914 166.996  1.00  0.00     0.008 C 
BRANCH   5   6
ATOM      6  C   UNL     1     166.077 167.432 166.855  1.00  0.00     0.075 C 
BRANCH   6   7
ATOM      7  C   UNL     1     166.615 167.943 165.545  1.00  0.00     0.129 C 
ATOM      8  O   UNL     1     167.556 167.374 165.011  1.00  0.00    -0.300 OA
ATOM      9  C   UNL     1     165.986 169.129 164.877  1.00  0.00     0.087 C 
ENDBRANCH   6   7
ENDBRANCH   5   6
ENDBRANCH   1   5
TORSDOF 5
ENDMDL
MODEL 5
REMARK VINA RESULT:    -3.287      1.656      2.896
REMARK INTER + INTRA:          -4.451
REMARK INTER:                  -4.215
REMARK INTRA:                  -0.236
REMARK UNBOUND:                -0.203
REMARK SMILES CCCCCCC(C)=O
REMARK SMILES IDX 4 1 3 2 2 3 1 4 5 5 6 6 7 7 9 8 8 9
REMARK H PARENT
REMARK Flexibility Score: inf
ROOT
ATOM      1  C   UNL     1     165.497 164.969 165.642  1.00  0.00     0.000 C 
ENDROOT
BRANCH   1   2
ATOM      2  C   UNL     1     165.763 165.832 166.893  1.00  0.00    -0.000 C 
BRANCH   2   3
ATOM      3  C   UNL     1     166.492 167.152 166.588  1.00  0.00    -0.003 C 
ATOM      4  C   UNL     1     167.560 167.007 165.505  1.00  0.00     0.004 C 
ENDBRANCH   2   3
ENDBRANCH   1   2
BRANCH   1   5
ATOM      5  C   UNL     1     164.752 163.666 165.981  1.00  0.00     0.008 C 
BRANCH   5   6
ATOM      6  C   UNL     1     163.468 163.502 165.157  1.00  0.00     0.075 C 
BRANCH   6   7
ATOM      7  C   UNL     1     162.313 164.260 165.753  1.00  0.00     0.129 C 
ATOM      8  O   UNL     1     162.273 164.457 166.960  1.00  0.00    -0.300 OA
ATOM      9  C   UNL     1     161.225 164.800 164.875  1.00  0.00     0.087 C 
ENDBRANCH   6   7
ENDBRANCH   5   6
ENDBRANCH   1   5
TORSDOF 5
ENDMDL
MODEL 6
REMARK VINA RESULT:    -2.151      1.207      1.549
REMARK INTER + INTRA:          -2.983
REMARK INTER:                  -2.718
REMARK INTRA:                  -0.265
REMARK UNBOUND:                -0.203
REMARK SMILES CCCCCCC(C)=O
REMARK SMILES IDX 4 1 3 2 2 3 1 4 5 5 6 6 7 7 9 8 8 9
REMARK H PARENT
REMARK Flexibility Score: inf
ROOT
ATOM      1  C   UNL     1     166.023 166.519 166.917  1.00  0.00     0.000 C 
ENDROOT
BRANCH   1   2
ATOM      2  C   UNL     1     166.336 167.188 165.561  1.00  0.00    -0.000 C 
BRANCH   2   3
ATOM      3  C   UNL     1     167.821 167.114 165.166  1.00  0.00    -0.003 C 
ATOM      4  C   UNL     1     168.734 166.757 166.338  1.00  0.00     0.004 C 
ENDBRANCH   2   3
ENDBRANCH   1   2
BRANCH   1   5
ATOM      5  C   UNL     1     165.383 165.130 166.746  1.00  0.00     0.008 C 
BRANCH   5   6
ATOM      6  C   UNL     1     164.943 164.869 165.299  1.00  0.00     0.075 C 
BRANCH   6   7
ATOM      7  C   UNL     1     163.857 163.830 165.217  1.00  0.00     0.129 C 
ATOM      8  O   UNL     1     164.133 162.689 164.875  1.00  0.00    -0.300 OA
ATOM      9  C   UNL     1     162.445 164.178 165.579  1.00  0.00     0.087 C 
ENDBRANCH   6   7
ENDBRANCH   5   6
ENDBRANCH   1   5
TORSDOF 5
ENDMDL
