MODEL 1
REMARK VINA RESULT:    -5.250      0.000      0.000
REMARK INTER + INTRA:          -6.306
REMARK INTER:                  -6.170
REMARK INTRA:                  -0.136
REMARK UNBOUND:                -0.136
REMARK SMILES O=C([O-])C=Cc1ccc(O)c(O)c1
REMARK SMILES IDX 6 1 13 2 7 3 11 4 8 5 9 6 5 7 4 8 2 9 1 10 3 11 12 12 10 14
REMARK H PARENT 12 13 10 15
REMARK Flexibility Score: inf
ROOT
ATOM      1  C   UNL     1       7.996  -6.640  -7.745  1.00  0.00    -0.022 A 
ATOM      2  C   UNL     1       7.992  -5.501  -6.923  1.00  0.00     0.058 A 
ATOM      3  C   UNL     1       7.940  -7.913  -7.143  1.00  0.00     0.012 A 
ATOM      4  C   UNL     1       7.957  -5.624  -5.527  1.00  0.00     0.157 A 
ATOM      5  C   UNL     1       7.906  -8.036  -5.752  1.00  0.00     0.051 A 
ATOM      6  C   UNL     1       7.916  -6.899  -4.939  1.00  0.00     0.157 A 
ENDROOT
BRANCH   1   7
ATOM      7  C   UNL     1       8.024  -6.454  -9.217  1.00  0.00     0.010 C 
ATOM      8  C   UNL     1       8.052  -5.256  -9.816  1.00  0.00     0.025 C 
BRANCH   8   9
ATOM      9  C   UNL     1       8.068  -5.118 -11.281  1.00  0.00     0.064 C 
ATOM     10  O   UNL     1       8.414  -6.097 -11.993  1.00  0.00    -0.545 OA
ATOM     11  O   UNL     1       7.705  -3.924 -11.893  1.00  0.00    -0.545 OA
ENDBRANCH   8   9
ENDBRANCH   1   7
BRANCH   4  12
ATOM     12  O   UNL     1       7.963  -4.485  -4.722  1.00  0.00    -0.504 OA
ATOM     13  H   UNL     1       8.783  -4.211  -4.195  1.00  0.00     0.293 HD
ENDBRANCH   4  12
BRANCH   6  14
ATOM     14  O   UNL     1       7.882  -7.055  -3.554  1.00  0.00    -0.504 OA
ATOM     15  H   UNL     1       7.160  -7.594  -3.091  1.00  0.00     0.293 HD
ENDBRANCH   6  14
TORSDOF 4
ENDMDL
MODEL 2
REMARK VINA RESULT:    -5.091      2.141      2.684
REMARK INTER + INTRA:          -6.120
REMARK INTER:                  -5.984
REMARK INTRA:                  -0.136
REMARK UNBOUND:                -0.136
REMARK SMILES O=C([O-])C=Cc1ccc(O)c(O)c1
REMARK SMILES IDX 6 1 13 2 7 3 11 4 8 5 9 6 5 7 4 8 2 9 1 10 3 11 12 12 10 14
REMARK H PARENT 12 13 10 15
REMARK Flexibility Score: inf
ROOT
ATOM      1  C   UNL     1       9.296  -6.777  -7.791  1.00  0.00    -0.022 A 
ATOM      2  C   UNL     1      10.226  -6.023  -7.054  1.00  0.00     0.058 A 
ATOM      3  C   UNL     1       7.940  -6.744  -7.410  1.00  0.00     0.012 A 
ATOM      4  C   UNL     1       9.819  -5.271  -5.944  1.00  0.00     0.157 A 
ATOM      5  C   UNL     1       7.535  -5.994  -6.302  1.00  0.00     0.051 A 
ATOM      6  C   UNL     1       8.467  -5.258  -5.564  1.00  0.00     0.157 A 
ENDROOT
BRANCH   1   7
ATOM      7  C   UNL     1       9.776  -7.548  -8.964  1.00  0.00     0.010 C 
ATOM      8  C   UNL     1       9.199  -7.504 -10.173  1.00  0.00     0.025 C 
BRANCH   8   9
ATOM      9  C   UNL     1       9.704  -8.295 -11.306  1.00  0.00     0.064 C 
ATOM     10  O   UNL     1      10.332  -9.363 -11.086  1.00  0.00    -0.545 OA
ATOM     11  O   UNL     1       9.497  -7.882 -12.618  1.00  0.00    -0.545 OA
ENDBRANCH   8   9
ENDBRANCH   1   7
BRANCH   4  12
ATOM     12  O   UNL     1      10.754  -4.536  -5.216  1.00  0.00    -0.504 OA
ATOM     13  H   UNL     1      10.553  -3.599  -4.885  1.00  0.00     0.293 HD
ENDBRANCH   4  12
BRANCH   6  14
ATOM     14  O   UNL     1       8.032  -4.521  -4.465  1.00  0.00    -0.504 OA
ATOM     15  H   UNL     1       7.343  -4.878  -3.815  1.00  0.00     0.293 HD
ENDBRANCH   6  14
TORSDOF 4
ENDMDL
MODEL 3
REMARK VINA RESULT:    -4.899      1.481      6.134
REMARK INTER + INTRA:          -5.894
REMARK INTER:                  -5.771
REMARK INTRA:                  -0.123
REMARK UNBOUND:                -0.136
REMARK SMILES O=C([O-])C=Cc1ccc(O)c(O)c1
REMARK SMILES IDX 6 1 13 2 7 3 11 4 8 5 9 6 5 7 4 8 2 9 1 10 3 11 12 12 10 14
REMARK H PARENT 12 13 10 15
REMARK Flexibility Score: inf
ROOT
ATOM      1  C   UNL     1       8.295  -5.760 -10.056  1.00  0.00    -0.022 A 
ATOM      2  C   UNL     1       7.938  -4.493 -10.549  1.00  0.00     0.058 A 
ATOM      3  C   UNL     1       8.349  -6.846 -10.952  1.00  0.00     0.012 A 
ATOM      4  C   UNL     1       7.616  -4.314 -11.901  1.00  0.00     0.157 A 
ATOM      5  C   UNL     1       8.028  -6.668 -12.300  1.00  0.00     0.051 A 
ATOM      6  C   UNL     1       7.659  -5.408 -12.781  1.00  0.00     0.157 A 
ENDROOT
BRANCH   1   7
ATOM      7  C   UNL     1       8.636  -5.893  -8.618  1.00  0.00     0.010 C 
ATOM      8  C   UNL     1       7.725  -5.944  -7.638  1.00  0.00     0.025 C 
BRANCH   8   9
ATOM      9  C   UNL     1       8.109  -6.066  -6.223  1.00  0.00     0.064 C 
ATOM     10  O   UNL     1       8.820  -5.172  -5.693  1.00  0.00    -0.545 OA
ATOM     11  O   UNL     1       7.699  -7.153  -5.459  1.00  0.00    -0.545 OA
ENDBRANCH   8   9
ENDBRANCH   1   7
BRANCH   4  12
ATOM     12  O   UNL     1       7.254  -3.053 -12.374  1.00  0.00    -0.504 OA
ATOM     13  H   UNL     1       7.645  -2.674 -13.229  1.00  0.00     0.293 HD
ENDBRANCH   4  12
BRANCH   6  14
ATOM     14  O   UNL     1       7.344  -5.263 -14.130  1.00  0.00    -0.504 OA
ATOM     15  H   UNL     1       6.559  -5.742 -14.555  1.00  0.00     0.293 HD
ENDBRANCH   6  14
TORSDOF 4
ENDMDL
MODEL 4
REMARK VINA RESULT:    -4.895      1.563      6.298
REMARK INTER + INTRA:          -5.890
REMARK INTER:                  -5.758
REMARK INTRA:                  -0.132
REMARK UNBOUND:                -0.136
REMARK SMILES O=C([O-])C=Cc1ccc(O)c(O)c1
REMARK SMILES IDX 6 1 13 2 7 3 11 4 8 5 9 6 5 7 4 8 2 9 1 10 3 11 12 12 10 14
REMARK H PARENT 12 13 10 15
REMARK Flexibility Score: inf
ROOT
ATOM      1  C   UNL     1       8.274  -5.783  -9.895  1.00  0.00    -0.022 A 
ATOM      2  C   UNL     1       8.304  -6.877 -10.777  1.00  0.00     0.058 A 
ATOM      3  C   UNL     1       7.924  -4.514 -10.399  1.00  0.00     0.012 A 
ATOM      4  C   UNL     1       8.016  -6.709 -12.139  1.00  0.00     0.157 A 
ATOM      5  C   UNL     1       7.637  -4.347 -11.756  1.00  0.00     0.051 A 
ATOM      6  C   UNL     1       7.683  -5.436 -12.631  1.00  0.00     0.157 A 
ENDROOT
BRANCH   1   7
ATOM      7  C   UNL     1       8.578  -6.016  -8.462  1.00  0.00     0.010 C 
ATOM      8  C   UNL     1       7.775  -5.638  -7.459  1.00  0.00     0.025 C 
BRANCH   8   9
ATOM      9  C   UNL     1       8.122  -5.882  -6.050  1.00  0.00     0.064 C 
ATOM     10  O   UNL     1       7.862  -6.998  -5.530  1.00  0.00    -0.545 OA
ATOM     11  O   UNL     1       8.734  -4.898  -5.282  1.00  0.00    -0.545 OA
ENDBRANCH   8   9
ENDBRANCH   1   7
BRANCH   4  12
ATOM     12  O   UNL     1       8.060  -7.802 -13.004  1.00  0.00    -0.504 OA
ATOM     13  H   UNL     1       7.915  -7.695 -14.001  1.00  0.00     0.293 HD
ENDBRANCH   4  12
BRANCH   6  14
ATOM     14  O   UNL     1       7.392  -5.237 -13.979  1.00  0.00    -0.504 OA
ATOM     15  H   UNL     1       7.005  -4.367 -14.323  1.00  0.00     0.293 HD
ENDBRANCH   6  14
TORSDOF 4
ENDMDL
MODEL 5
REMARK VINA RESULT:    -4.842      9.068     11.511
REMARK INTER + INTRA:          -5.827
REMARK INTER:                  -5.696
REMARK INTRA:                  -0.131
REMARK UNBOUND:                -0.136
REMARK SMILES O=C([O-])C=Cc1ccc(O)c(O)c1
REMARK SMILES IDX 6 1 13 2 7 3 11 4 8 5 9 6 5 7 4 8 2 9 1 10 3 11 12 12 10 14
REMARK H PARENT 12 13 10 15
REMARK Flexibility Score: inf
ROOT
ATOM      1  C   UNL     1       4.897   3.747  -7.000  1.00  0.00    -0.022 A 
ATOM      2  C   UNL     1       5.559   2.991  -7.983  1.00  0.00     0.058 A 
ATOM      3  C   UNL     1       4.094   4.832  -7.405  1.00  0.00     0.012 A 
ATOM      4  C   UNL     1       5.445   3.323  -9.341  1.00  0.00     0.157 A 
ATOM      5  C   UNL     1       3.980   5.162  -8.758  1.00  0.00     0.051 A 
ATOM      6  C   UNL     1       4.653   4.416  -9.729  1.00  0.00     0.157 A 
ENDROOT
BRANCH   1   7
ATOM      7  C   UNL     1       5.043   3.348  -5.579  1.00  0.00     0.010 C 
ATOM      8  C   UNL     1       6.071   2.629  -5.108  1.00  0.00     0.025 C 
BRANCH   8   9
ATOM      9  C   UNL     1       6.169   2.247  -3.691  1.00  0.00     0.064 C 
ATOM     10  O   UNL     1       6.730   3.024  -2.875  1.00  0.00    -0.545 OA
ATOM     11  O   UNL     1       5.651   1.039  -3.237  1.00  0.00    -0.545 OA
ENDBRANCH   8   9
ENDBRANCH   1   7
BRANCH   4  12
ATOM     12  O   UNL     1       6.115   2.570 -10.304  1.00  0.00    -0.504 OA
ATOM     13  H   UNL     1       6.119   1.557 -10.279  1.00  0.00     0.293 HD
ENDBRANCH   4  12
BRANCH   6  14
ATOM     14  O   UNL     1       4.521   4.771 -11.070  1.00  0.00    -0.504 OA
ATOM     15  H   UNL     1       3.635   5.062 -11.465  1.00  0.00     0.293 HD
ENDBRANCH   6  14
TORSDOF 4
ENDMDL
MODEL 6
REMARK VINA RESULT:    -4.804      2.452      3.226
REMARK INTER + INTRA:          -5.782
REMARK INTER:                  -5.650
REMARK INTRA:                  -0.132
REMARK UNBOUND:                -0.136
REMARK SMILES O=C([O-])C=Cc1ccc(O)c(O)c1
REMARK SMILES IDX 6 1 13 2 7 3 11 4 8 5 9 6 5 7 4 8 2 9 1 10 3 11 12 12 10 14
REMARK H PARENT 12 13 10 15
REMARK Flexibility Score: inf
ROOT
ATOM      1  C   UNL     1       8.480  -5.174 -10.511  1.00  0.00    -0.022 A 
ATOM      2  C   UNL     1       7.564  -4.844  -9.497  1.00  0.00     0.058 A 
ATOM      3  C   UNL     1       9.670  -5.843 -10.160  1.00  0.00     0.012 A 
ATOM      4  C   UNL     1       7.837  -5.150  -8.156  1.00  0.00     0.157 A 
ATOM      5  C   UNL     1       9.942  -6.147  -8.823  1.00  0.00     0.051 A 
ATOM      6  C   UNL     1       9.034  -5.803  -7.818  1.00  0.00     0.157 A 
ENDROOT
BRANCH   1   7
ATOM      7  C   UNL     1       8.139  -4.837 -11.915  1.00  0.00     0.010 C 
ATOM      8  C   UNL     1       7.530  -3.701 -12.281  1.00  0.00     0.025 C 
BRANCH   8   9
ATOM      9  C   UNL     1       7.201  -3.412 -13.686  1.00  0.00     0.064 C 
ATOM     10  O   UNL     1       7.297  -4.326 -14.547  1.00  0.00    -0.545 OA
ATOM     11  O   UNL     1       6.782  -2.146 -14.079  1.00  0.00    -0.545 OA
ENDBRANCH   8   9
ENDBRANCH   1   7
BRANCH   4  12
ATOM     12  O   UNL     1       6.924  -4.807  -7.160  1.00  0.00    -0.504 OA
ATOM     13  H   UNL     1       6.689  -5.449  -6.412  1.00  0.00     0.293 HD
ENDBRANCH   4  12
BRANCH   6  14
ATOM     14  O   UNL     1       9.334  -6.120  -6.495  1.00  0.00    -0.504 OA
ATOM     15  H   UNL     1       9.069  -5.519  -5.724  1.00  0.00     0.293 HD
ENDBRANCH   6  14
TORSDOF 4
ENDMDL
MODEL 7
REMARK VINA RESULT:    -4.744      3.011      3.615
REMARK INTER + INTRA:          -5.712
REMARK INTER:                  -5.587
REMARK INTRA:                  -0.126
REMARK UNBOUND:                -0.136
REMARK SMILES O=C([O-])C=Cc1ccc(O)c(O)c1
REMARK SMILES IDX 6 1 13 2 7 3 11 4 8 5 9 6 5 7 4 8 2 9 1 10 3 11 12 12 10 14
REMARK H PARENT 12 13 10 15
REMARK Flexibility Score: inf
ROOT
ATOM      1  C   UNL     1       9.942  -7.128  -8.821  1.00  0.00    -0.022 A 
ATOM      2  C   UNL     1      10.563  -6.384  -7.802  1.00  0.00     0.058 A 
ATOM      3  C   UNL     1       8.535  -7.126  -8.901  1.00  0.00     0.012 A 
ATOM      4  C   UNL     1       9.800  -5.673  -6.866  1.00  0.00     0.157 A 
ATOM      5  C   UNL     1       7.774  -6.417  -7.967  1.00  0.00     0.051 A 
ATOM      6  C   UNL     1       8.397  -5.692  -6.948  1.00  0.00     0.157 A 
ENDROOT
BRANCH   1   7
ATOM      7  C   UNL     1      10.796  -7.854  -9.792  1.00  0.00     0.010 C 
ATOM      8  C   UNL     1      11.038  -7.427 -11.038  1.00  0.00     0.025 C 
BRANCH   8   9
ATOM      9  C   UNL     1      11.884  -8.186 -11.972  1.00  0.00     0.064 C 
ATOM     10  O   UNL     1      11.356  -8.770 -12.954  1.00  0.00    -0.545 OA
ATOM     11  O   UNL     1      13.260  -8.269 -11.787  1.00  0.00    -0.545 OA
ENDBRANCH   8   9
ENDBRANCH   1   7
BRANCH   4  12
ATOM     12  O   UNL     1      10.429  -4.948  -5.855  1.00  0.00    -0.504 OA
ATOM     13  H   UNL     1      10.691  -3.978  -5.981  1.00  0.00     0.293 HD
ENDBRANCH   4  12
BRANCH   6  14
ATOM     14  O   UNL     1       7.611  -4.996  -6.032  1.00  0.00    -0.504 OA
ATOM     15  H   UNL     1       7.083  -5.468  -5.308  1.00  0.00     0.293 HD
ENDBRANCH   6  14
TORSDOF 4
ENDMDL
MODEL 8
REMARK VINA RESULT:    -4.704     17.558     19.338
REMARK INTER + INTRA:          -5.665
REMARK INTER:                  -5.537
REMARK INTRA:                  -0.128
REMARK UNBOUND:                -0.136
REMARK SMILES O=C([O-])C=Cc1ccc(O)c(O)c1
REMARK SMILES IDX 6 1 13 2 7 3 11 4 8 5 9 6 5 7 4 8 2 9 1 10 3 11 12 12 10 14
REMARK H PARENT 12 13 10 15
REMARK Flexibility Score: inf
ROOT
ATOM      1  C   UNL     1      21.072   0.367 -18.477  1.00  0.00    -0.022 A 
ATOM      2  C   UNL     1      21.489   1.135 -19.578  1.00  0.00     0.058 A 
ATOM      3  C   UNL     1      20.510  -0.904 -18.710  1.00  0.00     0.012 A 
ATOM      4  C   UNL     1      21.328   0.660 -20.886  1.00  0.00     0.157 A 
ATOM      5  C   UNL     1      20.349  -1.377 -20.015  1.00  0.00     0.051 A 
ATOM      6  C   UNL     1      20.752  -0.602 -21.106  1.00  0.00     0.157 A 
ENDROOT
BRANCH   1   7
ATOM      7  C   UNL     1      21.276   0.912 -17.112  1.00  0.00     0.010 C 
ATOM      8  C   UNL     1      22.479   1.081 -16.548  1.00  0.00     0.025 C 
BRANCH   8   9
ATOM      9  C   UNL     1      22.633   1.616 -15.186  1.00  0.00     0.064 C 
ATOM     10  O   UNL     1      21.824   1.267 -14.287  1.00  0.00    -0.545 OA
ATOM     11  O   UNL     1      23.660   2.500 -14.875  1.00  0.00    -0.545 OA
ENDBRANCH   8   9
ENDBRANCH   1   7
BRANCH   4  12
ATOM     12  O   UNL     1      21.737   1.437 -21.969  1.00  0.00    -0.504 OA
ATOM     13  H   UNL     1      22.477   1.134 -22.591  1.00  0.00     0.293 HD
ENDBRANCH   4  12
BRANCH   6  14
ATOM     14  O   UNL     1      20.577  -1.102 -22.395  1.00  0.00    -0.504 OA
ATOM     15  H   UNL     1      21.337  -1.148 -23.062  1.00  0.00     0.293 HD
ENDBRANCH   6  14
TORSDOF 4
ENDMDL
MODEL 9
REMARK VINA RESULT:    -4.652      1.248      2.320
REMARK INTER + INTRA:          -5.604
REMARK INTER:                  -5.463
REMARK INTRA:                  -0.140
REMARK UNBOUND:                -0.136
REMARK SMILES O=C([O-])C=Cc1ccc(O)c(O)c1
REMARK SMILES IDX 6 1 13 2 7 3 11 4 8 5 9 6 5 7 4 8 2 9 1 10 3 11 12 12 10 14
REMARK H PARENT 12 13 10 15
REMARK Flexibility Score: inf
ROOT
ATOM      1  C   UNL     1       8.038  -6.820  -7.040  1.00  0.00    -0.022 A 
ATOM      2  C   UNL     1       7.651  -7.853  -6.168  1.00  0.00     0.058 A 
ATOM      3  C   UNL     1       8.439  -5.585  -6.494  1.00  0.00     0.012 A 
ATOM      4  C   UNL     1       7.640  -7.654  -4.780  1.00  0.00     0.157 A 
ATOM      5  C   UNL     1       8.428  -5.386  -5.111  1.00  0.00     0.051 A 
ATOM      6  C   UNL     1       8.028  -6.412  -4.250  1.00  0.00     0.157 A 
ENDROOT
BRANCH   1   7
ATOM      7  C   UNL     1       8.041  -7.087  -8.499  1.00  0.00     0.010 C 
ATOM      8  C   UNL     1       8.724  -6.354  -9.389  1.00  0.00     0.025 C 
BRANCH   8   9
ATOM      9  C   UNL     1       8.690  -6.649 -10.830  1.00  0.00     0.064 C 
ATOM     10  O   UNL     1       8.327  -5.755 -11.639  1.00  0.00    -0.545 OA
ATOM     11  O   UNL     1       9.054  -7.901 -11.315  1.00  0.00    -0.545 OA
ENDBRANCH   8   9
ENDBRANCH   1   7
BRANCH   4  12
ATOM     12  O   UNL     1       7.245  -8.684  -3.928  1.00  0.00    -0.504 OA
ATOM     13  H   UNL     1       7.486  -8.680  -2.944  1.00  0.00     0.293 HD
ENDBRANCH   4  12
BRANCH   6  14
ATOM     14  O   UNL     1       8.027  -6.183  -2.875  1.00  0.00    -0.504 OA
ATOM     15  H   UNL     1       8.104  -6.937  -2.203  1.00  0.00     0.293 HD
ENDBRANCH   6  14
TORSDOF 4
ENDMDL
