MODEL 1
REMARK VINA RESULT:    -3.510      0.000      0.000
REMARK INTER + INTRA:          -4.357
REMARK INTER:                  -4.126
REMARK INTRA:                  -0.231
REMARK UNBOUND:                -0.231
REMARK SMILES [NH3+][C@H](CO)C(=O)[O-]
REMARK SMILES IDX 3 1 2 2 1 3 5 7 6 8 7 9 4 10
REMARK H PARENT 1 4 1 5 1 6 4 11
REMARK Flexibility Score: inf
ROOT
ATOM      1  C   UNL     1      -7.511  13.252  19.518  1.00  0.00     0.227 C 
ENDROOT
BRANCH   1   2
ATOM      2  C   UNL     1      -8.445  14.262  18.826  1.00  0.00     0.253 C 
BRANCH   2   3
ATOM      3  N   UNL     1      -8.267  14.218  17.370  1.00  0.00    -0.348 N 
ATOM      4  H   UNL     1      -7.891  15.126  17.014  1.00  0.00     0.345 HD
ATOM      5  H   UNL     1      -7.606  13.446  17.117  1.00  0.00     0.345 HD
ATOM      6  H   UNL     1      -9.186  14.024  16.908  1.00  0.00     0.345 HD
ENDBRANCH   2   3
BRANCH   2   7
ATOM      7  C   UNL     1      -9.882  13.995  19.189  1.00  0.00     0.102 C 
ATOM      8  O   UNL     1     -10.508  13.037  18.661  1.00  0.00    -0.544 OA
ATOM      9  O   UNL     1     -10.522  14.799  20.124  1.00  0.00    -0.544 OA
ENDBRANCH   2   7
ENDBRANCH   1   2
BRANCH   1  10
ATOM     10  O   UNL     1      -7.989  11.942  19.360  1.00  0.00    -0.390 OA
ATOM     11  H   UNL     1      -7.507  11.557  18.581  1.00  0.00     0.210 HD
ENDBRANCH   1  10
TORSDOF 4
ENDMDL
MODEL 2
REMARK VINA RESULT:    -2.987     14.302     15.466
REMARK INTER + INTRA:          -3.741
REMARK INTER:                  -3.712
REMARK INTRA:                  -0.030
REMARK UNBOUND:                -0.231
REMARK SMILES [NH3+][C@H](CO)C(=O)[O-]
REMARK SMILES IDX 3 1 2 2 1 3 5 7 6 8 7 9 4 10
REMARK H PARENT 1 4 1 5 1 6 4 11
REMARK Flexibility Score: inf
ROOT
ATOM      1  C   UNL     1       4.671   9.592  14.675  1.00  0.00     0.227 C 
ENDROOT
BRANCH   1   2
ATOM      2  C   UNL     1       5.298  10.875  15.252  1.00  0.00     0.253 C 
BRANCH   2   3
ATOM      3  N   UNL     1       4.331  11.589  16.094  1.00  0.00    -0.348 N 
ATOM      4  H   UNL     1       4.537  11.436  17.108  1.00  0.00     0.345 HD
ATOM      5  H   UNL     1       4.366  12.614  15.884  1.00  0.00     0.345 HD
ATOM      6  H   UNL     1       3.363  11.248  15.888  1.00  0.00     0.345 HD
ENDBRANCH   2   3
BRANCH   2   7
ATOM      7  C   UNL     1       6.542  10.553  16.037  1.00  0.00     0.102 C 
ATOM      8  O   UNL     1       6.823   9.361  16.330  1.00  0.00    -0.544 OA
ATOM      9  O   UNL     1       7.397  11.575  16.431  1.00  0.00    -0.544 OA
ENDBRANCH   2   7
ENDBRANCH   1   2
BRANCH   1  10
ATOM     10  O   UNL     1       3.352   9.435  15.126  1.00  0.00    -0.390 OA
ATOM     11  H   UNL     1       3.403   8.930  15.980  1.00  0.00     0.210 HD
ENDBRANCH   1  10
TORSDOF 4
ENDMDL
MODEL 3
REMARK VINA RESULT:    -2.912     19.180     19.864
REMARK INTER + INTRA:          -3.653
REMARK INTER:                  -3.436
REMARK INTRA:                  -0.217
REMARK UNBOUND:                -0.231
REMARK SMILES [NH3+][C@H](CO)C(=O)[O-]
REMARK SMILES IDX 3 1 2 2 1 3 5 7 6 8 7 9 4 10
REMARK H PARENT 1 4 1 5 1 6 4 11
REMARK Flexibility Score: inf
ROOT
ATOM      1  C   UNL     1       6.621  17.897   6.736  1.00  0.00     0.227 C 
ENDROOT
BRANCH   1   2
ATOM      2  C   UNL     1       7.492  17.701   7.991  1.00  0.00     0.253 C 
BRANCH   2   3
ATOM      3  N   UNL     1       7.065  18.608   9.063  1.00  0.00    -0.348 N 
ATOM      4  H   UNL     1       7.787  19.344   9.236  1.00  0.00     0.345 HD
ATOM      5  H   UNL     1       6.160  19.065   8.802  1.00  0.00     0.345 HD
ATOM      6  H   UNL     1       6.913  18.065   9.945  1.00  0.00     0.345 HD
ENDBRANCH   2   3
BRANCH   2   7
ATOM      7  C   UNL     1       7.437  16.271   8.459  1.00  0.00     0.102 C 
ATOM      8  O   UNL     1       8.447  15.524   8.352  1.00  0.00    -0.544 OA
ATOM      9  O   UNL     1       6.272  15.770   9.025  1.00  0.00    -0.544 OA
ENDBRANCH   2   7
ENDBRANCH   1   2
BRANCH   1  10
ATOM     10  O   UNL     1       5.657  16.883   6.635  1.00  0.00    -0.390 OA
ATOM     11  H   UNL     1       4.804  17.328   6.385  1.00  0.00     0.210 HD
ENDBRANCH   1  10
TORSDOF 4
ENDMDL
MODEL 4
REMARK VINA RESULT:    -2.904     14.703     15.027
REMARK INTER + INTRA:          -3.644
REMARK INTER:                  -3.374
REMARK INTRA:                  -0.269
REMARK UNBOUND:                -0.231
REMARK SMILES [NH3+][C@H](CO)C(=O)[O-]
REMARK SMILES IDX 3 1 2 2 1 3 5 7 6 8 7 9 4 10
REMARK H PARENT 1 4 1 5 1 6 4 11
REMARK Flexibility Score: inf
ROOT
ATOM      1  C   UNL     1       5.946  11.650  17.003  1.00  0.00     0.227 C 
ENDROOT
BRANCH   1   2
ATOM      2  C   UNL     1       6.119  10.797  15.732  1.00  0.00     0.253 C 
BRANCH   2   3
ATOM      3  N   UNL     1       6.659   9.474  16.067  1.00  0.00    -0.348 N 
ATOM      4  H   UNL     1       7.587   9.325  15.608  1.00  0.00     0.345 HD
ATOM      5  H   UNL     1       6.769   9.388  17.104  1.00  0.00     0.345 HD
ATOM      6  H   UNL     1       5.996   8.731  15.746  1.00  0.00     0.345 HD
ENDBRANCH   2   3
BRANCH   2   7
ATOM      7  C   UNL     1       4.810  10.662  15.000  1.00  0.00     0.102 C 
ATOM      8  O   UNL     1       4.245   9.540  14.902  1.00  0.00    -0.544 OA
ATOM      9  O   UNL     1       4.211  11.782  14.439  1.00  0.00    -0.544 OA
ENDBRANCH   2   7
ENDBRANCH   1   2
BRANCH   1  10
ATOM     10  O   UNL     1       4.597  11.975  17.205  1.00  0.00    -0.390 OA
ATOM     11  H   UNL     1       4.584  12.854  17.669  1.00  0.00     0.210 HD
ENDBRANCH   1  10
TORSDOF 4
ENDMDL
MODEL 5
REMARK VINA RESULT:    -2.886     18.014     18.745
REMARK INTER + INTRA:          -3.623
REMARK INTER:                  -3.593
REMARK INTRA:                  -0.030
REMARK UNBOUND:                -0.231
REMARK SMILES [NH3+][C@H](CO)C(=O)[O-]
REMARK SMILES IDX 3 1 2 2 1 3 5 7 6 8 7 9 4 10
REMARK H PARENT 1 4 1 5 1 6 4 11
REMARK Flexibility Score: inf
ROOT
ATOM      1  C   UNL     1       5.493  21.084  12.705  1.00  0.00     0.227 C 
ENDROOT
BRANCH   1   2
ATOM      2  C   UNL     1       6.421  19.901  12.375  1.00  0.00     0.253 C 
BRANCH   2   3
ATOM      3  N   UNL     1       6.125  19.368  11.040  1.00  0.00    -0.348 N 
ATOM      4  H   UNL     1       5.532  18.509  11.107  1.00  0.00     0.345 HD
ATOM      5  H   UNL     1       5.624  20.091  10.473  1.00  0.00     0.345 HD
ATOM      6  H   UNL     1       7.017  19.129  10.550  1.00  0.00     0.345 HD
ENDBRANCH   2   3
BRANCH   2   7
ATOM      7  C   UNL     1       7.866  20.315  12.468  1.00  0.00     0.102 C 
ATOM      8  O   UNL     1       8.770  19.452  12.618  1.00  0.00    -0.544 OA
ATOM      9  O   UNL     1       8.209  21.658  12.375  1.00  0.00    -0.544 OA
ENDBRANCH   2   7
ENDBRANCH   1   2
BRANCH   1  10
ATOM     10  O   UNL     1       4.625  21.351  11.634  1.00  0.00    -0.390 OA
ATOM     11  H   UNL     1       5.174  21.778  10.925  1.00  0.00     0.210 HD
ENDBRANCH   1  10
TORSDOF 4
ENDMDL
MODEL 6
REMARK VINA RESULT:    -2.871     11.709     12.873
REMARK INTER + INTRA:          -3.606
REMARK INTER:                  -3.391
REMARK INTRA:                  -0.215
REMARK UNBOUND:                -0.231
REMARK SMILES [NH3+][C@H](CO)C(=O)[O-]
REMARK SMILES IDX 3 1 2 2 1 3 5 7 6 8 7 9 4 10
REMARK H PARENT 1 4 1 5 1 6 4 11
REMARK Flexibility Score: inf
ROOT
ATOM      1  C   UNL     1       2.360  13.382  20.256  1.00  0.00     0.227 C 
ENDROOT
BRANCH   1   2
ATOM      2  C   UNL     1       3.854  13.444  19.889  1.00  0.00     0.253 C 
BRANCH   2   3
ATOM      3  N   UNL     1       4.224  12.308  19.037  1.00  0.00    -0.348 N 
ATOM      4  H   UNL     1       3.724  11.440  19.336  1.00  0.00     0.345 HD
ATOM      5  H   UNL     1       3.984  12.519  18.040  1.00  0.00     0.345 HD
ATOM      6  H   UNL     1       5.256  12.144  19.096  1.00  0.00     0.345 HD
ENDBRANCH   2   3
BRANCH   2   7
ATOM      7  C   UNL     1       4.181  14.745  19.205  1.00  0.00     0.102 C 
ATOM      8  O   UNL     1       3.722  14.998  18.059  1.00  0.00    -0.544 OA
ATOM      9  O   UNL     1       4.984  15.681  19.843  1.00  0.00    -0.544 OA
ENDBRANCH   2   7
ENDBRANCH   1   2
BRANCH   1  10
ATOM     10  O   UNL     1       1.676  14.498  19.750  1.00  0.00    -0.390 OA
ATOM     11  H   UNL     1       1.847  14.515  18.772  1.00  0.00     0.210 HD
ENDBRANCH   1  10
TORSDOF 4
ENDMDL
MODEL 7
REMARK VINA RESULT:    -2.842     17.597     18.229
REMARK INTER + INTRA:          -3.572
REMARK INTER:                  -3.245
REMARK INTRA:                  -0.327
REMARK UNBOUND:                -0.231
REMARK SMILES [NH3+][C@H](CO)C(=O)[O-]
REMARK SMILES IDX 3 1 2 2 1 3 5 7 6 8 7 9 4 10
REMARK H PARENT 1 4 1 5 1 6 4 11
REMARK Flexibility Score: inf
ROOT
ATOM      1  C   UNL     1       7.753  18.996  11.148  1.00  0.00     0.227 C 
ENDROOT
BRANCH   1   2
ATOM      2  C   UNL     1       7.232  19.703  12.413  1.00  0.00     0.253 C 
BRANCH   2   3
ATOM      3  N   UNL     1       7.899  20.998  12.593  1.00  0.00    -0.348 N 
ATOM      4  H   UNL     1       8.792  21.035  12.051  1.00  0.00     0.345 HD
ATOM      5  H   UNL     1       7.268  21.770  12.272  1.00  0.00     0.345 HD
ATOM      6  H   UNL     1       8.109  21.150  13.606  1.00  0.00     0.345 HD
ENDBRANCH   2   3
BRANCH   2   7
ATOM      7  C   UNL     1       5.739  19.885  12.346  1.00  0.00     0.102 C 
ATOM      8  O   UNL     1       5.239  21.035  12.231  1.00  0.00    -0.544 OA
ATOM      9  O   UNL     1       4.903  18.777  12.396  1.00  0.00    -0.544 OA
ENDBRANCH   2   7
ENDBRANCH   1   2
BRANCH   1  10
ATOM     10  O   UNL     1       6.757  18.943  10.161  1.00  0.00    -0.390 OA
ATOM     11  H   UNL     1       6.929  19.703   9.545  1.00  0.00     0.210 HD
ENDBRANCH   1  10
TORSDOF 4
ENDMDL
MODEL 8
REMARK VINA RESULT:    -2.807     14.349     14.650
REMARK INTER + INTRA:          -3.530
REMARK INTER:                  -3.352
REMARK INTRA:                  -0.179
REMARK UNBOUND:                -0.231
REMARK SMILES [NH3+][C@H](CO)C(=O)[O-]
REMARK SMILES IDX 3 1 2 2 1 3 5 7 6 8 7 9 4 10
REMARK H PARENT 1 4 1 5 1 6 4 11
REMARK Flexibility Score: inf
ROOT
ATOM      1  C   UNL     1       4.766   9.983  14.704  1.00  0.00     0.227 C 
ENDROOT
BRANCH   1   2
ATOM      2  C   UNL     1       5.143  11.030  15.769  1.00  0.00     0.253 C 
BRANCH   2   3
ATOM      3  N   UNL     1       6.592  11.035  15.999  1.00  0.00    -0.348 N 
ATOM      4  H   UNL     1       6.821  10.630  16.936  1.00  0.00     0.345 HD
ATOM      5  H   UNL     1       7.071  10.477  15.255  1.00  0.00     0.345 HD
ATOM      6  H   UNL     1       6.952  12.016  15.955  1.00  0.00     0.345 HD
ENDBRANCH   2   3
BRANCH   2   7
ATOM      7  C   UNL     1       4.669  12.399  15.360  1.00  0.00     0.102 C 
ATOM      8  O   UNL     1       5.014  13.418  16.017  1.00  0.00    -0.544 OA
ATOM      9  O   UNL     1       3.856  12.547  14.244  1.00  0.00    -0.544 OA
ENDBRANCH   2   7
ENDBRANCH   1   2
BRANCH   1  10
ATOM     10  O   UNL     1       3.480   9.473  14.939  1.00  0.00    -0.390 OA
ATOM     11  H   UNL     1       2.914  10.245  15.205  1.00  0.00     0.210 HD
ENDBRANCH   1  10
TORSDOF 4
ENDMDL
MODEL 9
REMARK VINA RESULT:    -2.745     12.155     13.051
REMARK INTER + INTRA:          -3.457
REMARK INTER:                  -3.118
REMARK INTRA:                  -0.340
REMARK UNBOUND:                -0.231
REMARK SMILES [NH3+][C@H](CO)C(=O)[O-]
REMARK SMILES IDX 3 1 2 2 1 3 5 7 6 8 7 9 4 10
REMARK H PARENT 1 4 1 5 1 6 4 11
REMARK Flexibility Score: inf
ROOT
ATOM      1  C   UNL     1       4.957  13.561  18.270  1.00  0.00     0.227 C 
ENDROOT
BRANCH   1   2
ATOM      2  C   UNL     1       4.348  14.099  19.578  1.00  0.00     0.253 C 
BRANCH   2   3
ATOM      3  N   UNL     1       3.539  15.295  19.317  1.00  0.00    -0.348 N 
ATOM      4  H   UNL     1       2.897  15.140  18.507  1.00  0.00     0.345 HD
ATOM      5  H   UNL     1       2.974  15.533  20.166  1.00  0.00     0.345 HD
ATOM      6  H   UNL     1       4.166  16.106  19.106  1.00  0.00     0.345 HD
ENDBRANCH   2   3
BRANCH   2   7
ATOM      7  C   UNL     1       3.517  13.039  20.253  1.00  0.00     0.102 C 
ATOM      8  O   UNL     1       2.262  13.141  20.296  1.00  0.00    -0.544 OA
ATOM      9  O   UNL     1       4.135  11.934  20.824  1.00  0.00    -0.544 OA
ENDBRANCH   2   7
ENDBRANCH   1   2
BRANCH   1  10
ATOM     10  O   UNL     1       4.401  12.317  17.935  1.00  0.00    -0.390 OA
ATOM     11  H   UNL     1       5.073  11.849  17.373  1.00  0.00     0.210 HD
ENDBRANCH   1  10
TORSDOF 4
ENDMDL
