MODEL 1
REMARK VINA RESULT:    -3.564      0.000      0.000
REMARK INTER + INTRA:          -8.033
REMARK INTER:                  -6.480
REMARK INTRA:                  -1.553
REMARK UNBOUND:                -1.553
REMARK SMILES CCCCCCCCCCCCCC[C@@H](C)C(=O)[O-]
REMARK SMILES IDX 9 1 10 2 11 3 12 4 13 5 14 6 15 7 16 8 17 9 18 10 19 11 8 12
REMARK SMILES IDX 7 13 6 14 5 15 4 16 3 17 2 18 1 19
REMARK H PARENT
REMARK Flexibility Score: inf
ROOT
ATOM      1  C   UNL     1      -8.407   6.735  -2.602  1.00  0.00     0.000 C 
ENDROOT
BRANCH   1   2
ATOM      2  C   UNL     1      -9.643   5.976  -3.115  1.00  0.00     0.000 C 
BRANCH   2   3
ATOM      3  C   UNL     1      -9.621   5.767  -4.636  1.00  0.00     0.000 C 
BRANCH   3   4
ATOM      4  C   UNL     1      -8.355   6.380  -5.254  1.00  0.00     0.000 C 
BRANCH   4   5
ATOM      5  C   UNL     1      -7.478   5.338  -5.966  1.00  0.00     0.001 C 
BRANCH   5   6
ATOM      6  C   UNL     1      -6.088   5.192  -5.321  1.00  0.00     0.009 C 
BRANCH   6   7
ATOM      7  C   UNL     1      -5.033   6.082  -6.010  1.00  0.00     0.032 C 
ATOM      8  C   UNL     1      -4.032   6.625  -4.986  1.00  0.00     0.014 C 
BRANCH   7   9
ATOM      9  C   UNL     1      -4.301   5.325  -7.085  1.00  0.00     0.044 C 
ATOM     10  O   UNL     1      -3.492   5.924  -7.842  1.00  0.00    -0.550 OA
ATOM     11  O   UNL     1      -4.518   3.961  -7.257  1.00  0.00    -0.550 OA
ENDBRANCH   7   9
ENDBRANCH   6   7
ENDBRANCH   5   6
ENDBRANCH   4   5
ENDBRANCH   3   4
ENDBRANCH   2   3
ENDBRANCH   1   2
BRANCH   1  12
ATOM     12  C   UNL     1      -8.294   6.711  -1.067  1.00  0.00     0.000 C 
BRANCH  12  13
ATOM     13  C   UNL     1      -6.843   6.561  -0.583  1.00  0.00    -0.000 C 
BRANCH  13  14
ATOM     14  C   UNL     1      -5.833   6.530  -1.744  1.00  0.00    -0.000 C 
BRANCH  14  15
ATOM     15  C   UNL     1      -4.764   5.439  -1.567  1.00  0.00    -0.000 C 
BRANCH  15  16
ATOM     16  C   UNL     1      -3.747   5.773  -0.462  1.00  0.00    -0.000 C 
BRANCH  16  17
ATOM     17  C   UNL     1      -2.364   5.146  -0.735  1.00  0.00    -0.000 C 
BRANCH  17  18
ATOM     18  C   UNL     1      -1.502   5.962  -1.714  1.00  0.00    -0.003 C 
ATOM     19  C   UNL     1      -0.338   6.679  -1.034  1.00  0.00     0.004 C 
ENDBRANCH  17  18
ENDBRANCH  16  17
ENDBRANCH  15  16
ENDBRANCH  14  15
ENDBRANCH  13  14
ENDBRANCH  12  13
ENDBRANCH   1  12
TORSDOF 14
ENDMDL
MODEL 2
REMARK VINA RESULT:    -3.498      3.123      6.961
REMARK INTER + INTRA:          -7.913
REMARK INTER:                  -6.162
REMARK INTRA:                  -1.750
REMARK UNBOUND:                -1.553
REMARK SMILES CCCCCCCCCCCCCC[C@@H](C)C(=O)[O-]
REMARK SMILES IDX 9 1 10 2 11 3 12 4 13 5 14 6 15 7 16 8 17 9 18 10 19 11 8 12
REMARK SMILES IDX 7 13 6 14 5 15 4 16 3 17 2 18 1 19
REMARK H PARENT
REMARK Flexibility Score: inf
ROOT
ATOM      1  C   UNL     1      -4.758   6.583  -7.015  1.00  0.00     0.000 C 
ENDROOT
BRANCH   1   2
ATOM      2  C   UNL     1      -4.467   6.512  -5.507  1.00  0.00     0.000 C 
BRANCH   2   3
ATOM      3  C   UNL     1      -5.513   5.690  -4.739  1.00  0.00     0.000 C 
BRANCH   3   4
ATOM      4  C   UNL     1      -5.881   6.374  -3.414  1.00  0.00     0.000 C 
BRANCH   4   5
ATOM      5  C   UNL     1      -4.647   6.810  -2.609  1.00  0.00     0.001 C 
BRANCH   5   6
ATOM      6  C   UNL     1      -4.278   5.807  -1.500  1.00  0.00     0.009 C 
BRANCH   6   7
ATOM      7  C   UNL     1      -2.767   5.494  -1.481  1.00  0.00     0.032 C 
ATOM      8  C   UNL     1      -2.021   6.369  -2.493  1.00  0.00     0.014 C 
BRANCH   7   9
ATOM      9  C   UNL     1      -2.187   5.696  -0.107  1.00  0.00     0.044 C 
ATOM     10  O   UNL     1      -2.839   5.347   0.913  1.00  0.00    -0.550 OA
ATOM     11  O   UNL     1      -0.932   6.277   0.049  1.00  0.00    -0.550 OA
ENDBRANCH   7   9
ENDBRANCH   6   7
ENDBRANCH   5   6
ENDBRANCH   4   5
ENDBRANCH   3   4
ENDBRANCH   2   3
ENDBRANCH   1   2
BRANCH   1  12
ATOM     12  C   UNL     1      -4.111   5.426  -7.797  1.00  0.00     0.000 C 
BRANCH  12  13
ATOM     13  C   UNL     1      -4.933   4.129  -7.720  1.00  0.00    -0.000 C 
BRANCH  13  14
ATOM     14  C   UNL     1      -6.185   4.169  -8.613  1.00  0.00    -0.000 C 
BRANCH  14  15
ATOM     15  C   UNL     1      -7.490   4.202  -7.801  1.00  0.00    -0.000 C 
BRANCH  15  16
ATOM     16  C   UNL     1      -8.259   5.524  -7.961  1.00  0.00    -0.000 C 
BRANCH  16  17
ATOM     17  C   UNL     1      -8.761   6.074  -6.609  1.00  0.00    -0.000 C 
BRANCH  17  18
ATOM     18  C   UNL     1      -9.159   4.976  -5.608  1.00  0.00    -0.003 C 
ATOM     19  C   UNL     1      -9.577   5.528  -4.247  1.00  0.00     0.004 C 
ENDBRANCH  17  18
ENDBRANCH  16  17
ENDBRANCH  15  16
ENDBRANCH  14  15
ENDBRANCH  13  14
ENDBRANCH  12  13
ENDBRANCH   1  12
TORSDOF 14
ENDMDL
MODEL 3
REMARK VINA RESULT:    -3.468     13.348     14.793
REMARK INTER + INTRA:          -7.859
REMARK INTER:                  -6.921
REMARK INTRA:                  -0.938
REMARK UNBOUND:                -1.553
REMARK SMILES CCCCCCCCCCCCCC[C@@H](C)C(=O)[O-]
REMARK SMILES IDX 9 1 10 2 11 3 12 4 13 5 14 6 15 7 16 8 17 9 18 10 19 11 8 12
REMARK SMILES IDX 7 13 6 14 5 15 4 16 3 17 2 18 1 19
REMARK H PARENT
REMARK Flexibility Score: inf
ROOT
ATOM      1  C   UNL     1      -9.409  -5.600  -5.063  1.00  0.00     0.000 C 
ENDROOT
BRANCH   1   2
ATOM      2  C   UNL     1     -10.017  -6.675  -4.147  1.00  0.00     0.000 C 
BRANCH   2   3
ATOM      3  C   UNL     1      -9.073  -7.867  -3.924  1.00  0.00     0.000 C 
BRANCH   3   4
ATOM      4  C   UNL     1      -9.411  -9.019  -4.883  1.00  0.00     0.000 C 
BRANCH   4   5
ATOM      5  C   UNL     1      -9.722 -10.331  -4.147  1.00  0.00     0.001 C 
BRANCH   5   6
ATOM      6  C   UNL     1      -9.066 -10.401  -2.756  1.00  0.00     0.009 C 
BRANCH   6   7
ATOM      7  C   UNL     1      -9.164 -11.812  -2.139  1.00  0.00     0.032 C 
ATOM      8  C   UNL     1      -9.092 -12.885  -3.230  1.00  0.00     0.014 C 
BRANCH   7   9
ATOM      9  C   UNL     1      -8.074 -12.041  -1.126  1.00  0.00     0.044 C 
ATOM     10  O   UNL     1      -8.171 -11.549   0.029  1.00  0.00    -0.550 OA
ATOM     11  O   UNL     1      -6.949 -12.787  -1.461  1.00  0.00    -0.550 OA
ENDBRANCH   7   9
ENDBRANCH   6   7
ENDBRANCH   5   6
ENDBRANCH   4   5
ENDBRANCH   3   4
ENDBRANCH   2   3
ENDBRANCH   1   2
BRANCH   1  12
ATOM     12  C   UNL     1      -8.245  -4.845  -4.396  1.00  0.00     0.000 C 
BRANCH  12  13
ATOM     13  C   UNL     1      -8.704  -3.562  -3.685  1.00  0.00    -0.000 C 
BRANCH  13  14
ATOM     14  C   UNL     1      -9.189  -2.482  -4.669  1.00  0.00    -0.000 C 
BRANCH  14  15
ATOM     15  C   UNL     1      -8.129  -2.126  -5.724  1.00  0.00    -0.000 C 
BRANCH  15  16
ATOM     16  C   UNL     1      -8.546  -2.528  -7.149  1.00  0.00    -0.000 C 
BRANCH  16  17
ATOM     17  C   UNL     1      -7.486  -3.414  -7.838  1.00  0.00    -0.000 C 
BRANCH  17  18
ATOM     18  C   UNL     1      -6.813  -2.740  -9.046  1.00  0.00    -0.003 C 
ATOM     19  C   UNL     1      -5.332  -3.085  -9.175  1.00  0.00     0.004 C 
ENDBRANCH  17  18
ENDBRANCH  16  17
ENDBRANCH  15  16
ENDBRANCH  14  15
ENDBRANCH  13  14
ENDBRANCH  12  13
ENDBRANCH   1  12
TORSDOF 14
ENDMDL
MODEL 4
REMARK VINA RESULT:    -3.429     14.649     17.337
REMARK INTER + INTRA:          -7.789
REMARK INTER:                  -5.765
REMARK INTRA:                  -2.023
REMARK UNBOUND:                -1.553
REMARK SMILES CCCCCCCCCCCCCC[C@@H](C)C(=O)[O-]
REMARK SMILES IDX 9 1 10 2 11 3 12 4 13 5 14 6 15 7 16 8 17 9 18 10 19 11 8 12
REMARK SMILES IDX 7 13 6 14 5 15 4 16 3 17 2 18 1 19
REMARK H PARENT
REMARK Flexibility Score: inf
ROOT
ATOM      1  C   UNL     1       4.127   1.453   8.205  1.00  0.00     0.000 C 
ENDROOT
BRANCH   1   2
ATOM      2  C   UNL     1       4.969   0.533   9.105  1.00  0.00     0.000 C 
BRANCH   2   3
ATOM      3  C   UNL     1       6.430   0.427   8.643  1.00  0.00     0.000 C 
BRANCH   3   4
ATOM      4  C   UNL     1       6.913  -1.031   8.691  1.00  0.00     0.000 C 
BRANCH   4   5
ATOM      5  C   UNL     1       7.959  -1.344   7.610  1.00  0.00     0.001 C 
BRANCH   5   6
ATOM      6  C   UNL     1       8.141  -0.191   6.607  1.00  0.00     0.009 C 
BRANCH   6   7
ATOM      7  C   UNL     1       9.401  -0.372   5.737  1.00  0.00     0.032 C 
ATOM      8  C   UNL     1      10.119  -1.678   6.090  1.00  0.00     0.014 C 
BRANCH   7   9
ATOM      9  C   UNL     1       9.057  -0.360   4.271  1.00  0.00     0.044 C 
ATOM     10  O   UNL     1       8.786  -1.437   3.677  1.00  0.00    -0.550 OA
ATOM     11  O   UNL     1       9.044   0.836   3.561  1.00  0.00    -0.550 OA
ENDBRANCH   7   9
ENDBRANCH   6   7
ENDBRANCH   5   6
ENDBRANCH   4   5
ENDBRANCH   3   4
ENDBRANCH   2   3
ENDBRANCH   1   2
BRANCH   1  12
ATOM     12  C   UNL     1       3.553   2.661   8.967  1.00  0.00     0.000 C 
BRANCH  12  13
ATOM     13  C   UNL     1       4.635   3.681   9.358  1.00  0.00    -0.000 C 
BRANCH  13  14
ATOM     14  C   UNL     1       5.267   4.369   8.137  1.00  0.00    -0.000 C 
BRANCH  14  15
ATOM     15  C   UNL     1       6.804   4.370   8.190  1.00  0.00    -0.000 C 
BRANCH  15  16
ATOM     16  C   UNL     1       7.439   3.477   7.110  1.00  0.00    -0.000 C 
BRANCH  16  17
ATOM     17  C   UNL     1       6.816   3.713   5.718  1.00  0.00    -0.000 C 
BRANCH  17  18
ATOM     18  C   UNL     1       6.260   2.435   5.068  1.00  0.00    -0.003 C 
ATOM     19  C   UNL     1       5.864   2.629   3.607  1.00  0.00     0.004 C 
ENDBRANCH  17  18
ENDBRANCH  16  17
ENDBRANCH  15  16
ENDBRANCH  14  15
ENDBRANCH  13  14
ENDBRANCH  12  13
ENDBRANCH   1  12
TORSDOF 14
ENDMDL
MODEL 5
REMARK VINA RESULT:    -3.409     14.980     17.231
REMARK INTER + INTRA:          -7.751
REMARK INTER:                  -5.829
REMARK INTRA:                  -1.922
REMARK UNBOUND:                -1.553
REMARK SMILES CCCCCCCCCCCCCC[C@@H](C)C(=O)[O-]
REMARK SMILES IDX 9 1 10 2 11 3 12 4 13 5 14 6 15 7 16 8 17 9 18 10 19 11 8 12
REMARK SMILES IDX 7 13 6 14 5 15 4 16 3 17 2 18 1 19
REMARK H PARENT
REMARK Flexibility Score: inf
ROOT
ATOM      1  C   UNL     1       4.546   0.579   9.870  1.00  0.00     0.000 C 
ENDROOT
BRANCH   1   2
ATOM      2  C   UNL     1       4.153   1.258   8.548  1.00  0.00     0.000 C 
BRANCH   2   3
ATOM      3  C   UNL     1       4.292   2.787   8.601  1.00  0.00     0.000 C 
BRANCH   3   4
ATOM      4  C   UNL     1       5.575   3.244   7.890  1.00  0.00     0.000 C 
BRANCH   4   5
ATOM      5  C   UNL     1       6.050   2.245   6.824  1.00  0.00     0.001 C 
BRANCH   5   6
ATOM      6  C   UNL     1       7.467   2.555   6.310  1.00  0.00     0.009 C 
BRANCH   6   7
ATOM      7  C   UNL     1       7.461   3.016   4.837  1.00  0.00     0.032 C 
ATOM      8  C   UNL     1       6.314   2.353   4.068  1.00  0.00     0.014 C 
BRANCH   7   9
ATOM      9  C   UNL     1       7.345   4.513   4.736  1.00  0.00     0.044 C 
ATOM     10  O   UNL     1       8.273   5.250   5.162  1.00  0.00    -0.550 OA
ATOM     11  O   UNL     1       6.209   5.094   4.180  1.00  0.00    -0.550 OA
ENDBRANCH   7   9
ENDBRANCH   6   7
ENDBRANCH   5   6
ENDBRANCH   4   5
ENDBRANCH   3   4
ENDBRANCH   2   3
ENDBRANCH   1   2
BRANCH   1  12
ATOM     12  C   UNL     1       6.062   0.338   9.983  1.00  0.00     0.000 C 
BRANCH  12  13
ATOM     13  C   UNL     1       6.485  -1.033   9.431  1.00  0.00    -0.000 C 
BRANCH  13  14
ATOM     14  C   UNL     1       7.460  -0.919   8.246  1.00  0.00    -0.000 C 
BRANCH  14  15
ATOM     15  C   UNL     1       8.090  -2.270   7.868  1.00  0.00    -0.000 C 
BRANCH  15  16
ATOM     16  C   UNL     1       8.640  -2.290   6.432  1.00  0.00    -0.000 C 
BRANCH  16  17
ATOM     17  C   UNL     1       8.576  -0.900   5.763  1.00  0.00    -0.000 C 
BRANCH  17  18
ATOM     18  C   UNL     1       8.957  -0.917   4.273  1.00  0.00    -0.003 C 
ATOM     19  C   UNL     1       9.765   0.307   3.848  1.00  0.00     0.004 C 
ENDBRANCH  17  18
ENDBRANCH  16  17
ENDBRANCH  15  16
ENDBRANCH  14  15
ENDBRANCH  13  14
ENDBRANCH  12  13
ENDBRANCH   1  12
TORSDOF 14
ENDMDL
MODEL 6
REMARK VINA RESULT:    -3.397     15.058     17.042
REMARK INTER + INTRA:          -7.729
REMARK INTER:                  -5.435
REMARK INTRA:                  -2.294
REMARK UNBOUND:                -1.553
REMARK SMILES CCCCCCCCCCCCCC[C@@H](C)C(=O)[O-]
REMARK SMILES IDX 9 1 10 2 11 3 12 4 13 5 14 6 15 7 16 8 17 9 18 10 19 11 8 12
REMARK SMILES IDX 7 13 6 14 5 15 4 16 3 17 2 18 1 19
REMARK H PARENT
REMARK Flexibility Score: inf
ROOT
ATOM      1  C   UNL     1       3.337   2.169   8.651  1.00  0.00     0.000 C 
ENDROOT
BRANCH   1   2
ATOM      2  C   UNL     1       4.098   3.286   9.385  1.00  0.00     0.000 C 
BRANCH   2   3
ATOM      3  C   UNL     1       5.102   4.014   8.479  1.00  0.00     0.000 C 
BRANCH   3   4
ATOM      4  C   UNL     1       6.546   3.692   8.892  1.00  0.00     0.000 C 
BRANCH   4   5
ATOM      5  C   UNL     1       7.377   3.109   7.739  1.00  0.00     0.001 C 
BRANCH   5   6
ATOM      6  C   UNL     1       6.503   2.534   6.609  1.00  0.00     0.009 C 
BRANCH   6   7
ATOM      7  C   UNL     1       6.795   3.206   5.251  1.00  0.00     0.032 C 
ATOM      8  C   UNL     1       8.225   3.754   5.216  1.00  0.00     0.014 C 
BRANCH   7   9
ATOM      9  C   UNL     1       6.591   2.243   4.113  1.00  0.00     0.044 C 
ATOM     10  O   UNL     1       7.534   1.496   3.739  1.00  0.00    -0.550 OA
ATOM     11  O   UNL     1       5.365   2.176   3.459  1.00  0.00    -0.550 OA
ENDBRANCH   7   9
ENDBRANCH   6   7
ENDBRANCH   5   6
ENDBRANCH   4   5
ENDBRANCH   3   4
ENDBRANCH   2   3
ENDBRANCH   1   2
BRANCH   1  12
ATOM     12  C   UNL     1       4.104   0.834   8.649  1.00  0.00     0.000 C 
BRANCH  12  13
ATOM     13  C   UNL     1       4.790   0.546   9.994  1.00  0.00    -0.000 C 
BRANCH  13  14
ATOM     14  C   UNL     1       5.805  -0.607   9.905  1.00  0.00    -0.000 C 
BRANCH  14  15
ATOM     15  C   UNL     1       6.708  -0.504   8.665  1.00  0.00    -0.000 C 
BRANCH  15  16
ATOM     16  C   UNL     1       7.841  -1.545   8.663  1.00  0.00    -0.000 C 
BRANCH  16  17
ATOM     17  C   UNL     1       8.230  -1.980   7.234  1.00  0.00    -0.000 C 
BRANCH  17  18
ATOM     18  C   UNL     1       8.241  -0.823   6.221  1.00  0.00    -0.003 C 
ATOM     19  C   UNL     1       9.490   0.050   6.322  1.00  0.00     0.004 C 
ENDBRANCH  17  18
ENDBRANCH  16  17
ENDBRANCH  15  16
ENDBRANCH  14  15
ENDBRANCH  13  14
ENDBRANCH  12  13
ENDBRANCH   1  12
TORSDOF 14
ENDMDL
MODEL 7
REMARK VINA RESULT:    -3.380     15.033     17.038
REMARK INTER + INTRA:          -7.700
REMARK INTER:                  -5.456
REMARK INTRA:                  -2.244
REMARK UNBOUND:                -1.553
REMARK SMILES CCCCCCCCCCCCCC[C@@H](C)C(=O)[O-]
REMARK SMILES IDX 9 1 10 2 11 3 12 4 13 5 14 6 15 7 16 8 17 9 18 10 19 11 8 12
REMARK SMILES IDX 7 13 6 14 5 15 4 16 3 17 2 18 1 19
REMARK H PARENT
REMARK Flexibility Score: inf
ROOT
ATOM      1  C   UNL     1       6.331   5.166   4.506  1.00  0.00     0.000 C 
ENDROOT
BRANCH   1   2
ATOM      2  C   UNL     1       6.321   3.680   4.109  1.00  0.00     0.000 C 
BRANCH   2   3
ATOM      3  C   UNL     1       7.311   2.840   4.930  1.00  0.00     0.000 C 
BRANCH   3   4
ATOM      4  C   UNL     1       6.593   2.121   6.082  1.00  0.00     0.000 C 
BRANCH   4   5
ATOM      5  C   UNL     1       7.535   1.222   6.898  1.00  0.00     0.001 C 
BRANCH   5   6
ATOM      6  C   UNL     1       8.931   1.094   6.263  1.00  0.00     0.009 C 
BRANCH   6   7
ATOM      7  C   UNL     1       9.245  -0.356   5.839  1.00  0.00     0.032 C 
ATOM      8  C   UNL     1       8.262  -1.334   6.490  1.00  0.00     0.014 C 
BRANCH   7   9
ATOM      9  C   UNL     1       9.199  -0.507   4.342  1.00  0.00     0.044 C 
ATOM     10  O   UNL     1       9.365   0.497   3.600  1.00  0.00    -0.550 OA
ATOM     11  O   UNL     1       8.966  -1.753   3.768  1.00  0.00    -0.550 OA
ENDBRANCH   7   9
ENDBRANCH   6   7
ENDBRANCH   5   6
ENDBRANCH   4   5
ENDBRANCH   3   4
ENDBRANCH   2   3
ENDBRANCH   1   2
BRANCH   1  12
ATOM     12  C   UNL     1       7.620   5.572   5.242  1.00  0.00     0.000 C 
BRANCH  12  13
ATOM     13  C   UNL     1       7.348   6.111   6.656  1.00  0.00    -0.000 C 
BRANCH  13  14
ATOM     14  C   UNL     1       7.873   5.175   7.758  1.00  0.00    -0.000 C 
BRANCH  14  15
ATOM     15  C   UNL     1       6.748   4.620   8.646  1.00  0.00    -0.000 C 
BRANCH  15  16
ATOM     16  C   UNL     1       5.345   4.953   8.110  1.00  0.00    -0.000 C 
BRANCH  16  17
ATOM     17  C   UNL     1       4.239   4.159   8.839  1.00  0.00    -0.000 C 
BRANCH  17  18
ATOM     18  C   UNL     1       4.593   2.679   9.065  1.00  0.00    -0.003 C 
ATOM     19  C   UNL     1       3.650   1.721   8.343  1.00  0.00     0.004 C 
ENDBRANCH  17  18
ENDBRANCH  16  17
ENDBRANCH  15  16
ENDBRANCH  14  15
ENDBRANCH  13  14
ENDBRANCH  12  13
ENDBRANCH   1  12
TORSDOF 14
ENDMDL
MODEL 8
REMARK VINA RESULT:    -3.369     14.833     17.547
REMARK INTER + INTRA:          -7.679
REMARK INTER:                  -5.622
REMARK INTRA:                  -2.058
REMARK UNBOUND:                -1.553
REMARK SMILES CCCCCCCCCCCCCC[C@@H](C)C(=O)[O-]
REMARK SMILES IDX 9 1 10 2 11 3 12 4 13 5 14 6 15 7 16 8 17 9 18 10 19 11 8 12
REMARK SMILES IDX 7 13 6 14 5 15 4 16 3 17 2 18 1 19
REMARK H PARENT
REMARK Flexibility Score: inf
ROOT
ATOM      1  C   UNL     1       8.243  -1.126   6.137  1.00  0.00     0.000 C 
ENDROOT
BRANCH   1   2
ATOM      2  C   UNL     1       9.682  -1.268   5.613  1.00  0.00     0.000 C 
BRANCH   2   3
ATOM      3  C   UNL     1       9.899  -0.552   4.272  1.00  0.00     0.000 C 
BRANCH   3   4
ATOM      4  C   UNL     1       8.890   0.593   4.094  1.00  0.00     0.000 C 
BRANCH   4   5
ATOM      5  C   UNL     1       9.492   1.969   4.420  1.00  0.00     0.001 C 
BRANCH   5   6
ATOM      6  C   UNL     1       8.605   2.794   5.370  1.00  0.00     0.009 C 
BRANCH   6   7
ATOM      7  C   UNL     1       7.127   2.796   4.928  1.00  0.00     0.032 C 
ATOM      8  C   UNL     1       6.214   2.406   6.095  1.00  0.00     0.014 C 
BRANCH   7   9
ATOM      9  C   UNL     1       6.721   4.143   4.392  1.00  0.00     0.044 C 
ATOM     10  O   UNL     1       5.881   4.224   3.457  1.00  0.00    -0.550 OA
ATOM     11  O   UNL     1       7.276   5.306   4.917  1.00  0.00    -0.550 OA
ENDBRANCH   7   9
ENDBRANCH   6   7
ENDBRANCH   5   6
ENDBRANCH   4   5
ENDBRANCH   3   4
ENDBRANCH   2   3
ENDBRANCH   1   2
BRANCH   1  12
ATOM     12  C   UNL     1       8.172  -1.115   7.674  1.00  0.00     0.000 C 
BRANCH  12  13
ATOM     13  C   UNL     1       8.329   0.296   8.262  1.00  0.00    -0.000 C 
BRANCH  13  14
ATOM     14  C   UNL     1       7.140   0.703   9.149  1.00  0.00    -0.000 C 
BRANCH  14  15
ATOM     15  C   UNL     1       5.991  -0.318   9.101  1.00  0.00    -0.000 C 
BRANCH  15  16
ATOM     16  C   UNL     1       4.687   0.220   9.716  1.00  0.00    -0.000 C 
BRANCH  16  17
ATOM     17  C   UNL     1       4.646   1.763   9.736  1.00  0.00    -0.000 C 
BRANCH  17  18
ATOM     18  C   UNL     1       3.734   2.368   8.655  1.00  0.00    -0.003 C 
ATOM     19  C   UNL     1       2.699   1.380   8.124  1.00  0.00     0.004 C 
ENDBRANCH  17  18
ENDBRANCH  16  17
ENDBRANCH  15  16
ENDBRANCH  14  15
ENDBRANCH  13  14
ENDBRANCH  12  13
ENDBRANCH   1  12
TORSDOF 14
ENDMDL
MODEL 9
REMARK VINA RESULT:    -3.352     18.027     19.813
REMARK INTER + INTRA:          -7.648
REMARK INTER:                  -5.914
REMARK INTRA:                  -1.734
REMARK UNBOUND:                -1.553
REMARK SMILES CCCCCCCCCCCCCC[C@@H](C)C(=O)[O-]
REMARK SMILES IDX 9 1 10 2 11 3 12 4 13 5 14 6 15 7 16 8 17 9 18 10 19 11 8 12
REMARK SMILES IDX 7 13 6 14 5 15 4 16 3 17 2 18 1 19
REMARK H PARENT
REMARK Flexibility Score: inf
ROOT
ATOM      1  C   UNL     1      -5.187  -7.169   8.252  1.00  0.00     0.000 C 
ENDROOT
BRANCH   1   2
ATOM      2  C   UNL     1      -4.423  -7.811   7.080  1.00  0.00     0.000 C 
BRANCH   2   3
ATOM      3  C   UNL     1      -5.140  -9.044   6.510  1.00  0.00     0.000 C 
BRANCH   3   4
ATOM      4  C   UNL     1      -6.234  -9.534   7.471  1.00  0.00     0.000 C 
BRANCH   4   5
ATOM      5  C   UNL     1      -7.241 -10.475   6.792  1.00  0.00     0.001 C 
BRANCH   5   6
ATOM      6  C   UNL     1      -6.568 -11.704   6.155  1.00  0.00     0.009 C 
BRANCH   6   7
ATOM      7  C   UNL     1      -7.346 -12.220   4.927  1.00  0.00     0.032 C 
ATOM      8  C   UNL     1      -8.359 -11.174   4.450  1.00  0.00     0.014 C 
BRANCH   7   9
ATOM      9  C   UNL     1      -6.413 -12.576   3.801  1.00  0.00     0.044 C 
ATOM     10  O   UNL     1      -6.830 -12.586   2.613  1.00  0.00    -0.550 OA
ATOM     11  O   UNL     1      -5.087 -12.905   4.064  1.00  0.00    -0.550 OA
ENDBRANCH   7   9
ENDBRANCH   6   7
ENDBRANCH   5   6
ENDBRANCH   4   5
ENDBRANCH   3   4
ENDBRANCH   2   3
ENDBRANCH   1   2
BRANCH   1  12
ATOM     12  C   UNL     1      -4.356  -7.131   9.547  1.00  0.00     0.000 C 
BRANCH  12  13
ATOM     13  C   UNL     1      -3.708  -8.486   9.873  1.00  0.00    -0.000 C 
BRANCH  13  14
ATOM     14  C   UNL     1      -2.175  -8.399   9.973  1.00  0.00    -0.000 C 
BRANCH  14  15
ATOM     15  C   UNL     1      -1.468  -9.032   8.763  1.00  0.00    -0.000 C 
BRANCH  15  16
ATOM     16  C   UNL     1      -0.585 -10.232   9.148  1.00  0.00    -0.000 C 
BRANCH  16  17
ATOM     17  C   UNL     1      -1.414 -11.409   9.705  1.00  0.00    -0.000 C 
BRANCH  17  18
ATOM     18  C   UNL     1      -2.165 -12.200   8.621  1.00  0.00    -0.003 C 
ATOM     19  C   UNL     1      -3.675 -11.978   8.655  1.00  0.00     0.004 C 
ENDBRANCH  17  18
ENDBRANCH  16  17
ENDBRANCH  15  16
ENDBRANCH  14  15
ENDBRANCH  13  14
ENDBRANCH  12  13
ENDBRANCH   1  12
TORSDOF 14
ENDMDL
