MODEL 1
REMARK VINA RESULT:    -4.295      0.000      0.000
REMARK INTER + INTRA:          -4.567
REMARK INTER:                  -4.546
REMARK INTRA:                  -0.022
REMARK UNBOUND:                -0.022
REMARK SMILES O=C([O-])c1cccnc1
REMARK SMILES IDX 4 1 5 2 9 3 6 4 8 5 7 6 2 7 1 8 3 9
REMARK H PARENT
REMARK Flexibility Score: inf
ROOT
ATOM      1  C   UNL     1     -18.888  14.281 -29.013  1.00  0.00     0.016 A 
ATOM      2  C   UNL     1     -17.847  14.910 -28.309  1.00  0.00     0.013 A 
ATOM      3  C   UNL     1     -19.114  12.912 -28.789  1.00  0.00     0.120 A 
ATOM      4  C   UNL     1     -17.067  14.178 -27.411  1.00  0.00     0.021 A 
ATOM      5  N   UNL     1     -18.339  12.223 -27.910  1.00  0.00    -0.264 NA
ATOM      6  C   UNL     1     -17.330  12.822 -27.223  1.00  0.00     0.111 A 
ENDROOT
BRANCH   1   7
ATOM      7  C   UNL     1     -19.726  15.038 -29.968  1.00  0.00     0.073 C 
ATOM      8  O   UNL     1     -19.244  16.005 -30.616  1.00  0.00    -0.545 OA
ATOM      9  O   UNL     1     -21.058  14.691 -30.163  1.00  0.00    -0.545 OA
ENDBRANCH   1   7
TORSDOF 1
ENDMDL
MODEL 2
REMARK VINA RESULT:    -4.206      0.919      1.283
REMARK INTER + INTRA:          -4.473
REMARK INTER:                  -4.452
REMARK INTRA:                  -0.021
REMARK UNBOUND:                -0.022
REMARK SMILES O=C([O-])c1cccnc1
REMARK SMILES IDX 4 1 5 2 9 3 6 4 8 5 7 6 2 7 1 8 3 9
REMARK H PARENT
REMARK Flexibility Score: inf
ROOT
ATOM      1  C   UNL     1     -18.727  14.801 -28.841  1.00  0.00     0.016 A 
ATOM      2  C   UNL     1     -17.639  14.928 -27.962  1.00  0.00     0.013 A 
ATOM      3  C   UNL     1     -19.301  13.530 -29.015  1.00  0.00     0.120 A 
ATOM      4  C   UNL     1     -17.152  13.809 -27.284  1.00  0.00     0.021 A 
ATOM      5  N   UNL     1     -18.806  12.456 -28.343  1.00  0.00    -0.264 NA
ATOM      6  C   UNL     1     -17.755  12.569 -27.490  1.00  0.00     0.111 A 
ENDROOT
BRANCH   1   7
ATOM      7  C   UNL     1     -19.259  15.974 -29.569  1.00  0.00     0.073 C 
ATOM      8  O   UNL     1     -19.783  15.839 -30.706  1.00  0.00    -0.545 OA
ATOM      9  O   UNL     1     -19.187  17.243 -29.005  1.00  0.00    -0.545 OA
ENDBRANCH   1   7
TORSDOF 1
ENDMDL
MODEL 3
REMARK VINA RESULT:    -3.882      1.142      2.028
REMARK INTER + INTRA:          -4.131
REMARK INTER:                  -4.109
REMARK INTRA:                  -0.022
REMARK UNBOUND:                -0.022
REMARK SMILES O=C([O-])c1cccnc1
REMARK SMILES IDX 4 1 5 2 9 3 6 4 8 5 7 6 2 7 1 8 3 9
REMARK H PARENT
REMARK Flexibility Score: inf
ROOT
ATOM      1  C   UNL     1     -18.764  14.828 -28.864  1.00  0.00     0.016 A 
ATOM      2  C   UNL     1     -19.430  13.597 -28.979  1.00  0.00     0.013 A 
ATOM      3  C   UNL     1     -17.636  14.902 -28.030  1.00  0.00     0.120 A 
ATOM      4  C   UNL     1     -18.969  12.483 -28.275  1.00  0.00     0.021 A 
ATOM      5  N   UNL     1     -17.208  13.802 -27.354  1.00  0.00    -0.264 NA
ATOM      6  C   UNL     1     -17.846  12.606 -27.459  1.00  0.00     0.111 A 
ENDROOT
BRANCH   1   7
ATOM      7  C   UNL     1     -19.235  16.020 -29.603  1.00  0.00     0.073 C 
ATOM      8  O   UNL     1     -19.790  15.899 -30.727  1.00  0.00    -0.545 OA
ATOM      9  O   UNL     1     -19.073  17.291 -29.063  1.00  0.00    -0.545 OA
ENDBRANCH   1   7
TORSDOF 1
ENDMDL
MODEL 4
REMARK VINA RESULT:    -3.756      2.571      3.496
REMARK INTER + INTRA:          -3.997
REMARK INTER:                  -3.975
REMARK INTRA:                  -0.023
REMARK UNBOUND:                -0.022
REMARK SMILES O=C([O-])c1cccnc1
REMARK SMILES IDX 4 1 5 2 9 3 6 4 8 5 7 6 2 7 1 8 3 9
REMARK H PARENT
REMARK Flexibility Score: inf
ROOT
ATOM      1  C   UNL     1     -18.597  13.867 -28.416  1.00  0.00     0.016 A 
ATOM      2  C   UNL     1     -18.841  14.930 -29.302  1.00  0.00     0.013 A 
ATOM      3  C   UNL     1     -19.541  12.829 -28.341  1.00  0.00     0.120 A 
ATOM      4  C   UNL     1     -19.999  14.938 -30.083  1.00  0.00     0.021 A 
ATOM      5  N   UNL     1     -20.660  12.862 -29.113  1.00  0.00    -0.264 NA
ATOM      6  C   UNL     1     -20.906  13.885 -29.973  1.00  0.00     0.111 A 
ENDROOT
BRANCH   1   7
ATOM      7  C   UNL     1     -17.377  13.839 -27.580  1.00  0.00     0.073 C 
ATOM      8  O   UNL     1     -16.747  14.901 -27.331  1.00  0.00    -0.545 OA
ATOM      9  O   UNL     1     -16.910  12.639 -27.058  1.00  0.00    -0.545 OA
ENDBRANCH   1   7
TORSDOF 1
ENDMDL
MODEL 5
REMARK VINA RESULT:    -3.672      2.759      3.771
REMARK INTER + INTRA:          -3.909
REMARK INTER:                  -3.886
REMARK INTRA:                  -0.023
REMARK UNBOUND:                -0.022
REMARK SMILES O=C([O-])c1cccnc1
REMARK SMILES IDX 4 1 5 2 9 3 6 4 8 5 7 6 2 7 1 8 3 9
REMARK H PARENT
REMARK Flexibility Score: inf
ROOT
ATOM      1  C   UNL     1     -18.581  13.924 -28.420  1.00  0.00     0.016 A 
ATOM      2  C   UNL     1     -19.468  12.834 -28.411  1.00  0.00     0.013 A 
ATOM      3  C   UNL     1     -18.874  15.018 -29.251  1.00  0.00     0.120 A 
ATOM      4  C   UNL     1     -20.611  12.855 -29.214  1.00  0.00     0.021 A 
ATOM      5  N   UNL     1     -19.993  15.012 -30.024  1.00  0.00    -0.264 NA
ATOM      6  C   UNL     1     -20.858  13.964 -30.022  1.00  0.00     0.111 A 
ENDROOT
BRANCH   1   7
ATOM      7  C   UNL     1     -17.365  13.921 -27.576  1.00  0.00     0.073 C 
ATOM      8  O   UNL     1     -16.771  14.999 -27.308  1.00  0.00    -0.545 OA
ATOM      9  O   UNL     1     -16.863  12.729 -27.069  1.00  0.00    -0.545 OA
ENDBRANCH   1   7
TORSDOF 1
ENDMDL
MODEL 6
REMARK VINA RESULT:    -3.640      1.642      2.246
REMARK INTER + INTRA:          -3.874
REMARK INTER:                  -3.853
REMARK INTRA:                  -0.021
REMARK UNBOUND:                -0.022
REMARK SMILES O=C([O-])c1cccnc1
REMARK SMILES IDX 4 1 5 2 9 3 6 4 8 5 7 6 2 7 1 8 3 9
REMARK H PARENT
REMARK Flexibility Score: inf
ROOT
ATOM      1  C   UNL     1     -17.965  13.622 -27.870  1.00  0.00     0.016 A 
ATOM      2  C   UNL     1     -16.835  13.141 -27.188  1.00  0.00     0.013 A 
ATOM      3  C   UNL     1     -18.921  12.695 -28.317  1.00  0.00     0.120 A 
ATOM      4  C   UNL     1     -16.681  11.771 -26.968  1.00  0.00     0.021 A 
ATOM      5  N   UNL     1     -18.746  11.365 -28.090  1.00  0.00    -0.264 NA
ATOM      6  C   UNL     1     -17.657  10.890 -27.431  1.00  0.00     0.111 A 
ENDROOT
BRANCH   1   7
ATOM      7  C   UNL     1     -18.147  15.070 -28.113  1.00  0.00     0.073 C 
ATOM      8  O   UNL     1     -17.752  15.916 -27.268  1.00  0.00    -0.545 OA
ATOM      9  O   UNL     1     -18.758  15.516 -29.279  1.00  0.00    -0.545 OA
ENDBRANCH   1   7
TORSDOF 1
ENDMDL
MODEL 7
REMARK VINA RESULT:    -3.627      1.524      2.197
REMARK INTER + INTRA:          -3.860
REMARK INTER:                  -3.840
REMARK INTRA:                  -0.020
REMARK UNBOUND:                -0.022
REMARK SMILES O=C([O-])c1cccnc1
REMARK SMILES IDX 4 1 5 2 9 3 6 4 8 5 7 6 2 7 1 8 3 9
REMARK H PARENT
REMARK Flexibility Score: inf
ROOT
ATOM      1  C   UNL     1     -19.344  13.546 -29.064  1.00  0.00     0.016 A 
ATOM      2  C   UNL     1     -18.898  12.534 -28.197  1.00  0.00     0.013 A 
ATOM      3  C   UNL     1     -18.673  14.780 -29.052  1.00  0.00     0.120 A 
ATOM      4  C   UNL     1     -17.811  12.766 -27.351  1.00  0.00     0.021 A 
ATOM      5  N   UNL     1     -17.617  14.980 -28.217  1.00  0.00    -0.264 NA
ATOM      6  C   UNL     1     -17.178  14.008 -27.376  1.00  0.00     0.111 A 
ENDROOT
BRANCH   1   7
ATOM      7  C   UNL     1     -20.493  13.321 -29.968  1.00  0.00     0.073 C 
ATOM      8  O   UNL     1     -20.612  12.234 -30.593  1.00  0.00    -0.545 OA
ATOM      9  O   UNL     1     -21.457  14.307 -30.139  1.00  0.00    -0.545 OA
ENDBRANCH   1   7
TORSDOF 1
ENDMDL
MODEL 8
REMARK VINA RESULT:    -3.613      2.844      3.887
REMARK INTER + INTRA:          -3.846
REMARK INTER:                  -3.826
REMARK INTRA:                  -0.021
REMARK UNBOUND:                -0.022
REMARK SMILES O=C([O-])c1cccnc1
REMARK SMILES IDX 4 1 5 2 9 3 6 4 8 5 7 6 2 7 1 8 3 9
REMARK H PARENT
REMARK Flexibility Score: inf
ROOT
ATOM      1  C   UNL     1     -18.391  14.408 -28.446  1.00  0.00     0.016 A 
ATOM      2  C   UNL     1     -19.130  14.080 -29.595  1.00  0.00     0.013 A 
ATOM      3  C   UNL     1     -18.260  15.764 -28.100  1.00  0.00     0.120 A 
ATOM      4  C   UNL     1     -19.714  15.090 -30.364  1.00  0.00     0.021 A 
ATOM      5  N   UNL     1     -18.839  16.727 -28.866  1.00  0.00    -0.264 NA
ATOM      6  C   UNL     1     -19.556  16.420 -29.979  1.00  0.00     0.111 A 
ENDROOT
BRANCH   1   7
ATOM      7  C   UNL     1     -17.764  13.354 -27.618  1.00  0.00     0.073 C 
ATOM      8  O   UNL     1     -16.635  13.541 -27.093  1.00  0.00    -0.545 OA
ATOM      9  O   UNL     1     -18.415  12.144 -27.410  1.00  0.00    -0.545 OA
ENDBRANCH   1   7
TORSDOF 1
ENDMDL
MODEL 9
REMARK VINA RESULT:    -3.574      2.209      3.172
REMARK INTER + INTRA:          -3.805
REMARK INTER:                  -3.785
REMARK INTRA:                  -0.020
REMARK UNBOUND:                -0.022
REMARK SMILES O=C([O-])c1cccnc1
REMARK SMILES IDX 4 1 5 2 9 3 6 4 8 5 7 6 2 7 1 8 3 9
REMARK H PARENT
REMARK Flexibility Score: inf
ROOT
ATOM      1  C   UNL     1     -18.561  13.601 -28.483  1.00  0.00     0.016 A 
ATOM      2  C   UNL     1     -19.151  13.924 -29.717  1.00  0.00     0.013 A 
ATOM      3  C   UNL     1     -18.794  12.324 -27.945  1.00  0.00     0.120 A 
ATOM      4  C   UNL     1     -19.945  12.986 -30.380  1.00  0.00     0.021 A 
ATOM      5  N   UNL     1     -19.573  11.430 -28.611  1.00  0.00    -0.264 NA
ATOM      6  C   UNL     1     -20.147  11.732 -29.806  1.00  0.00     0.111 A 
ENDROOT
BRANCH   1   7
ATOM      7  C   UNL     1     -17.716  14.580 -27.765  1.00  0.00     0.073 C 
ATOM      8  O   UNL     1     -16.629  14.222 -27.239  1.00  0.00    -0.545 OA
ATOM      9  O   UNL     1     -18.112  15.908 -27.661  1.00  0.00    -0.545 OA
ENDBRANCH   1   7
TORSDOF 1
ENDMDL
