MODEL 1
REMARK VINA RESULT:    -3.764      0.000      0.000
REMARK INTER + INTRA:          -4.750
REMARK INTER:                  -4.645
REMARK INTRA:                  -0.105
REMARK UNBOUND:                -0.105
REMARK SMILES CCCCCC(=O)[O-]
REMARK SMILES IDX 4 1 5 2 6 3 7 4 8 5 3 6 2 7 1 8
REMARK H PARENT
REMARK Flexibility Score: inf
ROOT
ATOM      1  C   UNL     1      16.272  13.001  -6.178  1.00  0.00     0.006 C 
ENDROOT
BRANCH   1   2
ATOM      2  C   UNL     1      16.438  12.621  -7.658  1.00  0.00     0.053 C 
BRANCH   2   3
ATOM      3  C   UNL     1      15.220  12.957  -8.463  1.00  0.00     0.041 C 
ATOM      4  O   UNL     1      14.127  13.199  -7.888  1.00  0.00    -0.550 OA
ATOM      5  O   UNL     1      15.284  12.967  -9.851  1.00  0.00    -0.550 OA
ENDBRANCH   2   3
ENDBRANCH   1   2
BRANCH   1   6
ATOM      6  C   UNL     1      17.581  13.421  -5.476  1.00  0.00     0.000 C 
BRANCH   6   7
ATOM      7  C   UNL     1      17.486  14.714  -4.648  1.00  0.00    -0.003 C 
ATOM      8  C   UNL     1      16.596  15.774  -5.294  1.00  0.00     0.004 C 
ENDBRANCH   6   7
ENDBRANCH   1   6
TORSDOF 4
ENDMDL
MODEL 2
REMARK VINA RESULT:    -3.727      2.749      4.155
REMARK INTER + INTRA:          -4.704
REMARK INTER:                  -4.520
REMARK INTRA:                  -0.184
REMARK UNBOUND:                -0.105
REMARK SMILES CCCCCC(=O)[O-]
REMARK SMILES IDX 4 1 5 2 6 3 7 4 8 5 3 6 2 7 1 8
REMARK H PARENT
REMARK Flexibility Score: inf
ROOT
ATOM      1  C   UNL     1      17.045  13.285  -7.033  1.00  0.00     0.006 C 
ENDROOT
BRANCH   1   2
ATOM      2  C   UNL     1      17.466  14.736  -6.750  1.00  0.00     0.053 C 
BRANCH   2   3
ATOM      3  C   UNL     1      17.109  15.163  -5.359  1.00  0.00     0.041 C 
ATOM      4  O   UNL     1      17.624  14.585  -4.367  1.00  0.00    -0.550 OA
ATOM      5  O   UNL     1      16.179  16.176  -5.160  1.00  0.00    -0.550 OA
ENDBRANCH   2   3
ENDBRANCH   1   2
BRANCH   1   6
ATOM      6  C   UNL     1      15.564  12.979  -6.726  1.00  0.00     0.000 C 
BRANCH   6   7
ATOM      7  C   UNL     1      14.593  13.234  -7.892  1.00  0.00    -0.003 C 
ATOM      8  C   UNL     1      15.207  12.933  -9.259  1.00  0.00     0.004 C 
ENDBRANCH   6   7
ENDBRANCH   1   6
TORSDOF 4
ENDMDL
MODEL 3
REMARK VINA RESULT:    -3.679      3.105      4.642
REMARK INTER + INTRA:          -4.645
REMARK INTER:                  -4.573
REMARK INTRA:                  -0.072
REMARK UNBOUND:                -0.105
REMARK SMILES CCCCCC(=O)[O-]
REMARK SMILES IDX 4 1 5 2 6 3 7 4 8 5 3 6 2 7 1 8
REMARK H PARENT
REMARK Flexibility Score: inf
ROOT
ATOM      1  C   UNL     1      16.619  14.337  -6.667  1.00  0.00     0.006 C 
ENDROOT
BRANCH   1   2
ATOM      2  C   UNL     1      16.796  15.008  -5.296  1.00  0.00     0.053 C 
BRANCH   2   3
ATOM      3  C   UNL     1      18.053  14.564  -4.611  1.00  0.00     0.041 C 
ATOM      4  O   UNL     1      18.290  13.338  -4.457  1.00  0.00    -0.550 OA
ATOM      5  O   UNL     1      18.944  15.506  -4.113  1.00  0.00    -0.550 OA
ENDBRANCH   2   3
ENDBRANCH   1   2
BRANCH   1   6
ATOM      6  C   UNL     1      15.615  13.166  -6.680  1.00  0.00     0.000 C 
BRANCH   6   7
ATOM      7  C   UNL     1      14.581  13.210  -7.819  1.00  0.00    -0.003 C 
ATOM      8  C   UNL     1      15.186  12.905  -9.188  1.00  0.00     0.004 C 
ENDBRANCH   6   7
ENDBRANCH   1   6
TORSDOF 4
ENDMDL
MODEL 4
REMARK VINA RESULT:    -3.675      0.712      1.189
REMARK INTER + INTRA:          -4.640
REMARK INTER:                  -4.537
REMARK INTRA:                  -0.103
REMARK UNBOUND:                -0.105
REMARK SMILES CCCCCC(=O)[O-]
REMARK SMILES IDX 4 1 5 2 6 3 7 4 8 5 3 6 2 7 1 8
REMARK H PARENT
REMARK Flexibility Score: inf
ROOT
ATOM      1  C   UNL     1      16.253  12.990  -6.226  1.00  0.00     0.006 C 
ENDROOT
BRANCH   1   2
ATOM      2  C   UNL     1      16.394  12.607  -7.708  1.00  0.00     0.053 C 
BRANCH   2   3
ATOM      3  C   UNL     1      15.159  12.930  -8.492  1.00  0.00     0.041 C 
ATOM      4  O   UNL     1      14.078  13.175  -7.897  1.00  0.00    -0.550 OA
ATOM      5  O   UNL     1      15.195  12.925  -9.881  1.00  0.00    -0.550 OA
ENDBRANCH   2   3
ENDBRANCH   1   2
BRANCH   1   6
ATOM      6  C   UNL     1      16.580  14.465  -5.914  1.00  0.00     0.000 C 
BRANCH   6   7
ATOM      7  C   UNL     1      17.421  14.688  -4.645  1.00  0.00    -0.003 C 
ATOM      8  C   UNL     1      18.468  13.598  -4.422  1.00  0.00     0.004 C 
ENDBRANCH   6   7
ENDBRANCH   1   6
TORSDOF 4
ENDMDL
MODEL 5
REMARK VINA RESULT:    -3.439      2.442      4.019
REMARK INTER + INTRA:          -4.348
REMARK INTER:                  -4.186
REMARK INTRA:                  -0.162
REMARK UNBOUND:                -0.105
REMARK SMILES CCCCCC(=O)[O-]
REMARK SMILES IDX 4 1 5 2 6 3 7 4 8 5 3 6 2 7 1 8
REMARK H PARENT
REMARK Flexibility Score: inf
ROOT
ATOM      1  C   UNL     1      15.000  13.514  -7.528  1.00  0.00     0.006 C 
ENDROOT
BRANCH   1   2
ATOM      2  C   UNL     1      15.954  12.904  -6.488  1.00  0.00     0.053 C 
BRANCH   2   3
ATOM      3  C   UNL     1      16.686  13.956  -5.712  1.00  0.00     0.041 C 
ATOM      4  O   UNL     1      16.307  15.156  -5.759  1.00  0.00    -0.550 OA
ATOM      5  O   UNL     1      17.807  13.617  -4.967  1.00  0.00    -0.550 OA
ENDBRANCH   2   3
ENDBRANCH   1   2
BRANCH   1   6
ATOM      6  C   UNL     1      15.062  12.849  -8.919  1.00  0.00     0.000 C 
BRANCH   6   7
ATOM      7  C   UNL     1      16.372  13.081  -9.691  1.00  0.00    -0.003 C 
ATOM      8  C   UNL     1      16.769  14.555  -9.766  1.00  0.00     0.004 C 
ENDBRANCH   6   7
ENDBRANCH   1   6
TORSDOF 4
ENDMDL
MODEL 6
REMARK VINA RESULT:    -3.415      9.356     10.196
REMARK INTER + INTRA:          -4.319
REMARK INTER:                  -4.212
REMARK INTRA:                  -0.107
REMARK UNBOUND:                -0.105
REMARK SMILES CCCCCC(=O)[O-]
REMARK SMILES IDX 4 1 5 2 6 3 7 4 8 5 3 6 2 7 1 8
REMARK H PARENT
REMARK Flexibility Score: inf
ROOT
ATOM      1  C   UNL     1      17.374   4.653  -7.084  1.00  0.00     0.006 C 
ENDROOT
BRANCH   1   2
ATOM      2  C   UNL     1      17.437   3.767  -5.830  1.00  0.00     0.053 C 
BRANCH   2   3
ATOM      3  C   UNL     1      17.198   2.323  -6.150  1.00  0.00     0.041 C 
ATOM      4  O   UNL     1      16.966   1.500  -5.226  1.00  0.00    -0.550 OA
ATOM      5  O   UNL     1      17.267   1.881  -7.465  1.00  0.00    -0.550 OA
ENDBRANCH   2   3
ENDBRANCH   1   2
BRANCH   1   6
ATOM      6  C   UNL     1      16.219   5.676  -7.087  1.00  0.00     0.000 C 
BRANCH   6   7
ATOM      7  C   UNL     1      14.929   5.198  -6.397  1.00  0.00    -0.003 C 
ATOM      8  C   UNL     1      13.703   6.022  -6.786  1.00  0.00     0.004 C 
ENDBRANCH   6   7
ENDBRANCH   1   6
TORSDOF 4
ENDMDL
MODEL 7
REMARK VINA RESULT:    -3.361      9.912     10.771
REMARK INTER + INTRA:          -4.253
REMARK INTER:                  -4.136
REMARK INTRA:                  -0.117
REMARK UNBOUND:                -0.105
REMARK SMILES CCCCCC(=O)[O-]
REMARK SMILES IDX 4 1 5 2 6 3 7 4 8 5 3 6 2 7 1 8
REMARK H PARENT
REMARK Flexibility Score: inf
ROOT
ATOM      1  C   UNL     1      15.939   3.166  -6.748  1.00  0.00     0.006 C 
ENDROOT
BRANCH   1   2
ATOM      2  C   UNL     1      16.335   1.949  -5.898  1.00  0.00     0.053 C 
BRANCH   2   3
ATOM      3  C   UNL     1      17.542   2.222  -5.053  1.00  0.00     0.041 C 
ATOM      4  O   UNL     1      18.666   2.394  -5.592  1.00  0.00    -0.550 OA
ATOM      5  O   UNL     1      17.430   2.252  -3.669  1.00  0.00    -0.550 OA
ENDBRANCH   2   3
ENDBRANCH   1   2
BRANCH   1   6
ATOM      6  C   UNL     1      15.701   4.460  -5.941  1.00  0.00     0.000 C 
BRANCH   6   7
ATOM      7  C   UNL     1      15.300   5.684  -6.782  1.00  0.00    -0.003 C 
ATOM      8  C   UNL     1      13.796   5.953  -6.767  1.00  0.00     0.004 C 
ENDBRANCH   6   7
ENDBRANCH   1   6
TORSDOF 4
ENDMDL
MODEL 8
REMARK VINA RESULT:    -3.268      2.834      4.192
REMARK INTER + INTRA:          -4.137
REMARK INTER:                  -3.935
REMARK INTRA:                  -0.202
REMARK UNBOUND:                -0.105
REMARK SMILES CCCCCC(=O)[O-]
REMARK SMILES IDX 4 1 5 2 6 3 7 4 8 5 3 6 2 7 1 8
REMARK H PARENT
REMARK Flexibility Score: inf
ROOT
ATOM      1  C   UNL     1      16.559  13.441  -6.756  1.00  0.00     0.006 C 
ENDROOT
BRANCH   1   2
ATOM      2  C   UNL     1      17.060  12.463  -5.682  1.00  0.00     0.053 C 
BRANCH   2   3
ATOM      3  C   UNL     1      18.194  11.617  -6.177  1.00  0.00     0.041 C 
ATOM      4  O   UNL     1      18.153  11.117  -7.331  1.00  0.00    -0.550 OA
ATOM      5  O   UNL     1      19.278  11.353  -5.349  1.00  0.00    -0.550 OA
ENDBRANCH   2   3
ENDBRANCH   1   2
BRANCH   1   6
ATOM      6  C   UNL     1      15.116  13.179  -7.235  1.00  0.00     0.000 C 
BRANCH   6   7
ATOM      7  C   UNL     1      14.976  12.872  -8.737  1.00  0.00    -0.003 C 
ATOM      8  C   UNL     1      16.204  13.283  -9.548  1.00  0.00     0.004 C 
ENDBRANCH   6   7
ENDBRANCH   1   6
TORSDOF 4
ENDMDL
MODEL 9
REMARK VINA RESULT:    -3.200      2.177      2.710
REMARK INTER + INTRA:          -4.054
REMARK INTER:                  -3.833
REMARK INTRA:                  -0.221
REMARK UNBOUND:                -0.105
REMARK SMILES CCCCCC(=O)[O-]
REMARK SMILES IDX 4 1 5 2 6 3 7 4 8 5 3 6 2 7 1 8
REMARK H PARENT
REMARK Flexibility Score: inf
ROOT
ATOM      1  C   UNL     1      16.486  14.756  -6.183  1.00  0.00     0.006 C 
ENDROOT
BRANCH   1   2
ATOM      2  C   UNL     1      15.982  13.306  -6.268  1.00  0.00     0.053 C 
BRANCH   2   3
ATOM      3  C   UNL     1      17.085  12.347  -6.599  1.00  0.00     0.041 C 
ATOM      4  O   UNL     1      17.565  11.602  -5.705  1.00  0.00    -0.550 OA
ATOM      5  O   UNL     1      17.606  12.303  -7.885  1.00  0.00    -0.550 OA
ENDBRANCH   2   3
ENDBRANCH   1   2
BRANCH   1   6
ATOM      6  C   UNL     1      17.084  15.145  -4.815  1.00  0.00     0.000 C 
BRANCH   6   7
ATOM      7  C   UNL     1      18.619  15.077  -4.735  1.00  0.00    -0.003 C 
ATOM      8  C   UNL     1      19.120  14.125  -3.650  1.00  0.00     0.004 C 
ENDBRANCH   6   7
ENDBRANCH   1   6
TORSDOF 4
ENDMDL
