MODEL 1
REMARK VINA RESULT:    -3.390      0.000      0.000
REMARK INTER + INTRA:          -5.146
REMARK INTER:                  -4.579
REMARK INTRA:                  -0.567
REMARK UNBOUND:                -0.567
REMARK SMILES CCCCCCCC(=O)[O-]
REMARK SMILES IDX 5 1 6 2 7 3 8 4 9 5 10 6 4 7 3 8 2 9 1 10
REMARK H PARENT
REMARK Flexibility Score: inf
ROOT
ATOM      1  C   UNL     1      12.667  62.623   6.963  1.00  0.00     0.000 C 
ENDROOT
BRANCH   1   2
ATOM      2  C   UNL     1      11.596  62.094   7.929  1.00  0.00     0.006 C 
BRANCH   2   3
ATOM      3  C   UNL     1      11.133  63.155   8.936  1.00  0.00     0.053 C 
BRANCH   3   4
ATOM      4  C   UNL     1       9.901  63.843   8.439  1.00  0.00     0.041 C 
ATOM      5  O   UNL     1       9.985  64.963   7.869  1.00  0.00    -0.550 OA
ATOM      6  O   UNL     1       8.652  63.272   8.651  1.00  0.00    -0.550 OA
ENDBRANCH   3   4
ENDBRANCH   2   3
ENDBRANCH   1   2
BRANCH   1   7
ATOM      7  C   UNL     1      13.526  63.736   7.582  1.00  0.00     0.000 C 
BRANCH   7   8
ATOM      8  C   UNL     1      13.505  64.996   6.708  1.00  0.00    -0.000 C 
BRANCH   8   9
ATOM      9  C   UNL     1      12.593  64.806   5.490  1.00  0.00    -0.003 C 
ATOM     10  C   UNL     1      11.884  66.107   5.126  1.00  0.00     0.004 C 
ENDBRANCH   8   9
ENDBRANCH   7   8
ENDBRANCH   1   7
TORSDOF 6
ENDMDL
MODEL 2
REMARK VINA RESULT:    -3.366      2.575      4.257
REMARK INTER + INTRA:          -5.113
REMARK INTER:                  -4.599
REMARK INTRA:                  -0.514
REMARK UNBOUND:                -0.567
REMARK SMILES CCCCCCCC(=O)[O-]
REMARK SMILES IDX 5 1 6 2 7 3 8 4 9 5 10 6 4 7 3 8 2 9 1 10
REMARK H PARENT
REMARK Flexibility Score: inf
ROOT
ATOM      1  C   UNL     1      13.426  63.911   7.381  1.00  0.00     0.000 C 
ENDROOT
BRANCH   1   2
ATOM      2  C   UNL     1      13.401  65.114   6.424  1.00  0.00     0.006 C 
BRANCH   2   3
ATOM      3  C   UNL     1      12.008  65.371   5.836  1.00  0.00     0.053 C 
BRANCH   3   4
ATOM      4  C   UNL     1      12.095  65.574   4.356  1.00  0.00     0.041 C 
ATOM      5  O   UNL     1      12.276  64.591   3.590  1.00  0.00    -0.550 OA
ATOM      6  O   UNL     1      12.029  66.857   3.825  1.00  0.00    -0.550 OA
ENDBRANCH   3   4
ENDBRANCH   2   3
ENDBRANCH   1   2
BRANCH   1   7
ATOM      7  C   UNL     1      12.748  62.667   6.787  1.00  0.00     0.000 C 
BRANCH   7   8
ATOM      8  C   UNL     1      11.724  62.081   7.766  1.00  0.00    -0.000 C 
BRANCH   8   9
ATOM      9  C   UNL     1      11.279  63.130   8.792  1.00  0.00    -0.003 C 
ATOM     10  C   UNL     1       9.831  63.549   8.557  1.00  0.00     0.004 C 
ENDBRANCH   8   9
ENDBRANCH   7   8
ENDBRANCH   1   7
TORSDOF 6
ENDMDL
MODEL 3
REMARK VINA RESULT:    -3.299      0.916      1.791
REMARK INTER + INTRA:          -5.023
REMARK INTER:                  -4.500
REMARK INTRA:                  -0.523
REMARK UNBOUND:                -0.567
REMARK SMILES CCCCCCCC(=O)[O-]
REMARK SMILES IDX 5 1 6 2 7 3 8 4 9 5 10 6 4 7 3 8 2 9 1 10
REMARK H PARENT
REMARK Flexibility Score: inf
ROOT
ATOM      1  C   UNL     1      11.570  62.022   7.942  1.00  0.00     0.000 C 
ENDROOT
BRANCH   1   2
ATOM      2  C   UNL     1      11.015  63.080   8.909  1.00  0.00     0.006 C 
BRANCH   2   3
ATOM      3  C   UNL     1       9.558  63.451   8.606  1.00  0.00     0.053 C 
BRANCH   3   4
ATOM      4  C   UNL     1       9.377  64.935   8.650  1.00  0.00     0.041 C 
ATOM      5  O   UNL     1       8.254  65.429   8.934  1.00  0.00    -0.550 OA
ATOM      6  O   UNL     1      10.436  65.775   8.328  1.00  0.00    -0.550 OA
ENDBRANCH   3   4
ENDBRANCH   2   3
ENDBRANCH   1   2
BRANCH   1   7
ATOM      7  C   UNL     1      12.675  62.575   7.030  1.00  0.00     0.000 C 
BRANCH   7   8
ATOM      8  C   UNL     1      13.363  63.784   7.672  1.00  0.00    -0.000 C 
BRANCH   8   9
ATOM      9  C   UNL     1      13.653  64.871   6.630  1.00  0.00    -0.003 C 
ATOM     10  C   UNL     1      12.536  64.952   5.593  1.00  0.00     0.004 C 
ENDBRANCH   8   9
ENDBRANCH   7   8
ENDBRANCH   1   7
TORSDOF 6
ENDMDL
MODEL 4
REMARK VINA RESULT:    -3.250      1.456      1.837
REMARK INTER + INTRA:          -4.956
REMARK INTER:                  -4.424
REMARK INTRA:                  -0.532
REMARK UNBOUND:                -0.567
REMARK SMILES CCCCCCCC(=O)[O-]
REMARK SMILES IDX 5 1 6 2 7 3 8 4 9 5 10 6 4 7 3 8 2 9 1 10
REMARK H PARENT
REMARK Flexibility Score: inf
ROOT
ATOM      1  C   UNL     1      12.998  63.174   6.383  1.00  0.00     0.000 C 
ENDROOT
BRANCH   1   2
ATOM      2  C   UNL     1      12.285  62.301   7.429  1.00  0.00     0.006 C 
BRANCH   2   3
ATOM      3  C   UNL     1      10.998  62.947   7.957  1.00  0.00     0.053 C 
BRANCH   3   4
ATOM      4  C   UNL     1      11.060  63.094   9.444  1.00  0.00     0.041 C 
ATOM      5  O   UNL     1      10.576  62.203  10.191  1.00  0.00    -0.550 OA
ATOM      6  O   UNL     1      11.607  64.241  10.007  1.00  0.00    -0.550 OA
ENDBRANCH   3   4
ENDBRANCH   2   3
ENDBRANCH   1   2
BRANCH   1   7
ATOM      7  C   UNL     1      13.817  64.308   7.017  1.00  0.00     0.000 C 
BRANCH   7   8
ATOM      8  C   UNL     1      13.231  65.677   6.656  1.00  0.00    -0.000 C 
BRANCH   8   9
ATOM      9  C   UNL     1      12.263  65.567   5.472  1.00  0.00    -0.003 C 
ATOM     10  C   UNL     1      10.902  66.164   5.815  1.00  0.00     0.004 C 
ENDBRANCH   8   9
ENDBRANCH   7   8
ENDBRANCH   1   7
TORSDOF 6
ENDMDL
MODEL 5
REMARK VINA RESULT:    -3.190      2.187      3.735
REMARK INTER + INTRA:          -4.876
REMARK INTER:                  -4.287
REMARK INTRA:                  -0.589
REMARK UNBOUND:                -0.567
REMARK SMILES CCCCCCCC(=O)[O-]
REMARK SMILES IDX 5 1 6 2 7 3 8 4 9 5 10 6 4 7 3 8 2 9 1 10
REMARK H PARENT
REMARK Flexibility Score: inf
ROOT
ATOM      1  C   UNL     1      11.707  62.098   7.623  1.00  0.00     0.000 C 
ENDROOT
BRANCH   1   2
ATOM      2  C   UNL     1      12.916  62.637   6.843  1.00  0.00     0.006 C 
BRANCH   2   3
ATOM      3  C   UNL     1      13.418  63.981   7.386  1.00  0.00     0.053 C 
BRANCH   3   4
ATOM      4  C   UNL     1      13.166  65.071   6.393  1.00  0.00     0.041 C 
ATOM      5  O   UNL     1      12.536  64.828   5.330  1.00  0.00    -0.550 OA
ATOM      6  O   UNL     1      13.671  66.346   6.617  1.00  0.00    -0.550 OA
ENDBRANCH   3   4
ENDBRANCH   2   3
ENDBRANCH   1   2
BRANCH   1   7
ATOM      7  C   UNL     1      11.323  62.992   8.812  1.00  0.00     0.000 C 
BRANCH   7   8
ATOM      8  C   UNL     1       9.872  63.474   8.690  1.00  0.00    -0.000 C 
BRANCH   8   9
ATOM      9  C   UNL     1       9.812  64.911   8.158  1.00  0.00    -0.003 C 
ATOM     10  C   UNL     1      10.613  65.860   9.045  1.00  0.00     0.004 C 
ENDBRANCH   8   9
ENDBRANCH   7   8
ENDBRANCH   1   7
TORSDOF 6
ENDMDL
MODEL 6
REMARK VINA RESULT:    -3.185      2.530      4.272
REMARK INTER + INTRA:          -4.869
REMARK INTER:                  -4.434
REMARK INTRA:                  -0.434
REMARK UNBOUND:                -0.567
REMARK SMILES CCCCCCCC(=O)[O-]
REMARK SMILES IDX 5 1 6 2 7 3 8 4 9 5 10 6 4 7 3 8 2 9 1 10
REMARK H PARENT
REMARK Flexibility Score: inf
ROOT
ATOM      1  C   UNL     1      13.529  64.920   6.559  1.00  0.00     0.000 C 
ENDROOT
BRANCH   1   2
ATOM      2  C   UNL     1      12.632  64.587   5.355  1.00  0.00     0.006 C 
BRANCH   2   3
ATOM      3  C   UNL     1      11.630  65.704   5.039  1.00  0.00     0.053 C 
BRANCH   3   4
ATOM      4  C   UNL     1      11.340  65.746   3.572  1.00  0.00     0.041 C 
ATOM      5  O   UNL     1      12.284  65.783   2.740  1.00  0.00    -0.550 OA
ATOM      6  O   UNL     1      10.026  65.796   3.124  1.00  0.00    -0.550 OA
ENDBRANCH   3   4
ENDBRANCH   2   3
ENDBRANCH   1   2
BRANCH   1   7
ATOM      7  C   UNL     1      13.410  63.887   7.689  1.00  0.00     0.000 C 
BRANCH   7   8
ATOM      8  C   UNL     1      12.641  62.646   7.221  1.00  0.00    -0.000 C 
BRANCH   8   9
ATOM      9  C   UNL     1      11.490  62.317   8.180  1.00  0.00    -0.003 C 
ATOM     10  C   UNL     1      10.528  63.494   8.310  1.00  0.00     0.004 C 
ENDBRANCH   8   9
ENDBRANCH   7   8
ENDBRANCH   1   7
TORSDOF 6
ENDMDL
MODEL 7
REMARK VINA RESULT:    -3.139      2.705      4.863
REMARK INTER + INTRA:          -4.807
REMARK INTER:                  -4.606
REMARK INTRA:                  -0.201
REMARK UNBOUND:                -0.567
REMARK SMILES CCCCCCCC(=O)[O-]
REMARK SMILES IDX 5 1 6 2 7 3 8 4 9 5 10 6 4 7 3 8 2 9 1 10
REMARK H PARENT
REMARK Flexibility Score: inf
ROOT
ATOM      1  C   UNL     1       9.955  64.213   8.365  1.00  0.00     0.000 C 
ENDROOT
BRANCH   1   2
ATOM      2  C   UNL     1      10.846  63.138   9.006  1.00  0.00     0.006 C 
BRANCH   2   3
ATOM      3  C   UNL     1      11.504  62.221   7.968  1.00  0.00     0.053 C 
BRANCH   3   4
ATOM      4  C   UNL     1      12.710  62.881   7.377  1.00  0.00     0.041 C 
ATOM      5  O   UNL     1      13.461  63.591   8.096  1.00  0.00    -0.550 OA
ATOM      6  O   UNL     1      12.976  62.755   6.019  1.00  0.00    -0.550 OA
ENDBRANCH   3   4
ENDBRANCH   2   3
ENDBRANCH   1   2
BRANCH   1   7
ATOM      7  C   UNL     1       8.470  64.041   8.720  1.00  0.00     0.000 C 
BRANCH   7   8
ATOM      8  C   UNL     1       7.784  65.402   8.888  1.00  0.00    -0.000 C 
BRANCH   8   9
ATOM      9  C   UNL     1       6.262  65.243   8.981  1.00  0.00    -0.003 C 
ATOM     10  C   UNL     1       5.819  63.875   8.474  1.00  0.00     0.004 C 
ENDBRANCH   8   9
ENDBRANCH   7   8
ENDBRANCH   1   7
TORSDOF 6
ENDMDL
MODEL 8
REMARK VINA RESULT:    -2.984      1.667      3.449
REMARK INTER + INTRA:          -4.597
REMARK INTER:                  -4.044
REMARK INTRA:                  -0.553
REMARK UNBOUND:                -0.567
REMARK SMILES CCCCCCCC(=O)[O-]
REMARK SMILES IDX 5 1 6 2 7 3 8 4 9 5 10 6 4 7 3 8 2 9 1 10
REMARK H PARENT
REMARK Flexibility Score: inf
ROOT
ATOM      1  C   UNL     1      13.023  63.070   6.164  1.00  0.00     0.000 C 
ENDROOT
BRANCH   1   2
ATOM      2  C   UNL     1      12.650  64.508   5.771  1.00  0.00     0.006 C 
BRANCH   2   3
ATOM      3  C   UNL     1      12.924  65.516   6.894  1.00  0.00     0.053 C 
BRANCH   3   4
ATOM      4  C   UNL     1      11.650  66.165   7.334  1.00  0.00     0.041 C 
ATOM      5  O   UNL     1      10.665  66.226   6.552  1.00  0.00    -0.550 OA
ATOM      6  O   UNL     1      11.565  66.749   8.593  1.00  0.00    -0.550 OA
ENDBRANCH   3   4
ENDBRANCH   2   3
ENDBRANCH   1   2
BRANCH   1   7
ATOM      7  C   UNL     1      12.863  62.806   7.668  1.00  0.00     0.000 C 
BRANCH   7   8
ATOM      8  C   UNL     1      11.483  62.214   7.979  1.00  0.00    -0.000 C 
BRANCH   8   9
ATOM      9  C   UNL     1      10.784  63.000   9.094  1.00  0.00    -0.003 C 
ATOM     10  C   UNL     1       9.423  63.514   8.636  1.00  0.00     0.004 C 
ENDBRANCH   8   9
ENDBRANCH   7   8
ENDBRANCH   1   7
TORSDOF 6
ENDMDL
MODEL 9
REMARK VINA RESULT:    -2.962      2.479      3.054
REMARK INTER + INTRA:          -4.567
REMARK INTER:                  -4.079
REMARK INTRA:                  -0.488
REMARK UNBOUND:                -0.567
REMARK SMILES CCCCCCCC(=O)[O-]
REMARK SMILES IDX 5 1 6 2 7 3 8 4 9 5 10 6 4 7 3 8 2 9 1 10
REMARK H PARENT
REMARK Flexibility Score: inf
ROOT
ATOM      1  C   UNL     1      11.104  63.275   8.057  1.00  0.00     0.000 C 
ENDROOT
BRANCH   1   2
ATOM      2  C   UNL     1      11.260  63.575   9.557  1.00  0.00     0.006 C 
BRANCH   2   3
ATOM      3  C   UNL     1      11.577  65.049   9.834  1.00  0.00     0.053 C 
BRANCH   3   4
ATOM      4  C   UNL     1      12.988  65.199  10.310  1.00  0.00     0.041 C 
ATOM      5  O   UNL     1      13.935  64.678   9.663  1.00  0.00    -0.550 OA
ATOM      6  O   UNL     1      13.254  65.871  11.497  1.00  0.00    -0.550 OA
ENDBRANCH   3   4
ENDBRANCH   2   3
ENDBRANCH   1   2
BRANCH   1   7
ATOM      7  C   UNL     1      12.222  62.374   7.513  1.00  0.00     0.000 C 
BRANCH   7   8
ATOM      8  C   UNL     1      12.988  63.072   6.383  1.00  0.00    -0.000 C 
BRANCH   8   9
ATOM      9  C   UNL     1      12.654  64.567   6.332  1.00  0.00    -0.003 C 
ATOM     10  C   UNL     1      12.327  65.010   4.909  1.00  0.00     0.004 C 
ENDBRANCH   8   9
ENDBRANCH   7   8
ENDBRANCH   1   7
TORSDOF 6
ENDMDL
