MODEL 1
REMARK VINA RESULT:    -4.033      0.000      0.000
REMARK INTER + INTRA:          -4.033
REMARK INTER:                  -4.033
REMARK INTRA:                   0.000
REMARK UNBOUND:                 0.000
REMARK SMILES CC1=CC(=O)[C@H]2C[C@@H]1C2(C)C
REMARK SMILES IDX 1 1 2 2 3 3 4 4 5 5 6 6 7 7 8 8 9 9 10 10 11 11
REMARK H PARENT
REMARK Flexibility Score: inf
ROOT
ATOM      1  C   UNL     1    -116.095 -98.551  14.351  1.00  0.00     0.040 C 
ATOM      2  C   UNL     1    -115.728 -97.203  14.884  1.00  0.00    -0.066 C 
ATOM      3  C   UNL     1    -114.549 -96.972  15.528  1.00  0.00     0.047 C 
ATOM      4  C   UNL     1    -114.320 -95.570  16.008  1.00  0.00     0.159 C 
ATOM      5  O   UNL     1    -113.291 -95.240  16.653  1.00  0.00    -0.295 OA
ATOM      6  C   UNL     1    -115.424 -94.571  15.659  1.00  0.00     0.067 C 
ATOM      7  C   UNL     1    -115.734 -94.855  14.173  1.00  0.00     0.021 C 
ATOM      8  C   UNL     1    -116.657 -95.989  14.674  1.00  0.00     0.022 C 
ATOM      9  C   UNL     1    -116.798 -95.208  16.011  1.00  0.00    -0.019 C 
ATOM     10  C   UNL     1    -117.954 -94.176  15.973  1.00  0.00     0.012 C 
ATOM     11  C   UNL     1    -116.917 -96.023  17.331  1.00  0.00     0.012 C 
ENDROOT
TORSDOF 0
ENDMDL
MODEL 2
REMARK VINA RESULT:    -3.979      1.669      3.557
REMARK INTER + INTRA:          -3.979
REMARK INTER:                  -3.979
REMARK INTRA:                   0.000
REMARK UNBOUND:                 0.000
REMARK SMILES CC1=CC(=O)[C@H]2C[C@@H]1C2(C)C
REMARK SMILES IDX 1 1 2 2 3 3 4 4 5 5 6 6 7 7 8 8 9 9 10 10 11 11
REMARK H PARENT
REMARK Flexibility Score: inf
ROOT
ATOM      1  C   UNL     1    -118.997 -94.501  17.639  1.00  0.00     0.040 C 
ATOM      2  C   UNL     1    -117.762 -94.379  16.805  1.00  0.00    -0.066 C 
ATOM      3  C   UNL     1    -117.331 -93.182  16.314  1.00  0.00     0.047 C 
ATOM      4  C   UNL     1    -116.076 -93.215  15.493  1.00  0.00     0.159 C 
ATOM      5  O   UNL     1    -115.601 -92.185  14.950  1.00  0.00    -0.295 OA
ATOM      6  C   UNL     1    -115.416 -94.589  15.364  1.00  0.00     0.067 C 
ATOM      7  C   UNL     1    -115.434 -95.153  16.801  1.00  0.00     0.021 C 
ATOM      8  C   UNL     1    -116.881 -95.610  16.510  1.00  0.00     0.022 C 
ATOM      9  C   UNL     1    -116.510 -95.632  14.999  1.00  0.00    -0.019 C 
ATOM     10  C   UNL     1    -115.908 -96.990  14.558  1.00  0.00     0.012 C 
ATOM     11  C   UNL     1    -117.602 -95.227  13.968  1.00  0.00     0.012 C 
ENDROOT
TORSDOF 0
ENDMDL
MODEL 3
REMARK VINA RESULT:    -3.818     15.023     16.231
REMARK INTER + INTRA:          -3.818
REMARK INTER:                  -3.818
REMARK INTRA:                   0.000
REMARK UNBOUND:                 0.000
REMARK SMILES CC1=CC(=O)[C@H]2C[C@@H]1C2(C)C
REMARK SMILES IDX 1 1 2 2 3 3 4 4 5 5 6 6 7 7 8 8 9 9 10 10 11 11
REMARK H PARENT
REMARK Flexibility Score: inf
ROOT
ATOM      1  C   UNL     1    -119.769 -98.036   1.252  1.00  0.00     0.040 C 
ATOM      2  C   UNL     1    -119.945 -99.518   1.344  1.00  0.00    -0.066 C 
ATOM      3  C   UNL     1    -118.911-100.387   1.161  1.00  0.00     0.047 C 
ATOM      4  C   UNL     1    -119.239-101.845   1.283  1.00  0.00     0.159 C 
ATOM      5  O   UNL     1    -118.381-102.745   1.094  1.00  0.00    -0.295 OA
ATOM      6  C   UNL     1    -120.690-102.159   1.653  1.00  0.00     0.067 C 
ATOM      7  C   UNL     1    -121.006-101.180   2.804  1.00  0.00     0.021 C 
ATOM      8  C   UNL     1    -121.313-100.131   1.712  1.00  0.00     0.022 C 
ATOM      9  C   UNL     1    -121.627-101.311   0.748  1.00  0.00    -0.019 C 
ATOM     10  C   UNL     1    -123.106-101.768   0.836  1.00  0.00     0.012 C 
ATOM     11  C   UNL     1    -121.256-101.152  -0.755  1.00  0.00     0.012 C 
ENDROOT
TORSDOF 0
ENDMDL
MODEL 4
REMARK VINA RESULT:    -3.641      1.972      3.001
REMARK INTER + INTRA:          -3.641
REMARK INTER:                  -3.641
REMARK INTRA:                   0.000
REMARK UNBOUND:                 0.000
REMARK SMILES CC1=CC(=O)[C@H]2C[C@@H]1C2(C)C
REMARK SMILES IDX 1 1 2 2 3 3 4 4 5 5 6 6 7 7 8 8 9 9 10 10 11 11
REMARK H PARENT
REMARK Flexibility Score: inf
ROOT
ATOM      1  C   UNL     1    -114.803 -97.953  14.901  1.00  0.00     0.040 C 
ATOM      2  C   UNL     1    -115.602 -96.745  15.272  1.00  0.00    -0.066 C 
ATOM      3  C   UNL     1    -116.600 -96.261  14.479  1.00  0.00     0.047 C 
ATOM      4  C   UNL     1    -117.314 -95.041  14.981  1.00  0.00     0.159 C 
ATOM      5  O   UNL     1    -118.223 -94.476  14.321  1.00  0.00    -0.295 OA
ATOM      6  C   UNL     1    -116.858 -94.535  16.350  1.00  0.00     0.067 C 
ATOM      7  C   UNL     1    -116.772 -95.811  17.215  1.00  0.00     0.021 C 
ATOM      8  C   UNL     1    -115.365 -96.020  16.613  1.00  0.00     0.022 C 
ATOM      9  C   UNL     1    -115.303 -94.485  16.367  1.00  0.00    -0.019 C 
ATOM     10  C   UNL     1    -114.751 -93.713  17.593  1.00  0.00     0.012 C 
ATOM     11  C   UNL     1    -114.567 -93.971  15.097  1.00  0.00     0.012 C 
ENDROOT
TORSDOF 0
ENDMDL
MODEL 5
REMARK VINA RESULT:    -3.574     15.043     16.569
REMARK INTER + INTRA:          -3.574
REMARK INTER:                  -3.574
REMARK INTRA:                   0.000
REMARK UNBOUND:                 0.000
REMARK SMILES CC1=CC(=O)[C@H]2C[C@@H]1C2(C)C
REMARK SMILES IDX 1 1 2 2 3 3 4 4 5 5 6 6 7 7 8 8 9 9 10 10 11 11
REMARK H PARENT
REMARK Flexibility Score: inf
ROOT
ATOM      1  C   UNL     1    -121.330-100.830   3.223  1.00  0.00     0.040 C 
ATOM      2  C   UNL     1    -120.718-100.988   1.868  1.00  0.00    -0.066 C 
ATOM      3  C   UNL     1    -121.144-101.934   0.983  1.00  0.00     0.047 C 
ATOM      4  C   UNL     1    -120.434-101.974  -0.338  1.00  0.00     0.159 C 
ATOM      5  O   UNL     1    -120.707-102.828  -1.221  1.00  0.00    -0.295 OA
ATOM      6  C   UNL     1    -119.357-100.906  -0.533  1.00  0.00     0.067 C 
ATOM      7  C   UNL     1    -120.021 -99.604  -0.034  1.00  0.00     0.021 C 
ATOM      8  C   UNL     1    -119.601-100.038   1.388  1.00  0.00     0.022 C 
ATOM      9  C   UNL     1    -118.459-100.870   0.735  1.00  0.00    -0.019 C 
ATOM     10  C   UNL     1    -117.170-100.036   0.523  1.00  0.00     0.012 C 
ATOM     11  C   UNL     1    -118.061-102.220   1.398  1.00  0.00     0.012 C 
ENDROOT
TORSDOF 0
ENDMDL
MODEL 6
REMARK VINA RESULT:    -3.572      1.408      2.245
REMARK INTER + INTRA:          -3.572
REMARK INTER:                  -3.572
REMARK INTRA:                   0.000
REMARK UNBOUND:                 0.000
REMARK SMILES CC1=CC(=O)[C@H]2C[C@@H]1C2(C)C
REMARK SMILES IDX 1 1 2 2 3 3 4 4 5 5 6 6 7 7 8 8 9 9 10 10 11 11
REMARK H PARENT
REMARK Flexibility Score: inf
ROOT
ATOM      1  C   UNL     1    -117.695 -95.196  13.945  1.00  0.00     0.040 C 
ATOM      2  C   UNL     1    -116.485 -95.465  14.780  1.00  0.00    -0.066 C 
ATOM      3  C   UNL     1    -115.836 -96.664  14.757  1.00  0.00     0.047 C 
ATOM      4  C   UNL     1    -114.638 -96.788  15.650  1.00  0.00     0.159 C 
ATOM      5  O   UNL     1    -113.982 -97.857  15.750  1.00  0.00    -0.295 OA
ATOM      6  C   UNL     1    -114.271 -95.524  16.429  1.00  0.00     0.067 C 
ATOM      7  C   UNL     1    -114.360 -94.394  15.380  1.00  0.00     0.021 C 
ATOM      8  C   UNL     1    -115.877 -94.363  15.672  1.00  0.00     0.022 C 
ATOM      9  C   UNL     1    -115.562 -94.949  17.078  1.00  0.00    -0.019 C 
ATOM     10  C   UNL     1    -115.256 -93.846  18.123  1.00  0.00     0.012 C 
ATOM     11  C   UNL     1    -116.579 -95.946  17.705  1.00  0.00     0.012 C 
ENDROOT
TORSDOF 0
ENDMDL
MODEL 7
REMARK VINA RESULT:    -3.528     14.439     15.942
REMARK INTER + INTRA:          -3.528
REMARK INTER:                  -3.528
REMARK INTRA:                   0.000
REMARK UNBOUND:                 0.000
REMARK SMILES CC1=CC(=O)[C@H]2C[C@@H]1C2(C)C
REMARK SMILES IDX 1 1 2 2 3 3 4 4 5 5 6 6 7 7 8 8 9 9 10 10 11 11
REMARK H PARENT
REMARK Flexibility Score: inf
ROOT
ATOM      1  C   UNL     1    -122.172-100.054   4.182  1.00  0.00     0.040 C 
ATOM      2  C   UNL     1    -121.589-100.479   2.873  1.00  0.00    -0.066 C 
ATOM      3  C   UNL     1    -120.686-101.496   2.773  1.00  0.00     0.047 C 
ATOM      4  C   UNL     1    -120.188-101.808   1.394  1.00  0.00     0.159 C 
ATOM      5  O   UNL     1    -119.322-102.694   1.176  1.00  0.00    -0.295 OA
ATOM      6  C   UNL     1    -120.806-100.973   0.271  1.00  0.00     0.067 C 
ATOM      7  C   UNL     1    -122.318-100.980   0.584  1.00  0.00     0.021 C 
ATOM      8  C   UNL     1    -122.034 -99.811   1.555  1.00  0.00     0.022 C 
ATOM      9  C   UNL     1    -120.781 -99.477   0.695  1.00  0.00    -0.019 C 
ATOM     10  C   UNL     1    -121.111 -98.524  -0.482  1.00  0.00     0.012 C 
ATOM     11  C   UNL     1    -119.515 -98.936   1.419  1.00  0.00     0.012 C 
ENDROOT
TORSDOF 0
ENDMDL
MODEL 8
REMARK VINA RESULT:    -3.489     14.696     16.179
REMARK INTER + INTRA:          -3.489
REMARK INTER:                  -3.489
REMARK INTRA:                   0.000
REMARK UNBOUND:                 0.000
REMARK SMILES CC1=CC(=O)[C@H]2C[C@@H]1C2(C)C
REMARK SMILES IDX 1 1 2 2 3 3 4 4 5 5 6 6 7 7 8 8 9 9 10 10 11 11
REMARK H PARENT
REMARK Flexibility Score: inf
ROOT
ATOM      1  C   UNL     1    -116.133 -98.287   1.456  1.00  0.00     0.040 C 
ATOM      2  C   UNL     1    -117.180 -99.309   1.146  1.00  0.00    -0.066 C 
ATOM      3  C   UNL     1    -116.972-100.643   1.331  1.00  0.00     0.047 C 
ATOM      4  C   UNL     1    -118.113-101.548   0.975  1.00  0.00     0.159 C 
ATOM      5  O   UNL     1    -118.030-102.800   1.061  1.00  0.00    -0.295 OA
ATOM      6  C   UNL     1    -119.384-100.841   0.500  1.00  0.00     0.067 C 
ATOM      7  C   UNL     1    -119.576 -99.690   1.512  1.00  0.00     0.021 C 
ATOM      8  C   UNL     1    -118.578 -98.884   0.650  1.00  0.00     0.022 C 
ATOM      9  C   UNL     1    -118.990 -99.772  -0.558  1.00  0.00    -0.019 C 
ATOM     10  C   UNL     1    -120.221 -99.208  -1.313  1.00  0.00     0.012 C 
ATOM     11  C   UNL     1    -117.902-100.139  -1.608  1.00  0.00     0.012 C 
ENDROOT
TORSDOF 0
ENDMDL
MODEL 9
REMARK VINA RESULT:    -3.413     14.545     15.867
REMARK INTER + INTRA:          -3.413
REMARK INTER:                  -3.413
REMARK INTRA:                   0.000
REMARK UNBOUND:                 0.000
REMARK SMILES CC1=CC(=O)[C@H]2C[C@@H]1C2(C)C
REMARK SMILES IDX 1 1 2 2 3 3 4 4 5 5 6 6 7 7 8 8 9 9 10 10 11 11
REMARK H PARENT
REMARK Flexibility Score: inf
ROOT
ATOM      1  C   UNL     1    -118.351-102.009   1.211  1.00  0.00     0.040 C 
ATOM      2  C   UNL     1    -119.434-100.982   1.124  1.00  0.00    -0.066 C 
ATOM      3  C   UNL     1    -119.190 -99.651   1.296  1.00  0.00     0.047 C 
ATOM      4  C   UNL     1    -120.375 -98.740   1.181  1.00  0.00     0.159 C 
ATOM      5  O   UNL     1    -120.287 -97.498   1.361  1.00  0.00    -0.295 OA
ATOM      6  C   UNL     1    -121.696 -99.426   0.830  1.00  0.00     0.067 C 
ATOM      7  C   UNL     1    -121.328-100.389  -0.319  1.00  0.00     0.021 C 
ATOM      8  C   UNL     1    -120.882-101.385   0.775  1.00  0.00     0.022 C 
ATOM      9  C   UNL     1    -121.866-100.671   1.746  1.00  0.00    -0.019 C 
ATOM     10  C   UNL     1    -123.296-101.264   1.677  1.00  0.00     0.012 C 
ATOM     11  C   UNL     1    -121.462-100.547   3.243  1.00  0.00     0.012 C 
ENDROOT
TORSDOF 0
ENDMDL
