MODEL 1
REMARK VINA RESULT:    -4.384      0.000      0.000
REMARK INTER + INTRA:          -4.728
REMARK INTER:                  -4.640
REMARK INTRA:                  -0.087
REMARK UNBOUND:                -0.087
REMARK SMILES C=C(C)[C@@H]1CC=C(C)C(=O)C1
REMARK SMILES IDX 8 1 7 2 6 3 5 4 4 5 11 6 9 7 10 8 2 9 1 10 3 11
REMARK H PARENT
REMARK Flexibility Score: inf
ROOT
ATOM      1  C   UNL     1      17.426  62.388  23.230  1.00  0.00     0.048 C 
ATOM      2  C   UNL     1      16.186  61.964  22.492  1.00  0.00    -0.012 C 
ATOM      3  C   UNL     1      16.282  61.511  21.229  1.00  0.00    -0.019 C 
ATOM      4  C   UNL     1      15.074  61.058  20.451  1.00  0.00     0.036 C 
ATOM      5  C   UNL     1      13.823  61.862  20.850  1.00  0.00     0.025 C 
ATOM      6  C   UNL     1      13.599  61.783  22.370  1.00  0.00     0.089 C 
ATOM      7  C   UNL     1      14.852  62.164  23.110  1.00  0.00     0.158 C 
ATOM      8  O   UNL     1      14.759  62.622  24.281  1.00  0.00    -0.295 OA
ENDROOT
BRANCH   5   9
ATOM      9  C   UNL     1      12.594  61.398  20.082  1.00  0.00    -0.077 C 
ATOM     10  C   UNL     1      12.178  62.077  19.000  1.00  0.00     0.008 C 
ATOM     11  C   UNL     1      11.814  60.177  20.507  1.00  0.00     0.039 C 
ENDBRANCH   5   9
TORSDOF 1
ENDMDL
MODEL 2
REMARK VINA RESULT:    -4.383     15.445     16.701
REMARK INTER + INTRA:          -4.726
REMARK INTER:                  -4.630
REMARK INTRA:                  -0.096
REMARK UNBOUND:                -0.087
REMARK SMILES C=C(C)[C@@H]1CC=C(C)C(=O)C1
REMARK SMILES IDX 8 1 7 2 6 3 5 4 4 5 11 6 9 7 10 8 2 9 1 10 3 11
REMARK H PARENT
REMARK Flexibility Score: inf
ROOT
ATOM      1  C   UNL     1      18.606  51.914  32.002  1.00  0.00     0.048 C 
ATOM      2  C   UNL     1      17.693  52.161  33.170  1.00  0.00    -0.012 C 
ATOM      3  C   UNL     1      18.205  52.563  34.346  1.00  0.00    -0.019 C 
ATOM      4  C   UNL     1      17.333  52.842  35.542  1.00  0.00     0.036 C 
ATOM      5  C   UNL     1      16.098  51.922  35.555  1.00  0.00     0.025 C 
ATOM      6  C   UNL     1      15.325  52.046  34.231  1.00  0.00     0.089 C 
ATOM      7  C   UNL     1      16.247  51.842  33.060  1.00  0.00     0.158 C 
ATOM      8  O   UNL     1      15.771  51.431  31.967  1.00  0.00    -0.295 OA
ENDROOT
BRANCH   5   9
ATOM      9  C   UNL     1      15.202  52.210  36.751  1.00  0.00    -0.077 C 
ATOM     10  C   UNL     1      14.718  53.448  36.948  1.00  0.00     0.008 C 
ATOM     11  C   UNL     1      14.837  51.129  37.740  1.00  0.00     0.039 C 
ENDBRANCH   5   9
TORSDOF 1
ENDMDL
MODEL 3
REMARK VINA RESULT:    -4.197      1.562      1.732
REMARK INTER + INTRA:          -4.529
REMARK INTER:                  -4.437
REMARK INTRA:                  -0.092
REMARK UNBOUND:                -0.087
REMARK SMILES C=C(C)[C@@H]1CC=C(C)C(=O)C1
REMARK SMILES IDX 8 1 7 2 6 3 5 4 4 5 11 6 9 7 10 8 2 9 1 10 3 11
REMARK H PARENT
REMARK Flexibility Score: inf
ROOT
ATOM      1  C   UNL     1      18.553  60.241  22.148  1.00  0.00     0.048 C 
ATOM      2  C   UNL     1      17.092  60.439  21.852  1.00  0.00    -0.012 C 
ATOM      3  C   UNL     1      16.409  59.491  21.187  1.00  0.00    -0.019 C 
ATOM      4  C   UNL     1      14.942  59.632  20.880  1.00  0.00     0.036 C 
ATOM      5  C   UNL     1      14.562  61.107  20.650  1.00  0.00     0.025 C 
ATOM      6  C   UNL     1      14.989  61.962  21.855  1.00  0.00     0.089 C 
ATOM      7  C   UNL     1      16.439  61.732  22.180  1.00  0.00     0.158 C 
ATOM      8  O   UNL     1      17.088  62.637  22.772  1.00  0.00    -0.295 OA
ENDROOT
BRANCH   5   9
ATOM      9  C   UNL     1      13.076  61.260  20.358  1.00  0.00    -0.077 C 
ATOM     10  C   UNL     1      12.610  62.396  19.813  1.00  0.00     0.008 C 
ATOM     11  C   UNL     1      12.094  60.157  20.669  1.00  0.00     0.039 C 
ENDBRANCH   5   9
TORSDOF 1
ENDMDL
MODEL 4
REMARK VINA RESULT:    -4.183      2.621      4.416
REMARK INTER + INTRA:          -4.515
REMARK INTER:                  -4.417
REMARK INTRA:                  -0.098
REMARK UNBOUND:                -0.087
REMARK SMILES C=C(C)[C@@H]1CC=C(C)C(=O)C1
REMARK SMILES IDX 8 1 7 2 6 3 5 4 4 5 11 6 9 7 10 8 2 9 1 10 3 11
REMARK H PARENT
REMARK Flexibility Score: inf
ROOT
ATOM      1  C   UNL     1      12.626  62.553  20.111  1.00  0.00     0.048 C 
ATOM      2  C   UNL     1      13.669  61.599  20.623  1.00  0.00    -0.012 C 
ATOM      3  C   UNL     1      14.938  62.017  20.782  1.00  0.00    -0.019 C 
ATOM      4  C   UNL     1      16.017  61.108  21.307  1.00  0.00     0.036 C 
ATOM      5  C   UNL     1      15.773  59.650  20.877  1.00  0.00     0.025 C 
ATOM      6  C   UNL     1      14.368  59.193  21.306  1.00  0.00     0.089 C 
ATOM      7  C   UNL     1      13.327  60.170  20.833  1.00  0.00     0.158 C 
ATOM      8  O   UNL     1      12.145  59.768  20.650  1.00  0.00    -0.295 OA
ENDROOT
BRANCH   5   9
ATOM      9  C   UNL     1      16.850  58.721  21.419  1.00  0.00    -0.077 C 
ATOM     10  C   UNL     1      17.921  59.228  22.052  1.00  0.00     0.008 C 
ATOM     11  C   UNL     1      16.749  57.223  21.263  1.00  0.00     0.039 C 
ENDBRANCH   5   9
TORSDOF 1
ENDMDL
MODEL 5
REMARK VINA RESULT:    -4.178     15.638     16.319
REMARK INTER + INTRA:          -4.510
REMARK INTER:                  -4.411
REMARK INTRA:                  -0.099
REMARK UNBOUND:                -0.087
REMARK SMILES C=C(C)[C@@H]1CC=C(C)C(=O)C1
REMARK SMILES IDX 8 1 7 2 6 3 5 4 4 5 11 6 9 7 10 8 2 9 1 10 3 11
REMARK H PARENT
REMARK Flexibility Score: inf
ROOT
ATOM      1  C   UNL     1      20.753  53.659  33.180  1.00  0.00     0.048 C 
ATOM      2  C   UNL     1      19.365  53.381  33.687  1.00  0.00    -0.012 C 
ATOM      3  C   UNL     1      18.834  54.162  34.644  1.00  0.00    -0.019 C 
ATOM      4  C   UNL     1      17.443  53.938  35.175  1.00  0.00     0.036 C 
ATOM      5  C   UNL     1      17.078  52.442  35.162  1.00  0.00     0.025 C 
ATOM      6  C   UNL     1      17.262  51.859  33.750  1.00  0.00     0.089 C 
ATOM      7  C   UNL     1      18.635  52.174  33.223  1.00  0.00     0.158 C 
ATOM      8  O   UNL     1      19.147  51.421  32.351  1.00  0.00    -0.295 OA
ENDROOT
BRANCH   5   9
ATOM      9  C   UNL     1      15.665  52.209  35.680  1.00  0.00    -0.077 C 
ATOM     10  C   UNL     1      14.696  51.811  34.839  1.00  0.00     0.008 C 
ATOM     11  C   UNL     1      15.316  52.416  37.134  1.00  0.00     0.039 C 
ENDBRANCH   5   9
TORSDOF 1
ENDMDL
MODEL 6
REMARK VINA RESULT:    -4.117     14.608     16.236
REMARK INTER + INTRA:          -4.445
REMARK INTER:                  -4.346
REMARK INTRA:                  -0.098
REMARK UNBOUND:                -0.087
REMARK SMILES C=C(C)[C@@H]1CC=C(C)C(=O)C1
REMARK SMILES IDX 8 1 7 2 6 3 5 4 4 5 11 6 9 7 10 8 2 9 1 10 3 11
REMARK H PARENT
REMARK Flexibility Score: inf
ROOT
ATOM      1  C   UNL     1      15.233  51.675  36.534  1.00  0.00     0.048 C 
ATOM      2  C   UNL     1      16.197  52.474  35.703  1.00  0.00    -0.012 C 
ATOM      3  C   UNL     1      17.250  51.865  35.128  1.00  0.00    -0.019 C 
ATOM      4  C   UNL     1      18.235  52.616  34.272  1.00  0.00     0.036 C 
ATOM      5  C   UNL     1      18.403  54.067  34.761  1.00  0.00     0.025 C 
ATOM      6  C   UNL     1      17.037  54.770  34.827  1.00  0.00     0.089 C 
ATOM      7  C   UNL     1      16.058  53.950  35.622  1.00  0.00     0.158 C 
ATOM      8  O   UNL     1      15.091  54.527  36.190  1.00  0.00    -0.295 OA
ENDROOT
BRANCH   5   9
ATOM      9  C   UNL     1      19.385  54.838  33.889  1.00  0.00    -0.077 C 
ATOM     10  C   UNL     1      19.233  56.161  33.713  1.00  0.00     0.008 C 
ATOM     11  C   UNL     1      20.539  54.148  33.204  1.00  0.00     0.039 C 
ENDBRANCH   5   9
TORSDOF 1
ENDMDL
MODEL 7
REMARK VINA RESULT:    -4.106      2.026      2.570
REMARK INTER + INTRA:          -4.434
REMARK INTER:                  -4.342
REMARK INTRA:                  -0.092
REMARK UNBOUND:                -0.087
REMARK SMILES C=C(C)[C@@H]1CC=C(C)C(=O)C1
REMARK SMILES IDX 8 1 7 2 6 3 5 4 4 5 11 6 9 7 10 8 2 9 1 10 3 11
REMARK H PARENT
REMARK Flexibility Score: inf
ROOT
ATOM      1  C   UNL     1      18.250  60.830  22.583  1.00  0.00     0.048 C 
ATOM      2  C   UNL     1      16.915  60.823  21.892  1.00  0.00    -0.012 C 
ATOM      3  C   UNL     1      16.223  61.969  21.762  1.00  0.00    -0.019 C 
ATOM      4  C   UNL     1      14.890  62.020  21.064  1.00  0.00     0.036 C 
ATOM      5  C   UNL     1      14.107  60.709  21.265  1.00  0.00     0.025 C 
ATOM      6  C   UNL     1      14.954  59.506  20.813  1.00  0.00     0.089 C 
ATOM      7  C   UNL     1      16.307  59.536  21.470  1.00  0.00     0.158 C 
ATOM      8  O   UNL     1      16.939  58.456  21.624  1.00  0.00    -0.295 OA
ENDROOT
BRANCH   5   9
ATOM      9  C   UNL     1      12.765  60.745  20.547  1.00  0.00    -0.077 C 
ATOM     10  C   UNL     1      11.766  59.941  20.945  1.00  0.00     0.008 C 
ATOM     11  C   UNL     1      12.521  61.672  19.381  1.00  0.00     0.039 C 
ENDBRANCH   5   9
TORSDOF 1
ENDMDL
MODEL 8
REMARK VINA RESULT:    -4.039     15.088     16.265
REMARK INTER + INTRA:          -4.362
REMARK INTER:                  -4.264
REMARK INTRA:                  -0.098
REMARK UNBOUND:                -0.087
REMARK SMILES C=C(C)[C@@H]1CC=C(C)C(=O)C1
REMARK SMILES IDX 8 1 7 2 6 3 5 4 4 5 11 6 9 7 10 8 2 9 1 10 3 11
REMARK H PARENT
REMARK Flexibility Score: inf
ROOT
ATOM      1  C   UNL     1      19.746  53.135  32.633  1.00  0.00     0.048 C 
ATOM      2  C   UNL     1      18.711  53.137  33.724  1.00  0.00    -0.012 C 
ATOM      3  C   UNL     1      18.087  51.993  34.056  1.00  0.00    -0.019 C 
ATOM      4  C   UNL     1      17.056  51.937  35.152  1.00  0.00     0.036 C 
ATOM      5  C   UNL     1      16.266  53.256  35.240  1.00  0.00     0.025 C 
ATOM      6  C   UNL     1      17.229  54.445  35.407  1.00  0.00     0.089 C 
ATOM      7  C   UNL     1      18.291  54.419  34.343  1.00  0.00     0.158 C 
ATOM      8  O   UNL     1      18.850  55.498  34.006  1.00  0.00    -0.295 OA
ENDROOT
BRANCH   5   9
ATOM      9  C   UNL     1      15.234  53.215  36.358  1.00  0.00    -0.077 C 
ATOM     10  C   UNL     1      15.288  52.248  37.289  1.00  0.00     0.008 C 
ATOM     11  C   UNL     1      14.133  54.242  36.451  1.00  0.00     0.039 C 
ENDBRANCH   5   9
TORSDOF 1
ENDMDL
MODEL 9
REMARK VINA RESULT:    -3.925     15.625     16.423
REMARK INTER + INTRA:          -4.242
REMARK INTER:                  -4.150
REMARK INTRA:                  -0.092
REMARK UNBOUND:                -0.087
REMARK SMILES C=C(C)[C@@H]1CC=C(C)C(=O)C1
REMARK SMILES IDX 8 1 7 2 6 3 5 4 4 5 11 6 9 7 10 8 2 9 1 10 3 11
REMARK H PARENT
REMARK Flexibility Score: inf
ROOT
ATOM      1  C   UNL     1      14.161  54.148  36.631  1.00  0.00     0.048 C 
ATOM      2  C   UNL     1      15.469  53.847  35.954  1.00  0.00    -0.012 C 
ATOM      3  C   UNL     1      16.145  54.832  35.336  1.00  0.00    -0.019 C 
ATOM      4  C   UNL     1      17.468  54.588  34.659  1.00  0.00     0.036 C 
ATOM      5  C   UNL     1      17.535  53.168  34.066  1.00  0.00     0.025 C 
ATOM      6  C   UNL     1      17.236  52.121  35.153  1.00  0.00     0.089 C 
ATOM      7  C   UNL     1      15.949  52.445  35.861  1.00  0.00     0.158 C 
ATOM      8  O   UNL     1      15.298  51.515  36.409  1.00  0.00    -0.295 OA
ENDROOT
BRANCH   5   9
ATOM      9  C   UNL     1      18.876  52.907  33.395  1.00  0.00    -0.077 C 
ATOM     10  C   UNL     1      19.006  51.896  32.520  1.00  0.00     0.008 C 
ATOM     11  C   UNL     1      20.083  53.762  33.691  1.00  0.00     0.039 C 
ENDBRANCH   5   9
TORSDOF 1
ENDMDL
