MODEL 1
REMARK VINA RESULT:    -4.117      0.000      0.000
REMARK INTER + INTRA:          -7.055
REMARK INTER:                  -6.283
REMARK INTRA:                  -0.772
REMARK UNBOUND:                -0.772
REMARK SMILES O=C([O-])CCCCCCCCC(=O)[O-]
REMARK SMILES IDX 7 1 6 2 5 3 4 4 2 5 1 6 3 7 8 8 9 9 10 10 11 11 12 12 13 13
REMARK SMILES IDX 14 14
REMARK H PARENT
REMARK Flexibility Score: inf
ROOT
ATOM      1  C   UNL     1      19.226  27.952  33.045  1.00  0.00     0.000 C 
ENDROOT
BRANCH   1   2
ATOM      2  C   UNL     1      19.108  27.834  31.517  1.00  0.00     0.000 C 
BRANCH   2   3
ATOM      3  C   UNL     1      17.987  28.715  30.940  1.00  0.00     0.006 C 
BRANCH   3   4
ATOM      4  C   UNL     1      18.346  29.278  29.558  1.00  0.00     0.053 C 
BRANCH   4   5
ATOM      5  C   UNL     1      18.417  30.774  29.567  1.00  0.00     0.041 C 
ATOM      6  O   UNL     1      18.457  31.399  30.660  1.00  0.00    -0.550 OA
ATOM      7  O   UNL     1      18.410  31.480  28.371  1.00  0.00    -0.550 OA
ENDBRANCH   4   5
ENDBRANCH   3   4
ENDBRANCH   2   3
ENDBRANCH   1   2
BRANCH   1   8
ATOM      8  C   UNL     1      18.664  29.276  33.583  1.00  0.00     0.000 C 
BRANCH   8   9
ATOM      9  C   UNL     1      17.777  29.036  34.811  1.00  0.00     0.000 C 
BRANCH   9  10
ATOM     10  C   UNL     1      16.592  30.010  34.834  1.00  0.00     0.006 C 
BRANCH  10  11
ATOM     11  C   UNL     1      16.608  30.925  33.607  1.00  0.00     0.053 C 
BRANCH  11  12
ATOM     12  C   UNL     1      16.666  32.360  34.024  1.00  0.00     0.041 C 
ATOM     13  O   UNL     1      17.588  32.762  34.782  1.00  0.00    -0.550 OA
ATOM     14  O   UNL     1      15.675  33.244  33.617  1.00  0.00    -0.550 OA
ENDBRANCH  11  12
ENDBRANCH  10  11
ENDBRANCH   9  10
ENDBRANCH   8   9
ENDBRANCH   1   8
TORSDOF 9
ENDMDL
MODEL 2
REMARK VINA RESULT:    -4.074      3.435      6.469
REMARK INTER + INTRA:          -6.990
REMARK INTER:                  -6.143
REMARK INTRA:                  -0.847
REMARK UNBOUND:                -0.772
REMARK SMILES O=C([O-])CCCCCCCCC(=O)[O-]
REMARK SMILES IDX 7 1 6 2 5 3 4 4 2 5 1 6 3 7 8 8 9 9 10 10 11 11 12 12 13 13
REMARK SMILES IDX 14 14
REMARK H PARENT
REMARK Flexibility Score: inf
ROOT
ATOM      1  C   UNL     1      19.205  30.353  29.303  1.00  0.00     0.000 C 
ENDROOT
BRANCH   1   2
ATOM      2  C   UNL     1      18.340  30.723  30.518  1.00  0.00     0.000 C 
BRANCH   2   3
ATOM      3  C   UNL     1      17.871  29.491  31.309  1.00  0.00     0.006 C 
BRANCH   3   4
ATOM      4  C   UNL     1      19.002  28.476  31.526  1.00  0.00     0.053 C 
BRANCH   4   5
ATOM      5  C   UNL     1      19.016  27.948  32.928  1.00  0.00     0.041 C 
ATOM      6  O   UNL     1      18.383  28.547  33.836  1.00  0.00    -0.550 OA
ATOM      7  O   UNL     1      19.750  26.810  33.237  1.00  0.00    -0.550 OA
ENDBRANCH   4   5
ENDBRANCH   3   4
ENDBRANCH   2   3
ENDBRANCH   1   2
BRANCH   1   8
ATOM      8  C   UNL     1      18.369  30.031  28.055  1.00  0.00     0.000 C 
BRANCH   8   9
ATOM      9  C   UNL     1      18.809  28.703  27.427  1.00  0.00     0.000 C 
BRANCH   9  10
ATOM     10  C   UNL     1      17.650  27.699  27.391  1.00  0.00     0.006 C 
BRANCH  10  11
ATOM     11  C   UNL     1      17.632  26.834  28.654  1.00  0.00     0.053 C 
BRANCH  11  12
ATOM     12  C   UNL     1      18.704  25.793  28.592  1.00  0.00     0.041 C 
ATOM     13  O   UNL     1      19.612  25.766  29.464  1.00  0.00    -0.550 OA
ATOM     14  O   UNL     1      18.729  24.882  27.543  1.00  0.00    -0.550 OA
ENDBRANCH  11  12
ENDBRANCH  10  11
ENDBRANCH   9  10
ENDBRANCH   8   9
ENDBRANCH   1   8
TORSDOF 9
ENDMDL
MODEL 3
REMARK VINA RESULT:    -4.058      3.425      5.015
REMARK INTER + INTRA:          -6.966
REMARK INTER:                  -6.337
REMARK INTRA:                  -0.629
REMARK UNBOUND:                -0.772
REMARK SMILES O=C([O-])CCCCCCCCC(=O)[O-]
REMARK SMILES IDX 7 1 6 2 5 3 4 4 2 5 1 6 3 7 8 8 9 9 10 10 11 11 12 12 13 13
REMARK SMILES IDX 14 14
REMARK H PARENT
REMARK Flexibility Score: inf
ROOT
ATOM      1  C   UNL     1      18.336  29.614  27.976  1.00  0.00     0.000 C 
ENDROOT
BRANCH   1   2
ATOM      2  C   UNL     1      19.463  29.157  27.037  1.00  0.00     0.000 C 
BRANCH   2   3
ATOM      3  C   UNL     1      19.191  27.777  26.413  1.00  0.00     0.006 C 
BRANCH   3   4
ATOM      4  C   UNL     1      18.104  27.003  27.171  1.00  0.00     0.053 C 
BRANCH   4   5
ATOM      5  C   UNL     1      18.689  25.953  28.066  1.00  0.00     0.041 C 
ATOM      6  O   UNL     1      19.171  26.272  29.185  1.00  0.00    -0.550 OA
ATOM      7  O   UNL     1      18.728  24.627  27.652  1.00  0.00    -0.550 OA
ENDBRANCH   4   5
ENDBRANCH   3   4
ENDBRANCH   2   3
ENDBRANCH   1   2
BRANCH   1   8
ATOM      8  C   UNL     1      18.611  30.986  28.610  1.00  0.00     0.000 C 
BRANCH   8   9
ATOM      9  C   UNL     1      18.539  30.907  30.140  1.00  0.00     0.000 C 
BRANCH   9  10
ATOM     10  C   UNL     1      18.109  29.509  30.601  1.00  0.00     0.006 C 
BRANCH  10  11
ATOM     11  C   UNL     1      17.719  29.513  32.081  1.00  0.00     0.053 C 
BRANCH  11  12
ATOM     12  C   UNL     1      18.554  28.537  32.847  1.00  0.00     0.041 C 
ATOM     13  O   UNL     1      19.182  27.629  32.241  1.00  0.00    -0.550 OA
ATOM     14  O   UNL     1      18.602  28.599  34.233  1.00  0.00    -0.550 OA
ENDBRANCH  11  12
ENDBRANCH  10  11
ENDBRANCH   9  10
ENDBRANCH   8   9
ENDBRANCH   1   8
TORSDOF 9
ENDMDL
MODEL 4
REMARK VINA RESULT:    -4.035      1.477      2.006
REMARK INTER + INTRA:          -6.930
REMARK INTER:                  -6.275
REMARK INTRA:                  -0.655
REMARK UNBOUND:                -0.772
REMARK SMILES O=C([O-])CCCCCCCCC(=O)[O-]
REMARK SMILES IDX 7 1 6 2 5 3 4 4 2 5 1 6 3 7 8 8 9 9 10 10 11 11 12 12 13 13
REMARK SMILES IDX 14 14
REMARK H PARENT
REMARK Flexibility Score: inf
ROOT
ATOM      1  C   UNL     1      19.165  27.843  32.798  1.00  0.00     0.000 C 
ENDROOT
BRANCH   1   2
ATOM      2  C   UNL     1      19.166  27.834  31.261  1.00  0.00     0.000 C 
BRANCH   2   3
ATOM      3  C   UNL     1      17.968  28.593  30.665  1.00  0.00     0.006 C 
BRANCH   3   4
ATOM      4  C   UNL     1      18.340  29.345  29.379  1.00  0.00     0.053 C 
BRANCH   4   5
ATOM      5  C   UNL     1      18.256  28.461  28.172  1.00  0.00     0.041 C 
ATOM      6  O   UNL     1      18.854  28.780  27.112  1.00  0.00    -0.550 OA
ATOM      7  O   UNL     1      17.494  27.300  28.211  1.00  0.00    -0.550 OA
ENDBRANCH   4   5
ENDBRANCH   3   4
ENDBRANCH   2   3
ENDBRANCH   1   2
BRANCH   1   8
ATOM      8  C   UNL     1      18.710  29.187  33.384  1.00  0.00     0.000 C 
BRANCH   8   9
ATOM      9  C   UNL     1      17.933  28.981  34.691  1.00  0.00     0.000 C 
BRANCH   9  10
ATOM     10  C   UNL     1      16.674  29.855  34.727  1.00  0.00     0.006 C 
BRANCH  10  11
ATOM     11  C   UNL     1      16.633  30.812  33.534  1.00  0.00     0.053 C 
BRANCH  11  12
ATOM     12  C   UNL     1      16.714  32.232  33.997  1.00  0.00     0.041 C 
ATOM     13  O   UNL     1      15.856  33.072  33.618  1.00  0.00    -0.550 OA
ATOM     14  O   UNL     1      17.766  32.640  34.807  1.00  0.00    -0.550 OA
ENDBRANCH  11  12
ENDBRANCH  10  11
ENDBRANCH   9  10
ENDBRANCH   8   9
ENDBRANCH   1   8
TORSDOF 9
ENDMDL
MODEL 5
REMARK VINA RESULT:    -4.033      2.880      3.878
REMARK INTER + INTRA:          -6.927
REMARK INTER:                  -6.526
REMARK INTRA:                  -0.401
REMARK UNBOUND:                -0.772
REMARK SMILES O=C([O-])CCCCCCCCC(=O)[O-]
REMARK SMILES IDX 7 1 6 2 5 3 4 4 2 5 1 6 3 7 8 8 9 9 10 10 11 11 12 12 13 13
REMARK SMILES IDX 14 14
REMARK H PARENT
REMARK Flexibility Score: inf
ROOT
ATOM      1  C   UNL     1      18.045  28.661  30.382  1.00  0.00     0.000 C 
ENDROOT
BRANCH   1   2
ATOM      2  C   UNL     1      18.466  29.886  29.554  1.00  0.00     0.000 C 
BRANCH   2   3
ATOM      3  C   UNL     1      18.439  29.615  28.040  1.00  0.00     0.006 C 
BRANCH   3   4
ATOM      4  C   UNL     1      17.712  28.308  27.697  1.00  0.00     0.053 C 
BRANCH   4   5
ATOM      5  C   UNL     1      18.581  27.376  26.910  1.00  0.00     0.041 C 
ATOM      6  O   UNL     1      19.297  27.818  25.974  1.00  0.00    -0.550 OA
ATOM      7  O   UNL     1      18.580  26.016  27.193  1.00  0.00    -0.550 OA
ENDBRANCH   4   5
ENDBRANCH   3   4
ENDBRANCH   2   3
ENDBRANCH   1   2
BRANCH   1   8
ATOM      8  C   UNL     1      18.328  28.832  31.881  1.00  0.00     0.000 C 
BRANCH   8   9
ATOM      9  C   UNL     1      17.482  29.966  32.473  1.00  0.00     0.000 C 
BRANCH   9  10
ATOM     10  C   UNL     1      17.455  29.893  34.005  1.00  0.00     0.006 C 
BRANCH  10  11
ATOM     11  C   UNL     1      18.239  28.680  34.511  1.00  0.00     0.053 C 
BRANCH  11  12
ATOM     12  C   UNL     1      19.143  29.072  35.636  1.00  0.00     0.041 C 
ATOM     13  O   UNL     1      20.021  28.270  36.053  1.00  0.00    -0.550 OA
ATOM     14  O   UNL     1      18.986  30.304  36.258  1.00  0.00    -0.550 OA
ENDBRANCH  11  12
ENDBRANCH  10  11
ENDBRANCH   9  10
ENDBRANCH   8   9
ENDBRANCH   1   8
TORSDOF 9
ENDMDL
MODEL 6
REMARK VINA RESULT:    -4.002      3.180      4.056
REMARK INTER + INTRA:          -6.880
REMARK INTER:                  -6.291
REMARK INTRA:                  -0.589
REMARK UNBOUND:                -0.772
REMARK SMILES O=C([O-])CCCCCCCCC(=O)[O-]
REMARK SMILES IDX 7 1 6 2 5 3 4 4 2 5 1 6 3 7 8 8 9 9 10 10 11 11 12 12 13 13
REMARK SMILES IDX 14 14
REMARK H PARENT
REMARK Flexibility Score: inf
ROOT
ATOM      1  C   UNL     1      18.753  29.459  29.155  1.00  0.00     0.000 C 
ENDROOT
BRANCH   1   2
ATOM      2  C   UNL     1      18.315  29.079  27.732  1.00  0.00     0.000 C 
BRANCH   2   3
ATOM      3  C   UNL     1      17.577  27.730  27.679  1.00  0.00     0.006 C 
BRANCH   3   4
ATOM      4  C   UNL     1      18.370  26.665  26.908  1.00  0.00     0.053 C 
BRANCH   4   5
ATOM      5  C   UNL     1      19.038  25.692  27.831  1.00  0.00     0.041 C 
ATOM      6  O   UNL     1      19.887  26.095  28.669  1.00  0.00    -0.550 OA
ATOM      7  O   UNL     1      18.744  24.337  27.746  1.00  0.00    -0.550 OA
ENDBRANCH   4   5
ENDBRANCH   3   4
ENDBRANCH   2   3
ENDBRANCH   1   2
BRANCH   1   8
ATOM      8  C   UNL     1      17.968  28.704  30.238  1.00  0.00     0.000 C 
BRANCH   8   9
ATOM      9  C   UNL     1      18.900  28.227  31.359  1.00  0.00     0.000 C 
BRANCH   9  10
ATOM     10  C   UNL     1      18.446  28.766  32.721  1.00  0.00     0.006 C 
BRANCH  10  11
ATOM     11  C   UNL     1      17.598  30.030  32.557  1.00  0.00     0.053 C 
BRANCH  11  12
ATOM     12  C   UNL     1      16.995  30.430  33.866  1.00  0.00     0.041 C 
ATOM     13  O   UNL     1      16.917  29.597  34.808  1.00  0.00    -0.550 OA
ATOM     14  O   UNL     1      16.474  31.707  34.032  1.00  0.00    -0.550 OA
ENDBRANCH  11  12
ENDBRANCH  10  11
ENDBRANCH   9  10
ENDBRANCH   8   9
ENDBRANCH   1   8
TORSDOF 9
ENDMDL
MODEL 7
REMARK VINA RESULT:    -3.986      1.776      5.376
REMARK INTER + INTRA:          -6.855
REMARK INTER:                  -6.343
REMARK INTRA:                  -0.512
REMARK UNBOUND:                -0.772
REMARK SMILES O=C([O-])CCCCCCCCC(=O)[O-]
REMARK SMILES IDX 7 1 6 2 5 3 4 4 2 5 1 6 3 7 8 8 9 9 10 10 11 11 12 12 13 13
REMARK SMILES IDX 14 14
REMARK H PARENT
REMARK Flexibility Score: inf
ROOT
ATOM      1  C   UNL     1      18.715  28.563  33.028  1.00  0.00     0.000 C 
ENDROOT
BRANCH   1   2
ATOM      2  C   UNL     1      18.341  28.673  34.514  1.00  0.00     0.000 C 
BRANCH   2   3
ATOM      3  C   UNL     1      17.127  29.588  34.753  1.00  0.00     0.006 C 
BRANCH   3   4
ATOM      4  C   UNL     1      16.740  30.378  33.496  1.00  0.00     0.053 C 
BRANCH   4   5
ATOM      5  C   UNL     1      17.019  31.842  33.650  1.00  0.00     0.041 C 
ATOM      6  O   UNL     1      16.070  32.669  33.669  1.00  0.00    -0.550 OA
ATOM      7  O   UNL     1      18.329  32.296  33.745  1.00  0.00    -0.550 OA
ENDBRANCH   4   5
ENDBRANCH   3   4
ENDBRANCH   2   3
ENDBRANCH   1   2
BRANCH   1   8
ATOM      8  C   UNL     1      19.524  27.297  32.712  1.00  0.00     0.000 C 
BRANCH   8   9
ATOM      9  C   UNL     1      19.818  27.194  31.210  1.00  0.00     0.000 C 
BRANCH   9  10
ATOM     10  C   UNL     1      18.707  27.854  30.384  1.00  0.00     0.006 C 
BRANCH  10  11
ATOM     11  C   UNL     1      18.345  27.000  29.166  1.00  0.00     0.053 C 
BRANCH  11  12
ATOM     12  C   UNL     1      17.959  27.870  28.012  1.00  0.00     0.041 C 
ATOM     13  O   UNL     1      18.178  29.110  28.053  1.00  0.00    -0.550 OA
ATOM     14  O   UNL     1      17.314  27.320  26.912  1.00  0.00    -0.550 OA
ENDBRANCH  11  12
ENDBRANCH  10  11
ENDBRANCH   9  10
ENDBRANCH   8   9
ENDBRANCH   1   8
TORSDOF 9
ENDMDL
MODEL 8
REMARK VINA RESULT:    -3.983      1.178      4.904
REMARK INTER + INTRA:          -6.851
REMARK INTER:                  -5.993
REMARK INTRA:                  -0.858
REMARK UNBOUND:                -0.772
REMARK SMILES O=C([O-])CCCCCCCCC(=O)[O-]
REMARK SMILES IDX 7 1 6 2 5 3 4 4 2 5 1 6 3 7 8 8 9 9 10 10 11 11 12 12 13 13
REMARK SMILES IDX 14 14
REMARK H PARENT
REMARK Flexibility Score: inf
ROOT
ATOM      1  C   UNL     1      19.011  28.020  34.098  1.00  0.00     0.000 C 
ENDROOT
BRANCH   1   2
ATOM      2  C   UNL     1      18.501  29.110  35.055  1.00  0.00     0.000 C 
BRANCH   2   3
ATOM      3  C   UNL     1      17.022  29.460  34.819  1.00  0.00     0.006 C 
BRANCH   3   4
ATOM      4  C   UNL     1      16.845  30.874  34.248  1.00  0.00     0.053 C 
BRANCH   4   5
ATOM      5  C   UNL     1      16.790  31.909  35.329  1.00  0.00     0.041 C 
ATOM      6  O   UNL     1      17.550  32.911  35.285  1.00  0.00    -0.550 OA
ATOM      7  O   UNL     1      15.918  31.753  36.399  1.00  0.00    -0.550 OA
ENDBRANCH   4   5
ENDBRANCH   3   4
ENDBRANCH   2   3
ENDBRANCH   1   2
BRANCH   1   8
ATOM      8  C   UNL     1      19.610  28.596  32.807  1.00  0.00     0.000 C 
BRANCH   8   9
ATOM      9  C   UNL     1      18.915  28.011  31.571  1.00  0.00     0.000 C 
BRANCH   9  10
ATOM     10  C   UNL     1      17.863  28.981  31.019  1.00  0.00     0.006 C 
BRANCH  10  11
ATOM     11  C   UNL     1      18.439  30.391  30.872  1.00  0.00     0.053 C 
BRANCH  11  12
ATOM     12  C   UNL     1      18.366  30.841  29.447  1.00  0.00     0.041 C 
ATOM     13  O   UNL     1      18.317  29.994  28.517  1.00  0.00    -0.550 OA
ATOM     14  O   UNL     1      18.401  32.196  29.142  1.00  0.00    -0.550 OA
ENDBRANCH  11  12
ENDBRANCH  10  11
ENDBRANCH   9  10
ENDBRANCH   8   9
ENDBRANCH   1   8
TORSDOF 9
ENDMDL
MODEL 9
REMARK VINA RESULT:    -3.972      2.141      3.020
REMARK INTER + INTRA:          -6.834
REMARK INTER:                  -6.255
REMARK INTRA:                  -0.579
REMARK UNBOUND:                -0.772
REMARK SMILES O=C([O-])CCCCCCCCC(=O)[O-]
REMARK SMILES IDX 7 1 6 2 5 3 4 4 2 5 1 6 3 7 8 8 9 9 10 10 11 11 12 12 13 13
REMARK SMILES IDX 14 14
REMARK H PARENT
REMARK Flexibility Score: inf
ROOT
ATOM      1  C   UNL     1      18.252  28.545  30.844  1.00  0.00     0.000 C 
ENDROOT
BRANCH   1   2
ATOM      2  C   UNL     1      18.361  29.966  30.269  1.00  0.00     0.000 C 
BRANCH   2   3
ATOM      3  C   UNL     1      18.321  29.987  28.731  1.00  0.00     0.006 C 
BRANCH   3   4
ATOM      4  C   UNL     1      19.264  28.946  28.112  1.00  0.00     0.053 C 
BRANCH   4   5
ATOM      5  C   UNL     1      18.583  28.139  27.050  1.00  0.00     0.041 C 
ATOM      6  O   UNL     1      17.397  27.751  27.213  1.00  0.00    -0.550 OA
ATOM      7  O   UNL     1      19.268  27.792  25.892  1.00  0.00    -0.550 OA
ENDBRANCH   4   5
ENDBRANCH   3   4
ENDBRANCH   2   3
ENDBRANCH   1   2
BRANCH   1   8
ATOM      8  C   UNL     1      19.497  28.132  31.643  1.00  0.00     0.000 C 
BRANCH   8   9
ATOM      9  C   UNL     1      19.123  27.748  33.081  1.00  0.00     0.000 C 
BRANCH   9  10
ATOM     10  C   UNL     1      18.993  28.993  33.967  1.00  0.00     0.006 C 
BRANCH  10  11
ATOM     11  C   UNL     1      17.712  28.940  34.804  1.00  0.00     0.053 C 
BRANCH  11  12
ATOM     12  C   UNL     1      16.881  30.161  34.568  1.00  0.00     0.041 C 
ATOM     13  O   UNL     1      16.525  30.882  35.538  1.00  0.00    -0.550 OA
ATOM     14  O   UNL     1      16.458  30.478  33.283  1.00  0.00    -0.550 OA
ENDBRANCH  11  12
ENDBRANCH  10  11
ENDBRANCH   9  10
ENDBRANCH   8   9
ENDBRANCH   1   8
TORSDOF 9
ENDMDL
