MODEL 1
REMARK VINA RESULT:    -5.903      0.000      0.000
REMARK INTER + INTRA:          -6.341
REMARK INTER:                  -6.248
REMARK INTRA:                  -0.093
REMARK UNBOUND:                -0.093
REMARK SMILES C=C(C)[C@@H]1CC=C(C)C(=O)C1
REMARK SMILES IDX 8 1 7 2 6 3 5 4 4 5 11 6 9 7 10 8 2 9 1 10 3 11
REMARK H PARENT
REMARK Flexibility Score: inf
ROOT
ATOM      1  C   UNL     1      66.851  60.112  26.626  1.00  0.00     0.048 C 
ATOM      2  C   UNL     1      68.269  60.558  26.856  1.00  0.00    -0.012 C 
ATOM      3  C   UNL     1      69.226  60.252  25.963  1.00  0.00    -0.019 C 
ATOM      4  C   UNL     1      70.643  60.744  26.109  1.00  0.00     0.036 C 
ATOM      5  C   UNL     1      71.022  60.916  27.593  1.00  0.00     0.025 C 
ATOM      6  C   UNL     1      70.008  61.833  28.302  1.00  0.00     0.089 C 
ATOM      7  C   UNL     1      68.601  61.358  28.060  1.00  0.00     0.158 C 
ATOM      8  O   UNL     1      67.695  61.685  28.872  1.00  0.00    -0.295 OA
ENDROOT
BRANCH   5   9
ATOM      9  C   UNL     1      72.448  61.424  27.754  1.00  0.00    -0.077 C 
ATOM     10  C   UNL     1      72.857  62.559  27.161  1.00  0.00     0.008 C 
ATOM     11  C   UNL     1      73.435  60.653  28.591  1.00  0.00     0.039 C 
ENDBRANCH   5   9
TORSDOF 1
ENDMDL
MODEL 2
REMARK VINA RESULT:    -5.552      1.549      3.045
REMARK INTER + INTRA:          -5.970
REMARK INTER:                  -5.881
REMARK INTRA:                  -0.089
REMARK UNBOUND:                -0.093
REMARK SMILES C=C(C)[C@@H]1CC=C(C)C(=O)C1
REMARK SMILES IDX 8 1 7 2 6 3 5 4 4 5 11 6 9 7 10 8 2 9 1 10 3 11
REMARK H PARENT
REMARK Flexibility Score: inf
ROOT
ATOM      1  C   UNL     1      69.495  61.378  30.581  1.00  0.00     0.048 C 
ATOM      2  C   UNL     1      69.923  61.313  29.141  1.00  0.00    -0.012 C 
ATOM      3  C   UNL     1      71.212  61.501  28.810  1.00  0.00    -0.019 C 
ATOM      4  C   UNL     1      71.702  61.365  27.392  1.00  0.00     0.036 C 
ATOM      5  C   UNL     1      70.601  61.748  26.384  1.00  0.00     0.025 C 
ATOM      6  C   UNL     1      69.327  60.923  26.643  1.00  0.00     0.089 C 
ATOM      7  C   UNL     1      68.920  61.014  28.089  1.00  0.00     0.158 C 
ATOM      8  O   UNL     1      67.721  60.790  28.404  1.00  0.00    -0.295 OA
ENDROOT
BRANCH   5   9
ATOM      9  C   UNL     1      71.081  61.604  24.946  1.00  0.00    -0.077 C 
ATOM     10  C   UNL     1      71.620  62.641  24.281  1.00  0.00     0.008 C 
ATOM     11  C   UNL     1      70.956  60.280  24.237  1.00  0.00     0.039 C 
ENDBRANCH   5   9
TORSDOF 1
ENDMDL
MODEL 3
REMARK VINA RESULT:    -5.231      2.605      3.723
REMARK INTER + INTRA:          -5.629
REMARK INTER:                  -5.540
REMARK INTRA:                  -0.089
REMARK UNBOUND:                -0.093
REMARK SMILES C=C(C)[C@@H]1CC=C(C)C(=O)C1
REMARK SMILES IDX 8 1 7 2 6 3 5 4 4 5 11 6 9 7 10 8 2 9 1 10 3 11
REMARK H PARENT
REMARK Flexibility Score: inf
ROOT
ATOM      1  C   UNL     1      71.398  60.638  23.330  1.00  0.00     0.048 C 
ATOM      2  C   UNL     1      70.986  60.826  24.765  1.00  0.00    -0.012 C 
ATOM      3  C   UNL     1      70.362  59.834  25.423  1.00  0.00    -0.019 C 
ATOM      4  C   UNL     1      70.002  59.944  26.882  1.00  0.00     0.036 C 
ATOM      5  C   UNL     1      69.718  61.407  27.276  1.00  0.00     0.025 C 
ATOM      6  C   UNL     1      70.911  62.305  26.898  1.00  0.00     0.089 C 
ATOM      7  C   UNL     1      71.294  62.101  25.457  1.00  0.00     0.158 C 
ATOM      8  O   UNL     1      71.921  63.012  24.854  1.00  0.00    -0.295 OA
ENDROOT
BRANCH   5   9
ATOM      9  C   UNL     1      69.365  61.533  28.751  1.00  0.00    -0.077 C 
ATOM     10  C   UNL     1      68.091  61.452  29.176  1.00  0.00     0.008 C 
ATOM     11  C   UNL     1      70.451  61.754  29.772  1.00  0.00     0.039 C 
ENDBRANCH   5   9
TORSDOF 1
ENDMDL
MODEL 4
REMARK VINA RESULT:    -5.087      1.821      2.633
REMARK INTER + INTRA:          -5.477
REMARK INTER:                  -5.382
REMARK INTRA:                  -0.095
REMARK UNBOUND:                -0.093
REMARK SMILES C=C(C)[C@@H]1CC=C(C)C(=O)C1
REMARK SMILES IDX 8 1 7 2 6 3 5 4 4 5 11 6 9 7 10 8 2 9 1 10 3 11
REMARK H PARENT
REMARK Flexibility Score: inf
ROOT
ATOM      1  C   UNL     1      66.909  59.526  26.304  1.00  0.00     0.048 C 
ATOM      2  C   UNL     1      68.122  60.349  26.642  1.00  0.00    -0.012 C 
ATOM      3  C   UNL     1      68.041  61.324  27.564  1.00  0.00    -0.019 C 
ATOM      4  C   UNL     1      69.246  62.121  27.994  1.00  0.00     0.036 C 
ATOM      5  C   UNL     1      70.265  62.250  26.846  1.00  0.00     0.025 C 
ATOM      6  C   UNL     1      70.646  60.858  26.308  1.00  0.00     0.089 C 
ATOM      7  C   UNL     1      69.414  60.064  25.972  1.00  0.00     0.158 C 
ATOM      8  O   UNL     1      69.501  59.118  25.143  1.00  0.00    -0.295 OA
ENDROOT
BRANCH   5   9
ATOM      9  C   UNL     1      71.493  63.044  27.272  1.00  0.00    -0.077 C 
ATOM     10  C   UNL     1      72.672  62.439  27.501  1.00  0.00     0.008 C 
ATOM     11  C   UNL     1      71.405  64.538  27.445  1.00  0.00     0.039 C 
ENDBRANCH   5   9
TORSDOF 1
ENDMDL
MODEL 5
REMARK VINA RESULT:    -5.012      1.891      4.528
REMARK INTER + INTRA:          -5.398
REMARK INTER:                  -5.305
REMARK INTRA:                  -0.093
REMARK UNBOUND:                -0.093
REMARK SMILES C=C(C)[C@@H]1CC=C(C)C(=O)C1
REMARK SMILES IDX 8 1 7 2 6 3 5 4 4 5 11 6 9 7 10 8 2 9 1 10 3 11
REMARK H PARENT
REMARK Flexibility Score: inf
ROOT
ATOM      1  C   UNL     1      73.798  61.334  28.125  1.00  0.00     0.048 C 
ATOM      2  C   UNL     1      72.298  61.279  28.020  1.00  0.00    -0.012 C 
ATOM      3  C   UNL     1      71.626  60.222  28.508  1.00  0.00    -0.019 C 
ATOM      4  C   UNL     1      70.121  60.159  28.499  1.00  0.00     0.036 C 
ATOM      5  C   UNL     1      69.538  60.939  27.305  1.00  0.00     0.025 C 
ATOM      6  C   UNL     1      70.062  62.387  27.304  1.00  0.00     0.089 C 
ATOM      7  C   UNL     1      71.563  62.408  27.401  1.00  0.00     0.158 C 
ATOM      8  O   UNL     1      72.189  63.421  26.987  1.00  0.00    -0.295 OA
ENDROOT
BRANCH   5   9
ATOM      9  C   UNL     1      68.016  60.892  27.292  1.00  0.00    -0.077 C 
ATOM     10  C   UNL     1      67.285  61.651  28.127  1.00  0.00     0.008 C 
ATOM     11  C   UNL     1      67.296  59.982  26.330  1.00  0.00     0.039 C 
ENDBRANCH   5   9
TORSDOF 1
ENDMDL
MODEL 6
REMARK VINA RESULT:    -4.925      1.807      3.206
REMARK INTER + INTRA:          -5.306
REMARK INTER:                  -5.216
REMARK INTRA:                  -0.089
REMARK UNBOUND:                -0.093
REMARK SMILES C=C(C)[C@@H]1CC=C(C)C(=O)C1
REMARK SMILES IDX 8 1 7 2 6 3 5 4 4 5 11 6 9 7 10 8 2 9 1 10 3 11
REMARK H PARENT
REMARK Flexibility Score: inf
ROOT
ATOM      1  C   UNL     1      68.175  61.767  30.631  1.00  0.00     0.048 C 
ATOM      2  C   UNL     1      68.756  61.529  29.264  1.00  0.00    -0.012 C 
ATOM      3  C   UNL     1      67.953  61.197  28.238  1.00  0.00    -0.019 C 
ATOM      4  C   UNL     1      68.477  61.028  26.836  1.00  0.00     0.036 C 
ATOM      5  C   UNL     1      69.936  60.534  26.842  1.00  0.00     0.025 C 
ATOM      6  C   UNL     1      70.817  61.475  27.685  1.00  0.00     0.089 C 
ATOM      7  C   UNL     1      70.215  61.686  29.048  1.00  0.00     0.158 C 
ATOM      8  O   UNL     1      70.960  62.044  29.999  1.00  0.00    -0.295 OA
ENDROOT
BRANCH   5   9
ATOM      9  C   UNL     1      70.480  60.370  25.430  1.00  0.00    -0.077 C 
ATOM     10  C   UNL     1      70.271  59.244  24.725  1.00  0.00     0.008 C 
ATOM     11  C   UNL     1      71.273  61.482  24.792  1.00  0.00     0.039 C 
ENDBRANCH   5   9
TORSDOF 1
ENDMDL
MODEL 7
REMARK VINA RESULT:    -4.637      2.377      3.800
REMARK INTER + INTRA:          -5.001
REMARK INTER:                  -4.912
REMARK INTRA:                  -0.089
REMARK UNBOUND:                -0.093
REMARK SMILES C=C(C)[C@@H]1CC=C(C)C(=O)C1
REMARK SMILES IDX 8 1 7 2 6 3 5 4 4 5 11 6 9 7 10 8 2 9 1 10 3 11
REMARK H PARENT
REMARK Flexibility Score: inf
ROOT
ATOM      1  C   UNL     1      71.758  61.126  23.564  1.00  0.00     0.048 C 
ATOM      2  C   UNL     1      71.123  61.276  24.919  1.00  0.00    -0.012 C 
ATOM      3  C   UNL     1      71.310  62.401  25.631  1.00  0.00    -0.019 C 
ATOM      4  C   UNL     1      70.630  62.631  26.956  1.00  0.00     0.036 C 
ATOM      5  C   UNL     1      70.387  61.301  27.695  1.00  0.00     0.025 C 
ATOM      6  C   UNL     1      69.604  60.324  26.798  1.00  0.00     0.089 C 
ATOM      7  C   UNL     1      70.268  60.189  25.455  1.00  0.00     0.158 C 
ATOM      8  O   UNL     1      70.054  59.156  24.766  1.00  0.00    -0.295 OA
ENDROOT
BRANCH   5   9
ATOM      9  C   UNL     1      69.689  61.520  29.031  1.00  0.00    -0.077 C 
ATOM     10  C   UNL     1      70.388  61.738  30.158  1.00  0.00     0.008 C 
ATOM     11  C   UNL     1      68.185  61.494  29.110  1.00  0.00     0.039 C 
ENDBRANCH   5   9
TORSDOF 1
ENDMDL
MODEL 8
REMARK VINA RESULT:    -4.533      2.060      3.218
REMARK INTER + INTRA:          -4.891
REMARK INTER:                  -4.802
REMARK INTRA:                  -0.089
REMARK UNBOUND:                -0.093
REMARK SMILES C=C(C)[C@@H]1CC=C(C)C(=O)C1
REMARK SMILES IDX 8 1 7 2 6 3 5 4 4 5 11 6 9 7 10 8 2 9 1 10 3 11
REMARK H PARENT
REMARK Flexibility Score: inf
ROOT
ATOM      1  C   UNL     1      69.164  60.561  29.766  1.00  0.00     0.048 C 
ATOM      2  C   UNL     1      69.668  60.913  28.393  1.00  0.00    -0.012 C 
ATOM      3  C   UNL     1      68.920  60.641  27.310  1.00  0.00    -0.019 C 
ATOM      4  C   UNL     1      69.345  61.046  25.922  1.00  0.00     0.036 C 
ATOM      5  C   UNL     1      70.881  61.066  25.794  1.00  0.00     0.025 C 
ATOM      6  C   UNL     1      71.498  61.966  26.881  1.00  0.00     0.089 C 
ATOM      7  C   UNL     1      70.982  61.585  28.242  1.00  0.00     0.158 C 
ATOM      8  O   UNL     1      71.660  61.883  29.261  1.00  0.00    -0.295 OA
ENDROOT
BRANCH   5   9
ATOM      9  C   UNL     1      71.324  61.485  24.399  1.00  0.00    -0.077 C 
ATOM     10  C   UNL     1      71.422  60.593  23.398  1.00  0.00     0.008 C 
ATOM     11  C   UNL     1      71.662  62.926  24.115  1.00  0.00     0.039 C 
ENDBRANCH   5   9
TORSDOF 1
ENDMDL
