MODEL 1
REMARK VINA RESULT:    -4.182      0.000      0.000
REMARK INTER + INTRA:          -5.545
REMARK INTER:                  -5.405
REMARK INTRA:                  -0.140
REMARK UNBOUND:                -0.140
REMARK SMILES C=CC(=O)CCCCC
REMARK SMILES IDX 6 1 7 2 8 3 9 4 5 5 3 6 4 7 2 8 1 9
REMARK H PARENT
REMARK Flexibility Score: inf
ROOT
ATOM      1  C   UNL     1     -25.838  19.839 -33.145  1.00  0.00     0.008 C 
ENDROOT
BRANCH   1   2
ATOM      2  C   UNL     1     -24.395  20.065 -33.619  1.00  0.00     0.000 C 
BRANCH   2   3
ATOM      3  C   UNL     1     -23.634  20.972 -32.645  1.00  0.00    -0.003 C 
ATOM      4  C   UNL     1     -23.281  20.227 -31.360  1.00  0.00     0.004 C 
ENDBRANCH   2   3
ENDBRANCH   1   2
BRANCH   1   5
ATOM      5  C   UNL     1     -26.870  20.266 -34.199  1.00  0.00     0.080 C 
BRANCH   5   6
ATOM      6  C   UNL     1     -28.161  20.710 -33.571  1.00  0.00     0.155 C 
ATOM      7  O   UNL     1     -28.226  21.855 -33.044  1.00  0.00    -0.295 OA
BRANCH   6   8
ATOM      8  C   UNL     1     -29.326  19.805 -33.544  1.00  0.00     0.039 C 
ATOM      9  C   UNL     1     -29.243  18.546 -33.116  1.00  0.00     0.012 C 
ENDBRANCH   6   8
ENDBRANCH   5   6
ENDBRANCH   1   5
TORSDOF 5
ENDMDL
MODEL 2
REMARK VINA RESULT:    -4.163      1.920      4.753
REMARK INTER + INTRA:          -5.520
REMARK INTER:                  -5.297
REMARK INTRA:                  -0.223
REMARK UNBOUND:                -0.140
REMARK SMILES C=CC(=O)CCCCC
REMARK SMILES IDX 6 1 7 2 8 3 9 4 5 5 3 6 4 7 2 8 1 9
REMARK H PARENT
REMARK Flexibility Score: inf
ROOT
ATOM      1  C   UNL     1     -26.583  19.849 -33.324  1.00  0.00     0.008 C 
ENDROOT
BRANCH   1   2
ATOM      2  C   UNL     1     -27.745  20.643 -33.942  1.00  0.00     0.000 C 
BRANCH   2   3
ATOM      3  C   UNL     1     -29.092  19.994 -33.606  1.00  0.00    -0.003 C 
ATOM      4  C   UNL     1     -28.899  18.615 -32.981  1.00  0.00     0.004 C 
ENDBRANCH   2   3
ENDBRANCH   1   2
BRANCH   1   5
ATOM      5  C   UNL     1     -25.322  19.886 -34.199  1.00  0.00     0.080 C 
BRANCH   5   6
ATOM      6  C   UNL     1     -24.079  20.090 -33.381  1.00  0.00     0.155 C 
ATOM      7  O   UNL     1     -23.047  20.557 -33.936  1.00  0.00    -0.295 OA
BRANCH   6   8
ATOM      8  C   UNL     1     -24.058  19.716 -31.953  1.00  0.00     0.039 C 
ATOM      9  C   UNL     1     -23.226  20.280 -31.078  1.00  0.00     0.012 C 
ENDBRANCH   6   8
ENDBRANCH   5   6
ENDBRANCH   1   5
TORSDOF 5
ENDMDL
MODEL 3
REMARK VINA RESULT:    -4.141      2.101      4.734
REMARK INTER + INTRA:          -5.492
REMARK INTER:                  -5.304
REMARK INTRA:                  -0.188
REMARK UNBOUND:                -0.140
REMARK SMILES C=CC(=O)CCCCC
REMARK SMILES IDX 6 1 7 2 8 3 9 4 5 5 3 6 4 7 2 8 1 9
REMARK H PARENT
REMARK Flexibility Score: inf
ROOT
ATOM      1  C   UNL     1     -26.708  19.663 -33.418  1.00  0.00     0.008 C 
ENDROOT
BRANCH   1   2
ATOM      2  C   UNL     1     -27.743  20.542 -34.137  1.00  0.00     0.000 C 
BRANCH   2   3
ATOM      3  C   UNL     1     -28.835  21.008 -33.168  1.00  0.00    -0.003 C 
ATOM      4  C   UNL     1     -28.576  22.433 -32.689  1.00  0.00     0.004 C 
ENDBRANCH   2   3
ENDBRANCH   1   2
BRANCH   1   5
ATOM      5  C   UNL     1     -25.285  19.883 -33.951  1.00  0.00     0.080 C 
BRANCH   5   6
ATOM      6  C   UNL     1     -24.264  19.858 -32.850  1.00  0.00     0.155 C 
ATOM      7  O   UNL     1     -24.160  18.827 -32.131  1.00  0.00    -0.295 OA
BRANCH   6   8
ATOM      8  C   UNL     1     -23.416  21.039 -32.595  1.00  0.00     0.039 C 
ATOM      9  C   UNL     1     -23.733  21.964 -31.689  1.00  0.00     0.012 C 
ENDBRANCH   6   8
ENDBRANCH   5   6
ENDBRANCH   1   5
TORSDOF 5
ENDMDL
MODEL 4
REMARK VINA RESULT:    -4.002      1.557      4.953
REMARK INTER + INTRA:          -5.312
REMARK INTER:                  -5.151
REMARK INTRA:                  -0.161
REMARK UNBOUND:                -0.140
REMARK SMILES C=CC(=O)CCCCC
REMARK SMILES IDX 6 1 7 2 8 3 9 4 5 5 3 6 4 7 2 8 1 9
REMARK H PARENT
REMARK Flexibility Score: inf
ROOT
ATOM      1  C   UNL     1     -27.935  20.207 -33.645  1.00  0.00     0.008 C 
ENDROOT
BRANCH   1   2
ATOM      2  C   UNL     1     -29.182  19.979 -32.778  1.00  0.00     0.000 C 
BRANCH   2   3
ATOM      3  C   UNL     1     -30.215  19.120 -33.516  1.00  0.00    -0.003 C 
ATOM      4  C   UNL     1     -30.077  17.648 -33.141  1.00  0.00     0.004 C 
ENDBRANCH   2   3
ENDBRANCH   1   2
BRANCH   1   5
ATOM      5  C   UNL     1     -26.677  19.572 -33.035  1.00  0.00     0.080 C 
BRANCH   5   6
ATOM      6  C   UNL     1     -25.449  19.871 -33.846  1.00  0.00     0.155 C 
ATOM      7  O   UNL     1     -25.554  20.005 -35.096  1.00  0.00    -0.295 OA
BRANCH   6   8
ATOM      8  C   UNL     1     -24.131  19.973 -33.190  1.00  0.00     0.039 C 
ATOM      9  C   UNL     1     -23.744  21.064 -32.529  1.00  0.00     0.012 C 
ENDBRANCH   6   8
ENDBRANCH   5   6
ENDBRANCH   1   5
TORSDOF 5
ENDMDL
MODEL 5
REMARK VINA RESULT:    -3.992      2.336      3.306
REMARK INTER + INTRA:          -5.300
REMARK INTER:                  -5.258
REMARK INTRA:                  -0.042
REMARK UNBOUND:                -0.140
REMARK SMILES C=CC(=O)CCCCC
REMARK SMILES IDX 6 1 7 2 8 3 9 4 5 5 3 6 4 7 2 8 1 9
REMARK H PARENT
REMARK Flexibility Score: inf
ROOT
ATOM      1  C   UNL     1     -23.348  20.280 -31.483  1.00  0.00     0.008 C 
ENDROOT
BRANCH   1   2
ATOM      2  C   UNL     1     -23.688  21.714 -31.917  1.00  0.00     0.000 C 
BRANCH   2   3
ATOM      3  C   UNL     1     -23.443  22.706 -30.775  1.00  0.00    -0.003 C 
ATOM      4  C   UNL     1     -23.529  24.147 -31.269  1.00  0.00     0.004 C 
ENDBRANCH   2   3
ENDBRANCH   1   2
BRANCH   1   5
ATOM      5  C   UNL     1     -24.367  19.256 -32.004  1.00  0.00     0.080 C 
BRANCH   5   6
ATOM      6  C   UNL     1     -24.895  19.632 -33.360  1.00  0.00     0.155 C 
ATOM      7  O   UNL     1     -24.112  19.622 -34.349  1.00  0.00    -0.295 OA
BRANCH   6   8
ATOM      8  C   UNL     1     -26.304  20.039 -33.522  1.00  0.00     0.039 C 
ATOM      9  C   UNL     1     -27.314  19.339 -33.007  1.00  0.00     0.012 C 
ENDBRANCH   6   8
ENDBRANCH   5   6
ENDBRANCH   1   5
TORSDOF 5
ENDMDL
MODEL 6
REMARK VINA RESULT:    -3.988      8.013      9.835
REMARK INTER + INTRA:          -5.293
REMARK INTER:                  -4.772
REMARK INTRA:                  -0.521
REMARK UNBOUND:                -0.140
REMARK SMILES C=CC(=O)CCCCC
REMARK SMILES IDX 6 1 7 2 8 3 9 4 5 5 3 6 4 7 2 8 1 9
REMARK H PARENT
REMARK Flexibility Score: inf
ROOT
ATOM      1  C   UNL     1     -28.456  11.678 -27.951  1.00  0.00     0.008 C 
ENDROOT
BRANCH   1   2
ATOM      2  C   UNL     1     -29.627  12.595 -28.336  1.00  0.00     0.000 C 
BRANCH   2   3
ATOM      3  C   UNL     1     -29.926  12.502 -29.836  1.00  0.00    -0.003 C 
ATOM      4  C   UNL     1     -30.121  13.887 -30.446  1.00  0.00     0.004 C 
ENDBRANCH   2   3
ENDBRANCH   1   2
BRANCH   1   5
ATOM      5  C   UNL     1     -27.473  11.470 -29.111  1.00  0.00     0.080 C 
BRANCH   5   6
ATOM      6  C   UNL     1     -26.135  12.094 -28.831  1.00  0.00     0.155 C 
ATOM      7  O   UNL     1     -25.442  11.658 -27.872  1.00  0.00    -0.295 OA
BRANCH   6   8
ATOM      8  C   UNL     1     -25.656  13.225 -29.649  1.00  0.00     0.039 C 
ATOM      9  C   UNL     1     -26.341  14.362 -29.769  1.00  0.00     0.012 C 
ENDBRANCH   6   8
ENDBRANCH   5   6
ENDBRANCH   1   5
TORSDOF 5
ENDMDL
MODEL 7
REMARK VINA RESULT:    -3.959      1.659      2.051
REMARK INTER + INTRA:          -5.257
REMARK INTER:                  -5.136
REMARK INTRA:                  -0.121
REMARK UNBOUND:                -0.140
REMARK SMILES C=CC(=O)CCCCC
REMARK SMILES IDX 6 1 7 2 8 3 9 4 5 5 3 6 4 7 2 8 1 9
REMARK H PARENT
REMARK Flexibility Score: inf
ROOT
ATOM      1  C   UNL     1     -24.554  19.792 -32.561  1.00  0.00     0.008 C 
ENDROOT
BRANCH   1   2
ATOM      2  C   UNL     1     -23.648  21.031 -32.633  1.00  0.00     0.000 C 
BRANCH   2   3
ATOM      3  C   UNL     1     -23.514  21.694 -31.257  1.00  0.00    -0.003 C 
ATOM      4  C   UNL     1     -23.653  23.210 -31.359  1.00  0.00     0.004 C 
ENDBRANCH   2   3
ENDBRANCH   1   2
BRANCH   1   5
ATOM      5  C   UNL     1     -25.649  19.809 -33.636  1.00  0.00     0.080 C 
BRANCH   5   6
ATOM      6  C   UNL     1     -27.008  19.534 -33.056  1.00  0.00     0.155 C 
ATOM      7  O   UNL     1     -27.169  18.521 -32.321  1.00  0.00    -0.295 OA
BRANCH   6   8
ATOM      8  C   UNL     1     -28.144  20.421 -33.370  1.00  0.00     0.039 C 
ATOM      9  C   UNL     1     -29.344  19.953 -33.709  1.00  0.00     0.012 C 
ENDBRANCH   6   8
ENDBRANCH   5   6
ENDBRANCH   1   5
TORSDOF 5
ENDMDL
MODEL 8
REMARK VINA RESULT:    -3.887      7.395      9.010
REMARK INTER + INTRA:          -5.163
REMARK INTER:                  -4.611
REMARK INTRA:                  -0.552
REMARK UNBOUND:                -0.140
REMARK SMILES C=CC(=O)CCCCC
REMARK SMILES IDX 6 1 7 2 8 3 9 4 5 5 3 6 4 7 2 8 1 9
REMARK H PARENT
REMARK Flexibility Score: inf
ROOT
ATOM      1  C   UNL     1     -27.732  13.892 -30.873  1.00  0.00     0.008 C 
ENDROOT
BRANCH   1   2
ATOM      2  C   UNL     1     -29.171  13.624 -30.406  1.00  0.00     0.000 C 
BRANCH   2   3
ATOM      3  C   UNL     1     -29.294  12.230 -29.781  1.00  0.00    -0.003 C 
ATOM      4  C   UNL     1     -29.656  12.320 -28.301  1.00  0.00     0.004 C 
ENDBRANCH   2   3
ENDBRANCH   1   2
BRANCH   1   5
ATOM      5  C   UNL     1     -26.827  14.365 -29.727  1.00  0.00     0.080 C 
BRANCH   5   6
ATOM      6  C   UNL     1     -25.533  13.603 -29.683  1.00  0.00     0.155 C 
ATOM      7  O   UNL     1     -24.453  14.211 -29.917  1.00  0.00    -0.295 OA
BRANCH   6   8
ATOM      8  C   UNL     1     -25.533  12.154 -29.402  1.00  0.00     0.039 C 
ATOM      9  C   UNL     1     -25.869  11.657 -28.213  1.00  0.00     0.012 C 
ENDBRANCH   6   8
ENDBRANCH   5   6
ENDBRANCH   1   5
TORSDOF 5
ENDMDL
MODEL 9
REMARK VINA RESULT:    -3.879     10.033     11.356
REMARK INTER + INTRA:          -5.153
REMARK INTER:                  -5.031
REMARK INTRA:                  -0.122
REMARK UNBOUND:                -0.140
REMARK SMILES C=CC(=O)CCCCC
REMARK SMILES IDX 6 1 7 2 8 3 9 4 5 5 3 6 4 7 2 8 1 9
REMARK H PARENT
REMARK Flexibility Score: inf
ROOT
ATOM      1  C   UNL     1     -30.046  30.081 -33.469  1.00  0.00     0.008 C 
ENDROOT
BRANCH   1   2
ATOM      2  C   UNL     1     -30.376  30.814 -34.778  1.00  0.00     0.000 C 
BRANCH   2   3
ATOM      3  C   UNL     1     -30.747  29.820 -35.884  1.00  0.00    -0.003 C 
ATOM      4  C   UNL     1     -30.012  28.495 -35.705  1.00  0.00     0.004 C 
ENDBRANCH   2   3
ENDBRANCH   1   2
BRANCH   1   5
ATOM      5  C   UNL     1     -30.036  31.025 -32.259  1.00  0.00     0.080 C 
BRANCH   5   6
ATOM      6  C   UNL     1     -30.513  30.341 -31.009  1.00  0.00     0.155 C 
ATOM      7  O   UNL     1     -30.410  29.087 -30.917  1.00  0.00    -0.295 OA
BRANCH   6   8
ATOM      8  C   UNL     1     -31.125  31.125 -29.919  1.00  0.00     0.039 C 
ATOM      9  C   UNL     1     -31.004  30.783 -28.637  1.00  0.00     0.012 C 
ENDBRANCH   6   8
ENDBRANCH   5   6
ENDBRANCH   1   5
TORSDOF 5
ENDMDL
