MODEL 1
REMARK VINA RESULT:    -3.679      0.000      0.000
REMARK INTER + INTRA:          -4.329
REMARK INTER:                  -4.324
REMARK INTRA:                  -0.005
REMARK UNBOUND:                -0.005
REMARK SMILES [NH3+][C@@H](CO)C(=O)[O-]
REMARK SMILES IDX 3 1 2 2 1 3 5 7 6 8 7 9 4 10
REMARK H PARENT 1 4 1 5 1 6 4 11
REMARK Flexibility Score: inf
ROOT
ATOM      1  C   UNL     1      30.317   4.932 143.941  1.00  0.00     0.227 C 
ENDROOT
BRANCH   1   2
ATOM      2  C   UNL     1      29.937   3.473 144.247  1.00  0.00     0.253 C 
BRANCH   2   3
ATOM      3  N   UNL     1      31.109   2.695 144.670  1.00  0.00    -0.348 N 
ATOM      4  H   UNL     1      30.907   2.219 145.580  1.00  0.00     0.345 HD
ATOM      5  H   UNL     1      31.357   1.972 143.955  1.00  0.00     0.345 HD
ATOM      6  H   UNL     1      31.926   3.333 144.808  1.00  0.00     0.345 HD
ENDBRANCH   2   3
BRANCH   2   7
ATOM      7  C   UNL     1      29.263   2.834 143.061  1.00  0.00     0.102 C 
ATOM      8  O   UNL     1      29.752   1.808 142.520  1.00  0.00    -0.544 OA
ATOM      9  O   UNL     1      28.109   3.403 142.533  1.00  0.00    -0.544 OA
ENDBRANCH   2   7
ENDBRANCH   1   2
BRANCH   1  10
ATOM     10  O   UNL     1      31.463   5.306 144.655  1.00  0.00    -0.390 OA
ATOM     11  H   UNL     1      31.305   5.028 145.594  1.00  0.00     0.210 HD
ENDBRANCH   1  10
TORSDOF 4
ENDMDL
MODEL 2
REMARK VINA RESULT:    -3.673      2.115      3.032
REMARK INTER + INTRA:          -4.322
REMARK INTER:                  -4.303
REMARK INTRA:                  -0.019
REMARK UNBOUND:                -0.005
REMARK SMILES [NH3+][C@@H](CO)C(=O)[O-]
REMARK SMILES IDX 3 1 2 2 1 3 5 7 6 8 7 9 4 10
REMARK H PARENT 1 4 1 5 1 6 4 11
REMARK Flexibility Score: inf
ROOT
ATOM      1  C   UNL     1      30.084   3.329 144.056  1.00  0.00     0.227 C 
ENDROOT
BRANCH   1   2
ATOM      2  C   UNL     1      30.295   4.847 143.931  1.00  0.00     0.253 C 
BRANCH   2   3
ATOM      3  N   UNL     1      31.470   5.286 144.694  1.00  0.00    -0.348 N 
ATOM      4  H   UNL     1      31.646   4.623 145.484  1.00  0.00     0.345 HD
ATOM      5  H   UNL     1      32.320   5.326 144.086  1.00  0.00     0.345 HD
ATOM      6  H   UNL     1      31.295   6.235 145.098  1.00  0.00     0.345 HD
ENDBRANCH   2   3
BRANCH   2   7
ATOM      7  C   UNL     1      29.060   5.597 144.359  1.00  0.00     0.102 C 
ATOM      8  O   UNL     1      29.054   6.855 144.396  1.00  0.00    -0.544 OA
ATOM      9  O   UNL     1      27.928   4.895 144.754  1.00  0.00    -0.544 OA
ENDBRANCH   2   7
ENDBRANCH   1   2
BRANCH   1  10
ATOM     10  O   UNL     1      31.115   2.744 144.805  1.00  0.00    -0.390 OA
ATOM     11  H   UNL     1      31.906   3.331 144.687  1.00  0.00     0.210 HD
ENDBRANCH   1  10
TORSDOF 4
ENDMDL
MODEL 3
REMARK VINA RESULT:    -3.224      1.852      3.031
REMARK INTER + INTRA:          -3.794
REMARK INTER:                  -3.568
REMARK INTRA:                  -0.226
REMARK UNBOUND:                -0.005
REMARK SMILES [NH3+][C@@H](CO)C(=O)[O-]
REMARK SMILES IDX 3 1 2 2 1 3 5 7 6 8 7 9 4 10
REMARK H PARENT 1 4 1 5 1 6 4 11
REMARK Flexibility Score: inf
ROOT
ATOM      1  C   UNL     1      29.015   3.199 142.663  1.00  0.00     0.227 C 
ENDROOT
BRANCH   1   2
ATOM      2  C   UNL     1      29.559   3.981 143.870  1.00  0.00     0.253 C 
BRANCH   2   3
ATOM      3  N   UNL     1      30.438   3.143 144.696  1.00  0.00    -0.348 N 
ATOM      4  H   UNL     1      31.411   3.166 144.311  1.00  0.00     0.345 HD
ATOM      5  H   UNL     1      30.456   3.479 145.687  1.00  0.00     0.345 HD
ATOM      6  H   UNL     1      30.102   2.153 144.677  1.00  0.00     0.345 HD
ENDBRANCH   2   3
BRANCH   2   7
ATOM      7  C   UNL     1      28.433   4.555 144.689  1.00  0.00     0.102 C 
ATOM      8  O   UNL     1      27.502   3.816 145.107  1.00  0.00    -0.544 OA
ATOM      9  O   UNL     1      28.396   5.918 144.956  1.00  0.00    -0.544 OA
ENDBRANCH   2   7
ENDBRANCH   1   2
BRANCH   1  10
ATOM     10  O   UNL     1      28.535   1.943 143.061  1.00  0.00    -0.390 OA
ATOM     11  H   UNL     1      29.336   1.374 143.201  1.00  0.00     0.210 HD
ENDBRANCH   1  10
TORSDOF 4
ENDMDL
MODEL 4
REMARK VINA RESULT:    -3.181     16.390     17.004
REMARK INTER + INTRA:          -3.744
REMARK INTER:                  -3.518
REMARK INTRA:                  -0.226
REMARK UNBOUND:                -0.005
REMARK SMILES [NH3+][C@@H](CO)C(=O)[O-]
REMARK SMILES IDX 3 1 2 2 1 3 5 7 6 8 7 9 4 10
REMARK H PARENT 1 4 1 5 1 6 4 11
REMARK Flexibility Score: inf
ROOT
ATOM      1  C   UNL     1      26.397  18.540 133.983  1.00  0.00     0.227 C 
ENDROOT
BRANCH   1   2
ATOM      2  C   UNL     1      25.828  17.519 134.983  1.00  0.00     0.253 C 
BRANCH   2   3
ATOM      3  N   UNL     1      24.580  18.002 135.587  1.00  0.00    -0.348 N 
ATOM      4  H   UNL     1      24.736  18.208 136.601  1.00  0.00     0.345 HD
ATOM      5  H   UNL     1      24.244  18.871 135.110  1.00  0.00     0.345 HD
ATOM      6  H   UNL     1      23.842  17.265 135.513  1.00  0.00     0.345 HD
ENDBRANCH   2   3
BRANCH   2   7
ATOM      7  C   UNL     1      26.846  17.180 136.040  1.00  0.00     0.102 C 
ATOM      8  O   UNL     1      28.002  17.679 136.001  1.00  0.00    -0.544 OA
ATOM      9  O   UNL     1      26.522  16.279 137.048  1.00  0.00    -0.544 OA
ENDBRANCH   2   7
ENDBRANCH   1   2
BRANCH   1  10
ATOM     10  O   UNL     1      27.387  17.953 133.183  1.00  0.00    -0.390 OA
ATOM     11  H   UNL     1      26.980  17.832 132.286  1.00  0.00     0.210 HD
ENDBRANCH   1  10
TORSDOF 4
ENDMDL
MODEL 5
REMARK VINA RESULT:    -3.127      1.815      1.821
REMARK INTER + INTRA:          -3.681
REMARK INTER:                  -3.449
REMARK INTRA:                  -0.232
REMARK UNBOUND:                -0.005
REMARK SMILES [NH3+][C@@H](CO)C(=O)[O-]
REMARK SMILES IDX 3 1 2 2 1 3 5 7 6 8 7 9 4 10
REMARK H PARENT 1 4 1 5 1 6 4 11
REMARK Flexibility Score: inf
ROOT
ATOM      1  C   UNL     1      30.383   4.074 144.020  1.00  0.00     0.227 C 
ENDROOT
BRANCH   1   2
ATOM      2  C   UNL     1      28.856   4.020 143.839  1.00  0.00     0.253 C 
BRANCH   2   3
ATOM      3  N   UNL     1      28.162   4.165 145.125  1.00  0.00    -0.348 N 
ATOM      4  H   UNL     1      27.434   4.914 145.051  1.00  0.00     0.345 HD
ATOM      5  H   UNL     1      27.701   3.269 145.407  1.00  0.00     0.345 HD
ATOM      6  H   UNL     1      28.845   4.445 145.866  1.00  0.00     0.345 HD
ENDBRANCH   2   3
BRANCH   2   7
ATOM      7  C   UNL     1      28.444   2.750 143.142  1.00  0.00     0.102 C 
ATOM      8  O   UNL     1      29.245   2.147 142.381  1.00  0.00    -0.544 OA
ATOM      9  O   UNL     1      27.155   2.257 143.308  1.00  0.00    -0.544 OA
ENDBRANCH   2   7
ENDBRANCH   1   2
BRANCH   1  10
ATOM     10  O   UNL     1      30.835   2.969 144.754  1.00  0.00    -0.390 OA
ATOM     11  H   UNL     1      31.560   2.558 144.215  1.00  0.00     0.210 HD
ENDBRANCH   1  10
TORSDOF 4
ENDMDL
MODEL 6
REMARK VINA RESULT:    -3.116     16.075     16.792
REMARK INTER + INTRA:          -3.667
REMARK INTER:                  -3.442
REMARK INTRA:                  -0.225
REMARK UNBOUND:                -0.005
REMARK SMILES [NH3+][C@@H](CO)C(=O)[O-]
REMARK SMILES IDX 3 1 2 2 1 3 5 7 6 8 7 9 4 10
REMARK H PARENT 1 4 1 5 1 6 4 11
REMARK Flexibility Score: inf
ROOT
ATOM      1  C   UNL     1      26.046  17.099 134.258  1.00  0.00     0.227 C 
ENDROOT
BRANCH   1   2
ATOM      2  C   UNL     1      26.365  16.987 135.759  1.00  0.00     0.253 C 
BRANCH   2   3
ATOM      3  N   UNL     1      25.399  17.741 136.567  1.00  0.00    -0.348 N 
ATOM      4  H   UNL     1      25.591  18.766 136.482  1.00  0.00     0.345 HD
ATOM      5  H   UNL     1      24.418  17.550 136.255  1.00  0.00     0.345 HD
ATOM      6  H   UNL     1      25.495  17.473 137.574  1.00  0.00     0.345 HD
ENDBRANCH   2   3
BRANCH   2   7
ATOM      7  C   UNL     1      27.775  17.436 136.041  1.00  0.00     0.102 C 
ATOM      8  O   UNL     1      28.362  18.234 135.264  1.00  0.00    -0.544 OA
ATOM      9  O   UNL     1      28.450  16.938 137.149  1.00  0.00    -0.544 OA
ENDBRANCH   2   7
ENDBRANCH   1   2
BRANCH   1  10
ATOM     10  O   UNL     1      25.717  18.419 133.918  1.00  0.00    -0.390 OA
ATOM     11  H   UNL     1      24.867  18.620 134.388  1.00  0.00     0.210 HD
ENDBRANCH   1  10
TORSDOF 4
ENDMDL
MODEL 7
REMARK VINA RESULT:    -3.052     13.556     14.527
REMARK INTER + INTRA:          -3.592
REMARK INTER:                  -3.361
REMARK INTRA:                  -0.231
REMARK UNBOUND:                -0.005
REMARK SMILES [NH3+][C@@H](CO)C(=O)[O-]
REMARK SMILES IDX 3 1 2 2 1 3 5 7 6 8 7 9 4 10
REMARK H PARENT 1 4 1 5 1 6 4 11
REMARK Flexibility Score: inf
ROOT
ATOM      1  C   UNL     1      35.504  14.458 139.328  1.00  0.00     0.227 C 
ENDROOT
BRANCH   1   2
ATOM      2  C   UNL     1      34.918  15.872 139.480  1.00  0.00     0.253 C 
BRANCH   2   3
ATOM      3  N   UNL     1      33.545  15.828 139.996  1.00  0.00    -0.348 N 
ATOM      4  H   UNL     1      32.867  15.886 139.201  1.00  0.00     0.345 HD
ATOM      5  H   UNL     1      33.371  14.944 140.529  1.00  0.00     0.345 HD
ATOM      6  H   UNL     1      33.378  16.645 140.628  1.00  0.00     0.345 HD
ENDBRANCH   2   3
BRANCH   2   7
ATOM      7  C   UNL     1      34.983  16.622 138.175  1.00  0.00     0.102 C 
ATOM      8  O   UNL     1      33.933  16.869 137.525  1.00  0.00    -0.544 OA
ATOM      9  O   UNL     1      36.214  17.012 137.662  1.00  0.00    -0.544 OA
ENDBRANCH   2   7
ENDBRANCH   1   2
BRANCH   1  10
ATOM     10  O   UNL     1      36.862  14.517 138.987  1.00  0.00    -0.390 OA
ATOM     11  H   UNL     1      37.261  15.216 139.568  1.00  0.00     0.210 HD
ENDBRANCH   1  10
TORSDOF 4
ENDMDL
MODEL 8
REMARK VINA RESULT:    -3.051      1.906      2.254
REMARK INTER + INTRA:          -3.591
REMARK INTER:                  -3.582
REMARK INTRA:                  -0.009
REMARK UNBOUND:                -0.005
REMARK SMILES [NH3+][C@@H](CO)C(=O)[O-]
REMARK SMILES IDX 3 1 2 2 1 3 5 7 6 8 7 9 4 10
REMARK H PARENT 1 4 1 5 1 6 4 11
REMARK Flexibility Score: inf
ROOT
ATOM      1  C   UNL     1      30.256   3.795 144.269  1.00  0.00     0.227 C 
ENDROOT
BRANCH   1   2
ATOM      2  C   UNL     1      29.230   3.246 143.262  1.00  0.00     0.253 C 
BRANCH   2   3
ATOM      3  N   UNL     1      29.641   1.935 142.744  1.00  0.00    -0.348 N 
ATOM      4  H   UNL     1      30.365   2.061 141.999  1.00  0.00     0.345 HD
ATOM      5  H   UNL     1      30.035   1.337 143.506  1.00  0.00     0.345 HD
ATOM      6  H   UNL     1      28.817   1.449 142.320  1.00  0.00     0.345 HD
ENDBRANCH   2   3
BRANCH   2   7
ATOM      7  C   UNL     1      29.005   4.226 142.139  1.00  0.00     0.102 C 
ATOM      8  O   UNL     1      29.150   5.462 142.328  1.00  0.00    -0.544 OA
ATOM      9  O   UNL     1      28.597   3.766 140.893  1.00  0.00    -0.544 OA
ENDBRANCH   2   7
ENDBRANCH   1   2
BRANCH   1  10
ATOM     10  O   UNL     1      31.109   2.776 144.713  1.00  0.00    -0.390 OA
ATOM     11  H   UNL     1      31.650   2.507 143.926  1.00  0.00     0.210 HD
ENDBRANCH   1  10
TORSDOF 4
ENDMDL
MODEL 9
REMARK VINA RESULT:    -3.007     16.521     17.039
REMARK INTER + INTRA:          -3.539
REMARK INTER:                  -3.527
REMARK INTRA:                  -0.012
REMARK UNBOUND:                -0.005
REMARK SMILES [NH3+][C@@H](CO)C(=O)[O-]
REMARK SMILES IDX 3 1 2 2 1 3 5 7 6 8 7 9 4 10
REMARK H PARENT 1 4 1 5 1 6 4 11
REMARK Flexibility Score: inf
ROOT
ATOM      1  C   UNL     1      26.087  17.168 136.146  1.00  0.00     0.227 C 
ENDROOT
BRANCH   1   2
ATOM      2  C   UNL     1      26.773  17.918 134.991  1.00  0.00     0.253 C 
BRANCH   2   3
ATOM      3  N   UNL     1      25.841  18.838 134.325  1.00  0.00    -0.348 N 
ATOM      4  H   UNL     1      25.693  19.684 134.922  1.00  0.00     0.345 HD
ATOM      5  H   UNL     1      26.212  19.139 133.393  1.00  0.00     0.345 HD
ATOM      6  H   UNL     1      24.917  18.367 134.188  1.00  0.00     0.345 HD
ENDBRANCH   2   3
BRANCH   2   7
ATOM      7  C   UNL     1      27.375  16.950 134.006  1.00  0.00     0.102 C 
ATOM      8  O   UNL     1      28.393  17.266 133.337  1.00  0.00    -0.544 OA
ATOM      9  O   UNL     1      26.780  15.710 133.804  1.00  0.00    -0.544 OA
ENDBRANCH   2   7
ENDBRANCH   1   2
BRANCH   1  10
ATOM     10  O   UNL     1      24.994  17.899 136.632  1.00  0.00    -0.390 OA
ATOM     11  H   UNL     1      25.363  18.763 136.955  1.00  0.00     0.210 HD
ENDBRANCH   1  10
TORSDOF 4
ENDMDL
