MODEL 1
REMARK VINA RESULT:    -5.020      0.000      0.000
REMARK INTER + INTRA:          -5.650
REMARK INTER:                  -5.607
REMARK INTRA:                  -0.043
REMARK UNBOUND:                -0.043
REMARK SMILES O=C([O-])c1ccc(O)c(O)c1
REMARK SMILES IDX 4 1 11 2 5 3 9 4 6 5 7 6 2 7 1 8 3 9 10 10 8 12
REMARK H PARENT 10 11 8 13
REMARK Flexibility Score: inf
ROOT
ATOM      1  C   UNL     1      11.091 -49.908 -13.769  1.00  0.00     0.001 A 
ATOM      2  C   UNL     1      10.484 -48.701 -14.157  1.00  0.00     0.060 A 
ATOM      3  C   UNL     1      10.487 -51.120 -14.135  1.00  0.00     0.014 A 
ATOM      4  C   UNL     1       9.296 -48.696 -14.899  1.00  0.00     0.158 A 
ATOM      5  C   UNL     1       9.302 -51.125 -14.874  1.00  0.00     0.051 A 
ATOM      6  C   UNL     1       8.697 -49.925 -15.261  1.00  0.00     0.157 A 
ENDROOT
BRANCH   1   7
ATOM      7  C   UNL     1      12.347 -49.905 -12.987  1.00  0.00     0.072 C 
ATOM      8  O   UNL     1      13.094 -48.891 -12.977  1.00  0.00    -0.545 OA
ATOM      9  O   UNL     1      12.720 -51.024 -12.250  1.00  0.00    -0.545 OA
ENDBRANCH   1   7
BRANCH   4  10
ATOM     10  O   UNL     1       8.750 -47.459 -15.249  1.00  0.00    -0.504 OA
ATOM     11  H   UNL     1       7.853 -47.344 -15.697  1.00  0.00     0.293 HD
ENDBRANCH   4  10
BRANCH   6  12
ATOM     12  O   UNL     1       7.512 -50.000 -16.000  1.00  0.00    -0.504 OA
ATOM     13  H   UNL     1       7.214 -50.821 -16.505  1.00  0.00     0.293 HD
ENDBRANCH   6  12
TORSDOF 3
ENDMDL
MODEL 2
REMARK VINA RESULT:    -4.087     18.564     19.561
REMARK INTER + INTRA:          -4.608
REMARK INTER:                  -4.567
REMARK INTRA:                  -0.040
REMARK UNBOUND:                -0.043
REMARK SMILES O=C([O-])c1ccc(O)c(O)c1
REMARK SMILES IDX 4 1 11 2 5 3 9 4 6 5 7 6 2 7 1 8 3 9 10 10 8 12
REMARK H PARENT 10 11 8 13
REMARK Flexibility Score: inf
ROOT
ATOM      1  C   UNL     1      20.349 -34.502 -22.421  1.00  0.00     0.001 A 
ATOM      2  C   UNL     1      19.373 -35.434 -22.028  1.00  0.00     0.060 A 
ATOM      3  C   UNL     1      20.912 -34.607 -23.701  1.00  0.00     0.014 A 
ATOM      4  C   UNL     1      18.960 -36.454 -22.894  1.00  0.00     0.158 A 
ATOM      5  C   UNL     1      20.507 -35.622 -24.571  1.00  0.00     0.051 A 
ATOM      6  C   UNL     1      19.535 -36.549 -24.183  1.00  0.00     0.157 A 
ENDROOT
BRANCH   1   7
ATOM      7  C   UNL     1      20.780 -33.426 -21.501  1.00  0.00     0.072 C 
ATOM      8  O   UNL     1      20.980 -32.258 -21.928  1.00  0.00    -0.545 OA
ATOM      9  O   UNL     1      20.968 -33.690 -20.148  1.00  0.00    -0.545 OA
ENDBRANCH   1   7
BRANCH   4  10
ATOM     10  O   UNL     1      17.985 -37.344 -22.436  1.00  0.00    -0.504 OA
ATOM     11  H   UNL     1      17.923 -38.310 -22.722  1.00  0.00     0.293 HD
ENDBRANCH   4  10
BRANCH   6  12
ATOM     12  O   UNL     1      19.174 -37.539 -25.101  1.00  0.00    -0.504 OA
ATOM     13  H   UNL     1      18.225 -37.721 -25.390  1.00  0.00     0.293 HD
ENDBRANCH   6  12
TORSDOF 3
ENDMDL
MODEL 3
REMARK VINA RESULT:    -3.857     11.967     13.439
REMARK INTER + INTRA:          -4.352
REMARK INTER:                  -4.308
REMARK INTRA:                  -0.044
REMARK UNBOUND:                -0.043
REMARK SMILES O=C([O-])c1ccc(O)c(O)c1
REMARK SMILES IDX 4 1 11 2 5 3 9 4 6 5 7 6 2 7 1 8 3 9 10 10 8 12
REMARK H PARENT 10 11 8 13
REMARK Flexibility Score: inf
ROOT
ATOM      1  C   UNL     1       9.404 -37.005 -16.501  1.00  0.00     0.001 A 
ATOM      2  C   UNL     1      10.530 -36.172 -16.379  1.00  0.00     0.060 A 
ATOM      3  C   UNL     1       9.557 -38.274 -17.080  1.00  0.00     0.014 A 
ATOM      4  C   UNL     1      11.789 -36.592 -16.825  1.00  0.00     0.158 A 
ATOM      5  C   UNL     1      10.809 -38.700 -17.527  1.00  0.00     0.051 A 
ATOM      6  C   UNL     1      11.930 -37.873 -17.407  1.00  0.00     0.157 A 
ENDROOT
BRANCH   1   7
ATOM      7  C   UNL     1       8.077 -36.555 -16.026  1.00  0.00     0.072 C 
ATOM      8  O   UNL     1       7.031 -37.164 -16.374  1.00  0.00    -0.545 OA
ATOM      9  O   UNL     1       7.966 -35.451 -15.188  1.00  0.00    -0.545 OA
ENDBRANCH   1   7
BRANCH   4  10
ATOM     10  O   UNL     1      12.863 -35.711 -16.672  1.00  0.00    -0.504 OA
ATOM     11  H   UNL     1      13.811 -35.925 -16.944  1.00  0.00     0.293 HD
ENDBRANCH   4  10
BRANCH   6  12
ATOM     12  O   UNL     1      13.154 -38.361 -17.875  1.00  0.00    -0.504 OA
ATOM     13  H   UNL     1      13.399 -38.424 -18.851  1.00  0.00     0.293 HD
ENDBRANCH   6  12
TORSDOF 3
ENDMDL
MODEL 4
REMARK VINA RESULT:    -3.840     11.902     13.250
REMARK INTER + INTRA:          -4.333
REMARK INTER:                  -4.291
REMARK INTRA:                  -0.041
REMARK UNBOUND:                -0.043
REMARK SMILES O=C([O-])c1ccc(O)c(O)c1
REMARK SMILES IDX 4 1 11 2 5 3 9 4 6 5 7 6 2 7 1 8 3 9 10 10 8 12
REMARK H PARENT 10 11 8 13
REMARK Flexibility Score: inf
ROOT
ATOM      1  C   UNL     1      12.010 -36.844 -17.257  1.00  0.00     0.001 A 
ATOM      2  C   UNL     1      11.043 -35.958 -16.752  1.00  0.00     0.060 A 
ATOM      3  C   UNL     1      11.653 -38.182 -17.486  1.00  0.00     0.014 A 
ATOM      4  C   UNL     1       9.739 -36.393 -16.479  1.00  0.00     0.158 A 
ATOM      5  C   UNL     1      10.356 -38.623 -17.216  1.00  0.00     0.051 A 
ATOM      6  C   UNL     1       9.392 -37.743 -16.714  1.00  0.00     0.157 A 
ENDROOT
BRANCH   1   7
ATOM      7  C   UNL     1      13.385 -36.378 -17.543  1.00  0.00     0.072 C 
ATOM      8  O   UNL     1      14.031 -36.846 -18.518  1.00  0.00    -0.545 OA
ATOM      9  O   UNL     1      13.984 -35.414 -16.739  1.00  0.00    -0.545 OA
ENDBRANCH   1   7
BRANCH   4  10
ATOM     10  O   UNL     1       8.831 -35.456 -15.980  1.00  0.00    -0.504 OA
ATOM     11  H   UNL     1       8.184 -34.936 -16.554  1.00  0.00     0.293 HD
ENDBRANCH   4  10
BRANCH   6  12
ATOM     12  O   UNL     1       8.113 -38.249 -16.466  1.00  0.00    -0.504 OA
ATOM     13  H   UNL     1       7.260 -37.766 -16.706  1.00  0.00     0.293 HD
ENDBRANCH   6  12
TORSDOF 3
ENDMDL
MODEL 5
REMARK VINA RESULT:    -3.825     12.343     13.934
REMARK INTER + INTRA:          -4.315
REMARK INTER:                  -4.279
REMARK INTRA:                  -0.037
REMARK UNBOUND:                -0.043
REMARK SMILES O=C([O-])c1ccc(O)c(O)c1
REMARK SMILES IDX 4 1 11 2 5 3 9 4 6 5 7 6 2 7 1 8 3 9 10 10 8 12
REMARK H PARENT 10 11 8 13
REMARK Flexibility Score: inf
ROOT
ATOM      1  C   UNL     1      10.194 -36.899 -17.085  1.00  0.00     0.001 A 
ATOM      2  C   UNL     1      11.173 -37.821 -17.493  1.00  0.00     0.060 A 
ATOM      3  C   UNL     1      10.588 -35.598 -16.737  1.00  0.00     0.014 A 
ATOM      4  C   UNL     1      12.524 -37.456 -17.557  1.00  0.00     0.158 A 
ATOM      5  C   UNL     1      11.932 -35.227 -16.797  1.00  0.00     0.051 A 
ATOM      6  C   UNL     1      12.909 -36.142 -17.204  1.00  0.00     0.157 A 
ENDROOT
BRANCH   1   7
ATOM      7  C   UNL     1       8.768 -37.291 -17.021  1.00  0.00     0.072 C 
ATOM      8  O   UNL     1       8.371 -38.133 -16.173  1.00  0.00    -0.545 OA
ATOM      9  O   UNL     1       7.845 -36.731 -17.898  1.00  0.00    -0.545 OA
ENDBRANCH   1   7
BRANCH   4  10
ATOM     10  O   UNL     1      13.442 -38.425 -17.972  1.00  0.00    -0.504 OA
ATOM     11  H   UNL     1      13.968 -39.011 -17.340  1.00  0.00     0.293 HD
ENDBRANCH   4  10
BRANCH   6  12
ATOM     12  O   UNL     1      14.236 -35.706 -17.242  1.00  0.00    -0.504 OA
ATOM     13  H   UNL     1      14.943 -35.996 -16.584  1.00  0.00     0.293 HD
ENDBRANCH   6  12
TORSDOF 3
ENDMDL
MODEL 6
REMARK VINA RESULT:    -3.791     12.224     13.299
REMARK INTER + INTRA:          -4.277
REMARK INTER:                  -4.239
REMARK INTRA:                  -0.038
REMARK UNBOUND:                -0.043
REMARK SMILES O=C([O-])c1ccc(O)c(O)c1
REMARK SMILES IDX 4 1 11 2 5 3 9 4 6 5 7 6 2 7 1 8 3 9 10 10 8 12
REMARK H PARENT 10 11 8 13
REMARK Flexibility Score: inf
ROOT
ATOM      1  C   UNL     1      10.672 -36.994 -17.514  1.00  0.00     0.001 A 
ATOM      2  C   UNL     1       9.813 -37.740 -16.688  1.00  0.00     0.060 A 
ATOM      3  C   UNL     1      10.118 -36.067 -18.410  1.00  0.00     0.014 A 
ATOM      4  C   UNL     1       8.425 -37.568 -16.749  1.00  0.00     0.158 A 
ATOM      5  C   UNL     1       8.734 -35.890 -18.478  1.00  0.00     0.051 A 
ATOM      6  C   UNL     1       7.878 -36.631 -17.657  1.00  0.00     0.157 A 
ENDROOT
BRANCH   1   7
ATOM      7  C   UNL     1      12.138 -37.180 -17.443  1.00  0.00     0.072 C 
ATOM      8  O   UNL     1      12.655 -38.303 -17.683  1.00  0.00    -0.545 OA
ATOM      9  O   UNL     1      12.968 -36.114 -17.110  1.00  0.00    -0.545 OA
ENDBRANCH   1   7
BRANCH   4  10
ATOM     10  O   UNL     1       7.633 -38.343 -15.898  1.00  0.00    -0.504 OA
ATOM     11  H   UNL     1       7.165 -39.192 -16.181  1.00  0.00     0.293 HD
ENDBRANCH   4  10
BRANCH   6  12
ATOM     12  O   UNL     1       6.504 -36.405 -17.775  1.00  0.00    -0.504 OA
ATOM     13  H   UNL     1       5.902 -36.908 -18.409  1.00  0.00     0.293 HD
ENDBRANCH   6  12
TORSDOF 3
ENDMDL
MODEL 7
REMARK VINA RESULT:    -3.681     12.299     13.706
REMARK INTER + INTRA:          -4.155
REMARK INTER:                  -4.114
REMARK INTRA:                  -0.041
REMARK UNBOUND:                -0.043
REMARK SMILES O=C([O-])c1ccc(O)c(O)c1
REMARK SMILES IDX 4 1 11 2 5 3 9 4 6 5 7 6 2 7 1 8 3 9 10 10 8 12
REMARK H PARENT 10 11 8 13
REMARK Flexibility Score: inf
ROOT
ATOM      1  C   UNL     1      12.155 -36.207 -17.247  1.00  0.00     0.001 A 
ATOM      2  C   UNL     1      11.806 -37.525 -17.588  1.00  0.00     0.060 A 
ATOM      3  C   UNL     1      11.136 -35.265 -17.040  1.00  0.00     0.014 A 
ATOM      4  C   UNL     1      10.464 -37.904 -17.721  1.00  0.00     0.158 A 
ATOM      5  C   UNL     1       9.795 -35.634 -17.172  1.00  0.00     0.051 A 
ATOM      6  C   UNL     1       9.445 -36.945 -17.511  1.00  0.00     0.157 A 
ENDROOT
BRANCH   1   7
ATOM      7  C   UNL     1      13.575 -35.814 -17.107  1.00  0.00     0.072 C 
ATOM      8  O   UNL     1      14.455 -36.307 -17.861  1.00  0.00    -0.545 OA
ATOM      9  O   UNL     1      13.958 -34.892 -16.139  1.00  0.00    -0.545 OA
ENDBRANCH   1   7
BRANCH   4  10
ATOM     10  O   UNL     1      10.192 -39.231 -18.062  1.00  0.00    -0.504 OA
ATOM     11  H   UNL     1      10.520 -39.675 -18.907  1.00  0.00     0.293 HD
ENDBRANCH   4  10
BRANCH   6  12
ATOM     12  O   UNL     1       8.086 -37.249 -17.626  1.00  0.00    -0.504 OA
ATOM     13  H   UNL     1       7.641 -37.523 -18.489  1.00  0.00     0.293 HD
ENDBRANCH   6  12
TORSDOF 3
ENDMDL
