MODEL 1
REMARK VINA RESULT:    -6.646      0.000      0.000
REMARK INTER + INTRA:         -13.774
REMARK INTER:                 -12.474
REMARK INTRA:                  -1.300
REMARK UNBOUND:                -1.300
REMARK SMILES O=C([O-])CCCCCCCCCCCCCCC(=O)[O-]
REMARK SMILES IDX 10 1 9 2 8 3 7 4 6 5 5 6 4 7 2 8 1 9 3 10 11 11 12 12 13 13
REMARK SMILES IDX 14 14 15 15 16 16 17 17 18 18 19 19 20 20
REMARK H PARENT
REMARK Flexibility Score: inf
ROOT
ATOM      1  C   UNL     1      -4.020   0.907   2.718  1.00  0.00     0.000 C 
ENDROOT
BRANCH   1   2
ATOM      2  C   UNL     1      -5.345   0.334   2.183  1.00  0.00     0.000 C 
BRANCH   2   3
ATOM      3  C   UNL     1      -6.443   0.124   3.246  1.00  0.00     0.000 C 
BRANCH   3   4
ATOM      4  C   UNL     1      -6.635  -1.331   3.709  1.00  0.00     0.000 C 
BRANCH   4   5
ATOM      5  C   UNL     1      -6.003  -1.609   5.081  1.00  0.00     0.000 C 
BRANCH   5   6
ATOM      6  C   UNL     1      -4.539  -2.040   4.934  1.00  0.00     0.006 C 
BRANCH   6   7
ATOM      7  C   UNL     1      -3.727  -1.660   6.176  1.00  0.00     0.053 C 
BRANCH   7   8
ATOM      8  C   UNL     1      -2.848  -2.797   6.593  1.00  0.00     0.041 C 
ATOM      9  O   UNL     1      -3.305  -3.719   7.319  1.00  0.00    -0.550 OA
ATOM     10  O   UNL     1      -1.510  -2.814   6.222  1.00  0.00    -0.550 OA
ENDBRANCH   7   8
ENDBRANCH   6   7
ENDBRANCH   5   6
ENDBRANCH   4   5
ENDBRANCH   3   4
ENDBRANCH   2   3
ENDBRANCH   1   2
BRANCH   1  11
ATOM     11  C   UNL     1      -4.184   1.640   4.058  1.00  0.00     0.000 C 
BRANCH  11  12
ATOM     12  C   UNL     1      -3.197   2.807   4.170  1.00  0.00     0.000 C 
BRANCH  12  13
ATOM     13  C   UNL     1      -3.250   3.441   5.568  1.00  0.00     0.000 C 
BRANCH  13  14
ATOM     14  C   UNL     1      -4.391   4.462   5.716  1.00  0.00     0.000 C 
BRANCH  14  15
ATOM     15  C   UNL     1      -4.359   5.544   4.622  1.00  0.00     0.000 C 
BRANCH  15  16
ATOM     16  C   UNL     1      -5.740   6.171   4.372  1.00  0.00     0.006 C 
BRANCH  16  17
ATOM     17  C   UNL     1      -6.254   5.923   2.947  1.00  0.00     0.053 C 
BRANCH  17  18
ATOM     18  C   UNL     1      -7.748   5.979   2.914  1.00  0.00     0.041 C 
ATOM     19  O   UNL     1      -8.359   5.980   1.814  1.00  0.00    -0.550 OA
ATOM     20  O   UNL     1      -8.470   5.983   4.102  1.00  0.00    -0.550 OA
ENDBRANCH  17  18
ENDBRANCH  16  17
ENDBRANCH  15  16
ENDBRANCH  14  15
ENDBRANCH  13  14
ENDBRANCH  12  13
ENDBRANCH  11  12
ENDBRANCH   1  11
TORSDOF 15
ENDMDL
MODEL 2
REMARK VINA RESULT:    -6.590      0.988      2.168
REMARK INTER + INTRA:         -13.668
REMARK INTER:                 -12.549
REMARK INTRA:                  -1.120
REMARK UNBOUND:                -1.300
REMARK SMILES O=C([O-])CCCCCCCCCCCCCCC(=O)[O-]
REMARK SMILES IDX 10 1 9 2 8 3 7 4 6 5 5 6 4 7 2 8 1 9 3 10 11 11 12 12 13 13
REMARK SMILES IDX 14 14 15 15 16 16 17 17 18 18 19 19 20 20
REMARK H PARENT
REMARK Flexibility Score: inf
ROOT
ATOM      1  C   UNL     1      -3.243   2.580   4.501  1.00  0.00     0.000 C 
ENDROOT
BRANCH   1   2
ATOM      2  C   UNL     1      -4.473   2.207   3.654  1.00  0.00     0.000 C 
BRANCH   2   3
ATOM      3  C   UNL     1      -4.373   0.856   2.915  1.00  0.00     0.000 C 
BRANCH   3   4
ATOM      4  C   UNL     1      -5.650  -0.001   2.946  1.00  0.00     0.000 C 
BRANCH   4   5
ATOM      5  C   UNL     1      -5.671  -1.000   4.112  1.00  0.00     0.000 C 
BRANCH   5   6
ATOM      6  C   UNL     1      -4.259  -1.505   4.428  1.00  0.00     0.006 C 
BRANCH   6   7
ATOM      7  C   UNL     1      -3.982  -1.458   5.934  1.00  0.00     0.053 C 
BRANCH   7   8
ATOM      8  C   UNL     1      -3.109  -2.603   6.341  1.00  0.00     0.041 C 
ATOM      9  O   UNL     1      -1.859  -2.462   6.390  1.00  0.00    -0.550 OA
ATOM     10  O   UNL     1      -3.672  -3.842   6.619  1.00  0.00    -0.550 OA
ENDBRANCH   7   8
ENDBRANCH   6   7
ENDBRANCH   5   6
ENDBRANCH   4   5
ENDBRANCH   3   4
ENDBRANCH   2   3
ENDBRANCH   1   2
BRANCH   1  11
ATOM     11  C   UNL     1      -3.496   3.782   5.424  1.00  0.00     0.000 C 
BRANCH  11  12
ATOM     12  C   UNL     1      -4.727   4.574   4.969  1.00  0.00     0.000 C 
BRANCH  12  13
ATOM     13  C   UNL     1      -4.324   5.952   4.423  1.00  0.00     0.000 C 
BRANCH  13  14
ATOM     14  C   UNL     1      -5.525   6.763   3.908  1.00  0.00     0.000 C 
BRANCH  14  15
ATOM     15  C   UNL     1      -5.596   6.801   2.371  1.00  0.00     0.000 C 
BRANCH  15  16
ATOM     16  C   UNL     1      -6.945   6.300   1.830  1.00  0.00     0.006 C 
BRANCH  16  17
ATOM     17  C   UNL     1      -7.841   5.710   2.928  1.00  0.00     0.053 C 
BRANCH  17  18
ATOM     18  C   UNL     1      -9.230   5.505   2.411  1.00  0.00     0.041 C 
ATOM     19  O   UNL     1      -9.569   5.979   1.296  1.00  0.00    -0.550 OA
ATOM     20  O   UNL     1     -10.138   4.747   3.141  1.00  0.00    -0.550 OA
ENDBRANCH  17  18
ENDBRANCH  16  17
ENDBRANCH  15  16
ENDBRANCH  14  15
ENDBRANCH  13  14
ENDBRANCH  12  13
ENDBRANCH  11  12
ENDBRANCH   1  11
TORSDOF 15
ENDMDL
MODEL 3
REMARK VINA RESULT:    -6.580      0.638      8.104
REMARK INTER + INTRA:         -13.649
REMARK INTER:                 -12.253
REMARK INTRA:                  -1.396
REMARK UNBOUND:                -1.300
REMARK SMILES O=C([O-])CCCCCCCCCCCCCCC(=O)[O-]
REMARK SMILES IDX 10 1 9 2 8 3 7 4 6 5 5 6 4 7 2 8 1 9 3 10 11 11 12 12 13 13
REMARK SMILES IDX 14 14 15 15 16 16 17 17 18 18 19 19 20 20
REMARK H PARENT
REMARK Flexibility Score: inf
ROOT
ATOM      1  C   UNL     1      -4.162   1.527   4.009  1.00  0.00     0.000 C 
ENDROOT
BRANCH   1   2
ATOM      2  C   UNL     1      -3.282   2.767   4.246  1.00  0.00     0.000 C 
BRANCH   2   3
ATOM      3  C   UNL     1      -3.496   3.472   5.601  1.00  0.00     0.000 C 
BRANCH   3   4
ATOM      4  C   UNL     1      -4.379   4.732   5.550  1.00  0.00     0.000 C 
BRANCH   4   5
ATOM      5  C   UNL     1      -3.916   5.741   4.489  1.00  0.00     0.000 C 
BRANCH   5   6
ATOM      6  C   UNL     1      -5.113   6.460   3.855  1.00  0.00     0.006 C 
BRANCH   6   7
ATOM      7  C   UNL     1      -6.408   5.673   4.078  1.00  0.00     0.053 C 
BRANCH   7   8
ATOM      8  C   UNL     1      -7.334   5.851   2.916  1.00  0.00     0.041 C 
ATOM      9  O   UNL     1      -8.540   5.501   3.007  1.00  0.00    -0.550 OA
ATOM     10  O   UNL     1      -6.854   6.357   1.715  1.00  0.00    -0.550 OA
ENDBRANCH   7   8
ENDBRANCH   6   7
ENDBRANCH   5   6
ENDBRANCH   4   5
ENDBRANCH   3   4
ENDBRANCH   2   3
ENDBRANCH   1   2
BRANCH   1  11
ATOM     11  C   UNL     1      -3.970   0.916   2.612  1.00  0.00     0.000 C 
BRANCH  11  12
ATOM     12  C   UNL     1      -5.276   0.302   2.097  1.00  0.00     0.000 C 
BRANCH  12  13
ATOM     13  C   UNL     1      -6.334   0.243   3.209  1.00  0.00     0.000 C 
BRANCH  13  14
ATOM     14  C   UNL     1      -6.718  -1.197   3.589  1.00  0.00     0.000 C 
BRANCH  14  15
ATOM     15  C   UNL     1      -6.259  -1.575   5.009  1.00  0.00     0.000 C 
BRANCH  15  16
ATOM     16  C   UNL     1      -4.886  -2.264   5.021  1.00  0.00     0.006 C 
BRANCH  16  17
ATOM     17  C   UNL     1      -3.878  -1.561   5.940  1.00  0.00     0.053 C 
BRANCH  17  18
ATOM     18  C   UNL     1      -3.021  -2.567   6.641  1.00  0.00     0.041 C 
ATOM     19  O   UNL     1      -3.404  -3.761   6.748  1.00  0.00    -0.550 OA
ATOM     20  O   UNL     1      -1.775  -2.197   7.133  1.00  0.00    -0.550 OA
ENDBRANCH  17  18
ENDBRANCH  16  17
ENDBRANCH  15  16
ENDBRANCH  14  15
ENDBRANCH  13  14
ENDBRANCH  12  13
ENDBRANCH  11  12
ENDBRANCH   1  11
TORSDOF 15
ENDMDL
MODEL 4
REMARK VINA RESULT:    -6.566      2.013      4.311
REMARK INTER + INTRA:         -13.624
REMARK INTER:                 -12.617
REMARK INTRA:                  -1.007
REMARK UNBOUND:                -1.300
REMARK SMILES O=C([O-])CCCCCCCCCCCCCCC(=O)[O-]
REMARK SMILES IDX 10 1 9 2 8 3 7 4 6 5 5 6 4 7 2 8 1 9 3 10 11 11 12 12 13 13
REMARK SMILES IDX 14 14 15 15 16 16 17 17 18 18 19 19 20 20
REMARK H PARENT
REMARK Flexibility Score: inf
ROOT
ATOM      1  C   UNL     1      -3.778   5.655   4.359  1.00  0.00     0.000 C 
ENDROOT
BRANCH   1   2
ATOM      2  C   UNL     1      -2.761   4.513   4.531  1.00  0.00     0.000 C 
BRANCH   2   3
ATOM      3  C   UNL     1      -3.327   3.220   5.153  1.00  0.00     0.000 C 
BRANCH   3   4
ATOM      4  C   UNL     1      -3.380   2.008   4.205  1.00  0.00     0.000 C 
BRANCH   4   5
ATOM      5  C   UNL     1      -4.691   1.931   3.409  1.00  0.00     0.000 C 
BRANCH   5   6
ATOM      6  C   UNL     1      -4.804   0.594   2.666  1.00  0.00     0.006 C 
BRANCH   6   7
ATOM      7  C   UNL     1      -5.868  -0.303   3.306  1.00  0.00     0.053 C 
BRANCH   7   8
ATOM      8  C   UNL     1      -5.232  -1.275   4.250  1.00  0.00     0.041 C 
ATOM      9  O   UNL     1      -4.083  -1.731   4.012  1.00  0.00    -0.550 OA
ATOM     10  O   UNL     1      -5.929  -1.715   5.367  1.00  0.00    -0.550 OA
ENDBRANCH   7   8
ENDBRANCH   6   7
ENDBRANCH   5   6
ENDBRANCH   4   5
ENDBRANCH   3   4
ENDBRANCH   2   3
ENDBRANCH   1   2
BRANCH   1  11
ATOM     11  C   UNL     1      -5.114   5.376   5.065  1.00  0.00     0.000 C 
BRANCH  11  12
ATOM     12  C   UNL     1      -6.293   5.568   4.106  1.00  0.00     0.000 C 
BRANCH  12  13
ATOM     13  C   UNL     1      -5.882   6.412   2.890  1.00  0.00     0.000 C 
BRANCH  13  14
ATOM     14  C   UNL     1      -6.908   6.348   1.746  1.00  0.00     0.000 C 
BRANCH  14  15
ATOM     15  C   UNL     1      -8.274   5.811   2.208  1.00  0.00     0.000 C 
BRANCH  15  16
ATOM     16  C   UNL     1      -9.374   6.012   1.154  1.00  0.00     0.006 C 
BRANCH  16  17
ATOM     17  C   UNL     1     -10.714   5.387   1.568  1.00  0.00     0.053 C 
BRANCH  17  18
ATOM     18  C   UNL     1     -10.837   5.359   3.059  1.00  0.00     0.041 C 
ATOM     19  O   UNL     1     -10.717   4.274   3.685  1.00  0.00    -0.550 OA
ATOM     20  O   UNL     1     -11.036   6.541   3.763  1.00  0.00    -0.550 OA
ENDBRANCH  17  18
ENDBRANCH  16  17
ENDBRANCH  15  16
ENDBRANCH  14  15
ENDBRANCH  13  14
ENDBRANCH  12  13
ENDBRANCH  11  12
ENDBRANCH   1  11
TORSDOF 15
ENDMDL
MODEL 5
REMARK VINA RESULT:    -6.513      4.229      8.905
REMARK INTER + INTRA:         -13.524
REMARK INTER:                 -12.801
REMARK INTRA:                  -0.724
REMARK UNBOUND:                -1.300
REMARK SMILES O=C([O-])CCCCCCCCCCCCCCC(=O)[O-]
REMARK SMILES IDX 10 1 9 2 8 3 7 4 6 5 5 6 4 7 2 8 1 9 3 10 11 11 12 12 13 13
REMARK SMILES IDX 14 14 15 15 16 16 17 17 18 18 19 19 20 20
REMARK H PARENT
REMARK Flexibility Score: inf
ROOT
ATOM      1  C   UNL     1      -4.583   1.750   3.247  1.00  0.00     0.000 C 
ENDROOT
BRANCH   1   2
ATOM      2  C   UNL     1      -3.638   2.028   4.430  1.00  0.00     0.000 C 
BRANCH   2   3
ATOM      3  C   UNL     1      -3.129   3.481   4.534  1.00  0.00     0.000 C 
BRANCH   3   4
ATOM      4  C   UNL     1      -4.119   4.476   5.166  1.00  0.00     0.000 C 
BRANCH   4   5
ATOM      5  C   UNL     1      -4.025   5.881   4.555  1.00  0.00     0.000 C 
BRANCH   5   6
ATOM      6  C   UNL     1      -5.420   6.477   4.328  1.00  0.00     0.006 C 
BRANCH   6   7
ATOM      7  C   UNL     1      -6.277   5.555   3.457  1.00  0.00     0.053 C 
BRANCH   7   8
ATOM      8  C   UNL     1      -6.749   6.279   2.236  1.00  0.00     0.041 C 
ATOM      9  O   UNL     1      -7.894   6.050   1.764  1.00  0.00    -0.550 OA
ATOM     10  O   UNL     1      -5.906   7.174   1.588  1.00  0.00    -0.550 OA
ENDBRANCH   7   8
ENDBRANCH   6   7
ENDBRANCH   5   6
ENDBRANCH   4   5
ENDBRANCH   3   4
ENDBRANCH   2   3
ENDBRANCH   1   2
BRANCH   1  11
ATOM     11  C   UNL     1      -4.227   0.464   2.488  1.00  0.00     0.000 C 
BRANCH  11  12
ATOM     12  C   UNL     1      -5.070   0.326   1.215  1.00  0.00     0.000 C 
BRANCH  12  13
ATOM     13  C   UNL     1      -4.183   0.031  -0.004  1.00  0.00     0.000 C 
BRANCH  13  14
ATOM     14  C   UNL     1      -4.876   0.358  -1.337  1.00  0.00     0.000 C 
BRANCH  14  15
ATOM     15  C   UNL     1      -3.897   0.368  -2.525  1.00  0.00     0.000 C 
BRANCH  15  16
ATOM     16  C   UNL     1      -3.998  -0.903  -3.382  1.00  0.00     0.006 C 
BRANCH  16  17
ATOM     17  C   UNL     1      -2.635  -1.570  -3.615  1.00  0.00     0.053 C 
BRANCH  17  18
ATOM     18  C   UNL     1      -2.674  -3.000  -3.176  1.00  0.00     0.041 C 
ATOM     19  O   UNL     1      -1.603  -3.629  -2.968  1.00  0.00    -0.550 OA
ATOM     20  O   UNL     1      -3.894  -3.625  -2.949  1.00  0.00    -0.550 OA
ENDBRANCH  17  18
ENDBRANCH  16  17
ENDBRANCH  15  16
ENDBRANCH  14  15
ENDBRANCH  13  14
ENDBRANCH  12  13
ENDBRANCH  11  12
ENDBRANCH   1  11
TORSDOF 15
ENDMDL
MODEL 6
REMARK VINA RESULT:    -6.492     10.631     13.381
REMARK INTER + INTRA:         -13.485
REMARK INTER:                 -12.649
REMARK INTRA:                  -0.836
REMARK UNBOUND:                -1.300
REMARK SMILES O=C([O-])CCCCCCCCCCCCCCC(=O)[O-]
REMARK SMILES IDX 10 1 9 2 8 3 7 4 6 5 5 6 4 7 2 8 1 9 3 10 11 11 12 12 13 13
REMARK SMILES IDX 14 14 15 15 16 16 17 17 18 18 19 19 20 20
REMARK H PARENT
REMARK Flexibility Score: inf
ROOT
ATOM      1  C   UNL     1       0.019  -3.251  -5.382  1.00  0.00     0.000 C 
ENDROOT
BRANCH   1   2
ATOM      2  C   UNL     1      -1.245  -2.717  -4.685  1.00  0.00     0.000 C 
BRANCH   2   3
ATOM      3  C   UNL     1      -1.352  -1.180  -4.613  1.00  0.00     0.000 C 
BRANCH   3   4
ATOM      4  C   UNL     1      -2.782  -0.631  -4.452  1.00  0.00     0.000 C 
BRANCH   4   5
ATOM      5  C   UNL     1      -3.165  -0.386  -2.986  1.00  0.00     0.000 C 
BRANCH   5   6
ATOM      6  C   UNL     1      -4.490  -1.075  -2.641  1.00  0.00     0.006 C 
BRANCH   6   7
ATOM      7  C   UNL     1      -5.022  -1.874  -3.834  1.00  0.00     0.053 C 
BRANCH   7   8
ATOM      8  C   UNL     1      -4.804  -3.339  -3.620  1.00  0.00     0.041 C 
ATOM      9  O   UNL     1      -5.513  -4.181  -4.232  1.00  0.00    -0.550 OA
ATOM     10  O   UNL     1      -3.852  -3.775  -2.707  1.00  0.00    -0.550 OA
ENDBRANCH   7   8
ENDBRANCH   6   7
ENDBRANCH   5   6
ENDBRANCH   4   5
ENDBRANCH   3   4
ENDBRANCH   2   3
ENDBRANCH   1   2
BRANCH   1  11
ATOM     11  C   UNL     1      -0.250  -3.742  -6.812  1.00  0.00     0.000 C 
BRANCH  11  12
ATOM     12  C   UNL     1       0.984  -4.442  -7.394  1.00  0.00     0.000 C 
BRANCH  12  13
ATOM     13  C   UNL     1       1.865  -3.450  -8.168  1.00  0.00     0.000 C 
BRANCH  13  14
ATOM     14  C   UNL     1       3.368  -3.713  -7.976  1.00  0.00     0.000 C 
BRANCH  14  15
ATOM     15  C   UNL     1       4.173  -2.418  -7.770  1.00  0.00     0.000 C 
BRANCH  15  16
ATOM     16  C   UNL     1       5.045  -2.459  -6.506  1.00  0.00     0.006 C 
BRANCH  16  17
ATOM     17  C   UNL     1       4.421  -1.696  -5.330  1.00  0.00     0.053 C 
BRANCH  17  18
ATOM     18  C   UNL     1       5.463  -1.375  -4.305  1.00  0.00     0.041 C 
ATOM     19  O   UNL     1       6.508  -0.755  -4.635  1.00  0.00    -0.550 OA
ATOM     20  O   UNL     1       5.258  -1.718  -2.974  1.00  0.00    -0.550 OA
ENDBRANCH  17  18
ENDBRANCH  16  17
ENDBRANCH  15  16
ENDBRANCH  14  15
ENDBRANCH  13  14
ENDBRANCH  12  13
ENDBRANCH  11  12
ENDBRANCH   1  11
TORSDOF 15
ENDMDL
MODEL 7
REMARK VINA RESULT:    -6.475      1.002      8.459
REMARK INTER + INTRA:         -13.453
REMARK INTER:                 -12.487
REMARK INTRA:                  -0.966
REMARK UNBOUND:                -1.300
REMARK SMILES O=C([O-])CCCCCCCCCCCCCCC(=O)[O-]
REMARK SMILES IDX 10 1 9 2 8 3 7 4 6 5 5 6 4 7 2 8 1 9 3 10 11 11 12 12 13 13
REMARK SMILES IDX 14 14 15 15 16 16 17 17 18 18 19 19 20 20
REMARK H PARENT
REMARK Flexibility Score: inf
ROOT
ATOM      1  C   UNL     1      -3.043   3.847   5.006  1.00  0.00     0.000 C 
ENDROOT
BRANCH   1   2
ATOM      2  C   UNL     1      -4.337   4.663   5.179  1.00  0.00     0.000 C 
BRANCH   2   3
ATOM      3  C   UNL     1      -4.366   6.010   4.427  1.00  0.00     0.000 C 
BRANCH   3   4
ATOM      4  C   UNL     1      -5.749   6.436   3.903  1.00  0.00     0.000 C 
BRANCH   4   5
ATOM      5  C   UNL     1      -5.809   6.513   2.371  1.00  0.00     0.000 C 
BRANCH   5   6
ATOM      6  C   UNL     1      -7.246   6.332   1.867  1.00  0.00     0.006 C 
BRANCH   6   7
ATOM      7  C   UNL     1      -8.149   5.771   2.969  1.00  0.00     0.053 C 
BRANCH   7   8
ATOM      8  C   UNL     1      -9.509   5.464   2.425  1.00  0.00     0.041 C 
ATOM      9  O   UNL     1     -10.305   4.739   3.079  1.00  0.00    -0.550 OA
ATOM     10  O   UNL     1      -9.880   5.938   1.174  1.00  0.00    -0.550 OA
ENDBRANCH   7   8
ENDBRANCH   6   7
ENDBRANCH   5   6
ENDBRANCH   4   5
ENDBRANCH   3   4
ENDBRANCH   2   3
ENDBRANCH   1   2
BRANCH   1  11
ATOM     11  C   UNL     1      -3.307   2.350   4.784  1.00  0.00     0.000 C 
BRANCH  11  12
ATOM     12  C   UNL     1      -4.289   2.131   3.629  1.00  0.00     0.000 C 
BRANCH  12  13
ATOM     13  C   UNL     1      -4.291   0.662   3.179  1.00  0.00     0.000 C 
BRANCH  13  14
ATOM     14  C   UNL     1      -5.696   0.038   3.187  1.00  0.00     0.000 C 
BRANCH  14  15
ATOM     15  C   UNL     1      -5.825  -1.114   4.199  1.00  0.00     0.000 C 
BRANCH  15  16
ATOM     16  C   UNL     1      -4.475  -1.781   4.508  1.00  0.00     0.006 C 
BRANCH  16  17
ATOM     17  C   UNL     1      -4.052  -1.612   5.974  1.00  0.00     0.053 C 
BRANCH  17  18
ATOM     18  C   UNL     1      -3.093  -2.691   6.367  1.00  0.00     0.041 C 
ATOM     19  O   UNL     1      -1.855  -2.530   6.204  1.00  0.00    -0.550 OA
ATOM     20  O   UNL     1      -3.562  -3.857   6.959  1.00  0.00    -0.550 OA
ENDBRANCH  17  18
ENDBRANCH  16  17
ENDBRANCH  15  16
ENDBRANCH  14  15
ENDBRANCH  13  14
ENDBRANCH  12  13
ENDBRANCH  11  12
ENDBRANCH   1  11
TORSDOF 15
ENDMDL
MODEL 8
REMARK VINA RESULT:    -6.422      4.501      5.711
REMARK INTER + INTRA:         -13.353
REMARK INTER:                 -12.593
REMARK INTRA:                  -0.760
REMARK UNBOUND:                -1.300
REMARK SMILES O=C([O-])CCCCCCCCCCCCCCC(=O)[O-]
REMARK SMILES IDX 10 1 9 2 8 3 7 4 6 5 5 6 4 7 2 8 1 9 3 10 11 11 12 12 13 13
REMARK SMILES IDX 14 14 15 15 16 16 17 17 18 18 19 19 20 20
REMARK H PARENT
REMARK Flexibility Score: inf
ROOT
ATOM      1  C   UNL     1      -5.144   0.339   1.978  1.00  0.00     0.000 C 
ENDROOT
BRANCH   1   2
ATOM      2  C   UNL     1      -4.384   0.394   0.641  1.00  0.00     0.000 C 
BRANCH   2   3
ATOM      3  C   UNL     1      -5.243   0.118  -0.611  1.00  0.00     0.000 C 
BRANCH   3   4
ATOM      4  C   UNL     1      -4.524   0.330  -1.955  1.00  0.00     0.000 C 
BRANCH   4   5
ATOM      5  C   UNL     1      -3.255  -0.523  -2.095  1.00  0.00     0.000 C 
BRANCH   5   6
ATOM      6  C   UNL     1      -3.252  -1.292  -3.422  1.00  0.00     0.006 C 
BRANCH   6   7
ATOM      7  C   UNL     1      -4.629  -1.897  -3.710  1.00  0.00     0.053 C 
BRANCH   7   8
ATOM      8  C   UNL     1      -4.596  -3.382  -3.527  1.00  0.00     0.041 C 
ATOM      9  O   UNL     1      -3.722  -3.911  -2.790  1.00  0.00    -0.550 OA
ATOM     10  O   UNL     1      -5.499  -4.187  -4.208  1.00  0.00    -0.550 OA
ENDBRANCH   7   8
ENDBRANCH   6   7
ENDBRANCH   5   6
ENDBRANCH   4   5
ENDBRANCH   3   4
ENDBRANCH   2   3
ENDBRANCH   1   2
BRANCH   1  11
ATOM     11  C   UNL     1      -4.271   0.737   3.178  1.00  0.00     0.000 C 
BRANCH  11  12
ATOM     12  C   UNL     1      -4.421   2.230   3.495  1.00  0.00     0.000 C 
BRANCH  12  13
ATOM     13  C   UNL     1      -3.506   2.640   4.659  1.00  0.00     0.000 C 
BRANCH  13  14
ATOM     14  C   UNL     1      -3.315   4.162   4.759  1.00  0.00     0.000 C 
BRANCH  14  15
ATOM     15  C   UNL     1      -4.566   4.880   5.296  1.00  0.00     0.000 C 
BRANCH  15  16
ATOM     16  C   UNL     1      -5.071   5.977   4.346  1.00  0.00     0.006 C 
BRANCH  16  17
ATOM     17  C   UNL     1      -6.466   5.678   3.782  1.00  0.00     0.053 C 
BRANCH  17  18
ATOM     18  C   UNL     1      -6.628   6.301   2.432  1.00  0.00     0.041 C 
ATOM     19  O   UNL     1      -5.691   6.974   1.927  1.00  0.00    -0.550 OA
ATOM     20  O   UNL     1      -7.796   6.097   1.707  1.00  0.00    -0.550 OA
ENDBRANCH  17  18
ENDBRANCH  16  17
ENDBRANCH  15  16
ENDBRANCH  14  15
ENDBRANCH  13  14
ENDBRANCH  12  13
ENDBRANCH  11  12
ENDBRANCH   1  11
TORSDOF 15
ENDMDL
MODEL 9
REMARK VINA RESULT:    -6.391      2.327      8.216
REMARK INTER + INTRA:         -13.295
REMARK INTER:                 -12.068
REMARK INTRA:                  -1.226
REMARK UNBOUND:                -1.300
REMARK SMILES O=C([O-])CCCCCCCCCCCCCCC(=O)[O-]
REMARK SMILES IDX 10 1 9 2 8 3 7 4 6 5 5 6 4 7 2 8 1 9 3 10 11 11 12 12 13 13
REMARK SMILES IDX 14 14 15 15 16 16 17 17 18 18 19 19 20 20
REMARK H PARENT
REMARK Flexibility Score: inf
ROOT
ATOM      1  C   UNL     1      -4.570   1.754   3.624  1.00  0.00     0.000 C 
ENDROOT
BRANCH   1   2
ATOM      2  C   UNL     1      -3.273   2.483   4.019  1.00  0.00     0.000 C 
BRANCH   2   3
ATOM      3  C   UNL     1      -3.352   3.295   5.328  1.00  0.00     0.000 C 
BRANCH   3   4
ATOM      4  C   UNL     1      -4.381   4.440   5.325  1.00  0.00     0.000 C 
BRANCH   4   5
ATOM      5  C   UNL     1      -3.897   5.676   4.555  1.00  0.00     0.000 C 
BRANCH   5   6
ATOM      6  C   UNL     1      -5.066   6.609   4.220  1.00  0.00     0.006 C 
BRANCH   6   7
ATOM      7  C   UNL     1      -6.279   5.816   3.726  1.00  0.00     0.053 C 
BRANCH   7   8
ATOM      8  C   UNL     1      -6.719   6.315   2.386  1.00  0.00     0.041 C 
ATOM      9  O   UNL     1      -5.995   7.116   1.738  1.00  0.00    -0.550 OA
ATOM     10  O   UNL     1      -7.952   5.934   1.872  1.00  0.00    -0.550 OA
ENDBRANCH   7   8
ENDBRANCH   6   7
ENDBRANCH   5   6
ENDBRANCH   4   5
ENDBRANCH   3   4
ENDBRANCH   2   3
ENDBRANCH   1   2
BRANCH   1  11
ATOM     11  C   UNL     1      -4.318   0.341   3.079  1.00  0.00     0.000 C 
BRANCH  11  12
ATOM     12  C   UNL     1      -5.009  -0.715   3.950  1.00  0.00     0.000 C 
BRANCH  12  13
ATOM     13  C   UNL     1      -4.001  -1.762   4.448  1.00  0.00     0.000 C 
BRANCH  13  14
ATOM     14  C   UNL     1      -3.866  -1.776   5.980  1.00  0.00     0.000 C 
BRANCH  14  15
ATOM     15  C   UNL     1      -3.410  -0.419   6.544  1.00  0.00     0.000 C 
BRANCH  15  16
ATOM     16  C   UNL     1      -2.344  -0.565   7.642  1.00  0.00     0.006 C 
BRANCH  16  17
ATOM     17  C   UNL     1      -2.104   0.741   8.412  1.00  0.00     0.053 C 
BRANCH  17  18
ATOM     18  C   UNL     1      -0.769   0.710   9.087  1.00  0.00     0.041 C 
ATOM     19  O   UNL     1       0.096   1.586   8.824  1.00  0.00    -0.550 OA
ATOM     20  O   UNL     1      -0.497  -0.259  10.045  1.00  0.00    -0.550 OA
ENDBRANCH  17  18
ENDBRANCH  16  17
ENDBRANCH  15  16
ENDBRANCH  14  15
ENDBRANCH  13  14
ENDBRANCH  12  13
ENDBRANCH  11  12
ENDBRANCH   1  11
TORSDOF 15
ENDMDL
