MODEL 1
REMARK VINA RESULT:    -4.590      0.000      0.000
REMARK INTER + INTRA:         -11.747
REMARK INTER:                  -8.883
REMARK INTRA:                  -2.864
REMARK UNBOUND:                -2.864
REMARK SMILES CCCCCC=CCC=CCCCCCCCCOC(C)=O
REMARK SMILES IDX 12 1 11 2 10 3 9 4 8 5 7 6 6 7 5 8 4 9 3 10 2 11 1 12 13 13
REMARK SMILES IDX 14 14 15 15 16 16 17 17 18 18 19 19 20 20 22 21 21 22
REMARK H PARENT
REMARK Flexibility Score: inf
ROOT
ATOM      1  C   UNL     1       1.274  55.243   9.527  1.00  0.00     0.004 C 
ENDROOT
BRANCH   1   2
ATOM      2  C   UNL     1       2.606  54.908  10.211  1.00  0.00     0.027 C 
BRANCH   2   3
ATOM      3  C   UNL     1       3.779  55.228   9.316  1.00  0.00    -0.031 C 
ATOM      4  C   UNL     1       4.663  54.326   8.847  1.00  0.00    -0.027 C 
BRANCH   4   5
ATOM      5  C   UNL     1       4.652  52.855   9.178  1.00  0.00     0.054 C 
BRANCH   5   6
ATOM      6  C   UNL     1       4.860  52.013   7.943  1.00  0.00    -0.027 C 
ATOM      7  C   UNL     1       4.386  50.764   7.780  1.00  0.00    -0.031 C 
BRANCH   7   8
ATOM      8  C   UNL     1       3.630  49.986   8.830  1.00  0.00     0.027 C 
BRANCH   8   9
ATOM      9  C   UNL     1       2.177  50.466   8.967  1.00  0.00     0.004 C 
BRANCH   9  10
ATOM     10  C   UNL     1       1.830  50.856  10.415  1.00  0.00     0.000 C 
BRANCH  10  11
ATOM     11  C   UNL     1       0.392  50.470  10.797  1.00  0.00    -0.003 C 
ATOM     12  C   UNL     1      -0.059  49.162  10.148  1.00  0.00     0.004 C 
ENDBRANCH  10  11
ENDBRANCH   9  10
ENDBRANCH   8   9
ENDBRANCH   7   8
ENDBRANCH   5   6
ENDBRANCH   4   5
ENDBRANCH   2   3
ENDBRANCH   1   2
BRANCH   1  13
ATOM     13  C   UNL     1       0.488  53.981   9.143  1.00  0.00     0.000 C 
BRANCH  13  14
ATOM     14  C   UNL     1       0.297  53.892   7.622  1.00  0.00     0.000 C 
BRANCH  14  15
ATOM     15  C   UNL     1       1.528  53.314   6.899  1.00  0.00     0.000 C 
BRANCH  15  16
ATOM     16  C   UNL     1       2.259  54.300   5.965  1.00  0.00     0.003 C 
BRANCH  16  17
ATOM     17  C   UNL     1       3.467  53.713   5.212  1.00  0.00     0.042 C 
BRANCH  17  18
ATOM     18  C   UNL     1       4.631  54.696   5.056  1.00  0.00     0.233 C 
BRANCH  18  19
ATOM     19  O   UNL     1       5.748  54.044   4.457  1.00  0.00    -0.466 OA
BRANCH  19  20
ATOM     20  C   UNL     1       6.259  54.417   3.212  1.00  0.00     0.302 C 
ATOM     21  O   UNL     1       5.487  54.755   2.273  1.00  0.00    -0.253 OA
ATOM     22  C   UNL     1       7.731  54.363   2.978  1.00  0.00     0.139 C 
ENDBRANCH  19  20
ENDBRANCH  18  19
ENDBRANCH  17  18
ENDBRANCH  16  17
ENDBRANCH  15  16
ENDBRANCH  14  15
ENDBRANCH  13  14
ENDBRANCH   1  13
TORSDOF 16
ENDMDL
MODEL 2
REMARK VINA RESULT:    -4.566      1.725      4.352
REMARK INTER + INTRA:         -11.702
REMARK INTER:                  -9.092
REMARK INTRA:                  -2.610
REMARK UNBOUND:                -2.864
REMARK SMILES CCCCCC=CCC=CCCCCCCCCOC(C)=O
REMARK SMILES IDX 12 1 11 2 10 3 9 4 8 5 7 6 6 7 5 8 4 9 3 10 2 11 1 12 13 13
REMARK SMILES IDX 14 14 15 15 16 16 17 17 18 18 19 19 20 20 22 21 21 22
REMARK H PARENT
REMARK Flexibility Score: inf
ROOT
ATOM      1  C   UNL     1       5.023  56.279   9.869  1.00  0.00     0.004 C 
ENDROOT
BRANCH   1   2
ATOM      2  C   UNL     1       3.732  56.932   9.359  1.00  0.00     0.027 C 
BRANCH   2   3
ATOM      3  C   UNL     1       3.371  58.151  10.174  1.00  0.00    -0.031 C 
ATOM      4  C   UNL     1       2.369  58.213  11.072  1.00  0.00    -0.027 C 
BRANCH   4   5
ATOM      5  C   UNL     1       1.411  57.088  11.374  1.00  0.00     0.054 C 
BRANCH   5   6
ATOM      6  C   UNL     1       0.189  57.157  10.491  1.00  0.00    -0.027 C 
ATOM      7  C   UNL     1      -0.215  56.173   9.667  1.00  0.00    -0.031 C 
BRANCH   7   8
ATOM      8  C   UNL     1       0.525  54.875   9.447  1.00  0.00     0.027 C 
BRANCH   8   9
ATOM      9  C   UNL     1       0.212  54.259   8.076  1.00  0.00     0.004 C 
BRANCH   9  10
ATOM     10  C   UNL     1       1.141  53.077   7.746  1.00  0.00     0.000 C 
BRANCH  10  11
ATOM     11  C   UNL     1       1.249  52.075   8.906  1.00  0.00    -0.003 C 
ATOM     12  C   UNL     1       1.954  50.780   8.502  1.00  0.00     0.004 C 
ENDBRANCH  10  11
ENDBRANCH   9  10
ENDBRANCH   8   9
ENDBRANCH   7   8
ENDBRANCH   5   6
ENDBRANCH   4   5
ENDBRANCH   2   3
ENDBRANCH   1   2
BRANCH   1  13
ATOM     13  C   UNL     1       4.760  55.316  11.036  1.00  0.00     0.000 C 
BRANCH  13  14
ATOM     14  C   UNL     1       4.250  53.960  10.527  1.00  0.00     0.000 C 
BRANCH  14  15
ATOM     15  C   UNL     1       4.682  53.667   9.078  1.00  0.00     0.000 C 
BRANCH  15  16
ATOM     16  C   UNL     1       5.341  52.289   8.861  1.00  0.00     0.003 C 
BRANCH  16  17
ATOM     17  C   UNL     1       6.003  52.092   7.484  1.00  0.00     0.042 C 
BRANCH  17  18
ATOM     18  C   UNL     1       5.041  52.278   6.307  1.00  0.00     0.233 C 
BRANCH  18  19
ATOM     19  O   UNL     1       5.602  53.172   5.350  1.00  0.00    -0.466 OA
BRANCH  19  20
ATOM     20  C   UNL     1       4.848  54.153   4.702  1.00  0.00     0.302 C 
ATOM     21  O   UNL     1       5.259  54.679   3.631  1.00  0.00    -0.253 OA
ATOM     22  C   UNL     1       3.570  54.617   5.313  1.00  0.00     0.139 C 
ENDBRANCH  19  20
ENDBRANCH  18  19
ENDBRANCH  17  18
ENDBRANCH  16  17
ENDBRANCH  15  16
ENDBRANCH  14  15
ENDBRANCH  13  14
ENDBRANCH   1  13
TORSDOF 16
ENDMDL
MODEL 3
REMARK VINA RESULT:    -4.550      2.576      5.630
REMARK INTER + INTRA:         -11.669
REMARK INTER:                  -8.566
REMARK INTRA:                  -3.103
REMARK UNBOUND:                -2.864
REMARK SMILES CCCCCC=CCC=CCCCCCCCCOC(C)=O
REMARK SMILES IDX 12 1 11 2 10 3 9 4 8 5 7 6 6 7 5 8 4 9 3 10 2 11 1 12 13 13
REMARK SMILES IDX 14 14 15 15 16 16 17 17 18 18 19 19 20 20 22 21 21 22
REMARK H PARENT
REMARK Flexibility Score: inf
ROOT
ATOM      1  C   UNL     1       0.496  54.220   6.677  1.00  0.00     0.004 C 
ENDROOT
BRANCH   1   2
ATOM      2  C   UNL     1      -0.401  54.978   7.664  1.00  0.00     0.027 C 
BRANCH   2   3
ATOM      3  C   UNL     1      -0.246  54.448   9.069  1.00  0.00    -0.031 C 
ATOM      4  C   UNL     1       0.051  55.195  10.150  1.00  0.00    -0.027 C 
BRANCH   4   5
ATOM      5  C   UNL     1       0.327  56.677  10.125  1.00  0.00     0.054 C 
BRANCH   5   6
ATOM      6  C   UNL     1       1.178  57.096  11.298  1.00  0.00    -0.027 C 
ATOM      7  C   UNL     1       2.413  57.623  11.199  1.00  0.00    -0.031 C 
BRANCH   7   8
ATOM      8  C   UNL     1       3.164  57.815   9.904  1.00  0.00     0.027 C 
BRANCH   8   9
ATOM      9  C   UNL     1       4.227  56.727   9.689  1.00  0.00     0.004 C 
BRANCH   9  10
ATOM     10  C   UNL     1       3.670  55.515   8.923  1.00  0.00     0.000 C 
BRANCH  10  11
ATOM     11  C   UNL     1       3.533  54.271   9.814  1.00  0.00    -0.003 C 
ATOM     12  C   UNL     1       4.604  54.204  10.902  1.00  0.00     0.004 C 
ENDBRANCH  10  11
ENDBRANCH   9  10
ENDBRANCH   8   9
ENDBRANCH   7   8
ENDBRANCH   5   6
ENDBRANCH   4   5
ENDBRANCH   2   3
ENDBRANCH   1   2
BRANCH   1  13
ATOM     13  C   UNL     1       1.182  53.013   7.332  1.00  0.00     0.000 C 
BRANCH  13  14
ATOM     14  C   UNL     1       2.247  52.413   6.402  1.00  0.00     0.000 C 
BRANCH  14  15
ATOM     15  C   UNL     1       3.125  53.486   5.732  1.00  0.00     0.000 C 
BRANCH  15  16
ATOM     16  C   UNL     1       4.645  53.240   5.829  1.00  0.00     0.003 C 
BRANCH  16  17
ATOM     17  C   UNL     1       5.128  52.657   7.171  1.00  0.00     0.042 C 
BRANCH  17  18
ATOM     18  C   UNL     1       5.743  51.260   7.048  1.00  0.00     0.233 C 
BRANCH  18  19
ATOM     19  O   UNL     1       4.843  50.280   7.559  1.00  0.00    -0.466 OA
BRANCH  19  20
ATOM     20  C   UNL     1       4.263  50.377   8.826  1.00  0.00     0.302 C 
ATOM     21  O   UNL     1       4.947  50.736   9.823  1.00  0.00    -0.253 OA
ATOM     22  C   UNL     1       2.831  50.003   9.006  1.00  0.00     0.139 C 
ENDBRANCH  19  20
ENDBRANCH  18  19
ENDBRANCH  17  18
ENDBRANCH  16  17
ENDBRANCH  15  16
ENDBRANCH  14  15
ENDBRANCH  13  14
ENDBRANCH   1  13
TORSDOF 16
ENDMDL
MODEL 4
REMARK VINA RESULT:    -4.536      2.896      5.633
REMARK INTER + INTRA:         -11.643
REMARK INTER:                  -9.027
REMARK INTRA:                  -2.617
REMARK UNBOUND:                -2.864
REMARK SMILES CCCCCC=CCC=CCCCCCCCCOC(C)=O
REMARK SMILES IDX 12 1 11 2 10 3 9 4 8 5 7 6 6 7 5 8 4 9 3 10 2 11 1 12 13 13
REMARK SMILES IDX 14 14 15 15 16 16 17 17 18 18 19 19 20 20 22 21 21 22
REMARK H PARENT
REMARK Flexibility Score: inf
ROOT
ATOM      1  C   UNL     1       4.297  55.401   9.043  1.00  0.00     0.004 C 
ENDROOT
BRANCH   1   2
ATOM      2  C   UNL     1       5.020  54.197   9.662  1.00  0.00     0.027 C 
BRANCH   2   3
ATOM      3  C   UNL     1       4.207  53.579  10.774  1.00  0.00    -0.031 C 
ATOM      4  C   UNL     1       4.085  52.257  11.001  1.00  0.00    -0.027 C 
BRANCH   4   5
ATOM      5  C   UNL     1       4.702  51.175  10.150  1.00  0.00     0.054 C 
BRANCH   5   6
ATOM      6  C   UNL     1       3.856  50.884   8.935  1.00  0.00    -0.027 C 
ATOM      7  C   UNL     1       4.305  50.905   7.666  1.00  0.00    -0.031 C 
BRANCH   7   8
ATOM      8  C   UNL     1       5.708  51.285   7.257  1.00  0.00     0.027 C 
BRANCH   8   9
ATOM      9  C   UNL     1       5.720  52.461   6.269  1.00  0.00     0.004 C 
BRANCH   9  10
ATOM     10  C   UNL     1       4.343  53.139   6.157  1.00  0.00     0.000 C 
BRANCH  10  11
ATOM     11  C   UNL     1       4.177  53.914   4.841  1.00  0.00    -0.003 C 
ATOM     12  C   UNL     1       3.103  54.999   4.927  1.00  0.00     0.004 C 
ENDBRANCH  10  11
ENDBRANCH   9  10
ENDBRANCH   8   9
ENDBRANCH   7   8
ENDBRANCH   5   6
ENDBRANCH   4   5
ENDBRANCH   2   3
ENDBRANCH   1   2
BRANCH   1  13
ATOM     13  C   UNL     1       4.646  56.713   9.760  1.00  0.00     0.000 C 
BRANCH  13  14
ATOM     14  C   UNL     1       3.426  57.644   9.828  1.00  0.00     0.000 C 
BRANCH  14  15
ATOM     15  C   UNL     1       2.542  57.378  11.060  1.00  0.00     0.000 C 
BRANCH  15  16
ATOM     16  C   UNL     1       1.031  57.594  10.837  1.00  0.00     0.003 C 
BRANCH  16  17
ATOM     17  C   UNL     1       0.190  56.306  10.765  1.00  0.00     0.042 C 
BRANCH  17  18
ATOM     18  C   UNL     1      -0.588  56.153   9.455  1.00  0.00     0.233 C 
BRANCH  18  19
ATOM     19  O   UNL     1      -0.593  54.788   9.043  1.00  0.00    -0.466 OA
BRANCH  19  20
ATOM     20  C   UNL     1       0.105  54.337   7.920  1.00  0.00     0.302 C 
ATOM     21  O   UNL     1      -0.250  54.680   6.759  1.00  0.00    -0.253 OA
ATOM     22  C   UNL     1       1.251  53.399   8.098  1.00  0.00     0.139 C 
ENDBRANCH  19  20
ENDBRANCH  18  19
ENDBRANCH  17  18
ENDBRANCH  16  17
ENDBRANCH  15  16
ENDBRANCH  14  15
ENDBRANCH  13  14
ENDBRANCH   1  13
TORSDOF 16
ENDMDL
MODEL 5
REMARK VINA RESULT:    -4.534      2.699      5.235
REMARK INTER + INTRA:         -11.638
REMARK INTER:                  -8.705
REMARK INTRA:                  -2.933
REMARK UNBOUND:                -2.864
REMARK SMILES CCCCCC=CCC=CCCCCCCCCOC(C)=O
REMARK SMILES IDX 12 1 11 2 10 3 9 4 8 5 7 6 6 7 5 8 4 9 3 10 2 11 1 12 13 13
REMARK SMILES IDX 14 14 15 15 16 16 17 17 18 18 19 19 20 20 22 21 21 22
REMARK H PARENT
REMARK Flexibility Score: inf
ROOT
ATOM      1  C   UNL     1       5.190  56.160  10.197  1.00  0.00     0.004 C 
ENDROOT
BRANCH   1   2
ATOM      2  C   UNL     1       4.060  56.700   9.312  1.00  0.00     0.027 C 
BRANCH   2   3
ATOM      3  C   UNL     1       3.249  57.750  10.033  1.00  0.00    -0.031 C 
ATOM      4  C   UNL     1       2.041  57.546  10.593  1.00  0.00    -0.027 C 
BRANCH   4   5
ATOM      5  C   UNL     1       1.278  56.246  10.548  1.00  0.00     0.054 C 
BRANCH   5   6
ATOM      6  C   UNL     1      -0.055  56.417   9.861  1.00  0.00    -0.027 C 
ATOM      7  C   UNL     1      -0.640  55.487   9.084  1.00  0.00    -0.031 C 
BRANCH   7   8
ATOM      8  C   UNL     1      -0.026  54.155   8.725  1.00  0.00     0.027 C 
BRANCH   8   9
ATOM      9  C   UNL     1       0.961  54.273   7.555  1.00  0.00     0.004 C 
BRANCH   9  10
ATOM     10  C   UNL     1       1.214  52.918   6.871  1.00  0.00     0.000 C 
BRANCH  10  11
ATOM     11  C   UNL     1       2.592  52.851   6.194  1.00  0.00    -0.003 C 
ATOM     12  C   UNL     1       3.004  54.180   5.563  1.00  0.00     0.004 C 
ENDBRANCH  10  11
ENDBRANCH   9  10
ENDBRANCH   8   9
ENDBRANCH   7   8
ENDBRANCH   5   6
ENDBRANCH   4   5
ENDBRANCH   2   3
ENDBRANCH   1   2
BRANCH   1  13
ATOM     13  C   UNL     1       5.275  54.627  10.153  1.00  0.00     0.000 C 
BRANCH  13  14
ATOM     14  C   UNL     1       4.021  54.024   9.505  1.00  0.00     0.000 C 
BRANCH  14  15
ATOM     15  C   UNL     1       3.290  53.034  10.430  1.00  0.00     0.000 C 
BRANCH  15  16
ATOM     16  C   UNL     1       2.969  51.664   9.797  1.00  0.00     0.003 C 
BRANCH  16  17
ATOM     17  C   UNL     1       4.039  50.578  10.012  1.00  0.00     0.042 C 
BRANCH  17  18
ATOM     18  C   UNL     1       4.197  49.626   8.823  1.00  0.00     0.233 C 
BRANCH  18  19
ATOM     19  O   UNL     1       4.387  50.369   7.621  1.00  0.00    -0.466 OA
BRANCH  19  20
ATOM     20  C   UNL     1       5.652  50.649   7.101  1.00  0.00     0.302 C 
ATOM     21  O   UNL     1       6.374  49.728   6.628  1.00  0.00    -0.253 OA
ATOM     22  C   UNL     1       6.173  52.045   7.153  1.00  0.00     0.139 C 
ENDBRANCH  19  20
ENDBRANCH  18  19
ENDBRANCH  17  18
ENDBRANCH  16  17
ENDBRANCH  15  16
ENDBRANCH  14  15
ENDBRANCH  13  14
ENDBRANCH   1  13
TORSDOF 16
ENDMDL
MODEL 6
REMARK VINA RESULT:    -4.523      2.478      5.133
REMARK INTER + INTRA:         -11.618
REMARK INTER:                  -8.556
REMARK INTRA:                  -3.062
REMARK UNBOUND:                -2.864
REMARK SMILES CCCCCC=CCC=CCCCCCCCCOC(C)=O
REMARK SMILES IDX 12 1 11 2 10 3 9 4 8 5 7 6 6 7 5 8 4 9 3 10 2 11 1 12 13 13
REMARK SMILES IDX 14 14 15 15 16 16 17 17 18 18 19 19 20 20 22 21 21 22
REMARK H PARENT
REMARK Flexibility Score: inf
ROOT
ATOM      1  C   UNL     1       4.186  53.217  11.775  1.00  0.00     0.004 C 
ENDROOT
BRANCH   1   2
ATOM      2  C   UNL     1       4.221  54.737  11.977  1.00  0.00     0.027 C 
BRANCH   2   3
ATOM      3  C   UNL     1       5.399  55.361  11.267  1.00  0.00    -0.031 C 
ATOM      4  C   UNL     1       5.316  56.167  10.191  1.00  0.00    -0.027 C 
BRANCH   4   5
ATOM      5  C   UNL     1       4.034  56.539   9.489  1.00  0.00     0.054 C 
BRANCH   5   6
ATOM      6  C   UNL     1       3.575  57.921   9.881  1.00  0.00    -0.027 C 
ATOM      7  C   UNL     1       2.502  58.182  10.652  1.00  0.00    -0.031 C 
BRANCH   7   8
ATOM      8  C   UNL     1       1.554  57.136  11.188  1.00  0.00     0.027 C 
BRANCH   8   9
ATOM      9  C   UNL     1       0.146  57.275  10.591  1.00  0.00     0.004 C 
BRANCH   9  10
ATOM     10  C   UNL     1      -0.195  56.120   9.634  1.00  0.00     0.000 C 
BRANCH  10  11
ATOM     11  C   UNL     1       0.712  54.897   9.844  1.00  0.00    -0.003 C 
ATOM     12  C   UNL     1       0.073  53.836  10.740  1.00  0.00     0.004 C 
ENDBRANCH  10  11
ENDBRANCH   9  10
ENDBRANCH   8   9
ENDBRANCH   7   8
ENDBRANCH   5   6
ENDBRANCH   4   5
ENDBRANCH   2   3
ENDBRANCH   1   2
BRANCH   1  13
ATOM     13  C   UNL     1       3.690  52.832  10.373  1.00  0.00     0.000 C 
BRANCH  13  14
ATOM     14  C   UNL     1       4.736  51.986   9.632  1.00  0.00     0.000 C 
BRANCH  14  15
ATOM     15  C   UNL     1       5.492  52.784   8.553  1.00  0.00     0.000 C 
BRANCH  15  16
ATOM     16  C   UNL     1       5.643  52.066   7.197  1.00  0.00     0.003 C 
BRANCH  16  17
ATOM     17  C   UNL     1       5.147  52.864   5.976  1.00  0.00     0.042 C 
BRANCH  17  18
ATOM     18  C   UNL     1       4.021  53.849   6.302  1.00  0.00     0.233 C 
BRANCH  18  19
ATOM     19  O   UNL     1       2.787  53.382   5.763  1.00  0.00    -0.466 OA
BRANCH  19  20
ATOM     20  C   UNL     1       1.669  53.117   6.557  1.00  0.00     0.302 C 
ATOM     21  O   UNL     1       0.679  53.899   6.558  1.00  0.00    -0.253 OA
ATOM     22  C   UNL     1       1.671  51.923   7.451  1.00  0.00     0.139 C 
ENDBRANCH  19  20
ENDBRANCH  18  19
ENDBRANCH  17  18
ENDBRANCH  16  17
ENDBRANCH  15  16
ENDBRANCH  14  15
ENDBRANCH  13  14
ENDBRANCH   1  13
TORSDOF 16
ENDMDL
MODEL 7
REMARK VINA RESULT:    -4.444      2.061      4.436
REMARK INTER + INTRA:         -11.466
REMARK INTER:                  -8.686
REMARK INTRA:                  -2.779
REMARK UNBOUND:                -2.864
REMARK SMILES CCCCCC=CCC=CCCCCCCCCOC(C)=O
REMARK SMILES IDX 12 1 11 2 10 3 9 4 8 5 7 6 6 7 5 8 4 9 3 10 2 11 1 12 13 13
REMARK SMILES IDX 14 14 15 15 16 16 17 17 18 18 19 19 20 20 22 21 21 22
REMARK H PARENT
REMARK Flexibility Score: inf
ROOT
ATOM      1  C   UNL     1       4.260  53.433  11.222  1.00  0.00     0.004 C 
ENDROOT
BRANCH   1   2
ATOM      2  C   UNL     1       4.719  54.244  10.003  1.00  0.00     0.027 C 
BRANCH   2   3
ATOM      3  C   UNL     1       5.491  55.473  10.420  1.00  0.00    -0.031 C 
ATOM      4  C   UNL     1       5.069  56.743  10.261  1.00  0.00    -0.027 C 
BRANCH   4   5
ATOM      5  C   UNL     1       3.777  57.146   9.596  1.00  0.00     0.054 C 
BRANCH   5   6
ATOM      6  C   UNL     1       2.872  57.879  10.555  1.00  0.00    -0.027 C 
ATOM      7  C   UNL     1       1.582  57.569  10.779  1.00  0.00    -0.031 C 
BRANCH   7   8
ATOM      8  C   UNL     1       0.821  56.483  10.057  1.00  0.00     0.027 C 
BRANCH   8   9
ATOM      9  C   UNL     1       1.032  55.106  10.703  1.00  0.00     0.004 C 
BRANCH   9  10
ATOM     10  C   UNL     1       0.693  53.955   9.739  1.00  0.00     0.000 C 
BRANCH  10  11
ATOM     11  C   UNL     1       1.244  54.193   8.325  1.00  0.00    -0.003 C 
ATOM     12  C   UNL     1       1.263  52.921   7.477  1.00  0.00     0.004 C 
ENDBRANCH  10  11
ENDBRANCH   9  10
ENDBRANCH   8   9
ENDBRANCH   7   8
ENDBRANCH   5   6
ENDBRANCH   4   5
ENDBRANCH   2   3
ENDBRANCH   1   2
BRANCH   1  13
ATOM     13  C   UNL     1       3.681  52.068  10.821  1.00  0.00     0.000 C 
BRANCH  13  14
ATOM     14  C   UNL     1       4.745  51.199  10.135  1.00  0.00     0.000 C 
BRANCH  14  15
ATOM     15  C   UNL     1       4.194  50.430   8.920  1.00  0.00     0.000 C 
BRANCH  15  16
ATOM     16  C   UNL     1       4.277  51.186   7.577  1.00  0.00     0.003 C 
BRANCH  16  17
ATOM     17  C   UNL     1       5.679  51.701   7.203  1.00  0.00     0.042 C 
BRANCH  17  18
ATOM     18  C   UNL     1       5.672  52.739   6.077  1.00  0.00     0.233 C 
BRANCH  18  19
ATOM     19  O   UNL     1       4.475  53.511   6.127  1.00  0.00    -0.466 OA
BRANCH  19  20
ATOM     20  C   UNL     1       4.058  54.325   5.071  1.00  0.00     0.302 C 
ATOM     21  O   UNL     1       2.870  54.745   5.011  1.00  0.00    -0.253 OA
ATOM     22  C   UNL     1       5.018  54.656   3.979  1.00  0.00     0.139 C 
ENDBRANCH  19  20
ENDBRANCH  18  19
ENDBRANCH  17  18
ENDBRANCH  16  17
ENDBRANCH  15  16
ENDBRANCH  14  15
ENDBRANCH  13  14
ENDBRANCH   1  13
TORSDOF 16
ENDMDL
MODEL 8
REMARK VINA RESULT:    -4.425      1.718      4.867
REMARK INTER + INTRA:         -11.427
REMARK INTER:                  -8.652
REMARK INTRA:                  -2.775
REMARK UNBOUND:                -2.864
REMARK SMILES CCCCCC=CCC=CCCCCCCCCOC(C)=O
REMARK SMILES IDX 12 1 11 2 10 3 9 4 8 5 7 6 6 7 5 8 4 9 3 10 2 11 1 12 13 13
REMARK SMILES IDX 14 14 15 15 16 16 17 17 18 18 19 19 20 20 22 21 21 22
REMARK H PARENT
REMARK Flexibility Score: inf
ROOT
ATOM      1  C   UNL     1       1.398  53.350   7.806  1.00  0.00     0.004 C 
ENDROOT
BRANCH   1   2
ATOM      2  C   UNL     1       0.541  54.591   8.086  1.00  0.00     0.027 C 
BRANCH   2   3
ATOM      3  C   UNL     1      -0.391  54.365   9.252  1.00  0.00    -0.031 C 
ATOM      4  C   UNL     1      -0.690  55.282  10.193  1.00  0.00    -0.027 C 
BRANCH   4   5
ATOM      5  C   UNL     1      -0.104  56.669  10.263  1.00  0.00     0.054 C 
BRANCH   5   6
ATOM      6  C   UNL     1       0.922  56.776  11.364  1.00  0.00    -0.027 C 
ATOM      7  C   UNL     1       2.207  57.134  11.181  1.00  0.00    -0.031 C 
BRANCH   7   8
ATOM      8  C   UNL     1       2.837  57.420   9.839  1.00  0.00     0.027 C 
BRANCH   8   9
ATOM      9  C   UNL     1       4.240  56.806   9.720  1.00  0.00     0.004 C 
BRANCH   9  10
ATOM     10  C   UNL     1       4.228  55.477   8.945  1.00  0.00     0.000 C 
BRANCH  10  11
ATOM     11  C   UNL     1       4.982  54.360   9.684  1.00  0.00    -0.003 C 
ATOM     12  C   UNL     1       4.605  54.274  11.163  1.00  0.00     0.004 C 
ENDBRANCH  10  11
ENDBRANCH   9  10
ENDBRANCH   8   9
ENDBRANCH   7   8
ENDBRANCH   5   6
ENDBRANCH   4   5
ENDBRANCH   2   3
ENDBRANCH   1   2
BRANCH   1  13
ATOM     13  C   UNL     1       1.258  52.291   8.908  1.00  0.00     0.000 C 
BRANCH  13  14
ATOM     14  C   UNL     1       2.616  51.653   9.235  1.00  0.00     0.000 C 
BRANCH  14  15
ATOM     15  C   UNL     1       3.255  50.955   8.020  1.00  0.00     0.000 C 
BRANCH  15  16
ATOM     16  C   UNL     1       4.795  50.877   8.048  1.00  0.00     0.003 C 
BRANCH  16  17
ATOM     17  C   UNL     1       5.510  51.683   6.947  1.00  0.00     0.042 C 
BRANCH  17  18
ATOM     18  C   UNL     1       4.652  52.801   6.348  1.00  0.00     0.233 C 
BRANCH  18  19
ATOM     19  O   UNL     1       5.351  53.441   5.284  1.00  0.00    -0.466 OA
BRANCH  19  20
ATOM     20  C   UNL     1       4.733  54.331   4.403  1.00  0.00     0.302 C 
ATOM     21  O   UNL     1       5.273  54.630   3.303  1.00  0.00    -0.253 OA
ATOM     22  C   UNL     1       3.444  54.972   4.793  1.00  0.00     0.139 C 
ENDBRANCH  19  20
ENDBRANCH  18  19
ENDBRANCH  17  18
ENDBRANCH  16  17
ENDBRANCH  15  16
ENDBRANCH  14  15
ENDBRANCH  13  14
ENDBRANCH   1  13
TORSDOF 16
ENDMDL
MODEL 9
REMARK VINA RESULT:    -4.377      3.419      5.439
REMARK INTER + INTRA:         -11.335
REMARK INTER:                  -8.239
REMARK INTRA:                  -3.096
REMARK UNBOUND:                -2.864
REMARK SMILES CCCCCC=CCC=CCCCCCCCCOC(C)=O
REMARK SMILES IDX 12 1 11 2 10 3 9 4 8 5 7 6 6 7 5 8 4 9 3 10 2 11 1 12 13 13
REMARK SMILES IDX 14 14 15 15 16 16 17 17 18 18 19 19 20 20 22 21 21 22
REMARK H PARENT
REMARK Flexibility Score: inf
ROOT
ATOM      1  C   UNL     1       1.845  52.830   7.863  1.00  0.00     0.004 C 
ENDROOT
BRANCH   1   2
ATOM      2  C   UNL     1       2.150  52.705   6.365  1.00  0.00     0.027 C 
BRANCH   2   3
ATOM      3  C   UNL     1       2.984  53.864   5.874  1.00  0.00    -0.031 C 
ATOM      4  C   UNL     1       4.316  53.833   5.681  1.00  0.00    -0.027 C 
BRANCH   4   5
ATOM      5  C   UNL     1       5.202  52.648   5.972  1.00  0.00     0.054 C 
BRANCH   5   6
ATOM      6  C   UNL     1       5.607  52.609   7.425  1.00  0.00    -0.027 C 
ATOM      7  C   UNL     1       5.402  51.566   8.249  1.00  0.00    -0.031 C 
BRANCH   7   8
ATOM      8  C   UNL     1       4.676  50.298   7.868  1.00  0.00     0.027 C 
BRANCH   8   9
ATOM      9  C   UNL     1       3.631  49.894   8.918  1.00  0.00     0.004 C 
BRANCH   9  10
ATOM     10  C   UNL     1       4.199  49.938  10.348  1.00  0.00     0.000 C 
BRANCH  10  11
ATOM     11  C   UNL     1       3.446  50.930  11.247  1.00  0.00    -0.003 C 
ATOM     12  C   UNL     1       4.366  51.985  11.863  1.00  0.00     0.004 C 
ENDBRANCH  10  11
ENDBRANCH   9  10
ENDBRANCH   8   9
ENDBRANCH   7   8
ENDBRANCH   5   6
ENDBRANCH   4   5
ENDBRANCH   2   3
ENDBRANCH   1   2
BRANCH   1  13
ATOM     13  C   UNL     1       1.934  54.283   8.351  1.00  0.00     0.000 C 
BRANCH  13  14
ATOM     14  C   UNL     1       2.941  54.417   9.503  1.00  0.00     0.000 C 
BRANCH  14  15
ATOM     15  C   UNL     1       4.113  55.356   9.163  1.00  0.00     0.000 C 
BRANCH  15  16
ATOM     16  C   UNL     1       5.364  55.185  10.048  1.00  0.00     0.003 C 
BRANCH  16  17
ATOM     17  C   UNL     1       5.261  55.805  11.454  1.00  0.00     0.042 C 
BRANCH  17  18
ATOM     18  C   UNL     1       6.132  57.051  11.641  1.00  0.00     0.233 C 
BRANCH  18  19
ATOM     19  O   UNL     1       5.317  58.181  11.938  1.00  0.00    -0.466 OA
BRANCH  19  20
ATOM     20  C   UNL     1       3.940  58.200  11.703  1.00  0.00     0.302 C 
ATOM     21  O   UNL     1       3.131  57.799  12.585  1.00  0.00    -0.253 OA
ATOM     22  C   UNL     1       3.428  58.651  10.377  1.00  0.00     0.139 C 
ENDBRANCH  19  20
ENDBRANCH  18  19
ENDBRANCH  17  18
ENDBRANCH  16  17
ENDBRANCH  15  16
ENDBRANCH  14  15
ENDBRANCH  13  14
ENDBRANCH   1  13
TORSDOF 16
ENDMDL
