MODEL 1
REMARK VINA RESULT:    -5.622      0.000      0.000
REMARK INTER + INTRA:          -5.951
REMARK INTER:                  -5.951
REMARK INTRA:                   0.000
REMARK UNBOUND:                 0.000
REMARK SMILES O=c1ccc2cc(O)c(O)cc2o1
REMARK SMILES IDX 4 1 3 2 2 3 1 4 13 5 12 6 11 7 9 8 7 9 6 10 5 11 8 12 10 14
REMARK H PARENT 8 13 10 15
REMARK Flexibility Score: inf
ROOT
ATOM      1  C   UNL     1      16.117  25.550  45.779  1.00  0.00     0.019 A 
ATOM      2  C   UNL     1      16.055  24.227  45.341  1.00  0.00     0.094 A 
ATOM      3  C   UNL     1      17.092  23.725  44.548  1.00  0.00     0.336 A 
ATOM      4  O   UNL     1      17.053  22.534  44.143  1.00  0.00    -0.246 OA
ATOM      5  O   UNL     1      18.122  24.500  44.218  1.00  0.00    -0.423 OA
ATOM      6  C   UNL     1      18.221  25.767  44.614  1.00  0.00     0.142 A 
ATOM      7  C   UNL     1      19.327  26.534  44.236  1.00  0.00     0.098 A 
ATOM      8  C   UNL     1      19.437  27.869  44.650  1.00  0.00     0.161 A 
ATOM      9  C   UNL     1      18.435  28.440  45.447  1.00  0.00     0.158 A 
ATOM     10  C   UNL     1      17.322  27.676  45.830  1.00  0.00     0.062 A 
ATOM     11  C   UNL     1      17.211  26.342  45.416  1.00  0.00     0.022 A 
ENDROOT
BRANCH   9  12
ATOM     12  O   UNL     1      18.550  29.767  45.855  1.00  0.00    -0.504 OA
ATOM     13  H   UNL     1      19.358  30.329  45.613  1.00  0.00     0.293 HD
ENDBRANCH   9  12
BRANCH   8  14
ATOM     14  O   UNL     1      20.539  28.635  44.274  1.00  0.00    -0.504 OA
ATOM     15  H   UNL     1      20.796  29.476  44.776  1.00  0.00     0.293 HD
ENDBRANCH   8  14
TORSDOF 2
ENDMDL
MODEL 2
REMARK VINA RESULT:    -5.470      1.704      1.871
REMARK INTER + INTRA:          -5.790
REMARK INTER:                  -5.790
REMARK INTRA:                   0.000
REMARK UNBOUND:                 0.000
REMARK SMILES O=c1ccc2cc(O)c(O)cc2o1
REMARK SMILES IDX 4 1 3 2 2 3 1 4 13 5 12 6 11 7 9 8 7 9 6 10 5 11 8 12 10 14
REMARK H PARENT 8 13 10 15
REMARK Flexibility Score: inf
ROOT
ATOM      1  C   UNL     1      16.492  25.434  43.570  1.00  0.00     0.019 A 
ATOM      2  C   UNL     1      16.766  24.492  42.579  1.00  0.00     0.094 A 
ATOM      3  C   UNL     1      18.043  24.459  42.008  1.00  0.00     0.336 A 
ATOM      4  O   UNL     1      18.309  23.615  41.113  1.00  0.00    -0.246 OA
ATOM      5  O   UNL     1      18.980  25.315  42.406  1.00  0.00    -0.423 OA
ATOM      6  C   UNL     1      18.762  26.230  43.348  1.00  0.00     0.142 A 
ATOM      7  C   UNL     1      19.785  27.104  43.726  1.00  0.00     0.098 A 
ATOM      8  C   UNL     1      19.560  28.069  44.717  1.00  0.00     0.161 A 
ATOM      9  C   UNL     1      18.304  28.161  45.335  1.00  0.00     0.158 A 
ATOM     10  C   UNL     1      17.273  27.288  44.959  1.00  0.00     0.062 A 
ATOM     11  C   UNL     1      17.496  26.322  43.968  1.00  0.00     0.022 A 
ENDROOT
BRANCH   9  12
ATOM     12  O   UNL     1      18.088  29.124  46.318  1.00  0.00    -0.504 OA
ATOM     13  H   UNL     1      18.027  30.110  46.093  1.00  0.00     0.293 HD
ENDBRANCH   9  12
BRANCH   8  14
ATOM     14  O   UNL     1      20.580  28.942  45.095  1.00  0.00    -0.504 OA
ATOM     15  H   UNL     1      21.538  28.628  45.190  1.00  0.00     0.293 HD
ENDBRANCH   8  14
TORSDOF 2
ENDMDL
MODEL 3
REMARK VINA RESULT:    -5.409      1.165      2.266
REMARK INTER + INTRA:          -5.725
REMARK INTER:                  -5.725
REMARK INTRA:                   0.000
REMARK UNBOUND:                 0.000
REMARK SMILES O=c1ccc2cc(O)c(O)cc2o1
REMARK SMILES IDX 4 1 3 2 2 3 1 4 13 5 12 6 11 7 9 8 7 9 6 10 5 11 8 12 10 14
REMARK H PARENT 8 13 10 15
REMARK Flexibility Score: inf
ROOT
ATOM      1  C   UNL     1      17.994  24.505  43.982  1.00  0.00     0.019 A 
ATOM      2  C   UNL     1      16.848  23.797  44.345  1.00  0.00     0.094 A 
ATOM      3  C   UNL     1      15.900  24.414  45.167  1.00  0.00     0.336 A 
ATOM      4  O   UNL     1      14.860  23.790  45.505  1.00  0.00    -0.246 OA
ATOM      5  O   UNL     1      16.090  25.659  45.596  1.00  0.00    -0.423 OA
ATOM      6  C   UNL     1      17.167  26.371  45.274  1.00  0.00     0.142 A 
ATOM      7  C   UNL     1      17.313  27.676  45.755  1.00  0.00     0.098 A 
ATOM      8  C   UNL     1      18.446  28.430  45.419  1.00  0.00     0.161 A 
ATOM      9  C   UNL     1      19.439  27.877  44.598  1.00  0.00     0.158 A 
ATOM     10  C   UNL     1      19.299  26.568  44.113  1.00  0.00     0.062 A 
ATOM     11  C   UNL     1      18.167  25.812  44.448  1.00  0.00     0.022 A 
ENDROOT
BRANCH   9  12
ATOM     12  O   UNL     1      20.563  28.632  44.269  1.00  0.00    -0.504 OA
ATOM     13  H   UNL     1      20.803  29.475  44.776  1.00  0.00     0.293 HD
ENDBRANCH   9  12
BRANCH   8  14
ATOM     14  O   UNL     1      18.593  29.732  45.897  1.00  0.00    -0.504 OA
ATOM     15  H   UNL     1      18.722  29.922  46.883  1.00  0.00     0.293 HD
ENDBRANCH   8  14
TORSDOF 2
ENDMDL
MODEL 4
REMARK VINA RESULT:    -5.167      2.176      3.245
REMARK INTER + INTRA:          -5.469
REMARK INTER:                  -5.469
REMARK INTRA:                   0.000
REMARK UNBOUND:                 0.000
REMARK SMILES O=c1ccc2cc(O)c(O)cc2o1
REMARK SMILES IDX 4 1 3 2 2 3 1 4 13 5 12 6 11 7 9 8 7 9 6 10 5 11 8 12 10 14
REMARK H PARENT 8 13 10 15
REMARK Flexibility Score: inf
ROOT
ATOM      1  C   UNL     1      19.744  25.868  41.614  1.00  0.00     0.019 A 
ATOM      2  C   UNL     1      18.888  24.988  40.953  1.00  0.00     0.094 A 
ATOM      3  C   UNL     1      17.595  24.795  41.451  1.00  0.00     0.336 A 
ATOM      4  O   UNL     1      16.808  24.004  40.867  1.00  0.00    -0.246 OA
ATOM      5  O   UNL     1      17.189  25.445  42.539  1.00  0.00    -0.423 OA
ATOM      6  C   UNL     1      17.972  26.294  43.200  1.00  0.00     0.142 A 
ATOM      7  C   UNL     1      17.491  26.948  44.338  1.00  0.00     0.098 A 
ATOM      8  C   UNL     1      18.312  27.843  45.038  1.00  0.00     0.161 A 
ATOM      9  C   UNL     1      19.621  28.085  44.598  1.00  0.00     0.158 A 
ATOM     10  C   UNL     1      20.110  27.432  43.457  1.00  0.00     0.062 A 
ATOM     11  C   UNL     1      19.291  26.537  42.756  1.00  0.00     0.022 A 
ENDROOT
BRANCH   9  12
ATOM     12  O   UNL     1      20.432  28.976  45.299  1.00  0.00    -0.504 OA
ATOM     13  H   UNL     1      21.442  28.924  45.253  1.00  0.00     0.293 HD
ENDBRANCH   9  12
BRANCH   8  14
ATOM     14  O   UNL     1      17.835  28.496  46.174  1.00  0.00    -0.504 OA
ATOM     15  H   UNL     1      17.933  28.093  47.098  1.00  0.00     0.293 HD
ENDBRANCH   8  14
TORSDOF 2
ENDMDL
MODEL 5
REMARK VINA RESULT:    -5.094      1.536      1.760
REMARK INTER + INTRA:          -5.392
REMARK INTER:                  -5.392
REMARK INTRA:                   0.000
REMARK UNBOUND:                 0.000
REMARK SMILES O=c1ccc2cc(O)c(O)cc2o1
REMARK SMILES IDX 4 1 3 2 2 3 1 4 13 5 12 6 11 7 9 8 7 9 6 10 5 11 8 12 10 14
REMARK H PARENT 8 13 10 15
REMARK Flexibility Score: inf
ROOT
ATOM      1  C   UNL     1      16.575  25.704  44.942  1.00  0.00     0.019 A 
ATOM      2  C   UNL     1      15.848  24.743  44.240  1.00  0.00     0.094 A 
ATOM      3  C   UNL     1      16.288  24.353  42.970  1.00  0.00     0.336 A 
ATOM      4  O   UNL     1      15.645  23.487  42.321  1.00  0.00    -0.246 OA
ATOM      5  O   UNL     1      17.384  24.893  42.443  1.00  0.00    -0.423 OA
ATOM      6  C   UNL     1      18.107  25.812  43.078  1.00  0.00     0.142 A 
ATOM      7  C   UNL     1      19.250  26.343  42.473  1.00  0.00     0.098 A 
ATOM      8  C   UNL     1      20.015  27.312  43.138  1.00  0.00     0.161 A 
ATOM      9  C   UNL     1      19.635  27.751  44.415  1.00  0.00     0.158 A 
ATOM     10  C   UNL     1      18.488  27.222  45.026  1.00  0.00     0.062 A 
ATOM     11  C   UNL     1      17.723  26.254  44.363  1.00  0.00     0.022 A 
ENDROOT
BRANCH   9  12
ATOM     12  O   UNL     1      20.400  28.715  45.069  1.00  0.00    -0.504 OA
ATOM     13  H   UNL     1      21.410  28.652  45.112  1.00  0.00     0.293 HD
ENDBRANCH   9  12
BRANCH   8  14
ATOM     14  O   UNL     1      21.155  27.843  42.537  1.00  0.00    -0.504 OA
ATOM     15  H   UNL     1      21.280  27.829  41.532  1.00  0.00     0.293 HD
ENDBRANCH   8  14
TORSDOF 2
ENDMDL
MODEL 6
REMARK VINA RESULT:    -4.944      3.878      4.501
REMARK INTER + INTRA:          -5.233
REMARK INTER:                  -5.233
REMARK INTRA:                   0.000
REMARK UNBOUND:                 0.000
REMARK SMILES O=c1ccc2cc(O)c(O)cc2o1
REMARK SMILES IDX 4 1 3 2 2 3 1 4 13 5 12 6 11 7 9 8 7 9 6 10 5 11 8 12 10 14
REMARK H PARENT 8 13 10 15
REMARK Flexibility Score: inf
ROOT
ATOM      1  C   UNL     1      17.549  24.915  41.275  1.00  0.00     0.019 A 
ATOM      2  C   UNL     1      17.358  24.106  40.155  1.00  0.00     0.094 A 
ATOM      3  C   UNL     1      18.376  24.016  39.200  1.00  0.00     0.336 A 
ATOM      4  O   UNL     1      18.221  23.291  38.183  1.00  0.00    -0.246 OA
ATOM      5  O   UNL     1      19.509  24.694  39.359  1.00  0.00    -0.423 OA
ATOM      6  C   UNL     1      19.734  25.477  40.412  1.00  0.00     0.142 A 
ATOM      7  C   UNL     1      20.946  26.165  40.526  1.00  0.00     0.098 A 
ATOM      8  C   UNL     1      21.188  26.991  41.632  1.00  0.00     0.161 A 
ATOM      9  C   UNL     1      20.212  27.130  42.631  1.00  0.00     0.158 A 
ATOM     10  C   UNL     1      18.994  26.442  42.521  1.00  0.00     0.062 A 
ATOM     11  C   UNL     1      18.751  25.616  41.416  1.00  0.00     0.022 A 
ENDROOT
BRANCH   9  12
ATOM     12  O   UNL     1      20.459  27.953  43.727  1.00  0.00    -0.504 OA
ATOM     13  H   UNL     1      21.149  28.695  43.690  1.00  0.00     0.293 HD
ENDBRANCH   9  12
BRANCH   8  14
ATOM     14  O   UNL     1      22.395  27.679  41.748  1.00  0.00    -0.504 OA
ATOM     15  H   UNL     1      22.489  28.639  41.440  1.00  0.00     0.293 HD
ENDBRANCH   8  14
TORSDOF 2
ENDMDL
MODEL 7
REMARK VINA RESULT:    -4.937      1.808      2.941
REMARK INTER + INTRA:          -5.226
REMARK INTER:                  -5.226
REMARK INTRA:                   0.000
REMARK UNBOUND:                 0.000
REMARK SMILES O=c1ccc2cc(O)c(O)cc2o1
REMARK SMILES IDX 4 1 3 2 2 3 1 4 13 5 12 6 11 7 9 8 7 9 6 10 5 11 8 12 10 14
REMARK H PARENT 8 13 10 15
REMARK Flexibility Score: inf
ROOT
ATOM      1  C   UNL     1      18.103  24.271  41.535  1.00  0.00     0.019 A 
ATOM      2  C   UNL     1      17.125  23.409  42.032  1.00  0.00     0.094 A 
ATOM      3  C   UNL     1      16.696  23.560  43.355  1.00  0.00     0.336 A 
ATOM      4  O   UNL     1      15.814  22.792  43.821  1.00  0.00    -0.246 OA
ATOM      5  O   UNL     1      17.213  24.514  44.125  1.00  0.00    -0.423 OA
ATOM      6  C   UNL     1      18.146  25.358  43.692  1.00  0.00     0.142 A 
ATOM      7  C   UNL     1      18.653  26.340  44.548  1.00  0.00     0.098 A 
ATOM      8  C   UNL     1      19.636  27.231  44.096  1.00  0.00     0.161 A 
ATOM      9  C   UNL     1      20.116  27.140  42.781  1.00  0.00     0.158 A 
ATOM     10  C   UNL     1      19.612  26.155  41.918  1.00  0.00     0.062 A 
ATOM     11  C   UNL     1      18.629  25.264  42.368  1.00  0.00     0.022 A 
ENDROOT
BRANCH   9  12
ATOM     12  O   UNL     1      21.094  28.029  42.340  1.00  0.00    -0.504 OA
ATOM     13  H   UNL     1      21.103  28.379  41.389  1.00  0.00     0.293 HD
ENDBRANCH   9  12
BRANCH   8  14
ATOM     14  O   UNL     1      20.143  28.212  44.948  1.00  0.00    -0.504 OA
ATOM     15  H   UNL     1      19.615  28.546  45.745  1.00  0.00     0.293 HD
ENDBRANCH   8  14
TORSDOF 2
ENDMDL
MODEL 8
REMARK VINA RESULT:    -4.709      2.059      3.261
REMARK INTER + INTRA:          -4.984
REMARK INTER:                  -4.984
REMARK INTRA:                   0.000
REMARK UNBOUND:                 0.000
REMARK SMILES O=c1ccc2cc(O)c(O)cc2o1
REMARK SMILES IDX 4 1 3 2 2 3 1 4 13 5 12 6 11 7 9 8 7 9 6 10 5 11 8 12 10 14
REMARK H PARENT 8 13 10 15
REMARK Flexibility Score: inf
ROOT
ATOM      1  C   UNL     1      15.939  25.128  44.975  1.00  0.00     0.019 A 
ATOM      2  C   UNL     1      15.451  25.537  46.216  1.00  0.00     0.094 A 
ATOM      3  C   UNL     1      16.127  26.545  46.912  1.00  0.00     0.336 A 
ATOM      4  O   UNL     1      15.702  26.928  48.033  1.00  0.00    -0.246 OA
ATOM      5  O   UNL     1      17.218  27.104  46.395  1.00  0.00    -0.423 OA
ATOM      6  C   UNL     1      17.717  26.745  45.215  1.00  0.00     0.142 A 
ATOM      7  C   UNL     1      18.868  27.368  44.723  1.00  0.00     0.098 A 
ATOM      8  C   UNL     1      19.398  26.993  43.480  1.00  0.00     0.161 A 
ATOM      9  C   UNL     1      18.774  25.989  42.726  1.00  0.00     0.158 A 
ATOM     10  C   UNL     1      17.619  25.359  43.215  1.00  0.00     0.062 A 
ATOM     11  C   UNL     1      17.089  25.733  44.457  1.00  0.00     0.022 A 
ENDROOT
BRANCH   9  12
ATOM     12  O   UNL     1      19.306  25.621  41.492  1.00  0.00    -0.504 OA
ATOM     13  H   UNL     1      20.130  25.035  41.423  1.00  0.00     0.293 HD
ENDBRANCH   9  12
BRANCH   8  14
ATOM     14  O   UNL     1      20.545  27.613  42.987  1.00  0.00    -0.504 OA
ATOM     15  H   UNL     1      20.495  28.475  42.457  1.00  0.00     0.293 HD
ENDBRANCH   8  14
TORSDOF 2
ENDMDL
MODEL 9
REMARK VINA RESULT:    -4.651      1.899      2.601
REMARK INTER + INTRA:          -4.923
REMARK INTER:                  -4.923
REMARK INTRA:                   0.000
REMARK UNBOUND:                 0.000
REMARK SMILES O=c1ccc2cc(O)c(O)cc2o1
REMARK SMILES IDX 4 1 3 2 2 3 1 4 13 5 12 6 11 7 9 8 7 9 6 10 5 11 8 12 10 14
REMARK H PARENT 8 13 10 15
REMARK Flexibility Score: inf
ROOT
ATOM      1  C   UNL     1      16.849  26.683  46.506  1.00  0.00     0.019 A 
ATOM      2  C   UNL     1      15.671  25.976  46.745  1.00  0.00     0.094 A 
ATOM      3  C   UNL     1      15.166  25.140  45.743  1.00  0.00     0.336 A 
ATOM      4  O   UNL     1      14.104  24.493  45.941  1.00  0.00    -0.246 OA
ATOM      5  O   UNL     1      15.803  25.022  44.581  1.00  0.00    -0.423 OA
ATOM      6  C   UNL     1      16.929  25.678  44.311  1.00  0.00     0.142 A 
ATOM      7  C   UNL     1      17.554  25.514  43.071  1.00  0.00     0.098 A 
ATOM      8  C   UNL     1      18.740  26.203  42.782  1.00  0.00     0.161 A 
ATOM      9  C   UNL     1      19.305  27.060  43.738  1.00  0.00     0.158 A 
ATOM     10  C   UNL     1      18.682  27.228  44.984  1.00  0.00     0.062 A 
ATOM     11  C   UNL     1      17.496  26.541  45.274  1.00  0.00     0.022 A 
ENDROOT
BRANCH   9  12
ATOM     12  O   UNL     1      20.484  27.741  43.443  1.00  0.00    -0.504 OA
ATOM     13  H   UNL     1      20.912  28.375  44.108  1.00  0.00     0.293 HD
ENDBRANCH   9  12
BRANCH   8  14
ATOM     14  O   UNL     1      19.365  26.042  41.546  1.00  0.00    -0.504 OA
ATOM     15  H   UNL     1      20.284  25.623  41.467  1.00  0.00     0.293 HD
ENDBRANCH   8  14
TORSDOF 2
ENDMDL
