MODEL 1
REMARK VINA RESULT:    -5.902      0.000      0.000
REMARK INTER + INTRA:          -7.232
REMARK INTER:                  -6.938
REMARK INTRA:                  -0.295
REMARK UNBOUND:                -0.295
REMARK SMILES O=c1c(O)c(-c2ccc(O)cc2)oc2cc(O)cc(O)c12
REMARK SMILES IDX 5 1 3 2 2 3 1 4 21 5 19 6 18 7 16 8 15 9 14 10 13 11 6 12
REMARK SMILES IDX 7 13 8 14 9 15 12 16 11 17 10 18 4 20 20 22 17 24
REMARK H PARENT 10 19 4 21 20 23 17 25
REMARK Flexibility Score: inf
ROOT
ATOM      1  C   UNL     1     -16.545  -1.447   3.891  1.00  0.00     0.180 A 
ATOM      2  C   UNL     1     -16.138  -0.932   5.134  1.00  0.00     0.208 A 
ATOM      3  C   UNL     1     -14.818  -1.147   5.561  1.00  0.00     0.238 A 
ATOM      4  O   UNL     1     -14.481  -0.749   6.707  1.00  0.00    -0.285 OA
ATOM      5  C   UNL     1     -13.905  -1.824   4.716  1.00  0.00     0.111 A 
ATOM      6  C   UNL     1     -12.531  -2.058   5.026  1.00  0.00     0.134 A 
ATOM      7  C   UNL     1     -11.750  -2.832   4.159  1.00  0.00     0.093 A 
ATOM      8  C   UNL     1     -12.272  -3.327   2.965  1.00  0.00     0.123 A 
ATOM      9  C   UNL     1     -13.598  -3.058   2.624  1.00  0.00     0.094 A 
ATOM     10  C   UNL     1     -14.414  -2.321   3.487  1.00  0.00     0.146 A 
ATOM     11  O   UNL     1     -15.676  -2.106   3.135  1.00  0.00    -0.452 OA
ENDROOT
BRANCH   1  12
ATOM     12  C   UNL     1     -17.924  -1.275   3.380  1.00  0.00     0.021 A 
ATOM     13  C   UNL     1     -18.922  -2.237   3.622  1.00  0.00     0.016 A 
ATOM     14  C   UNL     1     -20.211  -2.064   3.108  1.00  0.00     0.047 A 
ATOM     15  C   UNL     1     -20.515  -0.939   2.336  1.00  0.00     0.115 A 
ATOM     16  C   UNL     1     -18.231  -0.158   2.585  1.00  0.00     0.016 A 
ATOM     17  C   UNL     1     -19.521   0.013   2.072  1.00  0.00     0.047 A 
BRANCH  15  18
ATOM     18  O   UNL     1     -21.804  -0.779   1.831  1.00  0.00    -0.508 OA
ATOM     19  H   UNL     1     -22.553  -0.403   2.400  1.00  0.00     0.293 HD
ENDBRANCH  15  18
ENDBRANCH   1  12
BRANCH   2  20
ATOM     20  O   UNL     1     -17.033  -0.201   5.920  1.00  0.00    -0.502 OA
ATOM     21  H   UNL     1     -16.769   0.659   6.386  1.00  0.00     0.293 HD
ENDBRANCH   2  20
BRANCH   6  22
ATOM     22  O   UNL     1     -11.882  -1.537   6.149  1.00  0.00    -0.507 OA
ATOM     23  H   UNL     1     -12.293  -0.895   6.809  1.00  0.00     0.293 HD
ENDBRANCH   6  22
BRANCH   8  24
ATOM     24  O   UNL     1     -11.460  -4.079   2.118  1.00  0.00    -0.508 OA
ATOM     25  H   UNL     1     -11.680  -4.191   1.135  1.00  0.00     0.293 HD
ENDBRANCH   8  24
TORSDOF 5
ENDMDL
MODEL 2
REMARK VINA RESULT:    -5.610      2.110      2.932
REMARK INTER + INTRA:          -6.889
REMARK INTER:                  -6.600
REMARK INTRA:                  -0.288
REMARK UNBOUND:                -0.295
REMARK SMILES O=c1c(O)c(-c2ccc(O)cc2)oc2cc(O)cc(O)c12
REMARK SMILES IDX 5 1 3 2 2 3 1 4 21 5 19 6 18 7 16 8 15 9 14 10 13 11 6 12
REMARK SMILES IDX 7 13 8 14 9 15 12 16 11 17 10 18 4 20 20 22 17 24
REMARK H PARENT 10 19 4 21 20 23 17 25
REMARK Flexibility Score: inf
ROOT
ATOM      1  C   UNL     1     -17.750  -1.731   3.260  1.00  0.00     0.180 A 
ATOM      2  C   UNL     1     -16.858  -0.741   2.813  1.00  0.00     0.208 A 
ATOM      3  C   UNL     1     -15.615  -0.606   3.451  1.00  0.00     0.238 A 
ATOM      4  O   UNL     1     -14.853   0.331   3.096  1.00  0.00    -0.285 OA
ATOM      5  C   UNL     1     -15.255  -1.499   4.490  1.00  0.00     0.111 A 
ATOM      6  C   UNL     1     -14.004  -1.484   5.177  1.00  0.00     0.134 A 
ATOM      7  C   UNL     1     -13.800  -2.348   6.259  1.00  0.00     0.093 A 
ATOM      8  C   UNL     1     -14.774  -3.268   6.641  1.00  0.00     0.123 A 
ATOM      9  C   UNL     1     -15.980  -3.330   5.942  1.00  0.00     0.094 A 
ATOM     10  C   UNL     1     -16.229  -2.455   4.882  1.00  0.00     0.146 A 
ATOM     11  O   UNL     1     -17.398  -2.532   4.257  1.00  0.00    -0.452 OA
ENDROOT
BRANCH   1  12
ATOM     12  C   UNL     1     -19.084  -1.926   2.648  1.00  0.00     0.021 A 
ATOM     13  C   UNL     1     -19.272  -2.799   1.559  1.00  0.00     0.016 A 
ATOM     14  C   UNL     1     -20.537  -2.947   0.983  1.00  0.00     0.047 A 
ATOM     15  C   UNL     1     -21.625  -2.218   1.473  1.00  0.00     0.115 A 
ATOM     16  C   UNL     1     -20.177  -1.180   3.121  1.00  0.00     0.016 A 
ATOM     17  C   UNL     1     -21.441  -1.331   2.542  1.00  0.00     0.047 A 
BRANCH  15  18
ATOM     18  O   UNL     1     -22.880  -2.377   0.889  1.00  0.00    -0.508 OA
ATOM     19  H   UNL     1     -22.987  -2.770  -0.038  1.00  0.00     0.293 HD
ENDBRANCH  15  18
ENDBRANCH   1  12
BRANCH   2  20
ATOM     20  O   UNL     1     -17.201   0.081   1.736  1.00  0.00    -0.502 OA
ATOM     21  H   UNL     1     -16.946   1.060   1.696  1.00  0.00     0.293 HD
ENDBRANCH   2  20
BRANCH   6  22
ATOM     22  O   UNL     1     -12.926  -0.666   4.823  1.00  0.00    -0.507 OA
ATOM     23  H   UNL     1     -12.951   0.048   4.112  1.00  0.00     0.293 HD
ENDBRANCH   6  22
BRANCH   8  24
ATOM     24  O   UNL     1     -14.530  -4.125   7.713  1.00  0.00    -0.508 OA
ATOM     25  H   UNL     1     -14.274  -3.770   8.627  1.00  0.00     0.293 HD
ENDBRANCH   8  24
TORSDOF 5
ENDMDL
MODEL 3
REMARK VINA RESULT:    -5.452      1.723      6.862
REMARK INTER + INTRA:          -6.702
REMARK INTER:                  -6.405
REMARK INTRA:                  -0.297
REMARK UNBOUND:                -0.295
REMARK SMILES O=c1c(O)c(-c2ccc(O)cc2)oc2cc(O)cc(O)c12
REMARK SMILES IDX 5 1 3 2 2 3 1 4 21 5 19 6 18 7 16 8 15 9 14 10 13 11 6 12
REMARK SMILES IDX 7 13 8 14 9 15 12 16 11 17 10 18 4 20 20 22 17 24
REMARK H PARENT 10 19 4 21 20 23 17 25
REMARK Flexibility Score: inf
ROOT
ATOM      1  C   UNL     1     -16.293  -1.702   3.720  1.00  0.00     0.180 A 
ATOM      2  C   UNL     1     -16.544  -0.527   2.989  1.00  0.00     0.208 A 
ATOM      3  C   UNL     1     -17.847  -0.273   2.534  1.00  0.00     0.238 A 
ATOM      4  O   UNL     1     -18.049   0.741   1.817  1.00  0.00    -0.285 OA
ATOM      5  C   UNL     1     -18.895  -1.167   2.862  1.00  0.00     0.111 A 
ATOM      6  C   UNL     1     -20.263  -0.987   2.493  1.00  0.00     0.134 A 
ATOM      7  C   UNL     1     -21.194  -1.991   2.782  1.00  0.00     0.093 A 
ATOM      8  C   UNL     1     -20.824  -3.138   3.482  1.00  0.00     0.123 A 
ATOM      9  C   UNL     1     -19.502  -3.301   3.897  1.00  0.00     0.094 A 
ATOM     10  C   UNL     1     -18.541  -2.334   3.589  1.00  0.00     0.146 A 
ATOM     11  O   UNL     1     -17.289  -2.538   3.984  1.00  0.00    -0.452 OA
ENDROOT
BRANCH   1  12
ATOM     12  C   UNL     1     -14.943  -2.047   4.220  1.00  0.00     0.021 A 
ATOM     13  C   UNL     1     -14.043  -2.802   3.445  1.00  0.00     0.016 A 
ATOM     14  C   UNL     1     -12.783  -3.136   3.950  1.00  0.00     0.047 A 
ATOM     15  C   UNL     1     -12.410  -2.734   5.235  1.00  0.00     0.115 A 
ATOM     16  C   UNL     1     -14.570  -1.664   5.520  1.00  0.00     0.016 A 
ATOM     17  C   UNL     1     -13.308  -1.999   6.021  1.00  0.00     0.047 A 
BRANCH  15  18
ATOM     18  O   UNL     1     -11.150  -3.072   5.724  1.00  0.00    -0.508 OA
ATOM     19  H   UNL     1     -10.490  -3.601   5.168  1.00  0.00     0.293 HD
ENDBRANCH  15  18
ENDBRANCH   1  12
BRANCH   2  20
ATOM     20  O   UNL     1     -15.511   0.381   2.741  1.00  0.00    -0.502 OA
ATOM     21  H   UNL     1     -15.597   1.131   2.066  1.00  0.00     0.293 HD
ENDBRANCH   2  20
BRANCH   6  22
ATOM     22  O   UNL     1     -20.760   0.161   1.868  1.00  0.00    -0.507 OA
ATOM     23  H   UNL     1     -21.644   0.598   2.081  1.00  0.00     0.293 HD
ENDBRANCH   6  22
BRANCH   8  24
ATOM     24  O   UNL     1     -21.782  -4.109   3.768  1.00  0.00    -0.508 OA
ATOM     25  H   UNL     1     -22.672  -3.868   4.190  1.00  0.00     0.293 HD
ENDBRANCH   8  24
TORSDOF 5
ENDMDL
MODEL 4
REMARK VINA RESULT:    -5.426      1.365      3.167
REMARK INTER + INTRA:          -6.672
REMARK INTER:                  -6.378
REMARK INTRA:                  -0.294
REMARK UNBOUND:                -0.295
REMARK SMILES O=c1c(O)c(-c2ccc(O)cc2)oc2cc(O)cc(O)c12
REMARK SMILES IDX 5 1 3 2 2 3 1 4 21 5 19 6 18 7 16 8 15 9 14 10 13 11 6 12
REMARK SMILES IDX 7 13 8 14 9 15 12 16 11 17 10 18 4 20 20 22 17 24
REMARK H PARENT 10 19 4 21 20 23 17 25
REMARK Flexibility Score: inf
ROOT
ATOM      1  C   UNL     1     -17.120  -1.955   3.132  1.00  0.00     0.180 A 
ATOM      2  C   UNL     1     -16.355  -2.482   2.076  1.00  0.00     0.208 A 
ATOM      3  C   UNL     1     -14.973  -2.651   2.254  1.00  0.00     0.238 A 
ATOM      4  O   UNL     1     -14.283  -3.052   1.281  1.00  0.00    -0.285 OA
ATOM      5  C   UNL     1     -14.380  -2.347   3.504  1.00  0.00     0.111 A 
ATOM      6  C   UNL     1     -12.998  -2.522   3.812  1.00  0.00     0.134 A 
ATOM      7  C   UNL     1     -12.505  -2.087   5.048  1.00  0.00     0.093 A 
ATOM      8  C   UNL     1     -13.352  -1.542   6.011  1.00  0.00     0.123 A 
ATOM      9  C   UNL     1     -14.716  -1.416   5.743  1.00  0.00     0.094 A 
ATOM     10  C   UNL     1     -15.231  -1.805   4.504  1.00  0.00     0.146 A 
ATOM     11  O   UNL     1     -16.531  -1.648   4.281  1.00  0.00    -0.452 OA
ENDROOT
BRANCH   1  12
ATOM     12  C   UNL     1     -18.579  -1.734   3.015  1.00  0.00     0.021 A 
ATOM     13  C   UNL     1     -19.099  -0.547   2.464  1.00  0.00     0.016 A 
ATOM     14  C   UNL     1     -20.481  -0.351   2.387  1.00  0.00     0.047 A 
ATOM     15  C   UNL     1     -21.359  -1.325   2.869  1.00  0.00     0.115 A 
ATOM     16  C   UNL     1     -19.467  -2.699   3.518  1.00  0.00     0.016 A 
ATOM     17  C   UNL     1     -20.848  -2.500   3.438  1.00  0.00     0.047 A 
BRANCH  15  18
ATOM     18  O   UNL     1     -22.734  -1.117   2.784  1.00  0.00    -0.508 OA
ATOM     19  H   UNL     1     -23.396  -1.802   3.129  1.00  0.00     0.293 HD
ENDBRANCH  15  18
ENDBRANCH   1  12
BRANCH   2  20
ATOM     20  O   UNL     1     -16.971  -2.848   0.876  1.00  0.00    -0.502 OA
ATOM     21  H   UNL     1     -16.616  -2.559  -0.028  1.00  0.00     0.293 HD
ENDBRANCH   2  20
BRANCH   6  22
ATOM     22  O   UNL     1     -12.077  -3.137   2.958  1.00  0.00    -0.507 OA
ATOM     23  H   UNL     1     -11.730  -2.740   2.099  1.00  0.00     0.293 HD
ENDBRANCH   6  22
BRANCH   8  24
ATOM     24  O   UNL     1     -12.830  -1.135   7.237  1.00  0.00    -0.508 OA
ATOM     25  H   UNL     1     -12.319  -0.264   7.334  1.00  0.00     0.293 HD
ENDBRANCH   8  24
TORSDOF 5
ENDMDL
MODEL 5
REMARK VINA RESULT:    -5.067      1.706      6.927
REMARK INTER + INTRA:          -6.250
REMARK INTER:                  -5.961
REMARK INTRA:                  -0.289
REMARK UNBOUND:                -0.295
REMARK SMILES O=c1c(O)c(-c2ccc(O)cc2)oc2cc(O)cc(O)c12
REMARK SMILES IDX 5 1 3 2 2 3 1 4 21 5 19 6 18 7 16 8 15 9 14 10 13 11 6 12
REMARK SMILES IDX 7 13 8 14 9 15 12 16 11 17 10 18 4 20 20 22 17 24
REMARK H PARENT 10 19 4 21 20 23 17 25
REMARK Flexibility Score: inf
ROOT
ATOM      1  C   UNL     1     -16.512  -1.886   4.119  1.00  0.00     0.180 A 
ATOM      2  C   UNL     1     -17.454  -2.910   4.320  1.00  0.00     0.208 A 
ATOM      3  C   UNL     1     -18.780  -2.706   3.907  1.00  0.00     0.238 A 
ATOM      4  O   UNL     1     -19.634  -3.596   4.158  1.00  0.00    -0.285 OA
ATOM      5  C   UNL     1     -19.137  -1.504   3.249  1.00  0.00     0.111 A 
ATOM      6  C   UNL     1     -20.441  -1.208   2.748  1.00  0.00     0.134 A 
ATOM      7  C   UNL     1     -20.702   0.057   2.208  1.00  0.00     0.093 A 
ATOM      8  C   UNL     1     -19.696   1.014   2.092  1.00  0.00     0.123 A 
ATOM      9  C   UNL     1     -18.404   0.717   2.528  1.00  0.00     0.094 A 
ATOM     10  C   UNL     1     -18.120  -0.523   3.107  1.00  0.00     0.146 A 
ATOM     11  O   UNL     1     -16.883  -0.757   3.528  1.00  0.00    -0.452 OA
ENDROOT
BRANCH   1  12
ATOM     12  C   UNL     1     -15.099  -2.021   4.540  1.00  0.00     0.021 A 
ATOM     13  C   UNL     1     -14.130  -2.584   3.687  1.00  0.00     0.016 A 
ATOM     14  C   UNL     1     -12.807  -2.723   4.116  1.00  0.00     0.047 A 
ATOM     15  C   UNL     1     -12.437  -2.316   5.401  1.00  0.00     0.115 A 
ATOM     16  C   UNL     1     -14.724  -1.634   5.837  1.00  0.00     0.016 A 
ATOM     17  C   UNL     1     -13.400  -1.774   6.263  1.00  0.00     0.047 A 
BRANCH  15  18
ATOM     18  O   UNL     1     -11.114  -2.459   5.814  1.00  0.00    -0.508 OA
ATOM     19  H   UNL     1     -10.473  -3.081   5.335  1.00  0.00     0.293 HD
ENDBRANCH  15  18
ENDBRANCH   1  12
BRANCH   2  20
ATOM     20  O   UNL     1     -17.065  -4.119   4.903  1.00  0.00    -0.502 OA
ATOM     21  H   UNL     1     -17.093  -4.274   5.903  1.00  0.00     0.293 HD
ENDBRANCH   2  20
BRANCH   6  22
ATOM     22  O   UNL     1     -21.500  -2.121   2.731  1.00  0.00    -0.507 OA
ATOM     23  H   UNL     1     -22.257  -2.140   3.396  1.00  0.00     0.293 HD
ENDBRANCH   6  22
BRANCH   8  24
ATOM     24  O   UNL     1     -19.988   2.257   1.534  1.00  0.00    -0.508 OA
ATOM     25  H   UNL     1     -19.272   2.965   1.412  1.00  0.00     0.293 HD
ENDBRANCH   8  24
TORSDOF 5
ENDMDL
MODEL 6
REMARK VINA RESULT:    -4.950      2.350      4.465
REMARK INTER + INTRA:          -6.113
REMARK INTER:                  -5.821
REMARK INTRA:                  -0.292
REMARK UNBOUND:                -0.295
REMARK SMILES O=c1c(O)c(-c2ccc(O)cc2)oc2cc(O)cc(O)c12
REMARK SMILES IDX 5 1 3 2 2 3 1 4 21 5 19 6 18 7 16 8 15 9 14 10 13 11 6 12
REMARK SMILES IDX 7 13 8 14 9 15 12 16 11 17 10 18 4 20 20 22 17 24
REMARK H PARENT 10 19 4 21 20 23 17 25
REMARK Flexibility Score: inf
ROOT
ATOM      1  C   UNL     1     -19.740  -1.495   3.215  1.00  0.00     0.180 A 
ATOM      2  C   UNL     1     -19.405  -0.763   2.063  1.00  0.00     0.208 A 
ATOM      3  C   UNL     1     -18.073  -0.367   1.871  1.00  0.00     0.238 A 
ATOM      4  O   UNL     1     -17.794   0.352   0.876  1.00  0.00    -0.285 OA
ATOM      5  C   UNL     1     -17.080  -0.754   2.803  1.00  0.00     0.111 A 
ATOM      6  C   UNL     1     -15.691  -0.448   2.686  1.00  0.00     0.134 A 
ATOM      7  C   UNL     1     -14.817  -0.793   3.724  1.00  0.00     0.093 A 
ATOM      8  C   UNL     1     -15.268  -1.488   4.845  1.00  0.00     0.123 A 
ATOM      9  C   UNL     1     -16.614  -1.843   4.945  1.00  0.00     0.094 A 
ATOM     10  C   UNL     1     -17.517  -1.479   3.944  1.00  0.00     0.146 A 
ATOM     11  O   UNL     1     -18.794  -1.816   4.089  1.00  0.00    -0.452 OA
ENDROOT
BRANCH   1  12
ATOM     12  C   UNL     1     -21.125  -1.936   3.495  1.00  0.00     0.021 A 
ATOM     13  C   UNL     1     -22.053  -1.085   4.124  1.00  0.00     0.016 A 
ATOM     14  C   UNL     1     -23.349  -1.533   4.400  1.00  0.00     0.047 A 
ATOM     15  C   UNL     1     -23.730  -2.835   4.067  1.00  0.00     0.115 A 
ATOM     16  C   UNL     1     -21.508  -3.251   3.182  1.00  0.00     0.016 A 
ATOM     17  C   UNL     1     -22.805  -3.695   3.459  1.00  0.00     0.047 A 
BRANCH  15  18
ATOM     18  O   UNL     1     -25.024  -3.267   4.346  1.00  0.00    -0.508 OA
ATOM     19  H   UNL     1     -25.686  -3.471   3.607  1.00  0.00     0.293 HD
ENDBRANCH  15  18
ENDBRANCH   1  12
BRANCH   2  20
ATOM     20  O   UNL     1     -20.386  -0.456   1.115  1.00  0.00    -0.502 OA
ATOM     21  H   UNL     1     -20.211   0.162   0.332  1.00  0.00     0.293 HD
ENDBRANCH   2  20
BRANCH   6  22
ATOM     22  O   UNL     1     -15.116   0.166   1.569  1.00  0.00    -0.507 OA
ATOM     23  H   UNL     1     -15.430   1.032   1.159  1.00  0.00     0.293 HD
ENDBRANCH   6  22
BRANCH   8  24
ATOM     24  O   UNL     1     -14.367  -1.831   5.851  1.00  0.00    -0.508 OA
ATOM     25  H   UNL     1     -13.469  -1.369   5.939  1.00  0.00     0.293 HD
ENDBRANCH   8  24
TORSDOF 5
ENDMDL
MODEL 7
REMARK VINA RESULT:    -4.935      5.959     10.980
REMARK INTER + INTRA:          -6.095
REMARK INTER:                  -5.858
REMARK INTRA:                  -0.237
REMARK UNBOUND:                -0.295
REMARK SMILES O=c1c(O)c(-c2ccc(O)cc2)oc2cc(O)cc(O)c12
REMARK SMILES IDX 5 1 3 2 2 3 1 4 21 5 19 6 18 7 16 8 15 9 14 10 13 11 6 12
REMARK SMILES IDX 7 13 8 14 9 15 12 16 11 17 10 18 4 20 20 22 17 24
REMARK H PARENT 10 19 4 21 20 23 17 25
REMARK Flexibility Score: inf
ROOT
ATOM      1  C   UNL     1     -24.101  -1.886   3.442  1.00  0.00     0.180 A 
ATOM      2  C   UNL     1     -24.233  -2.462   4.717  1.00  0.00     0.208 A 
ATOM      3  C   UNL     1     -25.516  -2.602   5.272  1.00  0.00     0.238 A 
ATOM      4  O   UNL     1     -25.621  -3.049   6.444  1.00  0.00    -0.285 OA
ATOM      5  C   UNL     1     -26.654  -2.218   4.522  1.00  0.00     0.111 A 
ATOM      6  C   UNL     1     -28.004  -2.357   4.965  1.00  0.00     0.134 A 
ATOM      7  C   UNL     1     -29.045  -1.845   4.181  1.00  0.00     0.093 A 
ATOM      8  C   UNL     1     -28.793  -1.256   2.943  1.00  0.00     0.123 A 
ATOM      9  C   UNL     1     -27.482  -1.165   2.474  1.00  0.00     0.094 A 
ATOM     10  C   UNL     1     -26.418  -1.632   3.250  1.00  0.00     0.146 A 
ATOM     11  O   UNL     1     -25.184  -1.505   2.776  1.00  0.00    -0.452 OA
ENDROOT
BRANCH   1  12
ATOM     12  C   UNL     1     -22.783  -1.691   2.797  1.00  0.00     0.021 A 
ATOM     13  C   UNL     1     -21.902  -0.678   3.220  1.00  0.00     0.016 A 
ATOM     14  C   UNL     1     -20.672  -0.498   2.579  1.00  0.00     0.047 A 
ATOM     15  C   UNL     1     -20.312  -1.314   1.504  1.00  0.00     0.115 A 
ATOM     16  C   UNL     1     -22.424  -2.494   1.702  1.00  0.00     0.016 A 
ATOM     17  C   UNL     1     -21.193  -2.311   1.064  1.00  0.00     0.047 A 
BRANCH  15  18
ATOM     18  O   UNL     1     -19.084  -1.124   0.876  1.00  0.00    -0.508 OA
ATOM     19  H   UNL     1     -18.990  -1.175  -0.132  1.00  0.00     0.293 HD
ENDBRANCH  15  18
ENDBRANCH   1  12
BRANCH   2  20
ATOM     20  O   UNL     1     -23.103  -2.905   5.410  1.00  0.00    -0.502 OA
ATOM     21  H   UNL     1     -22.813  -2.500   6.292  1.00  0.00     0.293 HD
ENDBRANCH   2  20
BRANCH   6  22
ATOM     22  O   UNL     1     -28.378  -3.007   6.145  1.00  0.00    -0.507 OA
ATOM     23  H   UNL     1     -27.808  -3.673   6.645  1.00  0.00     0.293 HD
ENDBRANCH   6  22
BRANCH   8  24
ATOM     24  O   UNL     1     -29.855  -0.773   2.182  1.00  0.00    -0.508 OA
ATOM     25  H   UNL     1     -30.393  -1.382   1.576  1.00  0.00     0.293 HD
ENDBRANCH   8  24
TORSDOF 5
ENDMDL
MODEL 8
REMARK VINA RESULT:    -4.842      6.023     10.914
REMARK INTER + INTRA:          -5.985
REMARK INTER:                  -5.901
REMARK INTRA:                  -0.085
REMARK UNBOUND:                -0.295
REMARK SMILES O=c1c(O)c(-c2ccc(O)cc2)oc2cc(O)cc(O)c12
REMARK SMILES IDX 5 1 3 2 2 3 1 4 21 5 19 6 18 7 16 8 15 9 14 10 13 11 6 12
REMARK SMILES IDX 7 13 8 14 9 15 12 16 11 17 10 18 4 20 20 22 17 24
REMARK H PARENT 10 19 4 21 20 23 17 25
REMARK Flexibility Score: inf
ROOT
ATOM      1  C   UNL     1     -24.278  -2.219   3.017  1.00  0.00     0.180 A 
ATOM      2  C   UNL     1     -25.448  -2.204   2.238  1.00  0.00     0.208 A 
ATOM      3  C   UNL     1     -26.678  -2.495   2.850  1.00  0.00     0.238 A 
ATOM      4  O   UNL     1     -27.710  -2.553   2.132  1.00  0.00    -0.285 OA
ATOM      5  C   UNL     1     -26.731  -2.743   4.243  1.00  0.00     0.111 A 
ATOM      6  C   UNL     1     -27.928  -3.004   4.977  1.00  0.00     0.134 A 
ATOM      7  C   UNL     1     -27.847  -3.339   6.334  1.00  0.00     0.093 A 
ATOM      8  C   UNL     1     -26.622  -3.362   6.999  1.00  0.00     0.123 A 
ATOM      9  C   UNL     1     -25.451  -3.054   6.306  1.00  0.00     0.094 A 
ATOM     10  C   UNL     1     -25.495  -2.753   4.942  1.00  0.00     0.146 A 
ATOM     11  O   UNL     1     -24.355  -2.487   4.315  1.00  0.00    -0.452 OA
ENDROOT
BRANCH   1  12
ATOM     12  C   UNL     1     -22.944  -1.937   2.442  1.00  0.00     0.021 A 
ATOM     13  C   UNL     1     -22.422  -2.708   1.385  1.00  0.00     0.016 A 
ATOM     14  C   UNL     1     -21.149  -2.437   0.875  1.00  0.00     0.047 A 
ATOM     15  C   UNL     1     -20.376  -1.408   1.419  1.00  0.00     0.115 A 
ATOM     16  C   UNL     1     -22.153  -0.918   2.998  1.00  0.00     0.016 A 
ATOM     17  C   UNL     1     -20.880  -0.650   2.485  1.00  0.00     0.047 A 
BRANCH  15  18
ATOM     18  O   UNL     1     -19.110  -1.149   0.900  1.00  0.00    -0.508 OA
ATOM     19  H   UNL     1     -18.485  -0.481   1.335  1.00  0.00     0.293 HD
ENDBRANCH  15  18
ENDBRANCH   1  12
BRANCH   2  20
ATOM     20  O   UNL     1     -25.385  -1.882   0.879  1.00  0.00    -0.502 OA
ATOM     21  H   UNL     1     -26.015  -2.283   0.196  1.00  0.00     0.293 HD
ENDBRANCH   2  20
BRANCH   6  22
ATOM     22  O   UNL     1     -29.213  -2.923   4.433  1.00  0.00    -0.507 OA
ATOM     23  H   UNL     1     -30.070  -2.968   4.963  1.00  0.00     0.293 HD
ENDBRANCH   6  22
BRANCH   8  24
ATOM     24  O   UNL     1     -26.581  -3.683   8.354  1.00  0.00    -0.508 OA
ATOM     25  H   UNL     1     -26.951  -4.560   8.703  1.00  0.00     0.293 HD
ENDBRANCH   8  24
TORSDOF 5
ENDMDL
MODEL 9
REMARK VINA RESULT:    -4.808      2.445      7.988
REMARK INTER + INTRA:          -5.946
REMARK INTER:                  -5.671
REMARK INTRA:                  -0.274
REMARK UNBOUND:                -0.295
REMARK SMILES O=c1c(O)c(-c2ccc(O)cc2)oc2cc(O)cc(O)c12
REMARK SMILES IDX 5 1 3 2 2 3 1 4 21 5 19 6 18 7 16 8 15 9 14 10 13 11 6 12
REMARK SMILES IDX 7 13 8 14 9 15 12 16 11 17 10 18 4 20 20 22 17 24
REMARK H PARENT 10 19 4 21 20 23 17 25
REMARK Flexibility Score: inf
ROOT
ATOM      1  C   UNL     1     -18.906  -2.038   3.207  1.00  0.00     0.180 A 
ATOM      2  C   UNL     1     -19.173  -2.898   2.127  1.00  0.00     0.208 A 
ATOM      3  C   UNL     1     -20.508  -3.181   1.795  1.00  0.00     0.238 A 
ATOM      4  O   UNL     1     -20.738  -4.010   0.876  1.00  0.00    -0.285 OA
ATOM      5  C   UNL     1     -21.560  -2.558   2.510  1.00  0.00     0.111 A 
ATOM      6  C   UNL     1     -22.948  -2.736   2.232  1.00  0.00     0.134 A 
ATOM      7  C   UNL     1     -23.902  -2.151   3.073  1.00  0.00     0.093 A 
ATOM      8  C   UNL     1     -23.521  -1.344   4.144  1.00  0.00     0.123 A 
ATOM      9  C   UNL     1     -22.167  -1.117   4.393  1.00  0.00     0.094 A 
ATOM     10  C   UNL     1     -21.191  -1.719   3.594  1.00  0.00     0.146 A 
ATOM     11  O   UNL     1     -19.913  -1.495   3.879  1.00  0.00    -0.452 OA
ENDROOT
BRANCH   1  12
ATOM     12  C   UNL     1     -17.527  -1.703   3.626  1.00  0.00     0.021 A 
ATOM     13  C   UNL     1     -16.879  -0.544   3.159  1.00  0.00     0.016 A 
ATOM     14  C   UNL     1     -15.567  -0.262   3.550  1.00  0.00     0.047 A 
ATOM     15  C   UNL     1     -14.881  -1.136   4.398  1.00  0.00     0.115 A 
ATOM     16  C   UNL     1     -16.824  -2.588   4.461  1.00  0.00     0.016 A 
ATOM     17  C   UNL     1     -15.512  -2.303   4.850  1.00  0.00     0.047 A 
BRANCH  15  18
ATOM     18  O   UNL     1     -13.574  -0.841   4.780  1.00  0.00    -0.508 OA
ATOM     19  H   UNL     1     -13.344   0.023   5.256  1.00  0.00     0.293 HD
ENDBRANCH  15  18
ENDBRANCH   1  12
BRANCH   2  20
ATOM     20  O   UNL     1     -18.122  -3.443   1.385  1.00  0.00    -0.502 OA
ATOM     21  H   UNL     1     -18.266  -4.155   0.679  1.00  0.00     0.293 HD
ENDBRANCH   2  20
BRANCH   6  22
ATOM     22  O   UNL     1     -23.442  -3.451   1.135  1.00  0.00    -0.507 OA
ATOM     23  H   UNL     1     -22.981  -3.532   0.243  1.00  0.00     0.293 HD
ENDBRANCH   6  22
BRANCH   8  24
ATOM     24  O   UNL     1     -24.498  -0.764   4.950  1.00  0.00    -0.508 OA
ATOM     25  H   UNL     1     -24.448  -0.813   5.962  1.00  0.00     0.293 HD
ENDBRANCH   8  24
TORSDOF 5
ENDMDL
