MODEL 1
REMARK VINA RESULT:    -4.672      0.000      0.000
REMARK INTER + INTRA:          -4.743
REMARK INTER:                  -5.765
REMARK INTRA:                   1.022
REMARK UNBOUND:                 1.022
REMARK SMILES C=C1[C@@H]2CC[C@H]3[C@@H]2C(C)(C)CCC[C@@]13C
REMARK SMILES IDX 14 1 6 2 7 3 3 4 2 5 1 6 4 7 5 8 15 9 8 10 9 11 10 12 11 13
REMARK SMILES IDX 13 15 12 16
REMARK H PARENT
REMARK Flexibility Score: 80.00
ROOT
ATOM      1  C   UNL     1     148.607 143.960 162.239  1.00  0.00    -0.008 C 
ATOM      2  C   UNL     1     148.502 143.524 163.752  1.00  0.00     0.003 C 
ATOM      3  C   UNL     1     148.348 144.851 164.528  1.00  0.00     0.006 C 
ATOM      4  C   UNL     1     149.569 145.495 163.884  1.00  0.00     0.019 C 
ATOM      5  C   UNL     1     149.286 145.297 162.422  1.00  0.00    -0.068 C 
ATOM      6  C   UNL     1     149.678 146.131 161.450  1.00  0.00     0.009 C 
ATOM      7  C   UNL     1     150.668 144.477 164.267  1.00  0.00     0.008 C 
ATOM      8  C   UNL     1     149.909 143.126 164.274  1.00  0.00     0.005 C 
ATOM      9  C   UNL     1     149.497 143.029 161.372  1.00  0.00     0.016 C 
ENDROOT
BRANCH   3  10
ATOM     10  C   UNL     1     146.981 145.636 164.517  1.00  0.00    -0.032 C 
ATOM     11  C   UNL     1     145.990 144.904 165.461  1.00  0.00     0.011 C 
ATOM     12  C   UNL     1     147.208 147.045 165.120  1.00  0.00     0.011 C 
BRANCH  10  13
ATOM     13  C   UNL     1     146.330 145.837 163.120  1.00  0.00     0.007 CG0
ATOM     14  G   UNL     1     146.043 144.540 162.362  1.00  0.00     0.000 G0
ENDBRANCH  10  13
ENDBRANCH   3  10
BRANCH   1  15
ATOM     15  C   UNL     1     147.229 144.071 161.521  1.00  0.00     0.011 C 
BRANCH  15  16
ATOM     16  C   UNL     1     146.045 144.548 162.358  1.00  0.00     0.001 CG0
ATOM     17  G   UNL     1     146.339 145.837 163.128  1.00  0.00     0.000 G0
ENDBRANCH  15  16
ENDBRANCH   1  15
TORSDOF 0
ENDMDL
MODEL 2
REMARK VINA RESULT:    -4.656      3.267      4.649
REMARK INTER + INTRA:          -4.723
REMARK INTER:                  -5.764
REMARK INTRA:                   1.040
REMARK UNBOUND:                 1.022
REMARK SMILES C=C1[C@@H]2CC[C@H]3[C@@H]2C(C)(C)CCC[C@@]13C
REMARK SMILES IDX 14 1 6 2 7 3 3 4 2 5 1 6 4 7 5 8 15 9 8 10 9 11 10 12 11 13
REMARK SMILES IDX 13 15 12 16
REMARK H PARENT
REMARK Flexibility Score: 80.00
ROOT
ATOM      1  C   UNL     1     144.269 141.792 162.299  1.00  0.00    -0.008 C 
ATOM      2  C   UNL     1     143.255 141.758 163.507  1.00  0.00     0.003 C 
ATOM      3  C   UNL     1     143.833 142.764 164.527  1.00  0.00     0.006 C 
ATOM      4  C   UNL     1     145.219 142.133 164.529  1.00  0.00     0.019 C 
ATOM      5  C   UNL     1     145.540 142.091 163.061  1.00  0.00    -0.068 C 
ATOM      6  C   UNL     1     146.772 142.195 162.547  1.00  0.00     0.009 C 
ATOM      7  C   UNL     1     144.877 140.686 164.951  1.00  0.00     0.008 C 
ATOM      8  C   UNL     1     143.475 140.460 164.330  1.00  0.00     0.005 C 
ATOM      9  C   UNL     1     144.408 140.438 161.550  1.00  0.00     0.016 C 
ENDROOT
BRANCH   3  10
ATOM     10  C   UNL     1     143.706 144.317 164.286  1.00  0.00    -0.032 C 
ATOM     11  C   UNL     1     142.246 144.742 164.597  1.00  0.00     0.011 C 
ATOM     12  C   UNL     1     144.609 145.057 165.304  1.00  0.00     0.011 C 
BRANCH  10  13
ATOM     13  C   UNL     1     144.111 144.815 162.871  1.00  0.00     0.007 CG0
ATOM     14  G   UNL     1     143.330 144.170 161.724  1.00  0.00     0.000 G0
ENDBRANCH  10  13
ENDBRANCH   3  10
BRANCH   1  15
ATOM     15  C   UNL     1     143.934 142.872 161.228  1.00  0.00     0.011 C 
BRANCH  15  16
ATOM     16  C   UNL     1     143.320 144.178 161.727  1.00  0.00     0.001 CG0
ATOM     17  G   UNL     1     144.109 144.810 162.874  1.00  0.00     0.000 G0
ENDBRANCH  15  16
ENDBRANCH   1  15
TORSDOF 0
ENDMDL
MODEL 3
REMARK VINA RESULT:    -4.647      1.187      2.397
REMARK INTER + INTRA:          -4.712
REMARK INTER:                  -5.758
REMARK INTRA:                   1.046
REMARK UNBOUND:                 1.022
REMARK SMILES C=C1[C@@H]2CC[C@H]3[C@@H]2C(C)(C)CCC[C@@]13C
REMARK SMILES IDX 14 1 6 2 7 3 3 4 2 5 1 6 4 7 5 8 15 9 8 10 9 11 10 12 11 13
REMARK SMILES IDX 13 15 12 16
REMARK H PARENT
REMARK Flexibility Score: 80.00
ROOT
ATOM      1  C   UNL     1     148.859 143.631 164.479  1.00  0.00    -0.008 C 
ATOM      2  C   UNL     1     149.505 145.006 164.906  1.00  0.00     0.003 C 
ATOM      3  C   UNL     1     149.026 146.010 163.833  1.00  0.00     0.006 C 
ATOM      4  C   UNL     1     149.489 145.150 162.665  1.00  0.00     0.019 C 
ATOM      5  C   UNL     1     148.845 143.829 162.981  1.00  0.00    -0.068 C 
ATOM      6  C   UNL     1     148.432 142.944 162.064  1.00  0.00     0.009 C 
ATOM      7  C   UNL     1     150.993 145.001 162.994  1.00  0.00     0.008 C 
ATOM      8  C   UNL     1     151.015 145.003 164.544  1.00  0.00     0.005 C 
ATOM      9  C   UNL     1     149.719 142.389 164.840  1.00  0.00     0.016 C 
ENDROOT
BRANCH   3  10
ATOM     10  C   UNL     1     147.544 146.548 163.839  1.00  0.00    -0.032 C 
ATOM     11  C   UNL     1     147.408 147.593 164.979  1.00  0.00     0.011 C 
ATOM     12  C   UNL     1     147.279 147.302 162.512  1.00  0.00     0.011 C 
BRANCH  10  13
ATOM     13  C   UNL     1     146.436 145.467 163.979  1.00  0.00     0.007 CG0
ATOM     14  G   UNL     1     146.527 144.626 165.253  1.00  0.00     0.000 G0
ENDBRANCH  10  13
ENDBRANCH   3  10
BRANCH   1  15
ATOM     15  C   UNL     1     147.440 143.393 165.075  1.00  0.00     0.011 C 
BRANCH  15  16
ATOM     16  C   UNL     1     146.541 144.616 165.242  1.00  0.00     0.001 CG0
ATOM     17  G   UNL     1     146.441 145.461 163.971  1.00  0.00     0.000 G0
ENDBRANCH  15  16
ENDBRANCH   1  15
TORSDOF 0
ENDMDL
MODEL 4
REMARK VINA RESULT:    -4.639      3.087      4.646
REMARK INTER + INTRA:          -4.702
REMARK INTER:                  -5.706
REMARK INTRA:                   1.004
REMARK UNBOUND:                 1.022
REMARK SMILES C=C1[C@@H]2CC[C@H]3[C@@H]2C(C)(C)CCC[C@@]13C
REMARK SMILES IDX 14 1 6 2 7 3 3 4 2 5 1 6 4 7 5 8 15 9 8 10 9 11 10 12 11 13
REMARK SMILES IDX 13 15 12 16
REMARK H PARENT
REMARK Flexibility Score: 80.00
ROOT
ATOM      1  C   UNL     1     146.844 148.619 162.177  1.00  0.00    -0.008 C 
ATOM      2  C   UNL     1     147.211 148.494 163.707  1.00  0.00     0.003 C 
ATOM      3  C   UNL     1     145.848 148.382 164.425  1.00  0.00     0.006 C 
ATOM      4  C   UNL     1     145.272 149.626 163.761  1.00  0.00     0.019 C 
ATOM      5  C   UNL     1     145.523 149.342 162.307  1.00  0.00    -0.068 C 
ATOM      6  C   UNL     1     144.744 149.765 161.303  1.00  0.00     0.009 C 
ATOM      7  C   UNL     1     146.309 150.689 164.192  1.00  0.00     0.008 C 
ATOM      8  C   UNL     1     147.633 149.886 164.253  1.00  0.00     0.005 C 
ATOM      9  C   UNL     1     147.840 149.482 161.355  1.00  0.00     0.016 C 
ENDROOT
BRANCH   3  10
ATOM     10  C   UNL     1     145.019 147.042 164.374  1.00  0.00    -0.032 C 
ATOM     11  C   UNL     1     145.669 146.028 165.354  1.00  0.00     0.011 C 
ATOM     12  C   UNL     1     143.590 147.316 164.904  1.00  0.00     0.011 C 
BRANCH  10  13
ATOM     13  C   UNL     1     144.870 146.395 162.969  1.00  0.00     0.007 CG0
ATOM     14  G   UNL     1     146.193 146.077 162.272  1.00  0.00     0.000 G0
ENDBRANCH  10  13
ENDBRANCH   3  10
BRANCH   1  15
ATOM     15  C   UNL     1     146.718 147.249 161.448  1.00  0.00     0.011 C 
BRANCH  15  16
ATOM     16  C   UNL     1     146.186 146.073 162.264  1.00  0.00     0.001 CG0
ATOM     17  G   UNL     1     144.870 146.388 162.976  1.00  0.00     0.000 G0
ENDBRANCH  15  16
ENDBRANCH   1  15
TORSDOF 0
ENDMDL
MODEL 5
REMARK VINA RESULT:    -4.611      4.025      6.396
REMARK INTER + INTRA:          -4.668
REMARK INTER:                  -5.673
REMARK INTRA:                   1.004
REMARK UNBOUND:                 1.022
REMARK SMILES C=C1[C@@H]2CC[C@H]3[C@@H]2C(C)(C)CCC[C@@]13C
REMARK SMILES IDX 14 1 6 2 7 3 3 4 2 5 1 6 4 7 5 8 15 9 8 10 9 11 10 12 11 13
REMARK SMILES IDX 13 15 12 16
REMARK H PARENT
REMARK Flexibility Score: 80.00
ROOT
ATOM      1  C   UNL     1     141.861 146.432 162.251  1.00  0.00    -0.008 C 
ATOM      2  C   UNL     1     141.789 147.465 163.441  1.00  0.00     0.003 C 
ATOM      3  C   UNL     1     142.812 146.941 164.473  1.00  0.00     0.006 C 
ATOM      4  C   UNL     1     142.230 145.534 164.498  1.00  0.00     0.019 C 
ATOM      5  C   UNL     1     142.202 145.186 163.036  1.00  0.00    -0.068 C 
ATOM      6  C   UNL     1     142.351 143.950 162.543  1.00  0.00     0.009 C 
ATOM      7  C   UNL     1     140.770 145.832 164.911  1.00  0.00     0.008 C 
ATOM      8  C   UNL     1     140.497 147.214 164.265  1.00  0.00     0.005 C 
ATOM      9  C   UNL     1     140.516 146.233 161.502  1.00  0.00     0.016 C 
ENDROOT
BRANCH   3  10
ATOM     10  C   UNL     1     144.360 147.117 164.234  1.00  0.00    -0.032 C 
ATOM     11  C   UNL     1     144.737 148.591 164.545  1.00  0.00     0.011 C 
ATOM     12  C   UNL     1     145.128 146.239 165.252  1.00  0.00     0.011 C 
BRANCH  10  13
ATOM     13  C   UNL     1     144.871 146.729 162.818  1.00  0.00     0.007 CG0
ATOM     14  G   UNL     1     144.200 147.486 161.671  1.00  0.00     0.000 G0
ENDBRANCH  10  13
ENDBRANCH   3  10
BRANCH   1  15
ATOM     15  C   UNL     1     142.932 146.786 161.177  1.00  0.00     0.011 C 
BRANCH  15  16
ATOM     16  C   UNL     1     144.205 147.474 161.664  1.00  0.00     0.001 CG0
ATOM     17  G   UNL     1     144.875 146.736 162.825  1.00  0.00     0.000 G0
ENDBRANCH  15  16
ENDBRANCH   1  15
TORSDOF 0
ENDMDL
MODEL 6
REMARK VINA RESULT:    -4.598      3.422      5.316
REMARK INTER + INTRA:          -4.652
REMARK INTER:                  -5.680
REMARK INTRA:                   1.028
REMARK UNBOUND:                 1.022
REMARK SMILES C=C1[C@@H]2CC[C@H]3[C@@H]2C(C)(C)CCC[C@@]13C
REMARK SMILES IDX 14 1 6 2 7 3 3 4 2 5 1 6 4 7 5 8 15 9 8 10 9 11 10 12 11 13
REMARK SMILES IDX 13 15 12 16
REMARK H PARENT
REMARK Flexibility Score: 80.00
ROOT
ATOM      1  C   UNL     1     146.980 148.781 164.491  1.00  0.00    -0.008 C 
ATOM      2  C   UNL     1     145.630 149.495 164.887  1.00  0.00     0.003 C 
ATOM      3  C   UNL     1     144.632 149.076 163.785  1.00  0.00     0.006 C 
ATOM      4  C   UNL     1     145.545 149.502 162.643  1.00  0.00     0.019 C 
ATOM      5  C   UNL     1     146.822 148.787 162.988  1.00  0.00    -0.068 C 
ATOM      6  C   UNL     1     147.708 148.336 162.091  1.00  0.00     0.009 C 
ATOM      7  C   UNL     1     145.764 150.993 162.989  1.00  0.00     0.008 C 
ATOM      8  C   UNL     1     145.721 151.005 164.538  1.00  0.00     0.005 C 
ATOM      9  C   UNL     1     148.256 149.571 164.891  1.00  0.00     0.016 C 
ENDROOT
BRANCH   3  10
ATOM     10  C   UNL     1     144.018 147.624 163.764  1.00  0.00    -0.032 C 
ATOM     11  C   UNL     1     142.927 147.539 164.865  1.00  0.00     0.011 C 
ATOM     12  C   UNL     1     143.299 147.403 162.410  1.00  0.00     0.011 C 
BRANCH  10  13
ATOM     13  C   UNL     1     145.033 146.460 163.937  1.00  0.00     0.007 CG0
ATOM     14  G   UNL     1     145.852 146.519 165.227  1.00  0.00     0.000 G0
ENDBRANCH  10  13
ENDBRANCH   3  10
BRANCH   1  15
ATOM     15  C   UNL     1     147.129 147.347 165.081  1.00  0.00     0.011 C 
BRANCH  15  16
ATOM     16  C   UNL     1     145.855 146.518 165.222  1.00  0.00     0.001 CG0
ATOM     17  G   UNL     1     145.022 146.480 163.940  1.00  0.00     0.000 G0
ENDBRANCH  15  16
ENDBRANCH   1  15
TORSDOF 0
ENDMDL
MODEL 7
REMARK VINA RESULT:    -4.596      4.136      6.711
REMARK INTER + INTRA:          -4.649
REMARK INTER:                  -5.658
REMARK INTRA:                   1.009
REMARK UNBOUND:                 1.022
REMARK SMILES C=C1[C@@H]2CC[C@H]3[C@@H]2C(C)(C)CCC[C@@]13C
REMARK SMILES IDX 14 1 6 2 7 3 3 4 2 5 1 6 4 7 5 8 15 9 8 10 9 11 10 12 11 13
REMARK SMILES IDX 13 15 12 16
REMARK H PARENT
REMARK Flexibility Score: 80.00
ROOT
ATOM      1  C   UNL     1     142.329 146.774 164.576  1.00  0.00    -0.008 C 
ATOM      2  C   UNL     1     141.550 145.439 164.893  1.00  0.00     0.003 C 
ATOM      3  C   UNL     1     141.941 144.480 163.747  1.00  0.00     0.006 C 
ATOM      4  C   UNL     1     141.574 145.468 162.648  1.00  0.00     0.019 C 
ATOM      5  C   UNL     1     142.339 146.692 163.067  1.00  0.00    -0.068 C 
ATOM      6  C   UNL     1     142.842 147.602 162.223  1.00  0.00     0.009 C 
ATOM      7  C   UNL     1     140.088 145.736 162.985  1.00  0.00     0.008 C 
ATOM      8  C   UNL     1     140.051 145.616 164.530  1.00  0.00     0.005 C 
ATOM      9  C   UNL     1     141.589 148.062 165.031  1.00  0.00     0.016 C 
ENDROOT
BRANCH   3  10
ATOM     10  C   UNL     1     143.365 143.803 163.714  1.00  0.00    -0.032 C 
ATOM     11  C   UNL     1     143.381 142.649 164.752  1.00  0.00     0.011 C 
ATOM     12  C   UNL     1     143.578 143.152 162.324  1.00  0.00     0.011 C 
BRANCH  10  13
ATOM     13  C   UNL     1     144.569 144.754 163.963  1.00  0.00     0.007 CG0
ATOM     14  G   UNL     1     144.515 145.512 165.290  1.00  0.00     0.000 G0
ENDBRANCH  10  13
ENDBRANCH   3  10
BRANCH   1  15
ATOM     15  C   UNL     1     143.758 146.828 165.192  1.00  0.00     0.011 C 
BRANCH  15  16
ATOM     16  C   UNL     1     144.528 145.513 165.280  1.00  0.00     0.001 CG0
ATOM     17  G   UNL     1     144.562 144.751 163.954  1.00  0.00     0.000 G0
ENDBRANCH  15  16
ENDBRANCH   1  15
TORSDOF 0
ENDMDL
MODEL 8
REMARK VINA RESULT:    -4.581      1.268      1.681
REMARK INTER + INTRA:          -4.630
REMARK INTER:                  -5.677
REMARK INTRA:                   1.047
REMARK UNBOUND:                 1.022
REMARK SMILES C=C1[C@@H]2CC[C@H]3[C@@H]2C(C)(C)CCC[C@@]13C
REMARK SMILES IDX 14 1 6 2 7 3 3 4 2 5 1 6 4 7 5 8 15 9 8 10 9 11 10 12 11 13
REMARK SMILES IDX 13 15 12 16
REMARK H PARENT
REMARK Flexibility Score: 80.00
ROOT
ATOM      1  C   UNL     1     148.952 144.368 162.230  1.00  0.00    -0.008 C 
ATOM      2  C   UNL     1     149.026 143.312 163.400  1.00  0.00     0.003 C 
ATOM      3  C   UNL     1     147.977 143.795 164.427  1.00  0.00     0.006 C 
ATOM      4  C   UNL     1     148.531 145.213 164.489  1.00  0.00     0.019 C 
ATOM      5  C   UNL     1     148.574 145.590 163.035  1.00  0.00    -0.068 C 
ATOM      6  C   UNL     1     148.409 146.834 162.566  1.00  0.00     0.009 C 
ATOM      7  C   UNL     1     149.990 144.934 164.919  1.00  0.00     0.008 C 
ATOM      8  C   UNL     1     150.300 143.571 164.250  1.00  0.00     0.005 C 
ATOM      9  C   UNL     1     150.305 144.609 161.507  1.00  0.00     0.016 C 
ENDROOT
BRANCH   3  10
ATOM     10  C   UNL     1     146.437 143.594 164.159  1.00  0.00    -0.032 C 
ATOM     11  C   UNL     1     146.091 142.100 164.400  1.00  0.00     0.011 C 
ATOM     12  C   UNL     1     145.636 144.408 165.205  1.00  0.00     0.011 C 
BRANCH  10  13
ATOM     13  C   UNL     1     145.934 144.033 162.756  1.00  0.00     0.007 CG0
ATOM     14  G   UNL     1     146.620 143.326 161.586  1.00  0.00     0.000 G0
ENDBRANCH  10  13
ENDBRANCH   3  10
BRANCH   1  15
ATOM     15  C   UNL     1     147.904 144.016 161.132  1.00  0.00     0.011 C 
BRANCH  15  16
ATOM     16  C   UNL     1     146.624 143.322 161.590  1.00  0.00     0.001 CG0
ATOM     17  G   UNL     1     145.946 144.032 162.762  1.00  0.00     0.000 G0
ENDBRANCH  15  16
ENDBRANCH   1  15
TORSDOF 0
ENDMDL
MODEL 9
REMARK VINA RESULT:    -4.574      3.320      5.119
REMARK INTER + INTRA:          -4.622
REMARK INTER:                  -5.644
REMARK INTRA:                   1.022
REMARK UNBOUND:                 1.022
REMARK SMILES C=C1[C@@H]2CC[C@H]3[C@@H]2C(C)(C)CCC[C@@]13C
REMARK SMILES IDX 14 1 6 2 7 3 3 4 2 5 1 6 4 7 5 8 15 9 8 10 9 11 10 12 11 13
REMARK SMILES IDX 13 15 12 16
REMARK H PARENT
REMARK Flexibility Score: 80.00
ROOT
ATOM      1  C   UNL     1     143.647 141.953 164.352  1.00  0.00    -0.008 C 
ATOM      2  C   UNL     1     145.005 141.263 164.762  1.00  0.00     0.003 C 
ATOM      3  C   UNL     1     146.030 141.776 163.725  1.00  0.00     0.006 C 
ATOM      4  C   UNL     1     145.175 141.386 162.526  1.00  0.00     0.019 C 
ATOM      5  C   UNL     1     143.862 142.037 162.858  1.00  0.00    -0.068 C 
ATOM      6  C   UNL     1     142.995 142.509 161.953  1.00  0.00     0.009 C 
ATOM      7  C   UNL     1     144.997 139.871 162.780  1.00  0.00     0.008 C 
ATOM      8  C   UNL     1     144.981 139.773 164.327  1.00  0.00     0.005 C 
ATOM      9  C   UNL     1     142.386 141.099 164.657  1.00  0.00     0.016 C 
ENDROOT
BRANCH   3  10
ATOM     10  C   UNL     1     146.592 143.247 163.809  1.00  0.00    -0.032 C 
ATOM     11  C   UNL     1     147.638 143.305 164.954  1.00  0.00     0.011 C 
ATOM     12  C   UNL     1     147.352 143.568 162.498  1.00  0.00     0.011 C 
BRANCH  10  13
ATOM     13  C   UNL     1     145.530 144.364 164.007  1.00  0.00     0.007 CG0
ATOM     14  G   UNL     1     144.666 144.204 165.258  1.00  0.00     0.000 G0
ENDBRANCH  10  13
ENDBRANCH   3  10
BRANCH   1  15
ATOM     15  C   UNL     1     143.425 143.346 165.014  1.00  0.00     0.011 C 
BRANCH  15  16
ATOM     16  C   UNL     1     144.663 144.207 165.253  1.00  0.00     0.001 CG0
ATOM     17  G   UNL     1     145.538 144.354 164.007  1.00  0.00     0.000 G0
ENDBRANCH  15  16
ENDBRANCH   1  15
TORSDOF 0
ENDMDL
