MODEL 1
REMARK VINA RESULT:    -2.347      0.000      0.000
REMARK INTER + INTRA:          -2.347
REMARK INTER:                  -2.347
REMARK INTRA:                   0.000
REMARK UNBOUND:                 0.000
REMARK SMILES CC(=O)[O-]
REMARK SMILES IDX 1 1 2 2 3 3 4 4
REMARK H PARENT
REMARK Flexibility Score: inf
ROOT
ATOM      1  C   UNL     1      -5.472  -5.215  28.271  1.00  0.00     0.063 C 
ATOM      2  C   UNL     1      -5.514  -3.797  28.730  1.00  0.00     0.038 C 
ATOM      3  O   UNL     1      -5.619  -2.864  27.891  1.00  0.00    -0.550 OA
ATOM      4  O   UNL     1      -5.382  -3.498  30.080  1.00  0.00    -0.550 OA
ENDROOT
TORSDOF 0
ENDMDL
MODEL 2
REMARK VINA RESULT:    -2.289      0.490      1.689
REMARK INTER + INTRA:          -2.289
REMARK INTER:                  -2.289
REMARK INTRA:                   0.000
REMARK UNBOUND:                 0.000
REMARK SMILES CC(=O)[O-]
REMARK SMILES IDX 1 1 2 2 3 3 4 4
REMARK H PARENT
REMARK Flexibility Score: inf
ROOT
ATOM      1  C   UNL     1      -5.395  -4.821  28.433  1.00  0.00     0.063 C 
ATOM      2  C   UNL     1      -5.255  -3.412  28.901  1.00  0.00     0.038 C 
ATOM      3  O   UNL     1      -5.072  -3.166  30.122  1.00  0.00    -0.550 OA
ATOM      4  O   UNL     1      -5.380  -2.363  27.999  1.00  0.00    -0.550 OA
ENDROOT
TORSDOF 0
ENDMDL
MODEL 3
REMARK VINA RESULT:    -2.250      1.476      2.110
REMARK INTER + INTRA:          -2.250
REMARK INTER:                  -2.250
REMARK INTRA:                   0.000
REMARK UNBOUND:                 0.000
REMARK SMILES CC(=O)[O-]
REMARK SMILES IDX 1 1 2 2 3 3 4 4
REMARK H PARENT
REMARK Flexibility Score: inf
ROOT
ATOM      1  C   UNL     1      -5.862  -3.522  28.248  1.00  0.00     0.063 C 
ATOM      2  C   UNL     1      -5.292  -2.492  29.163  1.00  0.00     0.038 C 
ATOM      3  O   UNL     1      -4.554  -2.838  30.122  1.00  0.00    -0.550 OA
ATOM      4  O   UNL     1      -5.619  -1.153  28.993  1.00  0.00    -0.550 OA
ENDROOT
TORSDOF 0
ENDMDL
MODEL 4
REMARK VINA RESULT:    -2.249      1.742      2.841
REMARK INTER + INTRA:          -2.249
REMARK INTER:                  -2.249
REMARK INTRA:                   0.000
REMARK UNBOUND:                 0.000
REMARK SMILES CC(=O)[O-]
REMARK SMILES IDX 1 1 2 2 3 3 4 4
REMARK H PARENT
REMARK Flexibility Score: inf
ROOT
ATOM      1  C   UNL     1      -5.292  -0.827  28.966  1.00  0.00     0.063 C 
ATOM      2  C   UNL     1      -5.299  -2.314  29.067  1.00  0.00     0.038 C 
ATOM      3  O   UNL     1      -4.888  -2.879  30.114  1.00  0.00    -0.550 OA
ATOM      4  O   UNL     1      -5.707  -3.083  27.985  1.00  0.00    -0.550 OA
ENDROOT
TORSDOF 0
ENDMDL
MODEL 5
REMARK VINA RESULT:    -2.231      2.478      2.963
REMARK INTER + INTRA:          -2.231
REMARK INTER:                  -2.231
REMARK INTRA:                   0.000
REMARK UNBOUND:                 0.000
REMARK SMILES CC(=O)[O-]
REMARK SMILES IDX 1 1 2 2 3 3 4 4
REMARK H PARENT
REMARK Flexibility Score: inf
ROOT
ATOM      1  C   UNL     1      -5.430  -2.722  28.380  1.00  0.00     0.063 C 
ATOM      2  C   UNL     1      -4.956  -1.309  28.414  1.00  0.00     0.038 C 
ATOM      3  O   UNL     1      -5.552  -0.460  29.127  1.00  0.00    -0.550 OA
ATOM      4  O   UNL     1      -3.890  -0.913  27.617  1.00  0.00    -0.550 OA
ENDROOT
TORSDOF 0
ENDMDL
MODEL 6
REMARK VINA RESULT:    -2.188      1.968      2.293
REMARK INTER + INTRA:          -2.188
REMARK INTER:                  -2.188
REMARK INTRA:                   0.000
REMARK UNBOUND:                 0.000
REMARK SMILES CC(=O)[O-]
REMARK SMILES IDX 1 1 2 2 3 3 4 4
REMARK H PARENT
REMARK Flexibility Score: inf
ROOT
ATOM      1  C   UNL     1      -5.765  -3.320  28.451  1.00  0.00     0.063 C 
ATOM      2  C   UNL     1      -4.979  -4.587  28.407  1.00  0.00     0.038 C 
ATOM      3  O   UNL     1      -3.741  -4.571  28.632  1.00  0.00    -0.550 OA
ATOM      4  O   UNL     1      -5.601  -5.780  28.063  1.00  0.00    -0.550 OA
ENDROOT
TORSDOF 0
ENDMDL
MODEL 7
REMARK VINA RESULT:    -2.015      2.793      3.268
REMARK INTER + INTRA:          -2.015
REMARK INTER:                  -2.015
REMARK INTRA:                   0.000
REMARK UNBOUND:                 0.000
REMARK SMILES CC(=O)[O-]
REMARK SMILES IDX 1 1 2 2 3 3 4 4
REMARK H PARENT
REMARK Flexibility Score: inf
ROOT
ATOM      1  C   UNL     1      -3.360  -0.956  28.358  1.00  0.00     0.063 C 
ATOM      2  C   UNL     1      -4.826  -1.132  28.562  1.00  0.00     0.038 C 
ATOM      3  O   UNL     1      -5.415  -2.139  28.088  1.00  0.00    -0.550 OA
ATOM      4  O   UNL     1      -5.558  -0.159  29.230  1.00  0.00    -0.550 OA
ENDROOT
TORSDOF 0
ENDMDL
MODEL 8
REMARK VINA RESULT:    -1.994      1.815      2.053
REMARK INTER + INTRA:          -1.994
REMARK INTER:                  -1.994
REMARK INTRA:                   0.000
REMARK UNBOUND:                 0.000
REMARK SMILES CC(=O)[O-]
REMARK SMILES IDX 1 1 2 2 3 3 4 4
REMARK H PARENT
REMARK Flexibility Score: inf
ROOT
ATOM      1  C   UNL     1      -5.160  -4.551  28.656  1.00  0.00     0.063 C 
ATOM      2  C   UNL     1      -4.027  -3.741  29.188  1.00  0.00     0.038 C 
ATOM      3  O   UNL     1      -2.869  -4.231  29.239  1.00  0.00    -0.550 OA
ATOM      4  O   UNL     1      -4.256  -2.462  29.679  1.00  0.00    -0.550 OA
ENDROOT
TORSDOF 0
ENDMDL
MODEL 9
REMARK VINA RESULT:    -1.938      8.294      8.747
REMARK INTER + INTRA:          -1.938
REMARK INTER:                  -1.938
REMARK INTRA:                   0.000
REMARK UNBOUND:                 0.000
REMARK SMILES CC(=O)[O-]
REMARK SMILES IDX 1 1 2 2 3 3 4 4
REMARK H PARENT
REMARK Flexibility Score: inf
ROOT
ATOM      1  C   UNL     1      -4.640 -10.996  27.232  1.00  0.00     0.063 C 
ATOM      2  C   UNL     1      -4.697 -11.848  26.010  1.00  0.00     0.038 C 
ATOM      3  O   UNL     1      -5.017 -13.062  26.101  1.00  0.00    -0.550 OA
ATOM      4  O   UNL     1      -4.344 -11.319  24.775  1.00  0.00    -0.550 OA
ENDROOT
TORSDOF 0
ENDMDL
