MODEL 1
REMARK VINA RESULT:    -3.382      0.000      0.000
REMARK INTER + INTRA:         -11.142
REMARK INTER:                  -7.336
REMARK INTRA:                  -3.806
REMARK UNBOUND:                -3.806
REMARK SMILES CCCCCCCCCCCCCCCCCCCCCC(=O)[O-]
REMARK SMILES IDX 12 1 11 2 10 3 9 4 8 5 7 6 6 7 5 8 4 9 3 10 2 11 1 12 13 13
REMARK SMILES IDX 14 14 15 15 16 16 17 17 18 18 19 19 20 20 21 21 22 22 23 23
REMARK SMILES IDX 24 24
REMARK H PARENT
REMARK Flexibility Score: inf
ROOT
ATOM      1  C   UNL     1      28.139  11.580  24.541  1.00  0.00     0.000 C 
ENDROOT
BRANCH   1   2
ATOM      2  C   UNL     1      27.353  10.292  24.243  1.00  0.00     0.000 C 
BRANCH   2   3
ATOM      3  C   UNL     1      27.867   9.561  22.991  1.00  0.00     0.000 C 
BRANCH   3   4
ATOM      4  C   UNL     1      28.038   8.050  23.210  1.00  0.00    -0.000 C 
BRANCH   4   5
ATOM      5  C   UNL     1      26.829   7.278  22.665  1.00  0.00    -0.000 C 
BRANCH   5   6
ATOM      6  C   UNL     1      26.221   6.368  23.743  1.00  0.00    -0.000 C 
BRANCH   6   7
ATOM      7  C   UNL     1      25.379   7.142  24.774  1.00  0.00    -0.000 C 
BRANCH   7   8
ATOM      8  C   UNL     1      26.014   7.260  26.172  1.00  0.00    -0.000 C 
BRANCH   8   9
ATOM      9  C   UNL     1      25.055   7.726  27.283  1.00  0.00    -0.000 C 
BRANCH   9  10
ATOM     10  C   UNL     1      25.708   8.684  28.304  1.00  0.00    -0.000 C 
BRANCH  10  11
ATOM     11  C   UNL     1      24.863   9.944  28.547  1.00  0.00    -0.003 C 
ATOM     12  C   UNL     1      25.483  11.161  27.866  1.00  0.00     0.004 C 
ENDBRANCH  10  11
ENDBRANCH   9  10
ENDBRANCH   8   9
ENDBRANCH   7   8
ENDBRANCH   6   7
ENDBRANCH   5   6
ENDBRANCH   4   5
ENDBRANCH   3   4
ENDBRANCH   2   3
ENDBRANCH   1   2
BRANCH   1  13
ATOM     13  C   UNL     1      29.566  11.563  23.960  1.00  0.00     0.000 C 
BRANCH  13  14
ATOM     14  C   UNL     1      30.671  12.047  24.919  1.00  0.00     0.000 C 
BRANCH  14  15
ATOM     15  C   UNL     1      31.636  10.929  25.342  1.00  0.00     0.000 C 
BRANCH  15  16
ATOM     16  C   UNL     1      31.173   9.569  24.795  1.00  0.00     0.000 C 
BRANCH  16  17
ATOM     17  C   UNL     1      30.933   8.528  25.905  1.00  0.00     0.000 C 
BRANCH  17  18
ATOM     18  C   UNL     1      29.500   8.497  26.467  1.00  0.00     0.000 C 
BRANCH  18  19
ATOM     19  C   UNL     1      29.437   8.885  27.956  1.00  0.00     0.000 C 
BRANCH  19  20
ATOM     20  C   UNL     1      29.087  10.367  28.170  1.00  0.00     0.006 C 
BRANCH  20  21
ATOM     21  C   UNL     1      30.270  11.192  28.697  1.00  0.00     0.053 C 
BRANCH  21  22
ATOM     22  C   UNL     1      29.802  12.207  29.693  1.00  0.00     0.041 C 
ATOM     23  O   UNL     1      30.578  12.613  30.598  1.00  0.00    -0.550 OA
ATOM     24  O   UNL     1      28.502  12.695  29.631  1.00  0.00    -0.550 OA
ENDBRANCH  21  22
ENDBRANCH  20  21
ENDBRANCH  19  20
ENDBRANCH  18  19
ENDBRANCH  17  18
ENDBRANCH  16  17
ENDBRANCH  15  16
ENDBRANCH  14  15
ENDBRANCH  13  14
ENDBRANCH   1  13
TORSDOF 20
ENDMDL
MODEL 2
REMARK VINA RESULT:    -3.357      1.238      3.055
REMARK INTER + INTRA:         -11.088
REMARK INTER:                  -7.133
REMARK INTRA:                  -3.955
REMARK UNBOUND:                -3.806
REMARK SMILES CCCCCCCCCCCCCCCCCCCCCC(=O)[O-]
REMARK SMILES IDX 12 1 11 2 10 3 9 4 8 5 7 6 6 7 5 8 4 9 3 10 2 11 1 12 13 13
REMARK SMILES IDX 14 14 15 15 16 16 17 17 18 18 19 19 20 20 21 21 22 22 23 23
REMARK SMILES IDX 24 24
REMARK H PARENT
REMARK Flexibility Score: inf
ROOT
ATOM      1  C   UNL     1      27.910  11.808  24.901  1.00  0.00     0.000 C 
ENDROOT
BRANCH   1   2
ATOM      2  C   UNL     1      27.179  10.531  25.348  1.00  0.00     0.000 C 
BRANCH   2   3
ATOM      3  C   UNL     1      25.710  10.500  24.895  1.00  0.00     0.000 C 
BRANCH   3   4
ATOM      4  C   UNL     1      25.063   9.117  25.059  1.00  0.00    -0.000 C 
BRANCH   4   5
ATOM      5  C   UNL     1      25.244   8.594  26.490  1.00  0.00    -0.000 C 
BRANCH   5   6
ATOM      6  C   UNL     1      25.139   7.063  26.538  1.00  0.00    -0.000 C 
BRANCH   6   7
ATOM      7  C   UNL     1      26.504   6.366  26.393  1.00  0.00    -0.000 C 
BRANCH   7   8
ATOM      8  C   UNL     1      26.749   5.699  25.026  1.00  0.00    -0.000 C 
BRANCH   8   9
ATOM      9  C   UNL     1      28.222   5.656  24.578  1.00  0.00    -0.000 C 
BRANCH   9  10
ATOM     10  C   UNL     1      28.476   6.334  23.215  1.00  0.00    -0.000 C 
BRANCH  10  11
ATOM     11  C   UNL     1      27.798   7.708  23.109  1.00  0.00    -0.003 C 
ATOM     12  C   UNL     1      28.532   8.610  22.121  1.00  0.00     0.004 C 
ENDBRANCH  10  11
ENDBRANCH   9  10
ENDBRANCH   8   9
ENDBRANCH   7   8
ENDBRANCH   6   7
ENDBRANCH   5   6
ENDBRANCH   4   5
ENDBRANCH   3   4
ENDBRANCH   2   3
ENDBRANCH   1   2
BRANCH   1  13
ATOM     13  C   UNL     1      29.269  11.522  24.234  1.00  0.00     0.000 C 
BRANCH  13  14
ATOM     14  C   UNL     1      30.501  12.019  25.015  1.00  0.00     0.000 C 
BRANCH  14  15
ATOM     15  C   UNL     1      31.546  10.919  25.257  1.00  0.00     0.000 C 
BRANCH  15  16
ATOM     16  C   UNL     1      31.076   9.578  24.672  1.00  0.00     0.000 C 
BRANCH  16  17
ATOM     17  C   UNL     1      30.888   8.490  25.746  1.00  0.00     0.000 C 
BRANCH  17  18
ATOM     18  C   UNL     1      29.533   8.524  26.475  1.00  0.00     0.000 C 
BRANCH  18  19
ATOM     19  C   UNL     1      29.675   8.805  27.983  1.00  0.00     0.000 C 
BRANCH  19  20
ATOM     20  C   UNL     1      29.177  10.205  28.376  1.00  0.00     0.006 C 
BRANCH  20  21
ATOM     21  C   UNL     1      30.318  11.175  28.714  1.00  0.00     0.053 C 
BRANCH  21  22
ATOM     22  C   UNL     1      30.458  11.328  30.196  1.00  0.00     0.041 C 
ATOM     23  O   UNL     1      31.125  10.491  30.861  1.00  0.00    -0.550 OA
ATOM     24  O   UNL     1      29.841  12.390  30.847  1.00  0.00    -0.550 OA
ENDBRANCH  21  22
ENDBRANCH  20  21
ENDBRANCH  19  20
ENDBRANCH  18  19
ENDBRANCH  17  18
ENDBRANCH  16  17
ENDBRANCH  15  16
ENDBRANCH  14  15
ENDBRANCH  13  14
ENDBRANCH   1  13
TORSDOF 20
ENDMDL
MODEL 3
REMARK VINA RESULT:    -3.353      3.738      5.327
REMARK INTER + INTRA:         -11.079
REMARK INTER:                  -7.193
REMARK INTRA:                  -3.886
REMARK UNBOUND:                -3.806
REMARK SMILES CCCCCCCCCCCCCCCCCCCCCC(=O)[O-]
REMARK SMILES IDX 12 1 11 2 10 3 9 4 8 5 7 6 6 7 5 8 4 9 3 10 2 11 1 12 13 13
REMARK SMILES IDX 14 14 15 15 16 16 17 17 18 18 19 19 20 20 21 21 22 22 23 23
REMARK SMILES IDX 24 24
REMARK H PARENT
REMARK Flexibility Score: inf
ROOT
ATOM      1  C   UNL     1      25.238   6.263  24.387  1.00  0.00     0.000 C 
ENDROOT
BRANCH   1   2
ATOM      2  C   UNL     1      24.649   6.632  23.014  1.00  0.00     0.000 C 
BRANCH   2   3
ATOM      3  C   UNL     1      25.210   7.955  22.466  1.00  0.00     0.000 C 
BRANCH   3   4
ATOM      4  C   UNL     1      24.516   9.190  23.060  1.00  0.00    -0.000 C 
BRANCH   4   5
ATOM      5  C   UNL     1      25.527  10.094  23.778  1.00  0.00    -0.000 C 
BRANCH   5   6
ATOM      6  C   UNL     1      25.147  10.287  25.253  1.00  0.00    -0.000 C 
BRANCH   6   7
ATOM      7  C   UNL     1      23.625  10.320  25.479  1.00  0.00    -0.000 C 
BRANCH   7   8
ATOM      8  C   UNL     1      23.162   9.802  26.854  1.00  0.00    -0.000 C 
BRANCH   8   9
ATOM      9  C   UNL     1      22.760  10.897  27.859  1.00  0.00    -0.000 C 
BRANCH   9  10
ATOM     10  C   UNL     1      23.792  11.113  28.987  1.00  0.00    -0.000 C 
BRANCH  10  11
ATOM     11  C   UNL     1      24.969  11.995  28.543  1.00  0.00    -0.003 C 
ATOM     12  C   UNL     1      24.494  13.396  28.166  1.00  0.00     0.004 C 
ENDBRANCH  10  11
ENDBRANCH   9  10
ENDBRANCH   8   9
ENDBRANCH   7   8
ENDBRANCH   6   7
ENDBRANCH   5   6
ENDBRANCH   4   5
ENDBRANCH   3   4
ENDBRANCH   2   3
ENDBRANCH   1   2
BRANCH   1  13
ATOM     13  C   UNL     1      26.664   5.686  24.296  1.00  0.00     0.000 C 
BRANCH  13  14
ATOM     14  C   UNL     1      27.669   6.258  25.313  1.00  0.00     0.000 C 
BRANCH  14  15
ATOM     15  C   UNL     1      28.138   7.678  24.965  1.00  0.00     0.000 C 
BRANCH  15  16
ATOM     16  C   UNL     1      28.206   8.558  26.223  1.00  0.00     0.000 C 
BRANCH  16  17
ATOM     17  C   UNL     1      27.638   7.861  27.473  1.00  0.00     0.000 C 
BRANCH  17  18
ATOM     18  C   UNL     1      26.582   8.672  28.246  1.00  0.00     0.000 C 
BRANCH  18  19
ATOM     19  C   UNL     1      25.511   7.781  28.903  1.00  0.00     0.000 C 
BRANCH  19  20
ATOM     20  C   UNL     1      24.911   6.755  27.927  1.00  0.00     0.006 C 
BRANCH  20  21
ATOM     21  C   UNL     1      24.415   5.482  28.626  1.00  0.00     0.053 C 
BRANCH  21  22
ATOM     22  C   UNL     1      25.567   4.700  29.176  1.00  0.00     0.041 C 
ATOM     23  O   UNL     1      26.479   4.288  28.410  1.00  0.00    -0.550 OA
ATOM     24  O   UNL     1      25.628   4.413  30.535  1.00  0.00    -0.550 OA
ENDBRANCH  21  22
ENDBRANCH  20  21
ENDBRANCH  19  20
ENDBRANCH  18  19
ENDBRANCH  17  18
ENDBRANCH  16  17
ENDBRANCH  15  16
ENDBRANCH  14  15
ENDBRANCH  13  14
ENDBRANCH   1  13
TORSDOF 20
ENDMDL
MODEL 4
REMARK VINA RESULT:    -3.352      2.907      5.064
REMARK INTER + INTRA:         -11.077
REMARK INTER:                  -7.246
REMARK INTRA:                  -3.831
REMARK UNBOUND:                -3.806
REMARK SMILES CCCCCCCCCCCCCCCCCCCCCC(=O)[O-]
REMARK SMILES IDX 12 1 11 2 10 3 9 4 8 5 7 6 6 7 5 8 4 9 3 10 2 11 1 12 13 13
REMARK SMILES IDX 14 14 15 15 16 16 17 17 18 18 19 19 20 20 21 21 22 22 23 23
REMARK SMILES IDX 24 24
REMARK H PARENT
REMARK Flexibility Score: inf
ROOT
ATOM      1  C   UNL     1      31.541  11.053  25.745  1.00  0.00     0.000 C 
ENDROOT
BRANCH   1   2
ATOM      2  C   UNL     1      31.304  11.822  24.434  1.00  0.00     0.000 C 
BRANCH   2   3
ATOM      3  C   UNL     1      29.972  12.589  24.430  1.00  0.00     0.000 C 
BRANCH   3   4
ATOM      4  C   UNL     1      28.945  11.998  23.452  1.00  0.00    -0.000 C 
BRANCH   4   5
ATOM      5  C   UNL     1      28.107  10.907  24.132  1.00  0.00    -0.000 C 
BRANCH   5   6
ATOM      6  C   UNL     1      27.711  11.319  25.557  1.00  0.00    -0.000 C 
BRANCH   6   7
ATOM      7  C   UNL     1      27.094  10.163  26.364  1.00  0.00    -0.000 C 
BRANCH   7   8
ATOM      8  C   UNL     1      27.473  10.139  27.857  1.00  0.00    -0.000 C 
BRANCH   8   9
ATOM      9  C   UNL     1      28.367   8.959  28.281  1.00  0.00    -0.000 C 
BRANCH   9  10
ATOM     10  C   UNL     1      29.681   9.391  28.968  1.00  0.00    -0.000 C 
BRANCH  10  11
ATOM     11  C   UNL     1      29.846  10.918  29.007  1.00  0.00    -0.003 C 
ATOM     12  C   UNL     1      30.737  11.345  30.170  1.00  0.00     0.004 C 
ENDBRANCH  10  11
ENDBRANCH   9  10
ENDBRANCH   8   9
ENDBRANCH   7   8
ENDBRANCH   6   7
ENDBRANCH   5   6
ENDBRANCH   4   5
ENDBRANCH   3   4
ENDBRANCH   2   3
ENDBRANCH   1   2
BRANCH   1  13
ATOM     13  C   UNL     1      31.259   9.543  25.618  1.00  0.00     0.000 C 
BRANCH  13  14
ATOM     14  C   UNL     1      31.207   9.004  24.175  1.00  0.00     0.000 C 
BRANCH  14  15
ATOM     15  C   UNL     1      30.418   7.693  24.049  1.00  0.00     0.000 C 
BRANCH  15  16
ATOM     16  C   UNL     1      29.395   7.556  25.188  1.00  0.00     0.000 C 
BRANCH  16  17
ATOM     17  C   UNL     1      28.339   6.467  24.918  1.00  0.00     0.000 C 
BRANCH  17  18
ATOM     18  C   UNL     1      26.956   6.994  24.494  1.00  0.00     0.000 C 
BRANCH  18  19
ATOM     19  C   UNL     1      25.880   6.777  25.573  1.00  0.00     0.000 C 
BRANCH  19  20
ATOM     20  C   UNL     1      26.375   5.904  26.739  1.00  0.00     0.006 C 
BRANCH  20  21
ATOM     21  C   UNL     1      25.856   6.377  28.104  1.00  0.00     0.053 C 
BRANCH  21  22
ATOM     22  C   UNL     1      25.686   5.216  29.034  1.00  0.00     0.041 C 
ATOM     23  O   UNL     1      26.333   4.151  28.845  1.00  0.00    -0.550 OA
ATOM     24  O   UNL     1      24.803   5.304  30.103  1.00  0.00    -0.550 OA
ENDBRANCH  21  22
ENDBRANCH  20  21
ENDBRANCH  19  20
ENDBRANCH  18  19
ENDBRANCH  17  18
ENDBRANCH  16  17
ENDBRANCH  15  16
ENDBRANCH  14  15
ENDBRANCH  13  14
ENDBRANCH   1  13
TORSDOF 20
ENDMDL
MODEL 5
REMARK VINA RESULT:    -3.320      1.665      3.290
REMARK INTER + INTRA:         -11.008
REMARK INTER:                  -7.859
REMARK INTRA:                  -3.149
REMARK UNBOUND:                -3.806
REMARK SMILES CCCCCCCCCCCCCCCCCCCCCC(=O)[O-]
REMARK SMILES IDX 12 1 11 2 10 3 9 4 8 5 7 6 6 7 5 8 4 9 3 10 2 11 1 12 13 13
REMARK SMILES IDX 14 14 15 15 16 16 17 17 18 18 19 19 20 20 21 21 22 22 23 23
REMARK SMILES IDX 24 24
REMARK H PARENT
REMARK Flexibility Score: inf
ROOT
ATOM      1  C   UNL     1      26.355   5.942  24.228  1.00  0.00     0.000 C 
ENDROOT
BRANCH   1   2
ATOM      2  C   UNL     1      24.944   6.214  23.678  1.00  0.00     0.000 C 
BRANCH   2   3
ATOM      3  C   UNL     1      24.921   7.349  22.641  1.00  0.00     0.000 C 
BRANCH   3   4
ATOM      4  C   UNL     1      24.551   8.709  23.252  1.00  0.00    -0.000 C 
BRANCH   4   5
ATOM      5  C   UNL     1      25.809   9.536  23.548  1.00  0.00    -0.000 C 
BRANCH   5   6
ATOM      6  C   UNL     1      25.826  10.016  25.006  1.00  0.00    -0.000 C 
BRANCH   6   7
ATOM      7  C   UNL     1      25.091   9.057  25.960  1.00  0.00    -0.000 C 
BRANCH   7   8
ATOM      8  C   UNL     1      24.394   9.737  27.154  1.00  0.00    -0.000 C 
BRANCH   8   9
ATOM      9  C   UNL     1      24.999   9.409  28.531  1.00  0.00    -0.000 C 
BRANCH   9  10
ATOM     10  C   UNL     1      25.920   8.170  28.525  1.00  0.00    -0.000 C 
BRANCH  10  11
ATOM     11  C   UNL     1      25.196   6.901  28.999  1.00  0.00    -0.003 C 
ATOM     12  C   UNL     1      25.283   5.795  27.951  1.00  0.00     0.004 C 
ENDBRANCH  10  11
ENDBRANCH   9  10
ENDBRANCH   8   9
ENDBRANCH   7   8
ENDBRANCH   6   7
ENDBRANCH   5   6
ENDBRANCH   4   5
ENDBRANCH   3   4
ENDBRANCH   2   3
ENDBRANCH   1   2
BRANCH   1  13
ATOM     13  C   UNL     1      27.472   6.462  23.303  1.00  0.00     0.000 C 
BRANCH  13  14
ATOM     14  C   UNL     1      28.766   6.898  24.018  1.00  0.00     0.000 C 
BRANCH  14  15
ATOM     15  C   UNL     1      29.306   8.246  23.518  1.00  0.00     0.000 C 
BRANCH  15  16
ATOM     16  C   UNL     1      29.557   9.206  24.692  1.00  0.00     0.000 C 
BRANCH  16  17
ATOM     17  C   UNL     1      30.170   8.506  25.919  1.00  0.00     0.000 C 
BRANCH  17  18
ATOM     18  C   UNL     1      29.374   8.671  27.226  1.00  0.00     0.000 C 
BRANCH  18  19
ATOM     19  C   UNL     1      28.753  10.073  27.371  1.00  0.00     0.000 C 
BRANCH  19  20
ATOM     20  C   UNL     1      29.600  11.012  28.246  1.00  0.00     0.006 C 
BRANCH  20  21
ATOM     21  C   UNL     1      30.043  10.363  29.565  1.00  0.00     0.053 C 
BRANCH  21  22
ATOM     22  C   UNL     1      30.311  11.409  30.603  1.00  0.00     0.041 C 
ATOM     23  O   UNL     1      30.451  11.082  31.811  1.00  0.00    -0.550 OA
ATOM     24  O   UNL     1      30.392  12.747  30.237  1.00  0.00    -0.550 OA
ENDBRANCH  21  22
ENDBRANCH  20  21
ENDBRANCH  19  20
ENDBRANCH  18  19
ENDBRANCH  17  18
ENDBRANCH  16  17
ENDBRANCH  15  16
ENDBRANCH  14  15
ENDBRANCH  13  14
ENDBRANCH   1  13
TORSDOF 20
ENDMDL
MODEL 6
REMARK VINA RESULT:    -3.311      2.752      5.300
REMARK INTER + INTRA:         -10.989
REMARK INTER:                  -7.126
REMARK INTRA:                  -3.863
REMARK UNBOUND:                -3.806
REMARK SMILES CCCCCCCCCCCCCCCCCCCCCC(=O)[O-]
REMARK SMILES IDX 12 1 11 2 10 3 9 4 8 5 7 6 6 7 5 8 4 9 3 10 2 11 1 12 13 13
REMARK SMILES IDX 14 14 15 15 16 16 17 17 18 18 19 19 20 20 21 21 22 22 23 23
REMARK SMILES IDX 24 24
REMARK H PARENT
REMARK Flexibility Score: inf
ROOT
ATOM      1  C   UNL     1      27.244   5.316  24.316  1.00  0.00     0.000 C 
ENDROOT
BRANCH   1   2
ATOM      2  C   UNL     1      28.272   5.209  25.454  1.00  0.00     0.000 C 
BRANCH   2   3
ATOM      3  C   UNL     1      27.823   4.250  26.569  1.00  0.00     0.000 C 
BRANCH   3   4
ATOM      4  C   UNL     1      27.547   4.968  27.899  1.00  0.00    -0.000 C 
BRANCH   4   5
ATOM      5  C   UNL     1      26.091   4.762  28.340  1.00  0.00    -0.000 C 
BRANCH   5   6
ATOM      6  C   UNL     1      25.318   6.089  28.333  1.00  0.00    -0.000 C 
BRANCH   6   7
ATOM      7  C   UNL     1      26.241   7.319  28.377  1.00  0.00    -0.000 C 
BRANCH   7   8
ATOM      8  C   UNL     1      25.539   8.666  28.121  1.00  0.00    -0.000 C 
BRANCH   8   9
ATOM      9  C   UNL     1      24.742   8.744  26.806  1.00  0.00    -0.000 C 
BRANCH   9  10
ATOM     10  C   UNL     1      23.487   9.638  26.893  1.00  0.00    -0.000 C 
BRANCH  10  11
ATOM     11  C   UNL     1      23.629  10.928  26.070  1.00  0.00    -0.003 C 
ATOM     12  C   UNL     1      23.068  10.746  24.662  1.00  0.00     0.004 C 
ENDBRANCH  10  11
ENDBRANCH   9  10
ENDBRANCH   8   9
ENDBRANCH   7   8
ENDBRANCH   6   7
ENDBRANCH   5   6
ENDBRANCH   4   5
ENDBRANCH   3   4
ENDBRANCH   2   3
ENDBRANCH   1   2
BRANCH   1  13
ATOM     13  C   UNL     1      26.038   6.206  24.675  1.00  0.00     0.000 C 
BRANCH  13  14
ATOM     14  C   UNL     1      24.959   6.321  23.581  1.00  0.00     0.000 C 
BRANCH  14  15
ATOM     15  C   UNL     1      24.667   7.773  23.172  1.00  0.00     0.000 C 
BRANCH  15  16
ATOM     16  C   UNL     1      25.557   8.200  21.994  1.00  0.00     0.000 C 
BRANCH  16  17
ATOM     17  C   UNL     1      26.374   9.472  22.290  1.00  0.00     0.000 C 
BRANCH  17  18
ATOM     18  C   UNL     1      26.631   9.746  23.784  1.00  0.00     0.000 C 
BRANCH  18  19
ATOM     19  C   UNL     1      28.012   9.251  24.250  1.00  0.00     0.000 C 
BRANCH  19  20
ATOM     20  C   UNL     1      28.258   9.499  25.747  1.00  0.00     0.006 C 
BRANCH  20  21
ATOM     21  C   UNL     1      29.283   8.531  26.354  1.00  0.00     0.053 C 
BRANCH  21  22
ATOM     22  C   UNL     1      30.606   8.662  25.665  1.00  0.00     0.041 C 
ATOM     23  O   UNL     1      31.045   7.723  24.949  1.00  0.00    -0.550 OA
ATOM     24  O   UNL     1      31.361   9.818  25.823  1.00  0.00    -0.550 OA
ENDBRANCH  21  22
ENDBRANCH  20  21
ENDBRANCH  19  20
ENDBRANCH  18  19
ENDBRANCH  17  18
ENDBRANCH  16  17
ENDBRANCH  15  16
ENDBRANCH  14  15
ENDBRANCH  13  14
ENDBRANCH   1  13
TORSDOF 20
ENDMDL
MODEL 7
REMARK VINA RESULT:    -3.274      3.099      5.590
REMARK INTER + INTRA:         -10.909
REMARK INTER:                  -6.348
REMARK INTRA:                  -4.561
REMARK UNBOUND:                -3.806
REMARK SMILES CCCCCCCCCCCCCCCCCCCCCC(=O)[O-]
REMARK SMILES IDX 12 1 11 2 10 3 9 4 8 5 7 6 6 7 5 8 4 9 3 10 2 11 1 12 13 13
REMARK SMILES IDX 14 14 15 15 16 16 17 17 18 18 19 19 20 20 21 21 22 22 23 23
REMARK SMILES IDX 24 24
REMARK H PARENT
REMARK Flexibility Score: inf
ROOT
ATOM      1  C   UNL     1      30.808   8.581  25.656  1.00  0.00     0.000 C 
ENDROOT
BRANCH   1   2
ATOM      2  C   UNL     1      29.384   8.481  26.228  1.00  0.00     0.000 C 
BRANCH   2   3
ATOM      3  C   UNL     1      29.368   8.077  27.711  1.00  0.00     0.000 C 
BRANCH   3   4
ATOM      4  C   UNL     1      28.252   8.771  28.507  1.00  0.00    -0.000 C 
BRANCH   4   5
ATOM      5  C   UNL     1      27.369   9.621  27.585  1.00  0.00    -0.000 C 
BRANCH   5   6
ATOM      6  C   UNL     1      25.907   9.151  27.630  1.00  0.00    -0.000 C 
BRANCH   6   7
ATOM      7  C   UNL     1      25.380   8.705  26.254  1.00  0.00    -0.000 C 
BRANCH   7   8
ATOM      8  C   UNL     1      25.134   7.191  26.114  1.00  0.00    -0.000 C 
BRANCH   8   9
ATOM      9  C   UNL     1      25.528   6.352  27.344  1.00  0.00    -0.000 C 
BRANCH   9  10
ATOM     10  C   UNL     1      26.755   5.445  27.109  1.00  0.00    -0.000 C 
BRANCH  10  11
ATOM     11  C   UNL     1      27.213   5.448  25.643  1.00  0.00    -0.003 C 
ATOM     12  C   UNL     1      28.515   4.670  25.471  1.00  0.00     0.004 C 
ENDBRANCH  10  11
ENDBRANCH   9  10
ENDBRANCH   8   9
ENDBRANCH   7   8
ENDBRANCH   6   7
ENDBRANCH   5   6
ENDBRANCH   4   5
ENDBRANCH   3   4
ENDBRANCH   2   3
ENDBRANCH   1   2
BRANCH   1  13
ATOM     13  C   UNL     1      31.365  10.017  25.674  1.00  0.00     0.000 C 
BRANCH  13  14
ATOM     14  C   UNL     1      30.348  11.111  26.053  1.00  0.00     0.000 C 
BRANCH  14  15
ATOM     15  C   UNL     1      29.824  11.893  24.839  1.00  0.00     0.000 C 
BRANCH  15  16
ATOM     16  C   UNL     1      28.290  11.981  24.863  1.00  0.00     0.000 C 
BRANCH  16  17
ATOM     17  C   UNL     1      27.611  10.813  24.123  1.00  0.00     0.000 C 
BRANCH  17  18
ATOM     18  C   UNL     1      28.207  10.487  22.741  1.00  0.00     0.000 C 
BRANCH  18  19
ATOM     19  C   UNL     1      28.699   9.031  22.634  1.00  0.00     0.000 C 
BRANCH  19  20
ATOM     20  C   UNL     1      27.617   8.008  23.021  1.00  0.00     0.006 C 
BRANCH  20  21
ATOM     21  C   UNL     1      26.570   7.799  21.919  1.00  0.00     0.053 C 
BRANCH  21  22
ATOM     22  C   UNL     1      25.186   7.932  22.475  1.00  0.00     0.041 C 
ATOM     23  O   UNL     1      24.469   6.909  22.644  1.00  0.00    -0.550 OA
ATOM     24  O   UNL     1      24.682   9.187  22.794  1.00  0.00    -0.550 OA
ENDBRANCH  21  22
ENDBRANCH  20  21
ENDBRANCH  19  20
ENDBRANCH  18  19
ENDBRANCH  17  18
ENDBRANCH  16  17
ENDBRANCH  15  16
ENDBRANCH  14  15
ENDBRANCH  13  14
ENDBRANCH   1  13
TORSDOF 20
ENDMDL
MODEL 8
REMARK VINA RESULT:    -3.238      2.861      6.024
REMARK INTER + INTRA:         -10.830
REMARK INTER:                  -6.739
REMARK INTRA:                  -4.091
REMARK UNBOUND:                -3.806
REMARK SMILES CCCCCCCCCCCCCCCCCCCCCC(=O)[O-]
REMARK SMILES IDX 12 1 11 2 10 3 9 4 8 5 7 6 6 7 5 8 4 9 3 10 2 11 1 12 13 13
REMARK SMILES IDX 14 14 15 15 16 16 17 17 18 18 19 19 20 20 21 21 22 22 23 23
REMARK SMILES IDX 24 24
REMARK H PARENT
REMARK Flexibility Score: inf
ROOT
ATOM      1  C   UNL     1      28.020   6.924  26.683  1.00  0.00     0.000 C 
ENDROOT
BRANCH   1   2
ATOM      2  C   UNL     1      28.592   7.680  27.895  1.00  0.00     0.000 C 
BRANCH   2   3
ATOM      3  C   UNL     1      29.494   8.857  27.486  1.00  0.00     0.000 C 
BRANCH   3   4
ATOM      4  C   UNL     1      29.640   9.910  28.595  1.00  0.00    -0.000 C 
BRANCH   4   5
ATOM      5  C   UNL     1      28.923  11.211  28.212  1.00  0.00    -0.000 C 
BRANCH   5   6
ATOM      6  C   UNL     1      28.523  11.208  26.729  1.00  0.00    -0.000 C 
BRANCH   6   7
ATOM      7  C   UNL     1      26.998  11.170  26.521  1.00  0.00    -0.000 C 
BRANCH   7   8
ATOM      8  C   UNL     1      26.168  11.144  27.818  1.00  0.00    -0.000 C 
BRANCH   8   9
ATOM      9  C   UNL     1      25.631   9.757  28.217  1.00  0.00    -0.000 C 
BRANCH   9  10
ATOM     10  C   UNL     1      24.263   9.417  27.588  1.00  0.00    -0.000 C 
BRANCH  10  11
ATOM     11  C   UNL     1      24.328   8.178  26.681  1.00  0.00    -0.003 C 
ATOM     12  C   UNL     1      24.426   6.898  27.506  1.00  0.00     0.004 C 
ENDBRANCH  10  11
ENDBRANCH   9  10
ENDBRANCH   8   9
ENDBRANCH   7   8
ENDBRANCH   6   7
ENDBRANCH   5   6
ENDBRANCH   4   5
ENDBRANCH   3   4
ENDBRANCH   2   3
ENDBRANCH   1   2
BRANCH   1  13
ATOM     13  C   UNL     1      28.081   7.742  25.379  1.00  0.00     0.000 C 
BRANCH  13  14
ATOM     14  C   UNL     1      27.578   7.009  24.121  1.00  0.00     0.000 C 
BRANCH  14  15
ATOM     15  C   UNL     1      26.535   5.925  24.431  1.00  0.00     0.000 C 
BRANCH  15  16
ATOM     16  C   UNL     1      25.177   6.274  23.802  1.00  0.00     0.000 C 
BRANCH  16  17
ATOM     17  C   UNL     1      25.293   7.296  22.655  1.00  0.00     0.000 C 
BRANCH  17  18
ATOM     18  C   UNL     1      24.493   8.596  22.860  1.00  0.00     0.000 C 
BRANCH  18  19
ATOM     19  C   UNL     1      25.310   9.691  23.571  1.00  0.00     0.000 C 
BRANCH  19  20
ATOM     20  C   UNL     1      24.513  10.990  23.773  1.00  0.00     0.006 C 
BRANCH  20  21
ATOM     21  C   UNL     1      23.079  10.744  24.262  1.00  0.00     0.053 C 
BRANCH  21  22
ATOM     22  C   UNL     1      22.632  11.854  25.162  1.00  0.00     0.041 C 
ATOM     23  O   UNL     1      23.467  12.464  25.882  1.00  0.00    -0.550 OA
ATOM     24  O   UNL     1      21.289  12.208  25.215  1.00  0.00    -0.550 OA
ENDBRANCH  21  22
ENDBRANCH  20  21
ENDBRANCH  19  20
ENDBRANCH  18  19
ENDBRANCH  17  18
ENDBRANCH  16  17
ENDBRANCH  15  16
ENDBRANCH  14  15
ENDBRANCH  13  14
ENDBRANCH   1  13
TORSDOF 20
ENDMDL
MODEL 9
REMARK VINA RESULT:    -3.208      3.068      6.108
REMARK INTER + INTRA:         -10.766
REMARK INTER:                  -6.397
REMARK INTRA:                  -4.369
REMARK UNBOUND:                -3.806
REMARK SMILES CCCCCCCCCCCCCCCCCCCCCC(=O)[O-]
REMARK SMILES IDX 12 1 11 2 10 3 9 4 8 5 7 6 6 7 5 8 4 9 3 10 2 11 1 12 13 13
REMARK SMILES IDX 14 14 15 15 16 16 17 17 18 18 19 19 20 20 21 21 22 22 23 23
REMARK SMILES IDX 24 24
REMARK H PARENT
REMARK Flexibility Score: inf
ROOT
ATOM      1  C   UNL     1      29.709   8.889  27.563  1.00  0.00     0.000 C 
ENDROOT
BRANCH   1   2
ATOM      2  C   UNL     1      29.710   9.261  29.055  1.00  0.00     0.000 C 
BRANCH   2   3
ATOM      3  C   UNL     1      29.983  10.755  29.294  1.00  0.00     0.000 C 
BRANCH   3   4
ATOM      4  C   UNL     1      29.362  11.655  28.215  1.00  0.00    -0.000 C 
BRANCH   4   5
ATOM      5  C   UNL     1      27.876  11.908  28.502  1.00  0.00    -0.000 C 
BRANCH   5   6
ATOM      6  C   UNL     1      27.075  12.043  27.199  1.00  0.00    -0.000 C 
BRANCH   6   7
ATOM      7  C   UNL     1      27.934  11.817  25.942  1.00  0.00    -0.000 C 
BRANCH   7   8
ATOM      8  C   UNL     1      27.291  10.919  24.869  1.00  0.00    -0.000 C 
BRANCH   8   9
ATOM      9  C   UNL     1      25.977  10.238  25.294  1.00  0.00    -0.000 C 
BRANCH   9  10
ATOM     10  C   UNL     1      24.782  10.568  24.375  1.00  0.00    -0.000 C 
BRANCH  10  11
ATOM     11  C   UNL     1      23.433  10.441  25.099  1.00  0.00    -0.003 C 
ATOM     12  C   UNL     1      23.625   9.993  26.545  1.00  0.00     0.004 C 
ENDBRANCH  10  11
ENDBRANCH   9  10
ENDBRANCH   8   9
ENDBRANCH   7   8
ENDBRANCH   6   7
ENDBRANCH   5   6
ENDBRANCH   4   5
ENDBRANCH   3   4
ENDBRANCH   2   3
ENDBRANCH   1   2
BRANCH   1  13
ATOM     13  C   UNL     1      28.418   8.175  27.120  1.00  0.00     0.000 C 
BRANCH  13  14
ATOM     14  C   UNL     1      27.265   8.209  28.142  1.00  0.00     0.000 C 
BRANCH  14  15
ATOM     15  C   UNL     1      26.054   7.367  27.713  1.00  0.00     0.000 C 
BRANCH  15  16
ATOM     16  C   UNL     1      26.322   6.663  26.374  1.00  0.00     0.000 C 
BRANCH  16  17
ATOM     17  C   UNL     1      25.112   6.708  25.421  1.00  0.00     0.000 C 
BRANCH  17  18
ATOM     18  C   UNL     1      25.389   6.197  23.995  1.00  0.00     0.000 C 
BRANCH  18  19
ATOM     19  C   UNL     1      25.982   7.284  23.079  1.00  0.00     0.000 C 
BRANCH  19  20
ATOM     20  C   UNL     1      27.411   6.955  22.615  1.00  0.00     0.006 C 
BRANCH  20  21
ATOM     21  C   UNL     1      28.490   7.571  23.516  1.00  0.00     0.053 C 
BRANCH  21  22
ATOM     22  C   UNL     1      29.449   6.520  23.983  1.00  0.00     0.041 C 
ATOM     23  O   UNL     1      30.691   6.692  23.855  1.00  0.00    -0.550 OA
ATOM     24  O   UNL     1      28.972   5.344  24.548  1.00  0.00    -0.550 OA
ENDBRANCH  21  22
ENDBRANCH  20  21
ENDBRANCH  19  20
ENDBRANCH  18  19
ENDBRANCH  17  18
ENDBRANCH  16  17
ENDBRANCH  15  16
ENDBRANCH  14  15
ENDBRANCH  13  14
ENDBRANCH   1  13
TORSDOF 20
ENDMDL
