MODEL 1
REMARK VINA RESULT:    -3.957      0.000      0.000
REMARK INTER + INTRA:          -5.590
REMARK INTER:                  -5.230
REMARK INTRA:                  -0.361
REMARK UNBOUND:                -0.361
REMARK SMILES C=C[C@@H](O)CCCCC
REMARK SMILES IDX 6 1 7 2 8 3 9 4 5 5 3 6 2 7 1 8 4 9
REMARK H PARENT 4 10
REMARK Flexibility Score: inf
ROOT
ATOM      1  C   UNL     1      -3.325  17.896  48.160  1.00  0.00     0.003 C 
ENDROOT
BRANCH   1   2
ATOM      2  C   UNL     1      -3.134  19.418  48.247  1.00  0.00    -0.000 C 
BRANCH   2   3
ATOM      3  C   UNL     1      -2.112  19.825  49.319  1.00  0.00    -0.003 C 
ATOM      4  C   UNL     1      -2.327  21.270  49.762  1.00  0.00     0.004 C 
ENDBRANCH   2   3
ENDBRANCH   1   2
BRANCH   1   5
ATOM      5  C   UNL     1      -2.267  17.119  48.961  1.00  0.00     0.036 C 
BRANCH   5   6
ATOM      6  C   UNL     1      -1.306  16.354  48.036  1.00  0.00     0.136 C 
BRANCH   6   7
ATOM      7  C   UNL     1      -1.677  16.562  46.587  1.00  0.00    -0.004 C 
ATOM      8  C   UNL     1      -0.771  16.880  45.656  1.00  0.00     0.007 C 
ENDBRANCH   6   7
BRANCH   6   9
ATOM      9  O   UNL     1       0.015  16.776  48.262  1.00  0.00    -0.389 OA
ATOM     10  H   UNL     1      -0.004  17.768  48.302  1.00  0.00     0.211 HD
ENDBRANCH   6   9
ENDBRANCH   5   6
ENDBRANCH   1   5
TORSDOF 6
ENDMDL
MODEL 2
REMARK VINA RESULT:    -3.898      1.434      4.441
REMARK INTER + INTRA:          -5.511
REMARK INTER:                  -5.251
REMARK INTRA:                  -0.260
REMARK UNBOUND:                -0.361
REMARK SMILES C=C[C@@H](O)CCCCC
REMARK SMILES IDX 6 1 7 2 8 3 9 4 5 5 3 6 2 7 1 8 4 9
REMARK H PARENT 4 10
REMARK Flexibility Score: inf
ROOT
ATOM      1  C   UNL     1      -0.628  16.922  46.719  1.00  0.00     0.003 C 
ENDROOT
BRANCH   1   2
ATOM      2  C   UNL     1      -1.173  16.417  45.373  1.00  0.00    -0.000 C 
BRANCH   2   3
ATOM      3  C   UNL     1      -0.065  15.901  44.444  1.00  0.00    -0.003 C 
ATOM      4  C   UNL     1       1.284  15.878  45.156  1.00  0.00     0.004 C 
ENDBRANCH   2   3
ENDBRANCH   1   2
BRANCH   1   5
ATOM      5  C   UNL     1      -1.265  16.207  47.922  1.00  0.00     0.036 C 
BRANCH   5   6
ATOM      6  C   UNL     1      -1.565  17.186  49.068  1.00  0.00     0.136 C 
BRANCH   6   7
ATOM      7  C   UNL     1      -2.839  17.951  48.800  1.00  0.00    -0.004 C 
ATOM      8  C   UNL     1      -2.866  19.285  48.705  1.00  0.00     0.007 C 
ENDBRANCH   6   7
BRANCH   6   9
ATOM      9  O   UNL     1      -1.668  16.488  50.282  1.00  0.00    -0.389 OA
ATOM     10  H   UNL     1      -2.530  16.756  50.695  1.00  0.00     0.211 HD
ENDBRANCH   6   9
ENDBRANCH   5   6
ENDBRANCH   1   5
TORSDOF 6
ENDMDL
MODEL 3
REMARK VINA RESULT:    -3.875      1.730      3.912
REMARK INTER + INTRA:          -5.481
REMARK INTER:                  -4.909
REMARK INTRA:                  -0.573
REMARK UNBOUND:                -0.361
REMARK SMILES C=C[C@@H](O)CCCCC
REMARK SMILES IDX 6 1 7 2 8 3 9 4 5 5 3 6 2 7 1 8 4 9
REMARK H PARENT 4 10
REMARK Flexibility Score: inf
ROOT
ATOM      1  C   UNL     1      -1.807  16.887  49.139  1.00  0.00     0.003 C 
ENDROOT
BRANCH   1   2
ATOM      2  C   UNL     1      -1.217  16.072  47.978  1.00  0.00    -0.000 C 
BRANCH   2   3
ATOM      3  C   UNL     1      -1.670  16.587  46.604  1.00  0.00    -0.003 C 
ATOM      4  C   UNL     1      -0.576  17.421  45.942  1.00  0.00     0.004 C 
ENDBRANCH   2   3
ENDBRANCH   1   2
BRANCH   1   5
ATOM      5  C   UNL     1      -3.027  17.722  48.718  1.00  0.00     0.036 C 
BRANCH   5   6
ATOM      6  C   UNL     1      -2.779  19.226  48.919  1.00  0.00     0.136 C 
BRANCH   6   7
ATOM      7  C   UNL     1      -1.338  19.488  49.286  1.00  0.00    -0.004 C 
ATOM      8  C   UNL     1      -0.541  20.262  48.543  1.00  0.00     0.007 C 
ENDBRANCH   6   7
BRANCH   6   9
ATOM      9  O   UNL     1      -3.115  19.928  47.749  1.00  0.00    -0.389 OA
ATOM     10  H   UNL     1      -3.912  20.480  47.965  1.00  0.00     0.211 HD
ENDBRANCH   6   9
ENDBRANCH   5   6
ENDBRANCH   1   5
TORSDOF 6
ENDMDL
MODEL 4
REMARK VINA RESULT:    -3.818      1.489      4.075
REMARK INTER + INTRA:          -5.407
REMARK INTER:                  -4.947
REMARK INTRA:                  -0.460
REMARK UNBOUND:                -0.361
REMARK SMILES C=C[C@@H](O)CCCCC
REMARK SMILES IDX 6 1 7 2 8 3 9 4 5 5 3 6 2 7 1 8 4 9
REMARK H PARENT 4 10
REMARK Flexibility Score: inf
ROOT
ATOM      1  C   UNL     1      -1.556  16.363  48.075  1.00  0.00     0.003 C 
ENDROOT
BRANCH   1   2
ATOM      2  C   UNL     1      -0.209  16.878  47.544  1.00  0.00    -0.000 C 
BRANCH   2   3
ATOM      3  C   UNL     1      -0.336  17.565  46.176  1.00  0.00    -0.003 C 
ATOM      4  C   UNL     1      -0.887  16.604  45.127  1.00  0.00     0.004 C 
ENDBRANCH   2   3
ENDBRANCH   1   2
BRANCH   1   5
ATOM      5  C   UNL     1      -2.204  17.328  49.083  1.00  0.00     0.036 C 
BRANCH   5   6
ATOM      6  C   UNL     1      -3.330  18.149  48.434  1.00  0.00     0.136 C 
BRANCH   6   7
ATOM      7  C   UNL     1      -2.915  19.591  48.266  1.00  0.00    -0.004 C 
ATOM      8  C   UNL     1      -2.556  20.357  49.301  1.00  0.00     0.007 C 
ENDBRANCH   6   7
BRANCH   6   9
ATOM      9  O   UNL     1      -3.671  17.596  47.188  1.00  0.00    -0.389 OA
ATOM     10  H   UNL     1      -3.060  18.001  46.518  1.00  0.00     0.211 HD
ENDBRANCH   6   9
ENDBRANCH   5   6
ENDBRANCH   1   5
TORSDOF 6
ENDMDL
MODEL 5
REMARK VINA RESULT:    -3.810      1.710      2.320
REMARK INTER + INTRA:          -5.396
REMARK INTER:                  -4.886
REMARK INTRA:                  -0.511
REMARK UNBOUND:                -0.361
REMARK SMILES C=C[C@@H](O)CCCCC
REMARK SMILES IDX 6 1 7 2 8 3 9 4 5 5 3 6 2 7 1 8 4 9
REMARK H PARENT 4 10
REMARK Flexibility Score: inf
ROOT
ATOM      1  C   UNL     1      -1.603  16.267  48.764  1.00  0.00     0.003 C 
ENDROOT
BRANCH   1   2
ATOM      2  C   UNL     1      -2.679  17.360  48.859  1.00  0.00    -0.000 C 
BRANCH   2   3
ATOM      3  C   UNL     1      -2.155  18.651  49.504  1.00  0.00    -0.003 C 
ATOM      4  C   UNL     1      -2.771  19.883  48.847  1.00  0.00     0.004 C 
ENDBRANCH   2   3
ENDBRANCH   1   2
BRANCH   1   5
ATOM      5  C   UNL     1      -1.256  15.902  47.311  1.00  0.00     0.036 C 
BRANCH   5   6
ATOM      6  C   UNL     1      -1.248  17.142  46.403  1.00  0.00     0.136 C 
BRANCH   6   7
ATOM      7  C   UNL     1       0.128  17.760  46.348  1.00  0.00    -0.004 C 
ATOM      8  C   UNL     1       0.417  18.918  46.949  1.00  0.00     0.007 C 
ENDBRANCH   6   7
BRANCH   6   9
ATOM      9  O   UNL     1      -1.673  16.793  45.110  1.00  0.00    -0.389 OA
ATOM     10  H   UNL     1      -1.655  17.626  44.568  1.00  0.00     0.211 HD
ENDBRANCH   6   9
ENDBRANCH   5   6
ENDBRANCH   1   5
TORSDOF 6
ENDMDL
MODEL 6
REMARK VINA RESULT:    -3.797      1.219      1.838
REMARK INTER + INTRA:          -5.379
REMARK INTER:                  -5.116
REMARK INTRA:                  -0.263
REMARK UNBOUND:                -0.361
REMARK SMILES C=C[C@@H](O)CCCCC
REMARK SMILES IDX 6 1 7 2 8 3 9 4 5 5 3 6 2 7 1 8 4 9
REMARK H PARENT 4 10
REMARK Flexibility Score: inf
ROOT
ATOM      1  C   UNL     1      -2.246  16.960  47.378  1.00  0.00     0.003 C 
ENDROOT
BRANCH   1   2
ATOM      2  C   UNL     1      -3.172  17.769  48.299  1.00  0.00    -0.000 C 
BRANCH   2   3
ATOM      3  C   UNL     1      -3.088  19.280  48.043  1.00  0.00    -0.003 C 
ATOM      4  C   UNL     1      -2.424  20.000  49.214  1.00  0.00     0.004 C 
ENDBRANCH   2   3
ENDBRANCH   1   2
BRANCH   1   5
ATOM      5  C   UNL     1      -0.769  17.048  47.796  1.00  0.00     0.036 C 
BRANCH   5   6
ATOM      6  C   UNL     1       0.168  16.961  46.581  1.00  0.00     0.136 C 
BRANCH   6   7
ATOM      7  C   UNL     1      -0.606  16.631  45.328  1.00  0.00    -0.004 C 
ATOM      8  C   UNL     1      -0.095  15.876  44.350  1.00  0.00     0.007 C 
ENDBRANCH   6   7
BRANCH   6   9
ATOM      9  O   UNL     1       0.856  18.175  46.418  1.00  0.00    -0.389 OA
ATOM     10  H   UNL     1       1.261  18.155  45.511  1.00  0.00     0.211 HD
ENDBRANCH   6   9
ENDBRANCH   5   6
ENDBRANCH   1   5
TORSDOF 6
ENDMDL
MODEL 7
REMARK VINA RESULT:    -3.764     11.091     11.754
REMARK INTER + INTRA:          -5.335
REMARK INTER:                  -5.048
REMARK INTRA:                  -0.288
REMARK UNBOUND:                -0.361
REMARK SMILES C=C[C@@H](O)CCCCC
REMARK SMILES IDX 6 1 7 2 8 3 9 4 5 5 3 6 2 7 1 8 4 9
REMARK H PARENT 4 10
REMARK Flexibility Score: inf
ROOT
ATOM      1  C   UNL     1       3.637  22.815  38.284  1.00  0.00     0.003 C 
ENDROOT
BRANCH   1   2
ATOM      2  C   UNL     1       2.908  24.166  38.342  1.00  0.00    -0.000 C 
BRANCH   2   3
ATOM      3  C   UNL     1       2.001  24.296  39.574  1.00  0.00    -0.003 C 
ATOM      4  C   UNL     1       0.640  24.874  39.197  1.00  0.00     0.004 C 
ENDBRANCH   2   3
ENDBRANCH   1   2
BRANCH   1   5
ATOM      5  C   UNL     1       3.541  22.032  39.605  1.00  0.00     0.036 C 
BRANCH   5   6
ATOM      6  C   UNL     1       4.929  21.608  40.112  1.00  0.00     0.136 C 
BRANCH   6   7
ATOM      7  C   UNL     1       5.797  21.137  38.970  1.00  0.00    -0.004 C 
ATOM      8  C   UNL     1       7.086  20.822  39.135  1.00  0.00     0.007 C 
ENDBRANCH   6   7
BRANCH   6   9
ATOM      9  O   UNL     1       5.546  22.681  40.776  1.00  0.00    -0.389 OA
ATOM     10  H   UNL     1       5.012  22.856  41.595  1.00  0.00     0.211 HD
ENDBRANCH   6   9
ENDBRANCH   5   6
ENDBRANCH   1   5
TORSDOF 6
ENDMDL
MODEL 8
REMARK VINA RESULT:    -3.739      2.226      3.755
REMARK INTER + INTRA:          -5.301
REMARK INTER:                  -4.718
REMARK INTRA:                  -0.583
REMARK UNBOUND:                -0.361
REMARK SMILES C=C[C@@H](O)CCCCC
REMARK SMILES IDX 6 1 7 2 8 3 9 4 5 5 3 6 2 7 1 8 4 9
REMARK H PARENT 4 10
REMARK Flexibility Score: inf
ROOT
ATOM      1  C   UNL     1      -3.179  18.652  48.206  1.00  0.00     0.003 C 
ENDROOT
BRANCH   1   2
ATOM      2  C   UNL     1      -2.746  17.385  48.961  1.00  0.00    -0.000 C 
BRANCH   2   3
ATOM      3  C   UNL     1      -1.643  16.608  48.228  1.00  0.00    -0.003 C 
ATOM      4  C   UNL     1      -1.787  16.744  46.715  1.00  0.00     0.004 C 
ENDBRANCH   2   3
ENDBRANCH   1   2
BRANCH   1   5
ATOM      5  C   UNL     1      -2.726  19.943  48.908  1.00  0.00     0.036 C 
BRANCH   5   6
ATOM      6  C   UNL     1      -1.761  20.755  48.030  1.00  0.00     0.136 C 
BRANCH   6   7
ATOM      7  C   UNL     1      -0.388  20.127  48.020  1.00  0.00    -0.004 C 
ATOM      8  C   UNL     1       0.262  19.849  46.885  1.00  0.00     0.007 C 
ENDBRANCH   6   7
BRANCH   6   9
ATOM      9  O   UNL     1      -2.262  20.842  46.720  1.00  0.00    -0.389 OA
ATOM     10  H   UNL     1      -3.061  21.431  46.758  1.00  0.00     0.211 HD
ENDBRANCH   6   9
ENDBRANCH   5   6
ENDBRANCH   1   5
TORSDOF 6
ENDMDL
MODEL 9
REMARK VINA RESULT:    -3.687      1.808      2.610
REMARK INTER + INTRA:          -5.233
REMARK INTER:                  -4.668
REMARK INTRA:                  -0.564
REMARK UNBOUND:                -0.361
REMARK SMILES C=C[C@@H](O)CCCCC
REMARK SMILES IDX 6 1 7 2 8 3 9 4 5 5 3 6 2 7 1 8 4 9
REMARK H PARENT 4 10
REMARK Flexibility Score: inf
ROOT
ATOM      1  C   UNL     1      -0.626  19.347  47.045  1.00  0.00     0.003 C 
ENDROOT
BRANCH   1   2
ATOM      2  C   UNL     1      -0.361  19.841  48.475  1.00  0.00    -0.000 C 
BRANCH   2   3
ATOM      3  C   UNL     1      -1.566  19.638  49.404  1.00  0.00    -0.003 C 
ATOM      4  C   UNL     1      -2.874  19.652  48.618  1.00  0.00     0.004 C 
ENDBRANCH   2   3
ENDBRANCH   1   2
BRANCH   1   5
ATOM      5  C   UNL     1       0.162  18.072  46.702  1.00  0.00     0.036 C 
BRANCH   5   6
ATOM      6  C   UNL     1      -0.750  16.987  46.108  1.00  0.00     0.136 C 
BRANCH   6   7
ATOM      7  C   UNL     1      -1.723  16.477  47.144  1.00  0.00    -0.004 C 
ATOM      8  C   UNL     1      -1.325  16.021  48.336  1.00  0.00     0.007 C 
ENDBRANCH   6   7
BRANCH   6   9
ATOM      9  O   UNL     1      -1.448  17.499  45.002  1.00  0.00    -0.389 OA
ATOM     10  H   UNL     1      -1.296  18.481  44.997  1.00  0.00     0.211 HD
ENDBRANCH   6   9
ENDBRANCH   5   6
ENDBRANCH   1   5
TORSDOF 6
ENDMDL
