MODEL 1
REMARK VINA RESULT:     1.318      0.000      0.000
REMARK INTER + INTRA:           0.882
REMARK INTER:                   2.165
REMARK INTRA:                  -1.284
REMARK UNBOUND:                -1.284
REMARK SMILES COc1ccc([C@H]2CC(=O)c3c(O)cc(O[C@H]4O[C@H](CO[C@@H]5O[C@@H](C)[C@@H](O)[C@@H](O)[C@H]5O)[C@H](O)[C@@H](O)[C@@H]4O)cc3O2)cc1O
REMARK SMILES IDX 19 1 32 2 34 3 36 4 17 5 18 6 20 7 21 8 22 9 25 10 24 11
REMARK SMILES IDX 26 12 23 13 28 14 30 15 27 16 29 18 31 20 33 22 35 24 16 26
REMARK SMILES IDX 15 27 14 28 38 29 12 30 39 31 11 32 40 33 9 34 7 35 10 36
REMARK SMILES IDX 8 37 13 38 6 40 41 41 5 42 42 43 4 44 3 45 43 46 2 48 1 49
REMARK SMILES IDX 37 50
REMARK H PARENT 27 17 29 19 31 21 33 23 35 25 13 39 43 47 37 51
REMARK Flexibility Score: inf
ROOT
ATOM      1  C   UNL     1     -12.773 -25.504   0.188  1.00  0.00     0.180 C 
ATOM      2  C   UNL     1     -13.007 -25.780  -1.301  1.00  0.00     0.177 C 
ATOM      3  C   UNL     1     -14.177 -24.944  -1.887  1.00  0.00     0.180 C 
ATOM      4  C   UNL     1     -14.428 -23.581  -1.100  1.00  0.00     0.214 C 
ATOM      5  C   UNL     1     -13.916 -23.453   0.413  1.00  0.00     0.339 C 
ATOM      6  O   UNL     1     -12.667 -24.118   0.522  1.00  0.00    -0.332 OA
ENDROOT
BRANCH   1   7
ATOM      7  C   UNL     1     -11.530 -26.178   0.837  1.00  0.00     0.198 C 
BRANCH   7   8
ATOM      8  O   UNL     1     -10.391 -26.259  -0.001  1.00  0.00    -0.347 OA
BRANCH   8   9
ATOM      9  C   UNL     1      -9.818 -27.525  -0.452  1.00  0.00     0.281 C 
ATOM     10  C   UNL     1     -11.779 -30.286  -2.122  1.00  0.00     0.041 C 
ATOM     11  C   UNL     1     -10.941 -29.593  -1.006  1.00  0.00     0.150 C 
ATOM     12  C   UNL     1      -9.498 -30.196  -1.070  1.00  0.00     0.174 C 
ATOM     13  O   UNL     1     -10.914 -28.178  -1.117  1.00  0.00    -0.344 OA
ATOM     14  C   UNL     1      -8.885 -29.902   0.295  1.00  0.00     0.179 C 
ATOM     15  C   UNL     1      -8.919 -28.379   0.585  1.00  0.00     0.202 C 
BRANCH  12  16
ATOM     16  O   UNL     1      -8.767 -29.551  -2.075  1.00  0.00    -0.388 OA
ATOM     17  H   UNL     1      -9.096 -28.613  -2.123  1.00  0.00     0.211 HD
ENDBRANCH  12  16
BRANCH  14  18
ATOM     18  O   UNL     1      -7.624 -30.545   0.373  1.00  0.00    -0.387 OA
ATOM     19  H   UNL     1      -7.545 -30.868   1.301  1.00  0.00     0.211 HD
ENDBRANCH  14  18
BRANCH  15  20
ATOM     20  O   UNL     1      -7.567 -27.921   0.457  1.00  0.00    -0.385 OA
ATOM     21  H   UNL     1      -7.072 -28.352   1.228  1.00  0.00     0.211 HD
ENDBRANCH  15  20
ENDBRANCH   8   9
ENDBRANCH   7   8
ENDBRANCH   1   7
BRANCH   2  22
ATOM     22  O   UNL     1     -11.865 -25.649  -2.115  1.00  0.00    -0.387 OA
ATOM     23  H   UNL     1     -12.135 -25.031  -2.896  1.00  0.00     0.211 HD
ENDBRANCH   2  22
BRANCH   3  24
ATOM     24  O   UNL     1     -15.375 -25.664  -2.122  1.00  0.00    -0.387 OA
ATOM     25  H   UNL     1     -15.233 -26.637  -1.843  1.00  0.00     0.211 HD
ENDBRANCH   3  24
BRANCH   5  26
ATOM     26  O   UNL     1     -14.774 -23.883   1.458  1.00  0.00    -0.462 OA
BRANCH  26  27
ATOM     27  C   UNL     1     -15.939 -23.156   2.030  1.00  0.00     0.130 A 
ATOM     28  C   UNL     1     -15.921 -22.648   3.393  1.00  0.00     0.093 A 
ATOM     29  C   UNL     1     -17.214 -23.456   1.495  1.00  0.00     0.094 A 
ATOM     30  C   UNL     1     -16.762 -23.345   4.295  1.00  0.00     0.133 A 
ATOM     31  C   UNL     1     -18.295 -23.617   2.423  1.00  0.00     0.138 A 
ATOM     32  C   UNL     1     -18.017 -23.798   3.776  1.00  0.00     0.102 A 
ATOM     33  O   UNL     1     -19.644 -23.528   2.015  1.00  0.00    -0.484 OA
ATOM     34  C   UNL     1     -19.146 -24.346   4.613  1.00  0.00     0.174 C 
ATOM     35  C   UNL     1     -20.642 -23.258   3.006  1.00  0.00     0.211 C 
ATOM     36  O   UNL     1     -18.898 -24.783   5.755  1.00  0.00    -0.294 OA
ATOM     37  C   UNL     1     -20.524 -24.312   4.090  1.00  0.00     0.131 C 
BRANCH  30  38
ATOM     38  O   UNL     1     -16.216 -23.816   5.503  1.00  0.00    -0.507 OA
ATOM     39  H   UNL     1     -15.269 -24.259   5.558  1.00  0.00     0.293 HD
ENDBRANCH  30  38
BRANCH  35  40
ATOM     40  C   UNL     1     -22.010 -23.099   2.484  1.00  0.00    -0.003 A 
ATOM     41  C   UNL     1     -22.372 -23.608   1.220  1.00  0.00     0.057 A 
ATOM     42  C   UNL     1     -22.981 -22.324   3.157  1.00  0.00     0.011 A 
ATOM     43  C   UNL     1     -23.695 -23.517   0.739  1.00  0.00     0.158 A 
ATOM     44  C   UNL     1     -24.246 -22.150   2.634  1.00  0.00     0.051 A 
ATOM     45  C   UNL     1     -24.649 -22.773   1.425  1.00  0.00     0.160 A 
BRANCH  43  46
ATOM     46  O   UNL     1     -24.021 -24.017  -0.524  1.00  0.00    -0.504 OA
ATOM     47  H   UNL     1     -24.163 -24.992  -0.684  1.00  0.00     0.293 HD
ENDBRANCH  43  46
BRANCH  45  48
ATOM     48  O   UNL     1     -25.953 -22.634   0.897  1.00  0.00    -0.493 OA
ATOM     49  C   UNL     1     -27.112 -22.443   1.690  1.00  0.00     0.278 C 
ENDBRANCH  45  48
ENDBRANCH  35  40
ENDBRANCH  26  27
ENDBRANCH   5  26
BRANCH   4  50
ATOM     50  O   UNL     1     -13.742 -22.551  -1.797  1.00  0.00    -0.384 OA
ATOM     51  H   UNL     1     -12.799 -22.603  -1.468  1.00  0.00     0.211 HD
ENDBRANCH   4  50
TORSDOF 15
ENDMDL
MODEL 2
REMARK VINA RESULT:     1.790      1.314      2.067
REMARK INTER + INTRA:           1.657
REMARK INTER:                   2.682
REMARK INTRA:                  -1.025
REMARK UNBOUND:                -1.284
REMARK SMILES COc1ccc([C@H]2CC(=O)c3c(O)cc(O[C@H]4O[C@H](CO[C@@H]5O[C@@H](C)[C@@H](O)[C@@H](O)[C@H]5O)[C@H](O)[C@@H](O)[C@@H]4O)cc3O2)cc1O
REMARK SMILES IDX 19 1 32 2 34 3 36 4 17 5 18 6 20 7 21 8 22 9 25 10 24 11
REMARK SMILES IDX 26 12 23 13 28 14 30 15 27 16 29 18 31 20 33 22 35 24 16 26
REMARK SMILES IDX 15 27 14 28 38 29 12 30 39 31 11 32 40 33 9 34 7 35 10 36
REMARK SMILES IDX 8 37 13 38 6 40 41 41 5 42 42 43 4 44 3 45 43 46 2 48 1 49
REMARK SMILES IDX 37 50
REMARK H PARENT 27 17 29 19 31 21 33 23 35 25 13 39 43 47 37 51
REMARK Flexibility Score: inf
ROOT
ATOM      1  C   UNL     1     -13.327 -24.991   0.224  1.00  0.00     0.180 C 
ATOM      2  C   UNL     1     -13.697 -25.743  -1.059  1.00  0.00     0.177 C 
ATOM      3  C   UNL     1     -15.142 -25.433  -1.537  1.00  0.00     0.180 C 
ATOM      4  C   UNL     1     -15.665 -24.004  -1.062  1.00  0.00     0.214 C 
ATOM      5  C   UNL     1     -14.986 -23.314   0.214  1.00  0.00     0.339 C 
ATOM      6  O   UNL     1     -13.593 -23.588   0.184  1.00  0.00    -0.332 OA
ENDROOT
BRANCH   1   7
ATOM      7  C   UNL     1     -11.854 -25.116   0.707  1.00  0.00     0.198 C 
BRANCH   7   8
ATOM      8  O   UNL     1     -10.915 -25.406  -0.314  1.00  0.00    -0.347 OA
BRANCH   8   9
ATOM      9  C   UNL     1     -10.208 -26.682  -0.411  1.00  0.00     0.281 C 
ATOM     10  C   UNL     1      -6.878 -27.159  -2.125  1.00  0.00     0.041 C 
ATOM     11  C   UNL     1      -8.411 -27.318  -1.896  1.00  0.00     0.150 C 
ATOM     12  C   UNL     1      -8.646 -28.761  -1.335  1.00  0.00     0.174 C 
ATOM     13  O   UNL     1      -8.960 -26.334  -1.033  1.00  0.00    -0.344 OA
ATOM     14  C   UNL     1     -10.118 -29.056  -1.607  1.00  0.00     0.179 C 
ATOM     15  C   UNL     1     -11.015 -27.973  -0.955  1.00  0.00     0.202 C 
BRANCH  12  16
ATOM     16  O   UNL     1      -8.400 -28.770   0.043  1.00  0.00    -0.388 OA
ATOM     17  H   UNL     1      -8.533 -27.841   0.373  1.00  0.00     0.211 HD
ENDBRANCH  12  16
BRANCH  14  18
ATOM     18  O   UNL     1     -10.381 -30.406  -1.259  1.00  0.00    -0.387 OA
ATOM     19  H   UNL     1     -11.091 -30.373  -0.577  1.00  0.00     0.211 HD
ENDBRANCH  14  18
BRANCH  15  20
ATOM     20  O   UNL     1     -11.634 -28.598   0.176  1.00  0.00    -0.385 OA
ATOM     21  H   UNL     1     -11.043 -29.393   0.390  1.00  0.00     0.211 HD
ENDBRANCH  15  20
ENDBRANCH   8   9
ENDBRANCH   7   8
ENDBRANCH   1   7
BRANCH   2  22
ATOM     22  O   UNL     1     -12.790 -25.579  -2.125  1.00  0.00    -0.387 OA
ATOM     23  H   UNL     1     -11.988 -25.054  -1.745  1.00  0.00     0.211 HD
ENDBRANCH   2  22
BRANCH   3  24
ATOM     24  O   UNL     1     -16.088 -26.462  -1.309  1.00  0.00    -0.387 OA
ATOM     25  H   UNL     1     -17.018 -26.043  -1.243  1.00  0.00     0.211 HD
ENDBRANCH   3  24
BRANCH   5  26
ATOM     26  O   UNL     1     -15.499 -23.616   1.502  1.00  0.00    -0.462 OA
BRANCH  26  27
ATOM     27  C   UNL     1     -16.665 -22.987   2.182  1.00  0.00     0.130 A 
ATOM     28  C   UNL     1     -16.651 -22.711   3.610  1.00  0.00     0.093 A 
ATOM     29  C   UNL     1     -17.938 -23.191   1.599  1.00  0.00     0.094 A 
ATOM     30  C   UNL     1     -17.498 -23.544   4.381  1.00  0.00     0.133 A 
ATOM     31  C   UNL     1     -19.023 -23.498   2.485  1.00  0.00     0.138 A 
ATOM     32  C   UNL     1     -18.753 -23.900   3.790  1.00  0.00     0.102 A 
ATOM     33  O   UNL     1     -20.371 -23.337   2.091  1.00  0.00    -0.484 OA
ATOM     34  C   UNL     1     -19.887 -24.574   4.521  1.00  0.00     0.174 C 
ATOM     35  C   UNL     1     -21.372 -23.230   3.109  1.00  0.00     0.211 C 
ATOM     36  O   UNL     1     -19.646 -25.195   5.577  1.00  0.00    -0.294 OA
ATOM     37  C   UNL     1     -21.262 -24.449   4.005  1.00  0.00     0.131 C 
BRANCH  30  38
ATOM     38  O   UNL     1     -16.959 -24.210   5.497  1.00  0.00    -0.507 OA
ATOM     39  H   UNL     1     -17.525 -24.426   6.351  1.00  0.00     0.293 HD
ENDBRANCH  30  38
BRANCH  35  40
ATOM     40  C   UNL     1     -22.737 -22.983   2.615  1.00  0.00    -0.003 A 
ATOM     41  C   UNL     1     -23.780 -22.633   3.498  1.00  0.00     0.057 A 
ATOM     42  C   UNL     1     -23.096 -23.210   1.268  1.00  0.00     0.011 A 
ATOM     43  C   UNL     1     -25.076 -22.333   3.028  1.00  0.00     0.158 A 
ATOM     44  C   UNL     1     -24.390 -23.014   0.830  1.00  0.00     0.051 A 
ATOM     45  C   UNL     1     -25.410 -22.535   1.693  1.00  0.00     0.160 A 
BRANCH  43  46
ATOM     46  O   UNL     1     -26.092 -22.004   3.928  1.00  0.00    -0.504 OA
ATOM     47  H   UNL     1     -26.158 -22.432   4.827  1.00  0.00     0.293 HD
ENDBRANCH  43  46
BRANCH  45  48
ATOM     48  O   UNL     1     -26.730 -22.295   1.249  1.00  0.00    -0.493 OA
ATOM     49  C   UNL     1     -27.124 -22.317  -0.112  1.00  0.00     0.278 C 
ENDBRANCH  45  48
ENDBRANCH  35  40
ENDBRANCH  26  27
ENDBRANCH   5  26
BRANCH   4  50
ATOM     50  O   UNL     1     -15.440 -23.089  -2.125  1.00  0.00    -0.384 OA
ATOM     51  H   UNL     1     -14.499 -23.262  -2.416  1.00  0.00     0.211 HD
ENDBRANCH   4  50
TORSDOF 15
ENDMDL
MODEL 3
REMARK VINA RESULT:     2.720      1.630      2.653
REMARK INTER + INTRA:           3.186
REMARK INTER:                   4.696
REMARK INTRA:                  -1.510
REMARK UNBOUND:                -1.284
REMARK SMILES COc1ccc([C@H]2CC(=O)c3c(O)cc(O[C@H]4O[C@H](CO[C@@H]5O[C@@H](C)[C@@H](O)[C@@H](O)[C@H]5O)[C@H](O)[C@@H](O)[C@@H]4O)cc3O2)cc1O
REMARK SMILES IDX 19 1 32 2 34 3 36 4 17 5 18 6 20 7 21 8 22 9 25 10 24 11
REMARK SMILES IDX 26 12 23 13 28 14 30 15 27 16 29 18 31 20 33 22 35 24 16 26
REMARK SMILES IDX 15 27 14 28 38 29 12 30 39 31 11 32 40 33 9 34 7 35 10 36
REMARK SMILES IDX 8 37 13 38 6 40 41 41 5 42 42 43 4 44 3 45 43 46 2 48 1 49
REMARK SMILES IDX 37 50
REMARK H PARENT 27 17 29 19 31 21 33 23 35 25 13 39 43 47 37 51
REMARK Flexibility Score: inf
ROOT
ATOM      1  C   UNL     1     -12.252 -26.225  -1.498  1.00  0.00     0.180 C 
ATOM      2  C   UNL     1     -11.199 -25.225  -1.987  1.00  0.00     0.177 C 
ATOM      3  C   UNL     1     -11.337 -23.834  -1.310  1.00  0.00     0.180 C 
ATOM      4  C   UNL     1     -12.017 -23.904   0.130  1.00  0.00     0.214 C 
ATOM      5  C   UNL     1     -12.939 -25.163   0.492  1.00  0.00     0.339 C 
ATOM      6  O   UNL     1     -12.356 -26.325  -0.076  1.00  0.00    -0.332 OA
ENDROOT
BRANCH   1   7
ATOM      7  C   UNL     1     -12.111 -27.690  -2.003  1.00  0.00     0.198 C 
BRANCH   7   8
ATOM      8  O   UNL     1     -10.778 -28.153  -2.123  1.00  0.00    -0.347 OA
BRANCH   8   9
ATOM      9  C   UNL     1     -10.128 -28.987  -1.115  1.00  0.00     0.281 C 
ATOM     10  C   UNL     1      -6.877 -28.128   0.603  1.00  0.00     0.041 C 
ATOM     11  C   UNL     1      -7.844 -28.922  -0.326  1.00  0.00     0.150 C 
ATOM     12  C   UNL     1      -8.211 -30.249   0.418  1.00  0.00     0.174 C 
ATOM     13  O   UNL     1      -9.008 -28.194  -0.685  1.00  0.00    -0.344 OA
ATOM     14  C   UNL     1      -8.706 -31.192  -0.674  1.00  0.00     0.179 C 
ATOM     15  C   UNL     1      -9.890 -30.552  -1.443  1.00  0.00     0.202 C 
BRANCH  12  16
ATOM     16  O   UNL     1      -9.236 -30.000   1.339  1.00  0.00    -0.388 OA
ATOM     17  H   UNL     1      -9.252 -30.763   1.977  1.00  0.00     0.211 HD
ENDBRANCH  12  16
BRANCH  14  18
ATOM     18  O   UNL     1      -8.923 -32.472  -0.104  1.00  0.00    -0.387 OA
ATOM     19  H   UNL     1      -9.293 -33.029  -0.828  1.00  0.00     0.211 HD
ENDBRANCH  14  18
BRANCH  15  20
ATOM     20  O   UNL     1     -11.063 -31.260  -1.023  1.00  0.00    -0.385 OA
ATOM     21  H   UNL     1     -11.443 -31.663  -1.871  1.00  0.00     0.211 HD
ENDBRANCH  15  20
ENDBRANCH   8   9
ENDBRANCH   7   8
ENDBRANCH   1   7
BRANCH   2  22
ATOM     22  O   UNL     1      -9.867 -25.675  -1.899  1.00  0.00    -0.387 OA
ATOM     23  H   UNL     1      -9.271 -24.847  -2.048  1.00  0.00     0.211 HD
ENDBRANCH   2  22
BRANCH   3  24
ATOM     24  O   UNL     1     -11.893 -22.817  -2.125  1.00  0.00    -0.387 OA
ATOM     25  H   UNL     1     -12.428 -23.257  -2.877  1.00  0.00     0.211 HD
ENDBRANCH   3  24
BRANCH   5  26
ATOM     26  O   UNL     1     -14.317 -25.113   0.157  1.00  0.00    -0.462 OA
BRANCH  26  27
ATOM     27  C   UNL     1     -15.325 -24.118   0.615  1.00  0.00     0.130 A 
ATOM     28  C   UNL     1     -14.980 -23.071   1.565  1.00  0.00     0.093 A 
ATOM     29  C   UNL     1     -16.681 -24.518   0.596  1.00  0.00     0.094 A 
ATOM     30  C   UNL     1     -15.538 -23.238   2.856  1.00  0.00     0.133 A 
ATOM     31  C   UNL     1     -17.485 -24.173   1.733  1.00  0.00     0.138 A 
ATOM     32  C   UNL     1     -16.866 -23.769   2.913  1.00  0.00     0.102 A 
ATOM     33  O   UNL     1     -18.896 -24.162   1.669  1.00  0.00    -0.484 OA
ATOM     34  C   UNL     1     -17.724 -23.807   4.153  1.00  0.00     0.174 C 
ATOM     35  C   UNL     1     -19.619 -23.409   2.650  1.00  0.00     0.211 C 
ATOM     36  O   UNL     1     -17.179 -23.723   5.272  1.00  0.00    -0.294 OA
ATOM     37  C   UNL     1     -19.190 -23.894   4.022  1.00  0.00     0.131 C 
BRANCH  30  38
ATOM     38  O   UNL     1     -14.686 -23.179   3.974  1.00  0.00    -0.507 OA
ATOM     39  H   UNL     1     -15.047 -23.155   4.957  1.00  0.00     0.293 HD
ENDBRANCH  30  38
BRANCH  35  40
ATOM     40  C   UNL     1     -21.079 -23.385   2.463  1.00  0.00    -0.003 A 
ATOM     41  C   UNL     1     -21.952 -23.232   3.560  1.00  0.00     0.057 A 
ATOM     42  C   UNL     1     -21.676 -23.643   1.209  1.00  0.00     0.011 A 
ATOM     43  C   UNL     1     -23.349 -23.144   3.384  1.00  0.00     0.158 A 
ATOM     44  C   UNL     1     -23.048 -23.659   1.059  1.00  0.00     0.051 A 
ATOM     45  C   UNL     1     -23.923 -23.373   2.138  1.00  0.00     0.160 A 
BRANCH  43  46
ATOM     46  O   UNL     1     -24.191 -23.008   4.491  1.00  0.00    -0.504 OA
ATOM     47  H   UNL     1     -24.795 -22.220   4.599  1.00  0.00     0.293 HD
ENDBRANCH  43  46
BRANCH  45  48
ATOM     48  O   UNL     1     -25.328 -23.350   1.990  1.00  0.00    -0.493 OA
ATOM     49  C   UNL     1     -26.056 -22.230   1.516  1.00  0.00     0.278 C 
ENDBRANCH  45  48
ENDBRANCH  35  40
ENDBRANCH  26  27
ENDBRANCH   5  26
BRANCH   4  50
ATOM     50  O   UNL     1     -10.975 -23.936   1.096  1.00  0.00    -0.384 OA
ATOM     51  H   UNL     1     -10.293 -24.560   0.716  1.00  0.00     0.211 HD
ENDBRANCH   4  50
TORSDOF 15
ENDMDL
MODEL 4
REMARK VINA RESULT:     2.848      1.885     11.557
REMARK INTER + INTRA:           3.396
REMARK INTER:                   1.917
REMARK INTRA:                   1.480
REMARK UNBOUND:                -1.284
REMARK SMILES COc1ccc([C@H]2CC(=O)c3c(O)cc(O[C@H]4O[C@H](CO[C@@H]5O[C@@H](C)[C@@H](O)[C@@H](O)[C@H]5O)[C@H](O)[C@@H](O)[C@@H]4O)cc3O2)cc1O
REMARK SMILES IDX 19 1 32 2 34 3 36 4 17 5 18 6 20 7 21 8 22 9 25 10 24 11
REMARK SMILES IDX 26 12 23 13 28 14 30 15 27 16 29 18 31 20 33 22 35 24 16 26
REMARK SMILES IDX 15 27 14 28 38 29 12 30 39 31 11 32 40 33 9 34 7 35 10 36
REMARK SMILES IDX 8 37 13 38 6 40 41 41 5 42 42 43 4 44 3 45 43 46 2 48 1 49
REMARK SMILES IDX 37 50
REMARK H PARENT 27 17 29 19 31 21 33 23 35 25 13 39 43 47 37 51
REMARK Flexibility Score: inf
ROOT
ATOM      1  C   UNL     1     -17.236 -23.260   3.084  1.00  0.00     0.180 C 
ATOM      2  C   UNL     1     -17.863 -24.302   2.152  1.00  0.00     0.177 C 
ATOM      3  C   UNL     1     -16.877 -25.444   1.784  1.00  0.00     0.180 C 
ATOM      4  C   UNL     1     -15.751 -25.679   2.887  1.00  0.00     0.214 C 
ATOM      5  C   UNL     1     -15.391 -24.486   3.894  1.00  0.00     0.339 C 
ATOM      6  O   UNL     1     -16.591 -23.809   4.235  1.00  0.00    -0.332 OA
ENDROOT
BRANCH   1   7
ATOM      7  C   UNL     1     -18.183 -22.154   3.633  1.00  0.00     0.198 C 
BRANCH   7   8
ATOM      8  O   UNL     1     -19.472 -22.129   3.045  1.00  0.00    -0.347 OA
BRANCH   8   9
ATOM      9  C   UNL     1     -20.360 -23.289   3.016  1.00  0.00     0.281 C 
ATOM     10  C   UNL     1     -23.450 -23.566   0.864  1.00  0.00     0.041 C 
ATOM     11  C   UNL     1     -22.621 -23.455   2.179  1.00  0.00     0.150 C 
ATOM     12  C   UNL     1     -22.612 -24.875   2.838  1.00  0.00     0.174 C 
ATOM     13  O   UNL     1     -21.302 -22.972   1.977  1.00  0.00    -0.344 OA
ATOM     14  C   UNL     1     -22.263 -24.628   4.303  1.00  0.00     0.179 C 
ATOM     15  C   UNL     1     -20.916 -23.871   4.417  1.00  0.00     0.202 C 
BRANCH  12  16
ATOM     16  O   UNL     1     -21.623 -25.662   2.236  1.00  0.00    -0.388 OA
ATOM     17  H   UNL     1     -21.624 -26.543   2.698  1.00  0.00     0.211 HD
ENDBRANCH  12  16
BRANCH  14  18
ATOM     18  O   UNL     1     -22.377 -25.854   5.008  1.00  0.00    -0.387 OA
ATOM     19  H   UNL     1     -21.722 -26.463   4.594  1.00  0.00     0.211 HD
ENDBRANCH  14  18
BRANCH  15  20
ATOM     20  O   UNL     1     -19.962 -24.830   4.891  1.00  0.00    -0.385 OA
ATOM     21  H   UNL     1     -20.516 -25.561   5.319  1.00  0.00     0.211 HD
ENDBRANCH  15  20
ENDBRANCH   8   9
ENDBRANCH   7   8
ENDBRANCH   1   7
BRANCH   2  22
ATOM     22  O   UNL     1     -19.082 -24.845   2.604  1.00  0.00    -0.387 OA
ATOM     23  H   UNL     1     -19.551 -24.100   3.140  1.00  0.00     0.211 HD
ENDBRANCH   2  22
BRANCH   3  24
ATOM     24  O   UNL     1     -16.347 -25.385   0.470  1.00  0.00    -0.387 OA
ATOM     25  H   UNL     1     -16.942 -25.941  -0.148  1.00  0.00     0.211 HD
ENDBRANCH   3  24
BRANCH   5  26
ATOM     26  O   UNL     1     -14.409 -23.540   3.502  1.00  0.00    -0.462 OA
BRANCH  26  27
ATOM     27  C   UNL     1     -13.435 -23.657   2.383  1.00  0.00     0.130 A 
ATOM     28  C   UNL     1     -13.604 -22.908   1.148  1.00  0.00     0.093 A 
ATOM     29  C   UNL     1     -12.712 -24.869   2.282  1.00  0.00     0.094 A 
ATOM     30  C   UNL     1     -13.971 -23.691   0.027  1.00  0.00     0.133 A 
ATOM     31  C   UNL     1     -12.565 -25.438   0.973  1.00  0.00     0.138 A 
ATOM     32  C   UNL     1     -13.376 -24.990  -0.066  1.00  0.00     0.102 A 
ATOM     33  O   UNL     1     -11.566 -26.396   0.689  1.00  0.00    -0.484 OA
ATOM     34  C   UNL     1     -13.445 -25.882  -1.280  1.00  0.00     0.174 C 
ATOM     35  C   UNL     1     -11.180 -26.596  -0.675  1.00  0.00     0.211 C 
ATOM     36  O   UNL     1     -14.343 -25.690  -2.125  1.00  0.00    -0.294 OA
ATOM     37  C   UNL     1     -12.427 -26.931  -1.472  1.00  0.00     0.131 C 
BRANCH  30  38
ATOM     38  O   UNL     1     -15.090 -23.304  -0.732  1.00  0.00    -0.507 OA
ATOM     39  H   UNL     1     -15.204 -23.563  -1.740  1.00  0.00     0.293 HD
ENDBRANCH  30  38
BRANCH  35  40
ATOM     40  C   UNL     1     -10.078 -27.552  -0.876  1.00  0.00    -0.003 A 
ATOM     41  C   UNL     1      -9.932 -28.682  -0.044  1.00  0.00     0.057 A 
ATOM     42  C   UNL     1      -9.048 -27.318  -1.814  1.00  0.00     0.011 A 
ATOM     43  C   UNL     1      -8.917 -29.636  -0.268  1.00  0.00     0.158 A 
ATOM     44  C   UNL     1      -7.999 -28.203  -1.961  1.00  0.00     0.051 A 
ATOM     45  C   UNL     1      -7.924 -29.407  -1.214  1.00  0.00     0.160 A 
BRANCH  43  46
ATOM     46  O   UNL     1      -8.788 -30.738   0.581  1.00  0.00    -0.504 OA
ATOM     47  H   UNL     1      -9.051 -31.657   0.295  1.00  0.00     0.293 HD
ENDBRANCH  43  46
BRANCH  45  48
ATOM     48  O   UNL     1      -6.875 -30.339  -1.381  1.00  0.00    -0.493 OA
ATOM     49  C   UNL     1      -6.993 -31.540  -2.125  1.00  0.00     0.278 C 
ENDBRANCH  45  48
ENDBRANCH  35  40
ENDBRANCH  26  27
ENDBRANCH   5  26
BRANCH   4  50
ATOM     50  O   UNL     1     -16.188 -26.736   3.728  1.00  0.00    -0.384 OA
ATOM     51  H   UNL     1     -15.827 -26.510   4.633  1.00  0.00     0.211 HD
ENDBRANCH   4  50
TORSDOF 15
ENDMDL
MODEL 5
REMARK VINA RESULT:     2.894      1.586      2.427
REMARK INTER + INTRA:           3.472
REMARK INTER:                   2.621
REMARK INTRA:                   0.851
REMARK UNBOUND:                -1.284
REMARK SMILES COc1ccc([C@H]2CC(=O)c3c(O)cc(O[C@H]4O[C@H](CO[C@@H]5O[C@@H](C)[C@@H](O)[C@@H](O)[C@H]5O)[C@H](O)[C@@H](O)[C@@H]4O)cc3O2)cc1O
REMARK SMILES IDX 19 1 32 2 34 3 36 4 17 5 18 6 20 7 21 8 22 9 25 10 24 11
REMARK SMILES IDX 26 12 23 13 28 14 30 15 27 16 29 18 31 20 33 22 35 24 16 26
REMARK SMILES IDX 15 27 14 28 38 29 12 30 39 31 11 32 40 33 9 34 7 35 10 36
REMARK SMILES IDX 8 37 13 38 6 40 41 41 5 42 42 43 4 44 3 45 43 46 2 48 1 49
REMARK SMILES IDX 37 50
REMARK H PARENT 27 17 29 19 31 21 33 23 35 25 13 39 43 47 37 51
REMARK Flexibility Score: inf
ROOT
ATOM      1  C   UNL     1     -11.101 -26.641   0.502  1.00  0.00     0.180 C 
ATOM      2  C   UNL     1     -11.118 -27.192  -0.928  1.00  0.00     0.177 C 
ATOM      3  C   UNL     1     -12.143 -26.460  -1.837  1.00  0.00     0.180 C 
ATOM      4  C   UNL     1     -12.443 -24.967  -1.367  1.00  0.00     0.214 C 
ATOM      5  C   UNL     1     -12.163 -24.563   0.158  1.00  0.00     0.339 C 
ATOM      6  O   UNL     1     -10.979 -25.220   0.586  1.00  0.00    -0.332 OA
ENDROOT
BRANCH   1   7
ATOM      7  C   UNL     1     -10.007 -27.204   1.454  1.00  0.00     0.198 C 
BRANCH   7   8
ATOM      8  O   UNL     1      -8.856 -27.712   0.803  1.00  0.00    -0.347 OA
BRANCH   8   9
ATOM      9  C   UNL     1      -8.847 -28.971   0.062  1.00  0.00     0.281 C 
ATOM     10  C   UNL     1     -10.063 -32.272   1.434  1.00  0.00     0.041 C 
ATOM     11  C   UNL     1      -9.035 -31.231   0.896  1.00  0.00     0.150 C 
ATOM     12  C   UNL     1      -8.676 -31.653  -0.568  1.00  0.00     0.174 C 
ATOM     13  O   UNL     1      -9.505 -29.893   0.947  1.00  0.00    -0.344 OA
ATOM     14  C   UNL     1      -7.348 -30.963  -0.864  1.00  0.00     0.179 C 
ATOM     15  C   UNL     1      -7.478 -29.432  -0.662  1.00  0.00     0.202 C 
BRANCH  12  16
ATOM     16  O   UNL     1      -9.664 -31.186  -1.443  1.00  0.00    -0.388 OA
ATOM     17  H   UNL     1      -9.873 -31.926  -2.075  1.00  0.00     0.211 HD
ENDBRANCH  12  16
BRANCH  14  18
ATOM     18  O   UNL     1      -6.876 -31.411  -2.124  1.00  0.00    -0.387 OA
ATOM     19  H   UNL     1      -5.966 -31.754  -1.963  1.00  0.00     0.211 HD
ENDBRANCH  14  18
BRANCH  15  20
ATOM     20  O   UNL     1      -7.473 -28.858  -1.975  1.00  0.00    -0.385 OA
ATOM     21  H   UNL     1      -7.386 -29.646  -2.605  1.00  0.00     0.211 HD
ENDBRANCH  15  20
ENDBRANCH   8   9
ENDBRANCH   7   8
ENDBRANCH   1   7
BRANCH   2  22
ATOM     22  O   UNL     1      -9.860 -27.240  -1.560  1.00  0.00    -0.387 OA
ATOM     23  H   UNL     1      -9.190 -27.568  -0.849  1.00  0.00     0.211 HD
ENDBRANCH   2  22
BRANCH   3  24
ATOM     24  O   UNL     1     -13.325 -27.188  -2.124  1.00  0.00    -0.387 OA
ATOM     25  H   UNL     1     -14.132 -26.607  -1.888  1.00  0.00     0.211 HD
ENDBRANCH   3  24
BRANCH   5  26
ATOM     26  O   UNL     1     -13.191 -24.770   1.114  1.00  0.00    -0.462 OA
BRANCH  26  27
ATOM     27  C   UNL     1     -14.305 -23.845   1.460  1.00  0.00     0.130 A 
ATOM     28  C   UNL     1     -14.149 -22.818   2.479  1.00  0.00     0.093 A 
ATOM     29  C   UNL     1     -15.622 -24.314   1.245  1.00  0.00     0.094 A 
ATOM     30  C   UNL     1     -14.865 -23.059   3.676  1.00  0.00     0.133 A 
ATOM     31  C   UNL     1     -16.588 -24.052   2.272  1.00  0.00     0.138 A 
ATOM     32  C   UNL     1     -16.157 -23.660   3.537  1.00  0.00     0.102 A 
ATOM     33  O   UNL     1     -17.977 -24.111   2.018  1.00  0.00    -0.484 OA
ATOM     34  C   UNL     1     -17.170 -23.787   4.647  1.00  0.00     0.174 C 
ATOM     35  C   UNL     1     -18.865 -23.433   2.913  1.00  0.00     0.211 C 
ATOM     36  O   UNL     1     -16.785 -23.716   5.832  1.00  0.00    -0.294 OA
ATOM     37  C   UNL     1     -18.598 -23.944   4.316  1.00  0.00     0.131 C 
BRANCH  30  38
ATOM     38  O   UNL     1     -14.176 -22.998   4.901  1.00  0.00    -0.507 OA
ATOM     39  H   UNL     1     -13.282 -23.517   5.072  1.00  0.00     0.293 HD
ENDBRANCH  30  38
BRANCH  35  40
ATOM     40  C   UNL     1     -20.287 -23.476   2.530  1.00  0.00    -0.003 A 
ATOM     41  C   UNL     1     -21.265 -22.792   3.281  1.00  0.00     0.057 A 
ATOM     42  C   UNL     1     -20.753 -24.303   1.484  1.00  0.00     0.011 A 
ATOM     43  C   UNL     1     -22.619 -22.776   2.886  1.00  0.00     0.158 A 
ATOM     44  C   UNL     1     -22.094 -24.365   1.165  1.00  0.00     0.051 A 
ATOM     45  C   UNL     1     -23.062 -23.574   1.836  1.00  0.00     0.160 A 
BRANCH  43  46
ATOM     46  O   UNL     1     -23.569 -22.102   3.658  1.00  0.00    -0.504 OA
ATOM     47  H   UNL     1     -23.726 -22.330   4.617  1.00  0.00     0.293 HD
ENDBRANCH  43  46
BRANCH  45  48
ATOM     48  O   UNL     1     -24.433 -23.600   1.496  1.00  0.00    -0.493 OA
ATOM     49  C   UNL     1     -25.400 -22.713   2.031  1.00  0.00     0.278 C 
ENDBRANCH  45  48
ENDBRANCH  35  40
ENDBRANCH  26  27
ENDBRANCH   5  26
BRANCH   4  50
ATOM     50  O   UNL     1     -11.609 -24.102  -2.124  1.00  0.00    -0.384 OA
ATOM     51  H   UNL     1     -12.218 -23.683  -2.797  1.00  0.00     0.211 HD
ENDBRANCH   4  50
TORSDOF 15
ENDMDL
MODEL 6
REMARK VINA RESULT:     4.141      1.833      3.276
REMARK INTER + INTRA:           5.520
REMARK INTER:                   6.725
REMARK INTRA:                  -1.205
REMARK UNBOUND:                -1.284
REMARK SMILES COc1ccc([C@H]2CC(=O)c3c(O)cc(O[C@H]4O[C@H](CO[C@@H]5O[C@@H](C)[C@@H](O)[C@@H](O)[C@H]5O)[C@H](O)[C@@H](O)[C@@H]4O)cc3O2)cc1O
REMARK SMILES IDX 19 1 32 2 34 3 36 4 17 5 18 6 20 7 21 8 22 9 25 10 24 11
REMARK SMILES IDX 26 12 23 13 28 14 30 15 27 16 29 18 31 20 33 22 35 24 16 26
REMARK SMILES IDX 15 27 14 28 38 29 12 30 39 31 11 32 40 33 9 34 7 35 10 36
REMARK SMILES IDX 8 37 13 38 6 40 41 41 5 42 42 43 4 44 3 45 43 46 2 48 1 49
REMARK SMILES IDX 37 50
REMARK H PARENT 27 17 29 19 31 21 33 23 35 25 13 39 43 47 37 51
REMARK Flexibility Score: inf
ROOT
ATOM      1  C   UNL     1     -11.465 -27.120  -1.411  1.00  0.00     0.180 C 
ATOM      2  C   UNL     1     -10.352 -26.068  -1.465  1.00  0.00     0.177 C 
ATOM      3  C   UNL     1     -10.728 -24.763  -0.710  1.00  0.00     0.180 C 
ATOM      4  C   UNL     1     -11.790 -24.998   0.455  1.00  0.00     0.214 C 
ATOM      5  C   UNL     1     -12.732 -26.292   0.397  1.00  0.00     0.339 C 
ATOM      6  O   UNL     1     -11.968 -27.381  -0.100  1.00  0.00    -0.332 OA
ENDROOT
BRANCH   1   7
ATOM      7  C   UNL     1     -11.133 -28.518  -2.009  1.00  0.00     0.198 C 
BRANCH   7   8
ATOM      8  O   UNL     1      -9.749 -28.802  -2.125  1.00  0.00    -0.347 OA
BRANCH   8   9
ATOM      9  C   UNL     1      -9.019 -29.623  -1.162  1.00  0.00     0.281 C 
ATOM     10  C   UNL     1      -6.986 -32.676  -2.058  1.00  0.00     0.041 C 
ATOM     11  C   UNL     1      -8.153 -31.865  -1.419  1.00  0.00     0.150 C 
ATOM     12  C   UNL     1      -7.868 -31.781   0.118  1.00  0.00     0.174 C 
ATOM     13  O   UNL     1      -8.320 -30.574  -1.983  1.00  0.00    -0.344 OA
ATOM     14  C   UNL     1      -9.217 -31.459   0.754  1.00  0.00     0.179 C 
ATOM     15  C   UNL     1      -9.801 -30.157   0.149  1.00  0.00     0.202 C 
BRANCH  12  16
ATOM     16  O   UNL     1      -6.960 -30.745   0.368  1.00  0.00    -0.388 OA
ATOM     17  H   UNL     1      -6.238 -30.815  -0.314  1.00  0.00     0.211 HD
ENDBRANCH  12  16
BRANCH  14  18
ATOM     18  O   UNL     1      -9.077 -31.509   2.164  1.00  0.00    -0.387 OA
ATOM     19  H   UNL     1      -9.822 -32.068   2.488  1.00  0.00     0.211 HD
ENDBRANCH  14  18
BRANCH  15  20
ATOM     20  O   UNL     1      -9.669 -29.154   1.164  1.00  0.00    -0.385 OA
ATOM     21  H   UNL     1      -8.670 -29.046   1.296  1.00  0.00     0.211 HD
ENDBRANCH  15  20
ENDBRANCH   8   9
ENDBRANCH   7   8
ENDBRANCH   1   7
BRANCH   2  22
ATOM     22  O   UNL     1      -9.086 -26.520  -1.044  1.00  0.00    -0.387 OA
ATOM     23  H   UNL     1      -9.177 -26.746  -0.042  1.00  0.00     0.211 HD
ENDBRANCH   2  22
BRANCH   3  24
ATOM     24  O   UNL     1     -11.064 -23.662  -1.537  1.00  0.00    -0.387 OA
ATOM     25  H   UNL     1     -11.695 -23.985  -2.273  1.00  0.00     0.211 HD
ENDBRANCH   3  24
BRANCH   5  26
ATOM     26  O   UNL     1     -13.956 -26.209  -0.315  1.00  0.00    -0.462 OA
BRANCH  26  27
ATOM     27  C   UNL     1     -15.031 -25.193  -0.152  1.00  0.00     0.130 A 
ATOM     28  C   UNL     1     -14.733 -23.769  -0.137  1.00  0.00     0.093 A 
ATOM     29  C   UNL     1     -16.196 -25.591   0.546  1.00  0.00     0.094 A 
ATOM     30  C   UNL     1     -14.873 -23.148   1.128  1.00  0.00     0.133 A 
ATOM     31  C   UNL     1     -16.736 -24.670   1.502  1.00  0.00     0.138 A 
ATOM     32  C   UNL     1     -15.958 -23.603   1.945  1.00  0.00     0.102 A 
ATOM     33  O   UNL     1     -18.069 -24.771   1.960  1.00  0.00    -0.484 OA
ATOM     34  C   UNL     1     -16.424 -22.927   3.209  1.00  0.00     0.174 C 
ATOM     35  C   UNL     1     -18.680 -23.617   2.546  1.00  0.00     0.211 C 
ATOM     36  O   UNL     1     -15.647 -22.155   3.807  1.00  0.00    -0.294 OA
ATOM     37  C   UNL     1     -17.800 -23.150   3.690  1.00  0.00     0.131 C 
BRANCH  30  38
ATOM     38  O   UNL     1     -13.805 -22.382   1.629  1.00  0.00    -0.507 OA
ATOM     39  H   UNL     1     -13.949 -21.473   2.127  1.00  0.00     0.293 HD
ENDBRANCH  30  38
BRANCH  35  40
ATOM     40  C   UNL     1     -20.095 -23.784   2.921  1.00  0.00    -0.003 A 
ATOM     41  C   UNL     1     -21.127 -23.212   2.149  1.00  0.00     0.057 A 
ATOM     42  C   UNL     1     -20.477 -24.405   4.131  1.00  0.00     0.011 A 
ATOM     43  C   UNL     1     -22.486 -23.420   2.465  1.00  0.00     0.158 A 
ATOM     44  C   UNL     1     -21.805 -24.517   4.489  1.00  0.00     0.051 A 
ATOM     45  C   UNL     1     -22.851 -24.058   3.646  1.00  0.00     0.160 A 
BRANCH  43  46
ATOM     46  O   UNL     1     -23.487 -22.829   1.690  1.00  0.00    -0.504 OA
ATOM     47  H   UNL     1     -23.276 -22.322   0.856  1.00  0.00     0.293 HD
ENDBRANCH  43  46
BRANCH  45  48
ATOM     48  O   UNL     1     -24.215 -24.199   3.983  1.00  0.00    -0.493 OA
ATOM     49  C   UNL     1     -25.020 -23.146   4.486  1.00  0.00     0.278 C 
ENDBRANCH  45  48
ENDBRANCH  35  40
ENDBRANCH  26  27
ENDBRANCH   5  26
BRANCH   4  50
ATOM     50  O   UNL     1     -11.069 -25.136   1.671  1.00  0.00    -0.384 OA
ATOM     51  H   UNL     1     -10.125 -24.907   1.436  1.00  0.00     0.211 HD
ENDBRANCH   4  50
TORSDOF 15
ENDMDL
