MODEL 1
REMARK VINA RESULT:    -3.902      0.000      0.000
REMARK INTER + INTRA:          -8.671
REMARK INTER:                  -7.210
REMARK INTRA:                  -1.462
REMARK UNBOUND:                -1.462
REMARK SMILES CCCCCCCCCCCCCCCCO
REMARK SMILES IDX 9 1 8 2 7 3 6 4 5 5 4 6 3 7 2 8 1 9 10 10 11 11 12 12 13 13
REMARK SMILES IDX 14 14 15 15 16 16 17 17
REMARK H PARENT 17 18
REMARK Flexibility Score: inf
ROOT
ATOM      1  C   UNL     1       6.636  -2.695  -9.498  1.00  0.00     0.000 C 
ENDROOT
BRANCH   1   2
ATOM      2  C   UNL     1       5.312  -2.479  -8.747  1.00  0.00    -0.000 C 
BRANCH   2   3
ATOM      3  C   UNL     1       4.348  -3.668  -8.892  1.00  0.00    -0.000 C 
BRANCH   3   4
ATOM      4  C   UNL     1       4.333  -4.578  -7.651  1.00  0.00    -0.000 C 
BRANCH   4   5
ATOM      5  C   UNL     1       4.277  -3.802  -6.318  1.00  0.00    -0.000 C 
BRANCH   5   6
ATOM      6  C   UNL     1       2.843  -3.684  -5.773  1.00  0.00    -0.000 C 
BRANCH   6   7
ATOM      7  C   UNL     1       2.694  -2.579  -4.712  1.00  0.00    -0.000 C 
BRANCH   7   8
ATOM      8  C   UNL     1       1.830  -2.964  -3.497  1.00  0.00    -0.003 C 
ATOM      9  C   UNL     1       2.431  -2.507  -2.169  1.00  0.00     0.004 C 
ENDBRANCH   7   8
ENDBRANCH   6   7
ENDBRANCH   5   6
ENDBRANCH   4   5
ENDBRANCH   3   4
ENDBRANCH   2   3
ENDBRANCH   1   2
BRANCH   1  10
ATOM     10  C   UNL     1       7.860  -2.260  -8.673  1.00  0.00     0.000 C 
BRANCH  10  11
ATOM     11  C   UNL     1       7.676  -2.531  -7.171  1.00  0.00     0.000 C 
BRANCH  11  12
ATOM     12  C   UNL     1       8.625  -3.625  -6.648  1.00  0.00     0.000 C 
BRANCH  12  13
ATOM     13  C   UNL     1       8.622  -4.876  -7.552  1.00  0.00     0.000 C 
BRANCH  13  14
ATOM     14  C   UNL     1       8.586  -6.200  -6.768  1.00  0.00     0.002 C 
BRANCH  14  15
ATOM     15  C   UNL     1       7.329  -6.348  -5.899  1.00  0.00     0.028 C 
BRANCH  15  16
ATOM     16  C   UNL     1       6.429  -7.488  -6.382  1.00  0.00     0.156 C 
BRANCH  16  17
ATOM     17  O   UNL     1       5.289  -7.598  -5.570  1.00  0.00    -0.396 OA
ATOM     18  H   UNL     1       4.816  -8.426  -5.844  1.00  0.00     0.210 HD
ENDBRANCH  16  17
ENDBRANCH  15  16
ENDBRANCH  14  15
ENDBRANCH  13  14
ENDBRANCH  12  13
ENDBRANCH  11  12
ENDBRANCH  10  11
ENDBRANCH   1  10
TORSDOF 15
ENDMDL
MODEL 2
REMARK VINA RESULT:    -3.860      1.977      3.751
REMARK INTER + INTRA:          -8.595
REMARK INTER:                  -6.941
REMARK INTRA:                  -1.653
REMARK UNBOUND:                -1.462
REMARK SMILES CCCCCCCCCCCCCCCCO
REMARK SMILES IDX 9 1 8 2 7 3 6 4 5 5 4 6 3 7 2 8 1 9 10 10 11 11 12 12 13 13
REMARK SMILES IDX 14 14 15 15 16 16 17 17
REMARK H PARENT 17 18
REMARK Flexibility Score: inf
ROOT
ATOM      1  C   UNL     1       7.233  -6.791  -6.277  1.00  0.00     0.000 C 
ENDROOT
BRANCH   1   2
ATOM      2  C   UNL     1       6.349  -6.017  -5.287  1.00  0.00    -0.000 C 
BRANCH   2   3
ATOM      3  C   UNL     1       6.068  -4.576  -5.745  1.00  0.00    -0.000 C 
BRANCH   3   4
ATOM      4  C   UNL     1       5.262  -4.513  -7.055  1.00  0.00    -0.000 C 
BRANCH   4   5
ATOM      5  C   UNL     1       4.145  -3.448  -7.041  1.00  0.00    -0.000 C 
BRANCH   5   6
ATOM      6  C   UNL     1       3.054  -3.762  -6.002  1.00  0.00    -0.000 C 
BRANCH   6   7
ATOM      7  C   UNL     1       3.000  -2.732  -4.860  1.00  0.00    -0.000 C 
BRANCH   7   8
ATOM      8  C   UNL     1       1.944  -3.022  -3.779  1.00  0.00    -0.003 C 
ATOM      9  C   UNL     1       2.392  -2.606  -2.379  1.00  0.00     0.004 C 
ENDBRANCH   7   8
ENDBRANCH   6   7
ENDBRANCH   5   6
ENDBRANCH   4   5
ENDBRANCH   3   4
ENDBRANCH   2   3
ENDBRANCH   1   2
BRANCH   1  10
ATOM     10  C   UNL     1       8.683  -6.937  -5.783  1.00  0.00     0.000 C 
BRANCH  10  11
ATOM     11  C   UNL     1       9.699  -6.352  -6.777  1.00  0.00     0.000 C 
BRANCH  11  12
ATOM     12  C   UNL     1       9.031  -5.813  -8.055  1.00  0.00     0.000 C 
BRANCH  12  13
ATOM     13  C   UNL     1       9.471  -4.368  -8.373  1.00  0.00     0.000 C 
BRANCH  13  14
ATOM     14  C   UNL     1       9.104  -3.357  -7.272  1.00  0.00     0.002 C 
BRANCH  14  15
ATOM     15  C   UNL     1       8.177  -2.239  -7.771  1.00  0.00     0.028 C 
BRANCH  15  16
ATOM     16  C   UNL     1       7.608  -2.542  -9.159  1.00  0.00     0.156 C 
BRANCH  16  17
ATOM     17  O   UNL     1       6.399  -1.858  -9.359  1.00  0.00    -0.396 OA
ATOM     18  H   UNL     1       6.623  -0.898  -9.472  1.00  0.00     0.210 HD
ENDBRANCH  16  17
ENDBRANCH  15  16
ENDBRANCH  14  15
ENDBRANCH  13  14
ENDBRANCH  12  13
ENDBRANCH  11  12
ENDBRANCH  10  11
ENDBRANCH   1  10
TORSDOF 15
ENDMDL
MODEL 3
REMARK VINA RESULT:    -3.740      2.598      5.096
REMARK INTER + INTRA:          -8.372
REMARK INTER:                  -5.779
REMARK INTRA:                  -2.593
REMARK UNBOUND:                -1.462
REMARK SMILES CCCCCCCCCCCCCCCCO
REMARK SMILES IDX 9 1 8 2 7 3 6 4 5 5 4 6 3 7 2 8 1 9 10 10 11 11 12 12 13 13
REMARK SMILES IDX 14 14 15 15 16 16 17 17
REMARK H PARENT 17 18
REMARK Flexibility Score: inf
ROOT
ATOM      1  C   UNL     1       3.343  -4.701  -7.876  1.00  0.00     0.000 C 
ENDROOT
BRANCH   1   2
ATOM      2  C   UNL     1       3.930  -6.120  -7.920  1.00  0.00    -0.000 C 
BRANCH   2   3
ATOM      3  C   UNL     1       4.372  -6.535  -9.333  1.00  0.00    -0.000 C 
BRANCH   3   4
ATOM      4  C   UNL     1       5.835  -7.010  -9.385  1.00  0.00    -0.000 C 
BRANCH   4   5
ATOM      5  C   UNL     1       6.856  -5.856  -9.471  1.00  0.00    -0.000 C 
BRANCH   5   6
ATOM      6  C   UNL     1       8.151  -6.166  -8.699  1.00  0.00    -0.000 C 
BRANCH   6   7
ATOM      7  C   UNL     1       7.890  -6.642  -7.259  1.00  0.00    -0.000 C 
BRANCH   7   8
ATOM      8  C   UNL     1       7.462  -5.533  -6.281  1.00  0.00    -0.003 C 
ATOM      9  C   UNL     1       6.471  -6.019  -5.224  1.00  0.00     0.004 C 
ENDBRANCH   7   8
ENDBRANCH   6   7
ENDBRANCH   5   6
ENDBRANCH   4   5
ENDBRANCH   3   4
ENDBRANCH   2   3
ENDBRANCH   1   2
BRANCH   1  10
ATOM     10  C   UNL     1       4.001  -3.824  -6.797  1.00  0.00     0.000 C 
BRANCH  10  11
ATOM     11  C   UNL     1       5.194  -3.024  -7.344  1.00  0.00     0.000 C 
BRANCH  11  12
ATOM     12  C   UNL     1       5.024  -2.650  -8.827  1.00  0.00     0.000 C 
BRANCH  12  13
ATOM     13  C   UNL     1       6.370  -2.297  -9.495  1.00  0.00     0.000 C 
BRANCH  13  14
ATOM     14  C   UNL     1       7.568  -2.358  -8.532  1.00  0.00     0.002 C 
BRANCH  14  15
ATOM     15  C   UNL     1       8.920  -2.388  -9.260  1.00  0.00     0.028 C 
BRANCH  15  16
ATOM     16  C   UNL     1      10.018  -3.026  -8.405  1.00  0.00     0.156 C 
BRANCH  16  17
ATOM     17  O   UNL     1       9.723  -2.892  -7.039  1.00  0.00    -0.396 OA
ATOM     18  H   UNL     1       9.790  -1.926  -6.821  1.00  0.00     0.210 HD
ENDBRANCH  16  17
ENDBRANCH  15  16
ENDBRANCH  14  15
ENDBRANCH  13  14
ENDBRANCH  12  13
ENDBRANCH  11  12
ENDBRANCH  10  11
ENDBRANCH   1  10
TORSDOF 15
ENDMDL
MODEL 4
REMARK VINA RESULT:    -3.714      3.082      4.926
REMARK INTER + INTRA:          -8.325
REMARK INTER:                  -5.910
REMARK INTRA:                  -2.414
REMARK UNBOUND:                -1.462
REMARK SMILES CCCCCCCCCCCCCCCCO
REMARK SMILES IDX 9 1 8 2 7 3 6 4 5 5 4 6 3 7 2 8 1 9 10 10 11 11 12 12 13 13
REMARK SMILES IDX 14 14 15 15 16 16 17 17
REMARK H PARENT 17 18
REMARK Flexibility Score: inf
ROOT
ATOM      1  C   UNL     1       7.013  -4.071  -6.264  1.00  0.00     0.000 C 
ENDROOT
BRANCH   1   2
ATOM      2  C   UNL     1       5.559  -4.512  -6.037  1.00  0.00    -0.000 C 
BRANCH   2   3
ATOM      3  C   UNL     1       4.553  -3.674  -6.842  1.00  0.00    -0.000 C 
BRANCH   3   4
ATOM      4  C   UNL     1       5.218  -2.861  -7.967  1.00  0.00    -0.000 C 
BRANCH   4   5
ATOM      5  C   UNL     1       4.763  -3.277  -9.381  1.00  0.00    -0.000 C 
BRANCH   5   6
ATOM      6  C   UNL     1       3.388  -3.968  -9.369  1.00  0.00    -0.000 C 
BRANCH   6   7
ATOM      7  C   UNL     1       3.386  -5.312 -10.118  1.00  0.00    -0.000 C 
BRANCH   7   8
ATOM      8  C   UNL     1       4.364  -6.362  -9.561  1.00  0.00    -0.003 C 
ATOM      9  C   UNL     1       3.834  -7.071  -8.316  1.00  0.00     0.004 C 
ENDBRANCH   7   8
ENDBRANCH   6   7
ENDBRANCH   5   6
ENDBRANCH   4   5
ENDBRANCH   3   4
ENDBRANCH   2   3
ENDBRANCH   1   2
BRANCH   1  10
ATOM     10  C   UNL     1       7.964  -5.261  -6.479  1.00  0.00     0.000 C 
BRANCH  10  11
ATOM     11  C   UNL     1       7.586  -6.092  -7.716  1.00  0.00     0.000 C 
BRANCH  11  12
ATOM     12  C   UNL     1       8.191  -5.528  -9.014  1.00  0.00     0.000 C 
BRANCH  12  13
ATOM     13  C   UNL     1       9.623  -4.993  -8.803  1.00  0.00     0.000 C 
BRANCH  13  14
ATOM     14  C   UNL     1       9.873  -3.627  -9.465  1.00  0.00     0.002 C 
BRANCH  14  15
ATOM     15  C   UNL     1       8.610  -2.757  -9.539  1.00  0.00     0.028 C 
BRANCH  15  16
ATOM     16  C   UNL     1       8.721  -1.508  -8.660  1.00  0.00     0.156 C 
BRANCH  16  17
ATOM     17  O   UNL     1       8.364  -0.360  -9.384  1.00  0.00    -0.396 OA
ATOM     18  H   UNL     1       9.190  -0.019  -9.816  1.00  0.00     0.210 HD
ENDBRANCH  16  17
ENDBRANCH  15  16
ENDBRANCH  14  15
ENDBRANCH  13  14
ENDBRANCH  12  13
ENDBRANCH  11  12
ENDBRANCH  10  11
ENDBRANCH   1  10
TORSDOF 15
ENDMDL
MODEL 5
REMARK VINA RESULT:    -3.632      3.264      5.669
REMARK INTER + INTRA:          -8.173
REMARK INTER:                  -5.601
REMARK INTRA:                  -2.572
REMARK UNBOUND:                -1.462
REMARK SMILES CCCCCCCCCCCCCCCCO
REMARK SMILES IDX 9 1 8 2 7 3 6 4 5 5 4 6 3 7 2 8 1 9 10 10 11 11 12 12 13 13
REMARK SMILES IDX 14 14 15 15 16 16 17 17
REMARK H PARENT 17 18
REMARK Flexibility Score: inf
ROOT
ATOM      1  C   UNL     1       6.383  -5.946  -5.251  1.00  0.00     0.000 C 
ENDROOT
BRANCH   1   2
ATOM      2  C   UNL     1       7.649  -6.174  -6.092  1.00  0.00    -0.000 C 
BRANCH   2   3
ATOM      3  C   UNL     1       7.923  -7.662  -6.361  1.00  0.00    -0.000 C 
BRANCH   3   4
ATOM      4  C   UNL     1       7.361  -8.137  -7.713  1.00  0.00    -0.000 C 
BRANCH   4   5
ATOM      5  C   UNL     1       7.383  -7.047  -8.806  1.00  0.00    -0.000 C 
BRANCH   5   6
ATOM      6  C   UNL     1       6.004  -6.856  -9.464  1.00  0.00    -0.000 C 
BRANCH   6   7
ATOM      7  C   UNL     1       4.838  -7.213  -8.525  1.00  0.00    -0.000 C 
BRANCH   7   8
ATOM      8  C   UNL     1       3.728  -6.149  -8.444  1.00  0.00    -0.003 C 
ATOM      9  C   UNL     1       3.422  -5.502  -9.794  1.00  0.00     0.004 C 
ENDBRANCH   7   8
ENDBRANCH   6   7
ENDBRANCH   5   6
ENDBRANCH   4   5
ENDBRANCH   3   4
ENDBRANCH   2   3
ENDBRANCH   1   2
BRANCH   1  10
ATOM     10  C   UNL     1       5.615  -4.681  -5.671  1.00  0.00     0.000 C 
BRANCH  10  11
ATOM     11  C   UNL     1       6.318  -3.924  -6.809  1.00  0.00     0.000 C 
BRANCH  11  12
ATOM     12  C   UNL     1       5.369  -2.972  -7.559  1.00  0.00     0.000 C 
BRANCH  12  13
ATOM     13  C   UNL     1       5.802  -2.759  -9.025  1.00  0.00     0.000 C 
BRANCH  13  14
ATOM     14  C   UNL     1       7.165  -3.389  -9.362  1.00  0.00     0.002 C 
BRANCH  14  15
ATOM     15  C   UNL     1       8.155  -2.385  -9.972  1.00  0.00     0.028 C 
BRANCH  15  16
ATOM     16  C   UNL     1       8.761  -1.463  -8.911  1.00  0.00     0.156 C 
BRANCH  16  17
ATOM     17  O   UNL     1       8.492  -0.119  -9.212  1.00  0.00    -0.396 OA
ATOM     18  H   UNL     1       8.222  -0.082 -10.166  1.00  0.00     0.210 HD
ENDBRANCH  16  17
ENDBRANCH  15  16
ENDBRANCH  14  15
ENDBRANCH  13  14
ENDBRANCH  12  13
ENDBRANCH  11  12
ENDBRANCH  10  11
ENDBRANCH   1  10
TORSDOF 15
ENDMDL
MODEL 6
REMARK VINA RESULT:    -3.575      1.986      4.988
REMARK INTER + INTRA:          -8.067
REMARK INTER:                  -5.618
REMARK INTRA:                  -2.449
REMARK UNBOUND:                -1.462
REMARK SMILES CCCCCCCCCCCCCCCCO
REMARK SMILES IDX 9 1 8 2 7 3 6 4 5 5 4 6 3 7 2 8 1 9 10 10 11 11 12 12 13 13
REMARK SMILES IDX 14 14 15 15 16 16 17 17
REMARK H PARENT 17 18
REMARK Flexibility Score: inf
ROOT
ATOM      1  C   UNL     1       7.986  -2.634  -7.372  1.00  0.00     0.000 C 
ENDROOT
BRANCH   1   2
ATOM      2  C   UNL     1       8.977  -3.621  -6.737  1.00  0.00    -0.000 C 
BRANCH   2   3
ATOM      3  C   UNL     1       9.980  -4.191  -7.753  1.00  0.00    -0.000 C 
BRANCH   3   4
ATOM      4  C   UNL     1       9.785  -5.697  -8.004  1.00  0.00    -0.000 C 
BRANCH   4   5
ATOM      5  C   UNL     1       8.932  -6.008  -9.252  1.00  0.00    -0.000 C 
BRANCH   5   6
ATOM      6  C   UNL     1       7.530  -6.525  -8.885  1.00  0.00    -0.000 C 
BRANCH   6   7
ATOM      7  C   UNL     1       7.433  -7.008  -7.427  1.00  0.00    -0.000 C 
BRANCH   7   8
ATOM      8  C   UNL     1       6.196  -6.506  -6.662  1.00  0.00    -0.003 C 
ATOM      9  C   UNL     1       6.528  -5.986  -5.264  1.00  0.00     0.004 C 
ENDBRANCH   7   8
ENDBRANCH   6   7
ENDBRANCH   5   6
ENDBRANCH   4   5
ENDBRANCH   3   4
ENDBRANCH   2   3
ENDBRANCH   1   2
BRANCH   1  10
ATOM     10  C   UNL     1       8.539  -1.983  -8.652  1.00  0.00     0.000 C 
BRANCH  10  11
ATOM     11  C   UNL     1       7.473  -1.863  -9.752  1.00  0.00     0.000 C 
BRANCH  11  12
ATOM     12  C   UNL     1       6.711  -3.180  -9.983  1.00  0.00     0.000 C 
BRANCH  12  13
ATOM     13  C   UNL     1       5.190  -3.014  -9.777  1.00  0.00     0.000 C 
BRANCH  13  14
ATOM     14  C   UNL     1       4.642  -3.809  -8.578  1.00  0.00     0.002 C 
BRANCH  14  15
ATOM     15  C   UNL     1       4.507  -2.959  -7.307  1.00  0.00     0.028 C 
BRANCH  15  16
ATOM     16  C   UNL     1       3.772  -3.707  -6.192  1.00  0.00     0.156 C 
BRANCH  16  17
ATOM     17  O   UNL     1       2.639  -4.363  -6.699  1.00  0.00    -0.396 OA
ATOM     18  H   UNL     1       2.356  -3.869  -7.512  1.00  0.00     0.210 HD
ENDBRANCH  16  17
ENDBRANCH  15  16
ENDBRANCH  14  15
ENDBRANCH  13  14
ENDBRANCH  12  13
ENDBRANCH  11  12
ENDBRANCH  10  11
ENDBRANCH   1  10
TORSDOF 15
ENDMDL
MODEL 7
REMARK VINA RESULT:    -3.559      2.057      5.944
REMARK INTER + INTRA:          -8.037
REMARK INTER:                  -5.808
REMARK INTRA:                  -2.229
REMARK UNBOUND:                -1.462
REMARK SMILES CCCCCCCCCCCCCCCCO
REMARK SMILES IDX 9 1 8 2 7 3 6 4 5 5 4 6 3 7 2 8 1 9 10 10 11 11 12 12 13 13
REMARK SMILES IDX 14 14 15 15 16 16 17 17
REMARK H PARENT 17 18
REMARK Flexibility Score: inf
ROOT
ATOM      1  C   UNL     1       7.297  -6.079  -5.638  1.00  0.00     0.000 C 
ENDROOT
BRANCH   1   2
ATOM      2  C   UNL     1       8.347  -7.133  -5.250  1.00  0.00    -0.000 C 
BRANCH   2   3
ATOM      3  C   UNL     1       9.528  -7.183  -6.233  1.00  0.00    -0.000 C 
BRANCH   3   4
ATOM      4  C   UNL     1      10.001  -5.784  -6.669  1.00  0.00    -0.000 C 
BRANCH   4   5
ATOM      5  C   UNL     1       9.961  -5.569  -8.196  1.00  0.00    -0.000 C 
BRANCH   5   6
ATOM      6  C   UNL     1       9.996  -4.078  -8.574  1.00  0.00    -0.000 C 
BRANCH   6   7
ATOM      7  C   UNL     1       9.607  -3.154  -7.406  1.00  0.00    -0.000 C 
BRANCH   7   8
ATOM      8  C   UNL     1       8.150  -2.658  -7.434  1.00  0.00    -0.003 C 
ATOM      9  C   UNL     1       7.744  -2.075  -8.787  1.00  0.00     0.004 C 
ENDBRANCH   7   8
ENDBRANCH   6   7
ENDBRANCH   5   6
ENDBRANCH   4   5
ENDBRANCH   3   4
ENDBRANCH   2   3
ENDBRANCH   1   2
BRANCH   1  10
ATOM     10  C   UNL     1       6.014  -6.707  -6.209  1.00  0.00     0.000 C 
BRANCH  10  11
ATOM     11  C   UNL     1       6.076  -6.874  -7.735  1.00  0.00     0.000 C 
BRANCH  11  12
ATOM     12  C   UNL     1       6.252  -5.533  -8.470  1.00  0.00     0.000 C 
BRANCH  12  13
ATOM     13  C   UNL     1       5.031  -5.189  -9.349  1.00  0.00     0.000 C 
BRANCH  13  14
ATOM     14  C   UNL     1       3.955  -4.370  -8.614  1.00  0.00     0.002 C 
BRANCH  14  15
ATOM     15  C   UNL     1       4.529  -3.512  -7.477  1.00  0.00     0.028 C 
BRANCH  15  16
ATOM     16  C   UNL     1       3.741  -3.683  -6.176  1.00  0.00     0.156 C 
BRANCH  16  17
ATOM     17  O   UNL     1       2.451  -4.171  -6.439  1.00  0.00    -0.396 OA
ATOM     18  H   UNL     1       1.969  -3.463  -6.939  1.00  0.00     0.210 HD
ENDBRANCH  16  17
ENDBRANCH  15  16
ENDBRANCH  14  15
ENDBRANCH  13  14
ENDBRANCH  12  13
ENDBRANCH  11  12
ENDBRANCH  10  11
ENDBRANCH   1  10
TORSDOF 15
ENDMDL
MODEL 8
REMARK VINA RESULT:    -3.552      2.278      4.910
REMARK INTER + INTRA:          -8.025
REMARK INTER:                  -5.896
REMARK INTRA:                  -2.129
REMARK UNBOUND:                -1.462
REMARK SMILES CCCCCCCCCCCCCCCCO
REMARK SMILES IDX 9 1 8 2 7 3 6 4 5 5 4 6 3 7 2 8 1 9 10 10 11 11 12 12 13 13
REMARK SMILES IDX 14 14 15 15 16 16 17 17
REMARK H PARENT 17 18
REMARK Flexibility Score: inf
ROOT
ATOM      1  C   UNL     1       4.300  -3.680  -7.427  1.00  0.00     0.000 C 
ENDROOT
BRANCH   1   2
ATOM      2  C   UNL     1       4.922  -2.588  -8.312  1.00  0.00    -0.000 C 
BRANCH   2   3
ATOM      3  C   UNL     1       5.461  -3.140  -9.643  1.00  0.00    -0.000 C 
BRANCH   3   4
ATOM      4  C   UNL     1       6.999  -3.188  -9.689  1.00  0.00    -0.000 C 
BRANCH   4   5
ATOM      5  C   UNL     1       7.667  -1.832  -9.377  1.00  0.00    -0.000 C 
BRANCH   5   6
ATOM      6  C   UNL     1       8.747  -1.954  -8.287  1.00  0.00    -0.000 C 
BRANCH   6   7
ATOM      7  C   UNL     1       8.449  -3.070  -7.270  1.00  0.00    -0.000 C 
BRANCH   7   8
ATOM      8  C   UNL     1       9.639  -3.997  -6.962  1.00  0.00    -0.003 C 
ATOM      9  C   UNL     1       9.711  -5.206  -7.893  1.00  0.00     0.004 C 
ENDBRANCH   7   8
ENDBRANCH   6   7
ENDBRANCH   5   6
ENDBRANCH   4   5
ENDBRANCH   3   4
ENDBRANCH   2   3
ENDBRANCH   1   2
BRANCH   1  10
ATOM     10  C   UNL     1       3.449  -4.678  -8.232  1.00  0.00     0.000 C 
BRANCH  10  11
ATOM     11  C   UNL     1       3.764  -6.137  -7.868  1.00  0.00     0.000 C 
BRANCH  11  12
ATOM     12  C   UNL     1       4.822  -6.762  -8.794  1.00  0.00     0.000 C 
BRANCH  12  13
ATOM     13  C   UNL     1       6.256  -6.536  -8.272  1.00  0.00     0.000 C 
BRANCH  13  14
ATOM     14  C   UNL     1       6.790  -7.699  -7.417  1.00  0.00     0.002 C 
BRANCH  14  15
ATOM     15  C   UNL     1       6.601  -7.470  -5.910  1.00  0.00     0.028 C 
BRANCH  15  16
ATOM     16  C   UNL     1       6.698  -5.988  -5.539  1.00  0.00     0.156 C 
BRANCH  16  17
ATOM     17  O   UNL     1       5.616  -5.608  -4.730  1.00  0.00    -0.396 OA
ATOM     18  H   UNL     1       5.482  -6.332  -4.064  1.00  0.00     0.210 HD
ENDBRANCH  16  17
ENDBRANCH  15  16
ENDBRANCH  14  15
ENDBRANCH  13  14
ENDBRANCH  12  13
ENDBRANCH  11  12
ENDBRANCH  10  11
ENDBRANCH   1  10
TORSDOF 15
ENDMDL
MODEL 9
REMARK VINA RESULT:    -2.330      3.144      5.211
REMARK INTER + INTRA:          -5.767
REMARK INTER:                  -3.553
REMARK INTRA:                  -2.214
REMARK UNBOUND:                -1.462
REMARK SMILES CCCCCCCCCCCCCCCCO
REMARK SMILES IDX 9 1 8 2 7 3 6 4 5 5 4 6 3 7 2 8 1 9 10 10 11 11 12 12 13 13
REMARK SMILES IDX 14 14 15 15 16 16 17 17
REMARK H PARENT 17 18
REMARK Flexibility Score: inf
ROOT
ATOM      1  C   UNL     1       4.657  -3.992  -6.519  1.00  0.00     0.000 C 
ENDROOT
BRANCH   1   2
ATOM      2  C   UNL     1       4.857  -2.912  -7.594  1.00  0.00    -0.000 C 
BRANCH   2   3
ATOM      3  C   UNL     1       4.229  -3.294  -8.943  1.00  0.00    -0.000 C 
BRANCH   3   4
ATOM      4  C   UNL     1       4.852  -4.562  -9.554  1.00  0.00    -0.000 C 
BRANCH   4   5
ATOM      5  C   UNL     1       3.928  -5.796  -9.487  1.00  0.00    -0.000 C 
BRANCH   5   6
ATOM      6  C   UNL     1       4.593  -6.981  -8.764  1.00  0.00    -0.000 C 
BRANCH   6   7
ATOM      7  C   UNL     1       6.113  -6.805  -8.598  1.00  0.00    -0.000 C 
BRANCH   7   8
ATOM      8  C   UNL     1       6.858  -8.063  -8.114  1.00  0.00    -0.003 C 
ATOM      9  C   UNL     1       7.154  -8.041  -6.615  1.00  0.00     0.004 C 
ENDBRANCH   7   8
ENDBRANCH   6   7
ENDBRANCH   5   6
ENDBRANCH   4   5
ENDBRANCH   3   4
ENDBRANCH   2   3
ENDBRANCH   1   2
BRANCH   1  10
ATOM     10  C   UNL     1       5.988  -4.527  -5.964  1.00  0.00     0.000 C 
BRANCH  10  11
ATOM     11  C   UNL     1       7.185  -3.659  -6.384  1.00  0.00     0.000 C 
BRANCH  11  12
ATOM     12  C   UNL     1       8.451  -4.490  -6.657  1.00  0.00     0.000 C 
BRANCH  12  13
ATOM     13  C   UNL     1       9.143  -4.078  -7.974  1.00  0.00     0.000 C 
BRANCH  13  14
ATOM     14  C   UNL     1       8.235  -3.271  -8.919  1.00  0.00     0.002 C 
BRANCH  14  15
ATOM     15  C   UNL     1       8.645  -1.795  -9.029  1.00  0.00     0.028 C 
BRANCH  15  16
ATOM     16  C   UNL     1       7.867  -1.064 -10.125  1.00  0.00     0.156 C 
BRANCH  16  17
ATOM     17  O   UNL     1       8.176   0.305 -10.123  1.00  0.00    -0.396 OA
ATOM     18  H   UNL     1       8.437   0.543  -9.195  1.00  0.00     0.210 HD
ENDBRANCH  16  17
ENDBRANCH  15  16
ENDBRANCH  14  15
ENDBRANCH  13  14
ENDBRANCH  12  13
ENDBRANCH  11  12
ENDBRANCH  10  11
ENDBRANCH   1  10
TORSDOF 15
ENDMDL
