MODEL 1
REMARK VINA RESULT:    -3.087      0.000      0.000
REMARK INTER + INTRA:          -3.423
REMARK INTER:                  -3.358
REMARK INTRA:                  -0.065
REMARK UNBOUND:                -0.065
REMARK SMILES COc1cc2ccc(=O)oc2cc1O
REMARK SMILES IDX 3 1 13 2 12 3 11 4 5 5 4 6 6 7 7 8 8 9 9 10 10 11 2 12 1 13
REMARK SMILES IDX 14 14
REMARK H PARENT 14 15
REMARK Flexibility Score: inf
ROOT
ATOM      1  C   UNL     1     -28.783 -23.590  41.153  1.00  0.00     0.161 A 
ATOM      2  C   UNL     1     -27.537 -24.213  40.985  1.00  0.00     0.161 A 
ATOM      3  C   UNL     1     -26.958 -24.934  42.039  1.00  0.00     0.098 A 
ATOM      4  C   UNL     1     -27.618 -25.041  43.265  1.00  0.00     0.142 A 
ATOM      5  C   UNL     1     -28.871 -24.419  43.443  1.00  0.00     0.022 A 
ATOM      6  C   UNL     1     -29.450 -23.696  42.390  1.00  0.00     0.062 A 
ATOM      7  C   UNL     1     -29.508 -24.543  44.682  1.00  0.00     0.019 A 
ATOM      8  C   UNL     1     -28.891 -25.272  45.698  1.00  0.00     0.094 A 
ATOM      9  C   UNL     1     -27.647 -25.862  45.450  1.00  0.00     0.336 A 
ATOM     10  O   UNL     1     -27.074 -26.524  46.354  1.00  0.00    -0.246 OA
ATOM     11  O   UNL     1     -27.064 -25.728  44.262  1.00  0.00    -0.423 OA
ENDROOT
BRANCH   1  12
ATOM     12  O   UNL     1     -29.325 -22.877  40.071  1.00  0.00    -0.493 OA
ATOM     13  C   UNL     1     -30.421 -23.322  39.280  1.00  0.00     0.278 C 
ENDBRANCH   1  12
BRANCH   2  14
ATOM     14  O   UNL     1     -26.876 -24.108  39.762  1.00  0.00    -0.504 OA
ATOM     15  H   UNL     1     -27.240 -24.543  38.923  1.00  0.00     0.293 HD
ENDBRANCH   2  14
TORSDOF 2
ENDMDL
MODEL 2
REMARK VINA RESULT:    -2.973     16.475     17.463
REMARK INTER + INTRA:          -3.299
REMARK INTER:                  -3.239
REMARK INTRA:                  -0.060
REMARK UNBOUND:                -0.065
REMARK SMILES COc1cc2ccc(=O)oc2cc1O
REMARK SMILES IDX 3 1 13 2 12 3 11 4 5 5 4 6 6 7 7 8 8 9 9 10 10 11 2 12 1 13
REMARK SMILES IDX 14 14
REMARK H PARENT 14 15
REMARK Flexibility Score: inf
ROOT
ATOM      1  C   UNL     1     -46.493 -25.137  40.829  1.00  0.00     0.161 A 
ATOM      2  C   UNL     1     -45.971 -23.843  40.681  1.00  0.00     0.161 A 
ATOM      3  C   UNL     1     -45.333 -23.209  41.757  1.00  0.00     0.098 A 
ATOM      4  C   UNL     1     -45.210 -23.862  42.986  1.00  0.00     0.142 A 
ATOM      5  C   UNL     1     -45.731 -25.163  43.143  1.00  0.00     0.022 A 
ATOM      6  C   UNL     1     -46.371 -25.797  42.068  1.00  0.00     0.062 A 
ATOM      7  C   UNL     1     -45.593 -25.791  44.386  1.00  0.00     0.019 A 
ATOM      8  C   UNL     1     -44.949 -25.119  45.424  1.00  0.00     0.094 A 
ATOM      9  C   UNL     1     -44.457 -23.829  45.195  1.00  0.00     0.336 A 
ATOM     10  O   UNL     1     -43.873 -23.207  46.119  1.00  0.00    -0.246 OA
ATOM     11  O   UNL     1     -44.602 -23.256  44.003  1.00  0.00    -0.423 OA
ENDROOT
BRANCH   1  12
ATOM     12  O   UNL     1     -47.125 -25.733  39.725  1.00  0.00    -0.493 OA
ATOM     13  C   UNL     1     -46.711 -26.953  39.120  1.00  0.00     0.278 C 
ENDBRANCH   1  12
BRANCH   2  14
ATOM     14  O   UNL     1     -46.092 -23.189  39.455  1.00  0.00    -0.504 OA
ATOM     15  H   UNL     1     -46.731 -23.516  38.741  1.00  0.00     0.293 HD
ENDBRANCH   2  14
TORSDOF 2
ENDMDL
MODEL 3
REMARK VINA RESULT:    -2.954      1.460      5.350
REMARK INTER + INTRA:          -3.278
REMARK INTER:                  -3.232
REMARK INTRA:                  -0.046
REMARK UNBOUND:                -0.065
REMARK SMILES COc1cc2ccc(=O)oc2cc1O
REMARK SMILES IDX 3 1 13 2 12 3 11 4 5 5 4 6 6 7 7 8 8 9 9 10 10 11 2 12 1 13
REMARK SMILES IDX 14 14
REMARK H PARENT 14 15
REMARK Flexibility Score: inf
ROOT
ATOM      1  C   UNL     1     -28.427 -25.114  44.551  1.00  0.00     0.161 A 
ATOM      2  C   UNL     1     -29.582 -24.338  44.370  1.00  0.00     0.161 A 
ATOM      3  C   UNL     1     -29.869 -23.775  43.119  1.00  0.00     0.098 A 
ATOM      4  C   UNL     1     -29.007 -23.982  42.039  1.00  0.00     0.142 A 
ATOM      5  C   UNL     1     -27.844 -24.761  42.212  1.00  0.00     0.022 A 
ATOM      6  C   UNL     1     -27.556 -25.323  43.463  1.00  0.00     0.062 A 
ATOM      7  C   UNL     1     -27.000 -24.951  41.112  1.00  0.00     0.019 A 
ATOM      8  C   UNL     1     -27.330 -24.370  39.888  1.00  0.00     0.094 A 
ATOM      9  C   UNL     1     -28.500 -23.610  39.792  1.00  0.00     0.336 A 
ATOM     10  O   UNL     1     -28.815 -23.078  38.696  1.00  0.00    -0.246 OA
ATOM     11  O   UNL     1     -29.285 -23.445  40.854  1.00  0.00    -0.423 OA
ENDROOT
BRANCH   1  12
ATOM     12  O   UNL     1     -28.179 -25.658  45.822  1.00  0.00    -0.493 OA
ATOM     13  C   UNL     1     -26.910 -26.124  46.266  1.00  0.00     0.278 C 
ENDBRANCH   1  12
BRANCH   2  14
ATOM     14  O   UNL     1     -30.445 -24.129  45.446  1.00  0.00    -0.504 OA
ATOM     15  H   UNL     1     -30.831 -23.214  45.647  1.00  0.00     0.293 HD
ENDBRANCH   2  14
TORSDOF 2
ENDMDL
MODEL 4
REMARK VINA RESULT:    -2.932     16.514     18.187
REMARK INTER + INTRA:          -3.254
REMARK INTER:                  -3.204
REMARK INTRA:                  -0.049
REMARK UNBOUND:                -0.065
REMARK SMILES COc1cc2ccc(=O)oc2cc1O
REMARK SMILES IDX 3 1 13 2 12 3 11 4 5 5 4 6 6 7 7 8 8 9 9 10 10 11 2 12 1 13
REMARK SMILES IDX 14 14
REMARK H PARENT 14 15
REMARK Flexibility Score: inf
ROOT
ATOM      1  C   UNL     1     -45.065 -24.762  44.074  1.00  0.00     0.161 A 
ATOM      2  C   UNL     1     -45.941 -25.851  43.945  1.00  0.00     0.161 A 
ATOM      3  C   UNL     1     -46.526 -26.146  42.705  1.00  0.00     0.098 A 
ATOM      4  C   UNL     1     -46.243 -25.358  41.587  1.00  0.00     0.142 A 
ATOM      5  C   UNL     1     -45.364 -24.261  41.708  1.00  0.00     0.022 A 
ATOM      6  C   UNL     1     -44.779 -23.964  42.947  1.00  0.00     0.062 A 
ATOM      7  C   UNL     1     -45.100 -23.490  40.571  1.00  0.00     0.019 A 
ATOM      8  C   UNL     1     -45.707 -23.825  39.361  1.00  0.00     0.094 A 
ATOM      9  C   UNL     1     -46.568 -24.927  39.317  1.00  0.00     0.336 A 
ATOM     10  O   UNL     1     -47.125 -25.245  38.234  1.00  0.00    -0.246 OA
ATOM     11  O   UNL     1     -46.801 -25.643  40.413  1.00  0.00    -0.423 OA
ENDROOT
BRANCH   1  12
ATOM     12  O   UNL     1     -44.503 -24.503  45.334  1.00  0.00    -0.493 OA
ATOM     13  C   UNL     1     -44.250 -23.202  45.853  1.00  0.00     0.278 C 
ENDBRANCH   1  12
BRANCH   2  14
ATOM     14  O   UNL     1     -46.225 -26.640  45.059  1.00  0.00    -0.504 OA
ATOM     15  H   UNL     1     -45.883 -27.590  45.137  1.00  0.00     0.293 HD
ENDBRANCH   2  14
TORSDOF 2
ENDMDL
MODEL 5
REMARK VINA RESULT:    -2.798     15.833     16.843
REMARK INTER + INTRA:          -3.108
REMARK INTER:                  -3.053
REMARK INTRA:                  -0.055
REMARK UNBOUND:                -0.065
REMARK SMILES COc1cc2ccc(=O)oc2cc1O
REMARK SMILES IDX 3 1 13 2 12 3 11 4 5 5 4 6 6 7 7 8 8 9 9 10 10 11 2 12 1 13
REMARK SMILES IDX 14 14
REMARK H PARENT 14 15
REMARK Flexibility Score: inf
ROOT
ATOM      1  C   UNL     1     -45.473 -24.911  43.222  1.00  0.00     0.161 A 
ATOM      2  C   UNL     1     -45.927 -25.905  44.103  1.00  0.00     0.161 A 
ATOM      3  C   UNL     1     -45.540 -25.887  45.450  1.00  0.00     0.098 A 
ATOM      4  C   UNL     1     -44.699 -24.879  45.929  1.00  0.00     0.142 A 
ATOM      5  C   UNL     1     -44.238 -23.876  45.050  1.00  0.00     0.022 A 
ATOM      6  C   UNL     1     -44.624 -23.893  43.702  1.00  0.00     0.062 A 
ATOM      7  C   UNL     1     -43.398 -22.880  45.558  1.00  0.00     0.019 A 
ATOM      8  C   UNL     1     -43.043 -22.906  46.906  1.00  0.00     0.094 A 
ATOM      9  C   UNL     1     -43.538 -23.932  47.718  1.00  0.00     0.336 A 
ATOM     10  O   UNL     1     -43.229 -23.973  48.937  1.00  0.00    -0.246 OA
ATOM     11  O   UNL     1     -44.336 -24.867  47.209  1.00  0.00    -0.423 OA
ENDROOT
BRANCH   1  12
ATOM     12  O   UNL     1     -45.885 -24.968  41.881  1.00  0.00    -0.493 OA
ATOM     13  C   UNL     1     -46.460 -23.879  41.166  1.00  0.00     0.278 C 
ENDBRANCH   1  12
BRANCH   2  14
ATOM     14  O   UNL     1     -46.766 -26.912  43.628  1.00  0.00    -0.504 OA
ATOM     15  H   UNL     1     -47.073 -26.936  42.663  1.00  0.00     0.293 HD
ENDBRANCH   2  14
TORSDOF 2
ENDMDL
MODEL 6
REMARK VINA RESULT:    -2.797      2.172      3.798
REMARK INTER + INTRA:          -3.108
REMARK INTER:                  -3.042
REMARK INTRA:                  -0.065
REMARK UNBOUND:                -0.065
REMARK SMILES COc1cc2ccc(=O)oc2cc1O
REMARK SMILES IDX 3 1 13 2 12 3 11 4 5 5 4 6 6 7 7 8 8 9 9 10 10 11 2 12 1 13
REMARK SMILES IDX 14 14
REMARK H PARENT 14 15
REMARK Flexibility Score: inf
ROOT
ATOM      1  C   UNL     1     -28.399 -24.877  43.759  1.00  0.00     0.161 A 
ATOM      2  C   UNL     1     -29.508 -24.380  44.462  1.00  0.00     0.161 A 
ATOM      3  C   UNL     1     -29.733 -24.763  45.791  1.00  0.00     0.098 A 
ATOM      4  C   UNL     1     -28.855 -25.643  46.429  1.00  0.00     0.142 A 
ATOM      5  C   UNL     1     -27.738 -26.147  45.730  1.00  0.00     0.022 A 
ATOM      6  C   UNL     1     -27.512 -25.765  44.400  1.00  0.00     0.062 A 
ATOM      7  C   UNL     1     -26.876 -27.026  46.395  1.00  0.00     0.019 A 
ATOM      8  C   UNL     1     -27.144 -27.376  47.718  1.00  0.00     0.094 A 
ATOM      9  C   UNL     1     -28.271 -26.837  48.347  1.00  0.00     0.336 A 
ATOM     10  O   UNL     1     -28.529 -27.141  49.541  1.00  0.00    -0.246 OA
ATOM     11  O   UNL     1     -29.073 -26.003  47.691  1.00  0.00    -0.423 OA
ENDROOT
BRANCH   1  12
ATOM     12  O   UNL     1     -28.213 -24.466  42.428  1.00  0.00    -0.493 OA
ATOM     13  C   UNL     1     -27.227 -23.532  42.003  1.00  0.00     0.278 C 
ENDBRANCH   1  12
BRANCH   2  14
ATOM     14  O   UNL     1     -30.386 -23.501  43.828  1.00  0.00    -0.504 OA
ATOM     15  H   UNL     1     -31.166 -23.084  44.321  1.00  0.00     0.293 HD
ENDBRANCH   2  14
TORSDOF 2
ENDMDL
MODEL 7
REMARK VINA RESULT:    -2.782     16.051     17.820
REMARK INTER + INTRA:          -3.090
REMARK INTER:                  -3.026
REMARK INTRA:                  -0.065
REMARK UNBOUND:                -0.065
REMARK SMILES COc1cc2ccc(=O)oc2cc1O
REMARK SMILES IDX 3 1 13 2 12 3 11 4 5 5 4 6 6 7 7 8 8 9 9 10 10 11 2 12 1 13
REMARK SMILES IDX 14 14
REMARK H PARENT 14 15
REMARK Flexibility Score: inf
ROOT
ATOM      1  C   UNL     1     -44.824 -25.043  45.698  1.00  0.00     0.161 A 
ATOM      2  C   UNL     1     -44.327 -23.855  45.140  1.00  0.00     0.161 A 
ATOM      3  C   UNL     1     -44.635 -23.511  43.817  1.00  0.00     0.098 A 
ATOM      4  C   UNL     1     -45.441 -24.348  43.041  1.00  0.00     0.142 A 
ATOM      5  C   UNL     1     -45.945 -25.544  43.593  1.00  0.00     0.022 A 
ATOM      6  C   UNL     1     -45.636 -25.890  44.917  1.00  0.00     0.062 A 
ATOM      7  C   UNL     1     -46.749 -26.362  42.792  1.00  0.00     0.019 A 
ATOM      8  C   UNL     1     -47.027 -25.975  41.482  1.00  0.00     0.094 A 
ATOM      9  C   UNL     1     -46.492 -24.774  41.001  1.00  0.00     0.336 A 
ATOM     10  O   UNL     1     -46.732 -24.408  39.822  1.00  0.00    -0.246 OA
ATOM     11  O   UNL     1     -45.731 -24.016  41.785  1.00  0.00    -0.423 OA
ENDROOT
BRANCH   1  12
ATOM     12  O   UNL     1     -44.489 -25.349  47.027  1.00  0.00    -0.493 OA
ATOM     13  C   UNL     1     -43.475 -26.271  47.412  1.00  0.00     0.278 C 
ENDBRANCH   1  12
BRANCH   2  14
ATOM     14  O   UNL     1     -43.523 -23.017  45.912  1.00  0.00    -0.504 OA
ATOM     15  H   UNL     1     -42.834 -22.406  45.490  1.00  0.00     0.293 HD
ENDBRANCH   2  14
TORSDOF 2
ENDMDL
MODEL 8
REMARK VINA RESULT:    -2.773     23.982     24.579
REMARK INTER + INTRA:          -3.081
REMARK INTER:                  -3.033
REMARK INTRA:                  -0.049
REMARK UNBOUND:                -0.065
REMARK SMILES COc1cc2ccc(=O)oc2cc1O
REMARK SMILES IDX 3 1 13 2 12 3 11 4 5 5 4 6 6 7 7 8 8 9 9 10 10 11 2 12 1 13
REMARK SMILES IDX 14 14
REMARK H PARENT 14 15
REMARK Flexibility Score: inf
ROOT
ATOM      1  C   UNL     1     -45.003 -42.596  40.993  1.00  0.00     0.161 A 
ATOM      2  C   UNL     1     -46.350 -42.205  40.951  1.00  0.00     0.161 A 
ATOM      3  C   UNL     1     -46.969 -41.673  42.090  1.00  0.00     0.098 A 
ATOM      4  C   UNL     1     -46.250 -41.526  43.279  1.00  0.00     0.142 A 
ATOM      5  C   UNL     1     -44.896 -41.917  43.331  1.00  0.00     0.022 A 
ATOM      6  C   UNL     1     -44.276 -42.450  42.192  1.00  0.00     0.062 A 
ATOM      7  C   UNL     1     -44.201 -41.757  44.535  1.00  0.00     0.019 A 
ATOM      8  C   UNL     1     -44.863 -41.223  45.640  1.00  0.00     0.094 A 
ATOM      9  C   UNL     1     -46.207 -40.858  45.515  1.00  0.00     0.336 A 
ATOM     10  O   UNL     1     -46.821 -40.374  46.501  1.00  0.00    -0.246 OA
ATOM     11  O   UNL     1     -46.844 -41.020  44.358  1.00  0.00    -0.423 OA
ENDROOT
BRANCH   1  12
ATOM     12  O   UNL     1     -44.424 -43.125  39.828  1.00  0.00    -0.493 OA
ATOM     13  C   UNL     1     -43.063 -42.945  39.451  1.00  0.00     0.278 C 
ENDBRANCH   1  12
BRANCH   2  14
ATOM     14  O   UNL     1     -47.071 -42.350  39.766  1.00  0.00    -0.504 OA
ATOM     15  H   UNL     1     -48.076 -42.225  39.737  1.00  0.00     0.293 HD
ENDBRANCH   2  14
TORSDOF 2
ENDMDL
MODEL 9
REMARK VINA RESULT:    -2.748     15.615     17.335
REMARK INTER + INTRA:          -3.053
REMARK INTER:                  -3.006
REMARK INTRA:                  -0.047
REMARK UNBOUND:                -0.065
REMARK SMILES COc1cc2ccc(=O)oc2cc1O
REMARK SMILES IDX 3 1 13 2 12 3 11 4 5 5 4 6 6 7 7 8 8 9 9 10 10 11 2 12 1 13
REMARK SMILES IDX 14 14
REMARK H PARENT 14 15
REMARK Flexibility Score: inf
ROOT
ATOM      1  C   UNL     1     -28.744 -40.945  45.287  1.00  0.00     0.161 A 
ATOM      2  C   UNL     1     -27.996 -39.833  44.870  1.00  0.00     0.161 A 
ATOM      3  C   UNL     1     -27.473 -39.777  43.571  1.00  0.00     0.098 A 
ATOM      4  C   UNL     1     -27.692 -40.829  42.678  1.00  0.00     0.142 A 
ATOM      5  C   UNL     1     -28.443 -41.950  43.088  1.00  0.00     0.022 A 
ATOM      6  C   UNL     1     -28.966 -42.007  44.387  1.00  0.00     0.062 A 
ATOM      7  C   UNL     1     -28.646 -42.988  42.171  1.00  0.00     0.019 A 
ATOM      8  C   UNL     1     -28.105 -42.884  40.890  1.00  0.00     0.094 A 
ATOM      9  C   UNL     1     -27.371 -41.742  40.554  1.00  0.00     0.336 A 
ATOM     10  O   UNL     1     -26.875 -41.630  39.403  1.00  0.00    -0.246 OA
ATOM     11  O   UNL     1     -27.193 -40.770  41.445  1.00  0.00    -0.423 OA
ENDROOT
BRANCH   1  12
ATOM     12  O   UNL     1     -29.248 -40.958  46.597  1.00  0.00    -0.493 OA
ATOM     13  C   UNL     1     -29.488 -42.138  47.357  1.00  0.00     0.278 C 
ENDBRANCH   1  12
BRANCH   2  14
ATOM     14  O   UNL     1     -27.775 -38.781  45.760  1.00  0.00    -0.504 OA
ATOM     15  H   UNL     1     -26.953 -38.750  46.350  1.00  0.00     0.293 HD
ENDBRANCH   2  14
TORSDOF 2
ENDMDL
