MODEL 1
REMARK VINA RESULT:    -4.772      0.000      0.000
REMARK INTER + INTRA:         -10.020
REMARK INTER:                  -8.398
REMARK INTRA:                  -1.622
REMARK UNBOUND:                -1.622
REMARK SMILES CCCCCCC=CCCCCCCCC(=O)[O-]
REMARK SMILES IDX 10 1 11 2 12 3 13 4 14 5 15 6 16 7 17 8 18 9 9 10 8 11 7 12
REMARK SMILES IDX 6 13 5 14 4 15 3 16 2 17 1 18
REMARK H PARENT
REMARK Flexibility Score: inf
ROOT
ATOM      1  C   UNL     1      14.824 -50.358 -12.748  1.00  0.00     0.004 C 
ENDROOT
BRANCH   1   2
ATOM      2  C   UNL     1      16.147 -50.710 -12.036  1.00  0.00     0.000 C 
BRANCH   2   3
ATOM      3  C   UNL     1      17.355 -50.707 -12.988  1.00  0.00     0.000 C 
BRANCH   3   4
ATOM      4  C   UNL     1      18.578 -49.987 -12.376  1.00  0.00     0.000 C 
BRANCH   4   5
ATOM      5  C   UNL     1      19.341 -49.110 -13.385  1.00  0.00     0.006 C 
BRANCH   5   6
ATOM      6  C   UNL     1      18.446 -48.467 -14.455  1.00  0.00     0.053 C 
BRANCH   6   7
ATOM      7  C   UNL     1      18.569 -46.975 -14.462  1.00  0.00     0.041 C 
ATOM      8  O   UNL     1      18.016 -46.299 -15.369  1.00  0.00    -0.550 OA
ATOM      9  O   UNL     1      19.313 -46.329 -13.483  1.00  0.00    -0.550 OA
ENDBRANCH   6   7
ENDBRANCH   5   6
ENDBRANCH   4   5
ENDBRANCH   3   4
ENDBRANCH   2   3
ENDBRANCH   1   2
BRANCH   1  10
ATOM     10  C   UNL     1      15.013 -49.797 -14.168  1.00  0.00     0.027 C 
BRANCH  10  11
ATOM     11  C   UNL     1      14.795 -48.307 -14.247  1.00  0.00    -0.031 C 
ATOM     12  C   UNL     1      13.628 -47.722 -14.571  1.00  0.00    -0.031 C 
BRANCH  12  13
ATOM     13  C   UNL     1      12.381 -48.486 -14.940  1.00  0.00     0.027 C 
BRANCH  13  14
ATOM     14  C   UNL     1      11.445 -48.630 -13.731  1.00  0.00     0.004 C 
BRANCH  14  15
ATOM     15  C   UNL     1      11.767 -47.633 -12.606  1.00  0.00     0.000 C 
BRANCH  15  16
ATOM     16  C   UNL     1      11.375 -48.161 -11.216  1.00  0.00    -0.000 C 
BRANCH  16  17
ATOM     17  C   UNL     1      11.876 -49.593 -10.968  1.00  0.00    -0.003 C 
ATOM     18  C   UNL     1      12.102 -49.894  -9.487  1.00  0.00     0.004 C 
ENDBRANCH  16  17
ENDBRANCH  15  16
ENDBRANCH  14  15
ENDBRANCH  13  14
ENDBRANCH  12  13
ENDBRANCH  10  11
ENDBRANCH   1  10
TORSDOF 13
ENDMDL
MODEL 2
REMARK VINA RESULT:    -4.722      2.942      6.527
REMARK INTER + INTRA:          -9.932
REMARK INTER:                  -8.383
REMARK INTRA:                  -1.549
REMARK UNBOUND:                -1.622
REMARK SMILES CCCCCCC=CCCCCCCCC(=O)[O-]
REMARK SMILES IDX 10 1 11 2 12 3 13 4 14 5 15 6 16 7 17 8 18 9 9 10 8 11 7 12
REMARK SMILES IDX 6 13 5 14 4 15 3 16 2 17 1 18
REMARK H PARENT
REMARK Flexibility Score: inf
ROOT
ATOM      1  C   UNL     1      13.857 -50.183 -13.691  1.00  0.00     0.004 C 
ENDROOT
BRANCH   1   2
ATOM      2  C   UNL     1      13.137 -49.551 -12.482  1.00  0.00     0.000 C 
BRANCH   2   3
ATOM      3  C   UNL     1      11.797 -48.899 -12.861  1.00  0.00     0.000 C 
BRANCH   3   4
ATOM      4  C   UNL     1      11.440 -49.117 -14.348  1.00  0.00     0.000 C 
BRANCH   4   5
ATOM      5  C   UNL     1      11.286 -47.806 -15.140  1.00  0.00     0.006 C 
BRANCH   5   6
ATOM      6  C   UNL     1      12.151 -46.652 -14.612  1.00  0.00     0.053 C 
BRANCH   6   7
ATOM      7  C   UNL     1      11.349 -45.404 -14.405  1.00  0.00     0.041 C 
ATOM      8  O   UNL     1      11.267 -44.546 -15.323  1.00  0.00    -0.550 OA
ATOM      9  O   UNL     1      10.712 -45.174 -13.193  1.00  0.00    -0.550 OA
ENDBRANCH   6   7
ENDBRANCH   5   6
ENDBRANCH   4   5
ENDBRANCH   3   4
ENDBRANCH   2   3
ENDBRANCH   1   2
BRANCH   1  10
ATOM     10  C   UNL     1      15.090 -51.022 -13.311  1.00  0.00     0.027 C 
BRANCH  10  11
ATOM     11  C   UNL     1      15.586 -50.742 -11.914  1.00  0.00    -0.031 C 
ATOM     12  C   UNL     1      16.882 -50.646 -11.569  1.00  0.00    -0.031 C 
BRANCH  12  13
ATOM     13  C   UNL     1      18.024 -50.846 -12.535  1.00  0.00     0.027 C 
BRANCH  13  14
ATOM     14  C   UNL     1      18.907 -49.591 -12.612  1.00  0.00     0.004 C 
BRANCH  14  15
ATOM     15  C   UNL     1      19.080 -49.073 -14.049  1.00  0.00     0.000 C 
BRANCH  15  16
ATOM     16  C   UNL     1      17.786 -49.168 -14.874  1.00  0.00    -0.000 C 
BRANCH  16  17
ATOM     17  C   UNL     1      16.942 -47.886 -14.792  1.00  0.00    -0.003 C 
ATOM     18  C   UNL     1      17.762 -46.620 -15.034  1.00  0.00     0.004 C 
ENDBRANCH  16  17
ENDBRANCH  15  16
ENDBRANCH  14  15
ENDBRANCH  13  14
ENDBRANCH  12  13
ENDBRANCH  10  11
ENDBRANCH   1  10
TORSDOF 13
ENDMDL
MODEL 3
REMARK VINA RESULT:    -4.649      3.408      7.150
REMARK INTER + INTRA:          -9.803
REMARK INTER:                  -8.225
REMARK INTRA:                  -1.579
REMARK UNBOUND:                -1.622
REMARK SMILES CCCCCCC=CCCCCCCCC(=O)[O-]
REMARK SMILES IDX 10 1 11 2 12 3 13 4 14 5 15 6 16 7 17 8 18 9 9 10 8 11 7 12
REMARK SMILES IDX 6 13 5 14 4 15 3 16 2 17 1 18
REMARK H PARENT
REMARK Flexibility Score: inf
ROOT
ATOM      1  C   UNL     1      14.150 -48.542 -14.022  1.00  0.00     0.004 C 
ENDROOT
BRANCH   1   2
ATOM      2  C   UNL     1      12.822 -48.469 -14.802  1.00  0.00     0.000 C 
BRANCH   2   3
ATOM      3  C   UNL     1      11.589 -48.494 -13.883  1.00  0.00     0.000 C 
BRANCH   3   4
ATOM      4  C   UNL     1      11.864 -47.825 -12.518  1.00  0.00     0.000 C 
BRANCH   4   5
ATOM      5  C   UNL     1      11.545 -48.733 -11.316  1.00  0.00     0.006 C 
BRANCH   5   6
ATOM      6  C   UNL     1      11.234 -47.967 -10.021  1.00  0.00     0.053 C 
BRANCH   6   7
ATOM      7  C   UNL     1      10.026 -47.094 -10.167  1.00  0.00     0.041 C 
ATOM      8  O   UNL     1       8.883 -47.610 -10.282  1.00  0.00    -0.550 OA
ATOM      9  O   UNL     1      10.160 -45.712 -10.201  1.00  0.00    -0.550 OA
ENDBRANCH   6   7
ENDBRANCH   5   6
ENDBRANCH   4   5
ENDBRANCH   3   4
ENDBRANCH   2   3
ENDBRANCH   1   2
BRANCH   1  10
ATOM     10  C   UNL     1      14.741 -49.959 -13.933  1.00  0.00     0.027 C 
BRANCH  10  11
ATOM     11  C   UNL     1      15.008 -50.399 -12.515  1.00  0.00    -0.031 C 
ATOM     12  C   UNL     1      16.205 -50.802 -12.053  1.00  0.00    -0.031 C 
BRANCH  12  13
ATOM     13  C   UNL     1      17.443 -50.907 -12.910  1.00  0.00     0.027 C 
BRANCH  13  14
ATOM     14  C   UNL     1      18.585 -50.056 -12.335  1.00  0.00     0.004 C 
BRANCH  14  15
ATOM     15  C   UNL     1      19.114 -49.016 -13.335  1.00  0.00     0.000 C 
BRANCH  15  16
ATOM     16  C   UNL     1      18.349 -49.033 -14.669  1.00  0.00    -0.000 C 
BRANCH  16  17
ATOM     17  C   UNL     1      17.667 -47.689 -14.973  1.00  0.00    -0.003 C 
ATOM     18  C   UNL     1      18.448 -46.493 -14.431  1.00  0.00     0.004 C 
ENDBRANCH  16  17
ENDBRANCH  15  16
ENDBRANCH  14  15
ENDBRANCH  13  14
ENDBRANCH  12  13
ENDBRANCH  10  11
ENDBRANCH   1  10
TORSDOF 13
ENDMDL
MODEL 4
REMARK VINA RESULT:    -4.624      2.823      6.756
REMARK INTER + INTRA:          -9.760
REMARK INTER:                  -7.861
REMARK INTRA:                  -1.899
REMARK UNBOUND:                -1.622
REMARK SMILES CCCCCCC=CCCCCCCCC(=O)[O-]
REMARK SMILES IDX 10 1 11 2 12 3 13 4 14 5 15 6 16 7 17 8 18 9 9 10 8 11 7 12
REMARK SMILES IDX 6 13 5 14 4 15 3 16 2 17 1 18
REMARK H PARENT
REMARK Flexibility Score: inf
ROOT
ATOM      1  C   UNL     1      14.227 -47.792 -14.997  1.00  0.00     0.004 C 
ENDROOT
BRANCH   1   2
ATOM      2  C   UNL     1      13.277 -46.942 -14.128  1.00  0.00     0.000 C 
BRANCH   2   3
ATOM      3  C   UNL     1      11.800 -47.101 -14.527  1.00  0.00     0.000 C 
BRANCH   3   4
ATOM      4  C   UNL     1      11.482 -48.526 -15.035  1.00  0.00     0.000 C 
BRANCH   4   5
ATOM      5  C   UNL     1      10.889 -49.444 -13.951  1.00  0.00     0.006 C 
BRANCH   5   6
ATOM      6  C   UNL     1      11.923 -50.348 -13.264  1.00  0.00     0.053 C 
BRANCH   6   7
ATOM      7  C   UNL     1      12.273 -49.854 -11.894  1.00  0.00     0.041 C 
ATOM      8  O   UNL     1      13.081 -50.500 -11.177  1.00  0.00    -0.550 OA
ATOM      9  O   UNL     1      11.690 -48.696 -11.397  1.00  0.00    -0.550 OA
ENDBRANCH   6   7
ENDBRANCH   5   6
ENDBRANCH   4   5
ENDBRANCH   3   4
ENDBRANCH   2   3
ENDBRANCH   1   2
BRANCH   1  10
ATOM     10  C   UNL     1      15.342 -48.489 -14.200  1.00  0.00     0.027 C 
BRANCH  10  11
ATOM     11  C   UNL     1      15.214 -49.992 -14.198  1.00  0.00    -0.031 C 
ATOM     12  C   UNL     1      15.905 -50.816 -13.390  1.00  0.00    -0.031 C 
BRANCH  12  13
ATOM     13  C   UNL     1      16.938 -50.345 -12.396  1.00  0.00     0.027 C 
BRANCH  13  14
ATOM     14  C   UNL     1      18.359 -50.539 -12.945  1.00  0.00     0.004 C 
BRANCH  14  15
ATOM     15  C   UNL     1      19.139 -49.219 -13.059  1.00  0.00     0.000 C 
BRANCH  15  16
ATOM     16  C   UNL     1      18.849 -48.470 -14.370  1.00  0.00    -0.000 C 
BRANCH  16  17
ATOM     17  C   UNL     1      18.834 -46.944 -14.185  1.00  0.00    -0.003 C 
ATOM     18  C   UNL     1      18.077 -46.219 -15.297  1.00  0.00     0.004 C 
ENDBRANCH  16  17
ENDBRANCH  15  16
ENDBRANCH  14  15
ENDBRANCH  13  14
ENDBRANCH  12  13
ENDBRANCH  10  11
ENDBRANCH   1  10
TORSDOF 13
ENDMDL
MODEL 5
REMARK VINA RESULT:    -4.619      1.210      2.816
REMARK INTER + INTRA:          -9.751
REMARK INTER:                  -8.168
REMARK INTRA:                  -1.583
REMARK UNBOUND:                -1.622
REMARK SMILES CCCCCCC=CCCCCCCCC(=O)[O-]
REMARK SMILES IDX 10 1 11 2 12 3 13 4 14 5 15 6 16 7 17 8 18 9 9 10 8 11 7 12
REMARK SMILES IDX 6 13 5 14 4 15 3 16 2 17 1 18
REMARK H PARENT
REMARK Flexibility Score: inf
ROOT
ATOM      1  C   UNL     1      15.848 -50.350 -12.888  1.00  0.00     0.004 C 
ENDROOT
BRANCH   1   2
ATOM      2  C   UNL     1      16.599 -50.734 -11.597  1.00  0.00     0.000 C 
BRANCH   2   3
ATOM      3  C   UNL     1      18.110 -50.461 -11.682  1.00  0.00     0.000 C 
BRANCH   3   4
ATOM      4  C   UNL     1      18.601 -50.344 -13.143  1.00  0.00     0.000 C 
BRANCH   4   5
ATOM      5  C   UNL     1      19.159 -48.953 -13.492  1.00  0.00     0.006 C 
BRANCH   5   6
ATOM      6  C   UNL     1      18.403 -48.242 -14.624  1.00  0.00     0.053 C 
BRANCH   6   7
ATOM      7  C   UNL     1      18.569 -46.755 -14.557  1.00  0.00     0.041 C 
ATOM      8  O   UNL     1      19.164 -46.229 -13.581  1.00  0.00    -0.550 OA
ATOM      9  O   UNL     1      18.047 -45.947 -15.559  1.00  0.00    -0.550 OA
ENDBRANCH   6   7
ENDBRANCH   5   6
ENDBRANCH   4   5
ENDBRANCH   3   4
ENDBRANCH   2   3
ENDBRANCH   1   2
BRANCH   1  10
ATOM     10  C   UNL     1      14.420 -50.917 -12.968  1.00  0.00     0.027 C 
BRANCH  10  11
ATOM     11  C   UNL     1      13.617 -50.672 -11.715  1.00  0.00    -0.031 C 
ATOM     12  C   UNL     1      12.277 -50.565 -11.676  1.00  0.00    -0.031 C 
BRANCH  12  13
ATOM     13  C   UNL     1      11.393 -50.638 -12.897  1.00  0.00     0.027 C 
BRANCH  13  14
ATOM     14  C   UNL     1      11.075 -49.234 -13.431  1.00  0.00     0.004 C 
BRANCH  14  15
ATOM     15  C   UNL     1      11.916 -48.860 -14.662  1.00  0.00     0.000 C 
BRANCH  15  16
ATOM     16  C   UNL     1      12.214 -47.353 -14.741  1.00  0.00    -0.000 C 
BRANCH  16  17
ATOM     17  C   UNL     1      13.558 -46.985 -14.092  1.00  0.00    -0.003 C 
ATOM     18  C   UNL     1      14.758 -47.365 -14.959  1.00  0.00     0.004 C 
ENDBRANCH  16  17
ENDBRANCH  15  16
ENDBRANCH  14  15
ENDBRANCH  13  14
ENDBRANCH  12  13
ENDBRANCH  10  11
ENDBRANCH   1  10
TORSDOF 13
ENDMDL
MODEL 6
REMARK VINA RESULT:    -4.589     12.664     15.269
REMARK INTER + INTRA:          -9.698
REMARK INTER:                  -7.689
REMARK INTRA:                  -2.009
REMARK UNBOUND:                -1.622
REMARK SMILES CCCCCCC=CCCCCCCCC(=O)[O-]
REMARK SMILES IDX 10 1 11 2 12 3 13 4 14 5 15 6 16 7 17 8 18 9 9 10 8 11 7 12
REMARK SMILES IDX 6 13 5 14 4 15 3 16 2 17 1 18
REMARK H PARENT
REMARK Flexibility Score: inf
ROOT
ATOM      1  C   UNL     1      14.252 -39.353 -21.583  1.00  0.00     0.004 C 
ENDROOT
BRANCH   1   2
ATOM      2  C   UNL     1      13.125 -40.401 -21.487  1.00  0.00     0.000 C 
BRANCH   2   3
ATOM      3  C   UNL     1      13.374 -41.629 -22.379  1.00  0.00     0.000 C 
BRANCH   3   4
ATOM      4  C   UNL     1      12.338 -41.742 -23.520  1.00  0.00     0.000 C 
BRANCH   4   5
ATOM      5  C   UNL     1      12.875 -42.471 -24.765  1.00  0.00     0.006 C 
BRANCH   5   6
ATOM      6  C   UNL     1      14.283 -43.059 -24.586  1.00  0.00     0.053 C 
BRANCH   6   7
ATOM      7  C   UNL     1      14.270 -44.556 -24.621  1.00  0.00     0.041 C 
ATOM      8  O   UNL     1      15.057 -45.212 -23.888  1.00  0.00    -0.550 OA
ATOM      9  O   UNL     1      13.410 -45.229 -25.478  1.00  0.00    -0.550 OA
ENDBRANCH   6   7
ENDBRANCH   5   6
ENDBRANCH   4   5
ENDBRANCH   3   4
ENDBRANCH   2   3
ENDBRANCH   1   2
BRANCH   1  10
ATOM     10  C   UNL     1      15.011 -39.378 -22.921  1.00  0.00     0.027 C 
BRANCH  10  11
ATOM     11  C   UNL     1      14.993 -38.049 -23.634  1.00  0.00    -0.031 C 
ATOM     12  C   UNL     1      14.293 -37.793 -24.754  1.00  0.00    -0.031 C 
BRANCH  12  13
ATOM     13  C   UNL     1      13.456 -38.821 -25.474  1.00  0.00     0.027 C 
BRANCH  13  14
ATOM     14  C   UNL     1      14.106 -39.226 -26.805  1.00  0.00     0.004 C 
BRANCH  14  15
ATOM     15  C   UNL     1      15.329 -40.137 -26.619  1.00  0.00     0.000 C 
BRANCH  15  16
ATOM     16  C   UNL     1      16.509 -39.737 -27.520  1.00  0.00    -0.000 C 
BRANCH  16  17
ATOM     17  C   UNL     1      16.902 -38.261 -27.353  1.00  0.00    -0.003 C 
ATOM     18  C   UNL     1      18.334 -37.974 -27.805  1.00  0.00     0.004 C 
ENDBRANCH  16  17
ENDBRANCH  15  16
ENDBRANCH  14  15
ENDBRANCH  13  14
ENDBRANCH  12  13
ENDBRANCH  10  11
ENDBRANCH   1  10
TORSDOF 13
ENDMDL
MODEL 7
REMARK VINA RESULT:    -4.492     12.583     14.836
REMARK INTER + INTRA:          -9.528
REMARK INTER:                  -7.380
REMARK INTRA:                  -2.148
REMARK UNBOUND:                -1.622
REMARK SMILES CCCCCCC=CCCCCCCCC(=O)[O-]
REMARK SMILES IDX 10 1 11 2 12 3 13 4 14 5 15 6 16 7 17 8 18 9 9 10 8 11 7 12
REMARK SMILES IDX 6 13 5 14 4 15 3 16 2 17 1 18
REMARK H PARENT
REMARK Flexibility Score: inf
ROOT
ATOM      1  C   UNL     1      14.198 -41.681 -27.163  1.00  0.00     0.004 C 
ENDROOT
BRANCH   1   2
ATOM      2  C   UNL     1      12.699 -41.890 -27.458  1.00  0.00     0.000 C 
BRANCH   2   3
ATOM      3  C   UNL     1      11.808 -41.630 -26.231  1.00  0.00     0.000 C 
BRANCH   3   4
ATOM      4  C   UNL     1      12.634 -41.436 -24.940  1.00  0.00     0.000 C 
BRANCH   4   5
ATOM      5  C   UNL     1      12.745 -42.713 -24.086  1.00  0.00     0.006 C 
BRANCH   5   6
ATOM      6  C   UNL     1      14.179 -43.239 -23.933  1.00  0.00     0.053 C 
BRANCH   6   7
ATOM      7  C   UNL     1      14.330 -44.617 -24.501  1.00  0.00     0.041 C 
ATOM      8  O   UNL     1      15.092 -45.450 -23.943  1.00  0.00    -0.550 OA
ATOM      9  O   UNL     1      13.651 -44.976 -25.658  1.00  0.00    -0.550 OA
ENDBRANCH   6   7
ENDBRANCH   5   6
ENDBRANCH   4   5
ENDBRANCH   3   4
ENDBRANCH   2   3
ENDBRANCH   1   2
BRANCH   1  10
ATOM     10  C   UNL     1      14.808 -40.463 -27.877  1.00  0.00     0.027 C 
BRANCH  10  11
ATOM     11  C   UNL     1      15.864 -39.765 -27.056  1.00  0.00    -0.031 C 
ATOM     12  C   UNL     1      15.625 -38.745 -26.213  1.00  0.00    -0.031 C 
BRANCH  12  13
ATOM     13  C   UNL     1      14.262 -38.132 -26.003  1.00  0.00     0.027 C 
BRANCH  13  14
ATOM     14  C   UNL     1      13.876 -38.142 -24.517  1.00  0.00     0.004 C 
BRANCH  14  15
ATOM     15  C   UNL     1      15.067 -38.443 -23.594  1.00  0.00     0.000 C 
BRANCH  15  16
ATOM     16  C   UNL     1      14.876 -39.736 -22.783  1.00  0.00    -0.000 C 
BRANCH  16  17
ATOM     17  C   UNL     1      14.211 -39.482 -21.421  1.00  0.00    -0.003 C 
ATOM     18  C   UNL     1      13.124 -40.505 -21.092  1.00  0.00     0.004 C 
ENDBRANCH  16  17
ENDBRANCH  15  16
ENDBRANCH  14  15
ENDBRANCH  13  14
ENDBRANCH  12  13
ENDBRANCH  10  11
ENDBRANCH   1  10
TORSDOF 13
ENDMDL
MODEL 8
REMARK VINA RESULT:    -4.358     12.570     14.677
REMARK INTER + INTRA:          -9.292
REMARK INTER:                  -7.642
REMARK INTRA:                  -1.651
REMARK UNBOUND:                -1.622
REMARK SMILES CCCCCCC=CCCCCCCCC(=O)[O-]
REMARK SMILES IDX 10 1 11 2 12 3 13 4 14 5 15 6 16 7 17 8 18 9 9 10 8 11 7 12
REMARK SMILES IDX 6 13 5 14 4 15 3 16 2 17 1 18
REMARK H PARENT
REMARK Flexibility Score: inf
ROOT
ATOM      1  C   UNL     1      13.710 -40.629 -21.759  1.00  0.00     0.004 C 
ENDROOT
BRANCH   1   2
ATOM      2  C   UNL     1      14.459 -39.349 -22.184  1.00  0.00     0.000 C 
BRANCH   2   3
ATOM      3  C   UNL     1      15.088 -39.462 -23.583  1.00  0.00     0.000 C 
BRANCH   3   4
ATOM      4  C   UNL     1      15.022 -38.129 -24.362  1.00  0.00     0.000 C 
BRANCH   4   5
ATOM      5  C   UNL     1      14.892 -38.315 -25.885  1.00  0.00     0.006 C 
BRANCH   5   6
ATOM      6  C   UNL     1      15.806 -39.407 -26.460  1.00  0.00     0.053 C 
BRANCH   6   7
ATOM      7  C   UNL     1      16.946 -38.826 -27.238  1.00  0.00     0.041 C 
ATOM      8  O   UNL     1      17.996 -39.498 -27.418  1.00  0.00    -0.550 OA
ATOM      9  O   UNL     1      16.863 -37.535 -27.744  1.00  0.00    -0.550 OA
ENDBRANCH   6   7
ENDBRANCH   5   6
ENDBRANCH   4   5
ENDBRANCH   3   4
ENDBRANCH   2   3
ENDBRANCH   1   2
BRANCH   1  10
ATOM     10  C   UNL     1      13.676 -41.718 -22.846  1.00  0.00     0.027 C 
BRANCH  10  11
ATOM     11  C   UNL     1      12.282 -42.016 -23.339  1.00  0.00    -0.031 C 
ATOM     12  C   UNL     1      11.898 -41.952 -24.627  1.00  0.00    -0.031 C 
BRANCH  12  13
ATOM     13  C   UNL     1      12.809 -41.533 -25.754  1.00  0.00     0.027 C 
BRANCH  13  14
ATOM     14  C   UNL     1      13.921 -42.569 -25.978  1.00  0.00     0.004 C 
BRANCH  14  15
ATOM     15  C   UNL     1      13.488 -43.716 -26.906  1.00  0.00     0.000 C 
BRANCH  15  16
ATOM     16  C   UNL     1      13.584 -45.094 -26.230  1.00  0.00    -0.000 C 
BRANCH  16  17
ATOM     17  C   UNL     1      13.763 -44.990 -24.707  1.00  0.00    -0.003 C 
ATOM     18  C   UNL     1      15.123 -45.503 -24.234  1.00  0.00     0.004 C 
ENDBRANCH  16  17
ENDBRANCH  15  16
ENDBRANCH  14  15
ENDBRANCH  13  14
ENDBRANCH  12  13
ENDBRANCH  10  11
ENDBRANCH   1  10
TORSDOF 13
ENDMDL
MODEL 9
REMARK VINA RESULT:    -4.226     12.637     15.415
REMARK INTER + INTRA:          -9.059
REMARK INTER:                  -7.404
REMARK INTRA:                  -1.655
REMARK UNBOUND:                -1.622
REMARK SMILES CCCCCCC=CCCCCCCCC(=O)[O-]
REMARK SMILES IDX 10 1 11 2 12 3 13 4 14 5 15 6 16 7 17 8 18 9 9 10 8 11 7 12
REMARK SMILES IDX 6 13 5 14 4 15 3 16 2 17 1 18
REMARK H PARENT
REMARK Flexibility Score: inf
ROOT
ATOM      1  C   UNL     1      13.691 -41.351 -22.510  1.00  0.00     0.004 C 
ENDROOT
BRANCH   1   2
ATOM      2  C   UNL     1      14.627 -41.774 -23.661  1.00  0.00     0.000 C 
BRANCH   2   3
ATOM      3  C   UNL     1      13.893 -42.538 -24.776  1.00  0.00     0.000 C 
BRANCH   3   4
ATOM      4  C   UNL     1      12.629 -41.794 -25.260  1.00  0.00     0.000 C 
BRANCH   4   5
ATOM      5  C   UNL     1      11.317 -42.512 -24.894  1.00  0.00     0.006 C 
BRANCH   5   6
ATOM      6  C   UNL     1      11.520 -43.868 -24.203  1.00  0.00     0.053 C 
BRANCH   6   7
ATOM      7  C   UNL     1      10.362 -44.223 -23.322  1.00  0.00     0.041 C 
ATOM      8  O   UNL     1      10.253 -45.389 -22.859  1.00  0.00    -0.550 OA
ATOM      9  O   UNL     1       9.389 -43.276 -23.029  1.00  0.00    -0.550 OA
ENDBRANCH   6   7
ENDBRANCH   5   6
ENDBRANCH   4   5
ENDBRANCH   3   4
ENDBRANCH   2   3
ENDBRANCH   1   2
BRANCH   1  10
ATOM     10  C   UNL     1      13.625 -39.830 -22.290  1.00  0.00     0.027 C 
BRANCH  10  11
ATOM     11  C   UNL     1      14.889 -39.119 -22.701  1.00  0.00    -0.031 C 
ATOM     12  C   UNL     1      15.007 -38.341 -23.792  1.00  0.00    -0.031 C 
BRANCH  12  13
ATOM     13  C   UNL     1      13.890 -38.105 -24.779  1.00  0.00     0.027 C 
BRANCH  13  14
ATOM     14  C   UNL     1      14.350 -38.403 -26.213  1.00  0.00     0.004 C 
BRANCH  14  15
ATOM     15  C   UNL     1      15.849 -38.730 -26.302  1.00  0.00     0.000 C 
BRANCH  15  16
ATOM     16  C   UNL     1      16.152 -39.862 -27.298  1.00  0.00    -0.000 C 
BRANCH  16  17
ATOM     17  C   UNL     1      17.599 -39.821 -27.813  1.00  0.00    -0.003 C 
ATOM     18  C   UNL     1      18.210 -38.422 -27.753  1.00  0.00     0.004 C 
ENDBRANCH  16  17
ENDBRANCH  15  16
ENDBRANCH  14  15
ENDBRANCH  13  14
ENDBRANCH  12  13
ENDBRANCH  10  11
ENDBRANCH   1  10
TORSDOF 13
ENDMDL
