MODEL 1
REMARK VINA RESULT:    -4.289      0.000      0.000
REMARK INTER + INTRA:          -4.901
REMARK INTER:                  -4.665
REMARK INTRA:                  -0.236
REMARK UNBOUND:                -0.236
REMARK SMILES O=C([O-])c1ccccc1O
REMARK SMILES IDX 4 1 9 2 5 3 8 4 6 5 7 6 2 7 1 8 3 9 10 10
REMARK H PARENT 10 11
REMARK Flexibility Score: inf
ROOT
ATOM      1  C   UNL     1      -0.200 -27.324  -8.228  1.00  0.00     0.039 A 
ATOM      2  C   UNL     1       0.559 -26.681  -9.239  1.00  0.00     0.124 A 
ATOM      3  C   UNL     1      -1.338 -26.674  -7.715  1.00  0.00     0.014 A 
ATOM      4  C   UNL     1       0.202 -25.393  -9.660  1.00  0.00     0.047 A 
ATOM      5  C   UNL     1      -1.692 -25.399  -8.160  1.00  0.00     0.001 A 
ATOM      6  C   UNL     1      -0.918 -24.755  -9.125  1.00  0.00     0.004 A 
ENDROOT
BRANCH   1   7
ATOM      7  C   UNL     1       0.180 -28.638  -7.665  1.00  0.00     0.075 C 
ATOM      8  O   UNL     1       1.387 -29.001  -7.665  1.00  0.00    -0.545 OA
ATOM      9  O   UNL     1      -0.787 -29.516  -7.193  1.00  0.00    -0.545 OA
ENDBRANCH   1   7
BRANCH   2  10
ATOM     10  O   UNL     1       1.642 -27.295  -9.871  1.00  0.00    -0.507 OA
ATOM     11  H   UNL     1       2.077 -26.931 -10.709  1.00  0.00     0.293 HD
ENDBRANCH   2  10
TORSDOF 2
ENDMDL
MODEL 2
REMARK VINA RESULT:    -4.262      1.576      3.451
REMARK INTER + INTRA:          -4.872
REMARK INTER:                  -4.635
REMARK INTRA:                  -0.236
REMARK UNBOUND:                -0.236
REMARK SMILES O=C([O-])c1ccccc1O
REMARK SMILES IDX 4 1 9 2 5 3 8 4 6 5 7 6 2 7 1 8 3 9 10 10
REMARK H PARENT 10 11
REMARK Flexibility Score: inf
ROOT
ATOM      1  C   UNL     1      -0.225 -26.572  -8.702  1.00  0.00     0.039 A 
ATOM      2  C   UNL     1       0.612 -27.716  -8.691  1.00  0.00     0.124 A 
ATOM      3  C   UNL     1      -1.293 -26.502  -7.787  1.00  0.00     0.014 A 
ATOM      4  C   UNL     1       0.327 -28.777  -7.822  1.00  0.00     0.047 A 
ATOM      5  C   UNL     1      -1.551 -27.559  -6.912  1.00  0.00     0.001 A 
ATOM      6  C   UNL     1      -0.749 -28.699  -6.935  1.00  0.00     0.004 A 
ENDROOT
BRANCH   1   7
ATOM      7  C   UNL     1      -0.042 -25.463  -9.664  1.00  0.00     0.075 C 
ATOM      8  O   UNL     1      -0.974 -25.150 -10.453  1.00  0.00    -0.545 OA
ATOM      9  O   UNL     1       1.174 -24.799  -9.761  1.00  0.00    -0.545 OA
ENDBRANCH   1   7
BRANCH   2  10
ATOM     10  O   UNL     1       1.749 -27.823  -9.496  1.00  0.00    -0.507 OA
ATOM     11  H   UNL     1       1.711 -27.940 -10.499  1.00  0.00     0.293 HD
ENDBRANCH   2  10
TORSDOF 2
ENDMDL
MODEL 3
REMARK VINA RESULT:    -4.231     16.075     17.137
REMARK INTER + INTRA:          -4.839
REMARK INTER:                  -4.589
REMARK INTRA:                  -0.250
REMARK UNBOUND:                -0.236
REMARK SMILES O=C([O-])c1ccccc1O
REMARK SMILES IDX 4 1 9 2 5 3 8 4 6 5 7 6 2 7 1 8 3 9 10 10
REMARK H PARENT 10 11
REMARK Flexibility Score: inf
ROOT
ATOM      1  C   UNL     1      14.676 -19.465  -6.837  1.00  0.00     0.039 A 
ATOM      2  C   UNL     1      15.344 -20.610  -6.335  1.00  0.00     0.124 A 
ATOM      3  C   UNL     1      15.107 -18.191  -6.422  1.00  0.00     0.014 A 
ATOM      4  C   UNL     1      16.371 -20.458  -5.394  1.00  0.00     0.047 A 
ATOM      5  C   UNL     1      16.146 -18.055  -5.500  1.00  0.00     0.001 A 
ATOM      6  C   UNL     1      16.771 -19.187  -4.979  1.00  0.00     0.004 A 
ENDROOT
BRANCH   1   7
ATOM      7  C   UNL     1      13.519 -19.559  -7.752  1.00  0.00     0.075 C 
ATOM      8  O   UNL     1      12.660 -20.469  -7.595  1.00  0.00    -0.545 OA
ATOM      9  O   UNL     1      13.395 -18.696  -8.835  1.00  0.00    -0.545 OA
ENDBRANCH   1   7
BRANCH   2  10
ATOM     10  O   UNL     1      15.047 -21.905  -6.768  1.00  0.00    -0.507 OA
ATOM     11  H   UNL     1      15.694 -22.678  -6.695  1.00  0.00     0.293 HD
ENDBRANCH   2  10
TORSDOF 2
ENDMDL
MODEL 4
REMARK VINA RESULT:    -4.211      3.492      4.762
REMARK INTER + INTRA:          -4.817
REMARK INTER:                  -4.566
REMARK INTRA:                  -0.250
REMARK UNBOUND:                -0.236
REMARK SMILES O=C([O-])c1ccccc1O
REMARK SMILES IDX 4 1 9 2 5 3 8 4 6 5 7 6 2 7 1 8 3 9 10 10
REMARK H PARENT 10 11
REMARK Flexibility Score: inf
ROOT
ATOM      1  C   UNL     1       0.388 -22.953  -9.449  1.00  0.00     0.039 A 
ATOM      2  C   UNL     1       1.591 -22.204  -9.513  1.00  0.00     0.124 A 
ATOM      3  C   UNL     1      -0.750 -22.362  -8.871  1.00  0.00     0.014 A 
ATOM      4  C   UNL     1       1.642 -20.924  -8.947  1.00  0.00     0.047 A 
ATOM      5  C   UNL     1      -0.689 -21.076  -8.329  1.00  0.00     0.001 A 
ATOM      6  C   UNL     1       0.508 -20.362  -8.359  1.00  0.00     0.004 A 
ENDROOT
BRANCH   1   7
ATOM      7  C   UNL     1       0.294 -24.347  -9.934  1.00  0.00     0.075 C 
ATOM      8  O   UNL     1       1.219 -25.167  -9.686  1.00  0.00    -0.545 OA
ATOM      9  O   UNL     1      -0.773 -24.755 -10.725  1.00  0.00    -0.545 OA
ENDBRANCH   1   7
BRANCH   2  10
ATOM     10  O   UNL     1       2.737 -22.676 -10.157  1.00  0.00    -0.507 OA
ATOM     11  H   UNL     1       3.357 -23.366  -9.754  1.00  0.00     0.293 HD
ENDBRANCH   2  10
TORSDOF 2
ENDMDL
MODEL 5
REMARK VINA RESULT:    -4.183      3.482      4.804
REMARK INTER + INTRA:          -4.786
REMARK INTER:                  -4.536
REMARK INTRA:                  -0.250
REMARK UNBOUND:                -0.236
REMARK SMILES O=C([O-])c1ccccc1O
REMARK SMILES IDX 4 1 9 2 5 3 8 4 6 5 7 6 2 7 1 8 3 9 10 10
REMARK H PARENT 10 11
REMARK Flexibility Score: inf
ROOT
ATOM      1  C   UNL     1       0.370 -23.384 -10.501  1.00  0.00     0.039 A 
ATOM      2  C   UNL     1       1.491 -22.517 -10.543  1.00  0.00     0.124 A 
ATOM      3  C   UNL     1      -0.773 -23.055 -11.254  1.00  0.00     0.014 A 
ATOM      4  C   UNL     1       1.419 -21.325 -11.276  1.00  0.00     0.047 A 
ATOM      5  C   UNL     1      -0.822 -21.873 -11.996  1.00  0.00     0.001 A 
ATOM      6  C   UNL     1       0.269 -21.005 -12.000  1.00  0.00     0.004 A 
ENDROOT
BRANCH   1   7
ATOM      7  C   UNL     1       0.342 -24.605  -9.667  1.00  0.00     0.075 C 
ATOM      8  O   UNL     1      -0.614 -24.804  -8.870  1.00  0.00    -0.545 OA
ATOM      9  O   UNL     1       1.395 -25.512  -9.697  1.00  0.00    -0.545 OA
ENDBRANCH   1   7
BRANCH   2  10
ATOM     10  O   UNL     1       2.697 -22.816  -9.907  1.00  0.00    -0.507 OA
ATOM     11  H   UNL     1       2.924 -22.509  -8.970  1.00  0.00     0.293 HD
ENDBRANCH   2  10
TORSDOF 2
ENDMDL
MODEL 6
REMARK VINA RESULT:    -4.108      4.300      5.966
REMARK INTER + INTRA:          -4.705
REMARK INTER:                  -4.471
REMARK INTRA:                  -0.234
REMARK UNBOUND:                -0.236
REMARK SMILES O=C([O-])c1ccccc1O
REMARK SMILES IDX 4 1 9 2 5 3 8 4 6 5 7 6 2 7 1 8 3 9 10 10
REMARK H PARENT 10 11
REMARK Flexibility Score: inf
ROOT
ATOM      1  C   UNL     1       0.512 -21.961  -9.219  1.00  0.00     0.039 A 
ATOM      2  C   UNL     1       1.403 -22.949  -9.709  1.00  0.00     0.124 A 
ATOM      3  C   UNL     1      -0.759 -22.358  -8.764  1.00  0.00     0.014 A 
ATOM      4  C   UNL     1       0.984 -24.283  -9.789  1.00  0.00     0.047 A 
ATOM      5  C   UNL     1      -1.155 -23.695  -8.831  1.00  0.00     0.001 A 
ATOM      6  C   UNL     1      -0.288 -24.655  -9.351  1.00  0.00     0.004 A 
ENDROOT
BRANCH   1   7
ATOM      7  C   UNL     1       0.853 -20.522  -9.204  1.00  0.00     0.075 C 
ATOM      8  O   UNL     1       0.190 -19.722  -8.491  1.00  0.00    -0.545 OA
ATOM      9  O   UNL     1       1.859 -20.020 -10.022  1.00  0.00    -0.545 OA
ENDBRANCH   1   7
BRANCH   2  10
ATOM     10  O   UNL     1       2.715 -22.657 -10.088  1.00  0.00    -0.507 OA
ATOM     11  H   UNL     1       3.189 -23.116 -10.855  1.00  0.00     0.293 HD
ENDBRANCH   2  10
TORSDOF 2
ENDMDL
MODEL 7
REMARK VINA RESULT:    -4.099      3.832      5.633
REMARK INTER + INTRA:          -4.695
REMARK INTER:                  -4.453
REMARK INTRA:                  -0.241
REMARK UNBOUND:                -0.236
REMARK SMILES O=C([O-])c1ccccc1O
REMARK SMILES IDX 4 1 9 2 5 3 8 4 6 5 7 6 2 7 1 8 3 9 10 10
REMARK H PARENT 10 11
REMARK Flexibility Score: inf
ROOT
ATOM      1  C   UNL     1       0.264 -23.015 -10.876  1.00  0.00     0.039 A 
ATOM      2  C   UNL     1       1.111 -23.762 -10.018  1.00  0.00     0.124 A 
ATOM      3  C   UNL     1      -0.981 -23.560 -11.244  1.00  0.00     0.014 A 
ATOM      4  C   UNL     1       0.726 -25.044  -9.607  1.00  0.00     0.047 A 
ATOM      5  C   UNL     1      -1.359 -24.831 -10.809  1.00  0.00     0.001 A 
ATOM      6  C   UNL     1      -0.504 -25.576  -9.999  1.00  0.00     0.004 A 
ENDROOT
BRANCH   1   7
ATOM      7  C   UNL     1       0.654 -21.700 -11.429  1.00  0.00     0.075 C 
ATOM      8  O   UNL     1       1.868 -21.439 -11.644  1.00  0.00    -0.545 OA
ATOM      9  O   UNL     1      -0.297 -20.712 -11.653  1.00  0.00    -0.545 OA
ENDBRANCH   1   7
BRANCH   2  10
ATOM     10  O   UNL     1       2.316 -23.256  -9.525  1.00  0.00    -0.507 OA
ATOM     11  H   UNL     1       2.897 -23.750  -8.861  1.00  0.00     0.293 HD
ENDBRANCH   2  10
TORSDOF 2
ENDMDL
MODEL 8
REMARK VINA RESULT:    -4.023      2.257      4.081
REMARK INTER + INTRA:          -4.612
REMARK INTER:                  -4.369
REMARK INTRA:                  -0.242
REMARK UNBOUND:                -0.236
REMARK SMILES O=C([O-])c1ccccc1O
REMARK SMILES IDX 4 1 9 2 5 3 8 4 6 5 7 6 2 7 1 8 3 9 10 10
REMARK H PARENT 10 11
REMARK Flexibility Score: inf
ROOT
ATOM      1  C   UNL     1       0.007 -24.631  -9.447  1.00  0.00     0.039 A 
ATOM      2  C   UNL     1       0.700 -25.865  -9.368  1.00  0.00     0.124 A 
ATOM      3  C   UNL     1      -1.286 -24.541  -8.898  1.00  0.00     0.014 A 
ATOM      4  C   UNL     1       0.067 -26.982  -8.807  1.00  0.00     0.047 A 
ATOM      5  C   UNL     1      -1.895 -25.658  -8.323  1.00  0.00     0.001 A 
ATOM      6  C   UNL     1      -1.224 -26.879  -8.285  1.00  0.00     0.004 A 
ENDROOT
BRANCH   1   7
ATOM      7  C   UNL     1       0.576 -23.442 -10.119  1.00  0.00     0.075 C 
ATOM      8  O   UNL     1      -0.050 -22.888 -11.062  1.00  0.00    -0.545 OA
ATOM      9  O   UNL     1       1.833 -22.962  -9.770  1.00  0.00    -0.545 OA
ENDBRANCH   1   7
BRANCH   2  10
ATOM     10  O   UNL     1       2.020 -26.015  -9.799  1.00  0.00    -0.507 OA
ATOM     11  H   UNL     1       2.472 -25.377 -10.441  1.00  0.00     0.293 HD
ENDBRANCH   2  10
TORSDOF 2
ENDMDL
MODEL 9
REMARK VINA RESULT:    -3.951     14.580     15.668
REMARK INTER + INTRA:          -4.534
REMARK INTER:                  -4.284
REMARK INTRA:                  -0.250
REMARK UNBOUND:                -0.236
REMARK SMILES O=C([O-])c1ccccc1O
REMARK SMILES IDX 4 1 9 2 5 3 8 4 6 5 7 6 2 7 1 8 3 9 10 10
REMARK H PARENT 10 11
REMARK Flexibility Score: inf
ROOT
ATOM      1  C   UNL     1      12.340 -35.002 -12.856  1.00  0.00     0.039 A 
ATOM      2  C   UNL     1      12.923 -33.752 -12.528  1.00  0.00     0.124 A 
ATOM      3  C   UNL     1      12.865 -35.734 -13.938  1.00  0.00     0.014 A 
ATOM      4  C   UNL     1      13.962 -33.242 -13.318  1.00  0.00     0.047 A 
ATOM      5  C   UNL     1      13.915 -35.221 -14.702  1.00  0.00     0.001 A 
ATOM      6  C   UNL     1      14.456 -33.973 -14.399  1.00  0.00     0.004 A 
ENDROOT
BRANCH   1   7
ATOM      7  C   UNL     1      11.175 -35.550 -12.128  1.00  0.00     0.075 C 
ATOM      8  O   UNL     1      10.248 -36.125 -12.759  1.00  0.00    -0.545 OA
ATOM      9  O   UNL     1      11.051 -35.381 -10.754  1.00  0.00    -0.545 OA
ENDBRANCH   1   7
BRANCH   2  10
ATOM     10  O   UNL     1      12.530 -33.008 -11.413  1.00  0.00    -0.507 OA
ATOM     11  H   UNL     1      13.179 -32.511 -10.818  1.00  0.00     0.293 HD
ENDBRANCH   2  10
TORSDOF 2
ENDMDL
