MODEL 1
REMARK VINA RESULT:    -4.579      0.000      0.000
REMARK INTER + INTRA:          -4.945
REMARK INTER:                  -4.847
REMARK INTRA:                  -0.098
REMARK UNBOUND:                -0.098
REMARK SMILES C=C(C)[C@@H]1CC=C(C)C(=O)C1
REMARK SMILES IDX 8 1 7 2 6 3 5 4 4 5 11 6 9 7 10 8 2 9 1 10 3 11
REMARK H PARENT
REMARK Flexibility Score: inf
ROOT
ATOM      1  C   UNL     1      19.939 -26.254  24.453  1.00  0.00     0.048 C 
ATOM      2  C   UNL     1      19.527 -24.816  24.307  1.00  0.00    -0.012 C 
ATOM      3  C   UNL     1      18.465 -24.498  23.547  1.00  0.00    -0.019 C 
ATOM      4  C   UNL     1      17.998 -23.076  23.381  1.00  0.00     0.036 C 
ATOM      5  C   UNL     1      19.184 -22.094  23.432  1.00  0.00     0.025 C 
ATOM      6  C   UNL     1      19.989 -22.295  24.728  1.00  0.00     0.089 C 
ATOM      7  C   UNL     1      20.365 -23.743  24.898  1.00  0.00     0.158 C 
ATOM      8  O   UNL     1      21.382 -24.036  25.582  1.00  0.00    -0.295 OA
ENDROOT
BRANCH   5   9
ATOM      9  C   UNL     1      18.720 -20.652  23.284  1.00  0.00    -0.077 C 
ATOM     10  C   UNL     1      17.427 -20.339  23.464  1.00  0.00     0.008 C 
ATOM     11  C   UNL     1      19.685 -19.547  22.932  1.00  0.00     0.039 C 
ENDBRANCH   5   9
TORSDOF 1
ENDMDL
MODEL 2
REMARK VINA RESULT:    -4.570     12.035     12.711
REMARK INTER + INTRA:          -4.935
REMARK INTER:                  -4.838
REMARK INTRA:                  -0.097
REMARK UNBOUND:                -0.098
REMARK SMILES C=C(C)[C@@H]1CC=C(C)C(=O)C1
REMARK SMILES IDX 8 1 7 2 6 3 5 4 4 5 11 6 9 7 10 8 2 9 1 10 3 11
REMARK H PARENT
REMARK Flexibility Score: inf
ROOT
ATOM      1  C   UNL     1       7.755 -21.877  22.137  1.00  0.00     0.048 C 
ATOM      2  C   UNL     1       7.587 -20.406  22.401  1.00  0.00    -0.012 C 
ATOM      3  C   UNL     1       8.010 -19.511  21.492  1.00  0.00    -0.019 C 
ATOM      4  C   UNL     1       7.850 -18.027  21.697  1.00  0.00     0.036 C 
ATOM      5  C   UNL     1       7.948 -17.661  23.190  1.00  0.00     0.025 C 
ATOM      6  C   UNL     1       6.931 -18.475  24.009  1.00  0.00     0.089 C 
ATOM      7  C   UNL     1       7.069 -19.945  23.713  1.00  0.00     0.158 C 
ATOM      8  O   UNL     1       6.704 -20.782  24.582  1.00  0.00    -0.295 OA
ENDROOT
BRANCH   5   9
ATOM      9  C   UNL     1       7.768 -16.165  23.409  1.00  0.00    -0.077 C 
ATOM     10  C   UNL     1       6.819 -15.495  22.737  1.00  0.00     0.008 C 
ATOM     11  C   UNL     1       8.643 -15.400  24.372  1.00  0.00     0.039 C 
ENDBRANCH   5   9
TORSDOF 1
ENDMDL
MODEL 3
REMARK VINA RESULT:    -4.511      2.357      4.460
REMARK INTER + INTRA:          -4.873
REMARK INTER:                  -4.776
REMARK INTRA:                  -0.098
REMARK UNBOUND:                -0.098
REMARK SMILES C=C(C)[C@@H]1CC=C(C)C(=O)C1
REMARK SMILES IDX 8 1 7 2 6 3 5 4 4 5 11 6 9 7 10 8 2 9 1 10 3 11
REMARK H PARENT
REMARK Flexibility Score: inf
ROOT
ATOM      1  C   UNL     1      19.780 -19.424  22.843  1.00  0.00     0.048 C 
ATOM      2  C   UNL     1      18.574 -20.252  23.186  1.00  0.00    -0.012 C 
ATOM      3  C   UNL     1      17.346 -19.808  22.870  1.00  0.00    -0.019 C 
ATOM      4  C   UNL     1      16.104 -20.605  23.174  1.00  0.00     0.036 C 
ATOM      5  C   UNL     1      16.278 -21.429  24.464  1.00  0.00     0.025 C 
ATOM      6  C   UNL     1      17.531 -22.316  24.368  1.00  0.00     0.089 C 
ATOM      7  C   UNL     1      18.732 -21.495  23.981  1.00  0.00     0.158 C 
ATOM      8  O   UNL     1      19.881 -21.896  24.310  1.00  0.00    -0.295 OA
ENDROOT
BRANCH   5   9
ATOM      9  C   UNL     1      15.035 -22.253  24.769  1.00  0.00    -0.077 C 
ATOM     10  C   UNL     1      15.102 -23.279  25.632  1.00  0.00     0.008 C 
ATOM     11  C   UNL     1      13.708 -21.948  24.118  1.00  0.00     0.039 C 
ENDBRANCH   5   9
TORSDOF 1
ENDMDL
MODEL 4
REMARK VINA RESULT:    -4.502     10.508     11.821
REMARK INTER + INTRA:          -4.864
REMARK INTER:                  -4.767
REMARK INTRA:                  -0.096
REMARK UNBOUND:                -0.098
REMARK SMILES C=C(C)[C@@H]1CC=C(C)C(=O)C1
REMARK SMILES IDX 8 1 7 2 6 3 5 4 4 5 11 6 9 7 10 8 2 9 1 10 3 11
REMARK H PARENT
REMARK Flexibility Score: inf
ROOT
ATOM      1  C   UNL     1       8.255 -22.852  21.754  1.00  0.00     0.048 C 
ATOM      2  C   UNL     1       8.111 -21.543  22.480  1.00  0.00    -0.012 C 
ATOM      3  C   UNL     1       6.892 -21.105  22.835  1.00  0.00    -0.019 C 
ATOM      4  C   UNL     1       6.692 -19.811  23.579  1.00  0.00     0.036 C 
ATOM      5  C   UNL     1       7.757 -18.773  23.180  1.00  0.00     0.025 C 
ATOM      6  C   UNL     1       9.170 -19.350  23.383  1.00  0.00     0.089 C 
ATOM      7  C   UNL     1       9.301 -20.681  22.693  1.00  0.00     0.158 C 
ATOM      8  O   UNL     1      10.442 -21.073  22.329  1.00  0.00    -0.295 OA
ENDROOT
BRANCH   5   9
ATOM      9  C   UNL     1       7.576 -17.467  23.941  1.00  0.00    -0.077 C 
ATOM     10  C   UNL     1       7.818 -17.417  25.261  1.00  0.00     0.008 C 
ATOM     11  C   UNL     1       7.120 -16.208  23.246  1.00  0.00     0.039 C 
ENDBRANCH   5   9
TORSDOF 1
ENDMDL
MODEL 5
REMARK VINA RESULT:    -4.500     10.067     12.190
REMARK INTER + INTRA:          -4.861
REMARK INTER:                  -4.763
REMARK INTRA:                  -0.098
REMARK UNBOUND:                -0.098
REMARK SMILES C=C(C)[C@@H]1CC=C(C)C(=O)C1
REMARK SMILES IDX 8 1 7 2 6 3 5 4 4 5 11 6 9 7 10 8 2 9 1 10 3 11
REMARK H PARENT
REMARK Flexibility Score: inf
ROOT
ATOM      1  C   UNL     1       7.024 -17.321  23.957  1.00  0.00     0.048 C 
ATOM      2  C   UNL     1       7.427 -18.593  23.264  1.00  0.00    -0.012 C 
ATOM      3  C   UNL     1       6.811 -19.747  23.572  1.00  0.00    -0.019 C 
ATOM      4  C   UNL     1       7.163 -21.046  22.896  1.00  0.00     0.036 C 
ATOM      5  C   UNL     1       8.656 -21.088  22.520  1.00  0.00     0.025 C 
ATOM      6  C   UNL     1       9.026 -19.866  21.661  1.00  0.00     0.089 C 
ATOM      7  C   UNL     1       8.584 -18.594  22.334  1.00  0.00     0.158 C 
ATOM      8  O   UNL     1       9.187 -17.519  22.070  1.00  0.00    -0.295 OA
ENDROOT
BRANCH   5   9
ATOM      9  C   UNL     1       9.017 -22.390  21.818  1.00  0.00    -0.077 C 
ATOM     10  C   UNL     1       8.059 -23.132  21.240  1.00  0.00     0.008 C 
ATOM     11  C   UNL     1      10.442 -22.881  21.755  1.00  0.00     0.039 C 
ENDBRANCH   5   9
TORSDOF 1
ENDMDL
MODEL 6
REMARK VINA RESULT:    -4.480     12.230     12.836
REMARK INTER + INTRA:          -4.840
REMARK INTER:                  -4.741
REMARK INTRA:                  -0.099
REMARK UNBOUND:                -0.098
REMARK SMILES C=C(C)[C@@H]1CC=C(C)C(=O)C1
REMARK SMILES IDX 8 1 7 2 6 3 5 4 4 5 11 6 9 7 10 8 2 9 1 10 3 11
REMARK H PARENT
REMARK Flexibility Score: inf
ROOT
ATOM      1  C   UNL     1       6.800 -19.630  26.266  1.00  0.00     0.048 C 
ATOM      2  C   UNL     1       6.915 -19.653  24.767  1.00  0.00    -0.012 C 
ATOM      3  C   UNL     1       6.752 -20.809  24.102  1.00  0.00    -0.019 C 
ATOM      4  C   UNL     1       6.839 -20.886  22.599  1.00  0.00     0.036 C 
ATOM      5  C   UNL     1       7.847 -19.859  22.050  1.00  0.00     0.025 C 
ATOM      6  C   UNL     1       7.490 -18.444  22.541  1.00  0.00     0.089 C 
ATOM      7  C   UNL     1       7.331 -18.429  24.038  1.00  0.00     0.158 C 
ATOM      8  O   UNL     1       7.520 -17.351  24.664  1.00  0.00    -0.295 OA
ENDROOT
BRANCH   5   9
ATOM      9  C   UNL     1       7.928 -19.916  20.531  1.00  0.00    -0.077 C 
ATOM     10  C   UNL     1       7.667 -18.820  19.801  1.00  0.00     0.008 C 
ATOM     11  C   UNL     1       8.295 -21.190  19.810  1.00  0.00     0.039 C 
ENDBRANCH   5   9
TORSDOF 1
ENDMDL
MODEL 7
REMARK VINA RESULT:    -4.443     12.746     13.086
REMARK INTER + INTRA:          -4.801
REMARK INTER:                  -4.706
REMARK INTRA:                  -0.095
REMARK UNBOUND:                -0.098
REMARK SMILES C=C(C)[C@@H]1CC=C(C)C(=O)C1
REMARK SMILES IDX 8 1 7 2 6 3 5 4 4 5 11 6 9 7 10 8 2 9 1 10 3 11
REMARK H PARENT
REMARK Flexibility Score: inf
ROOT
ATOM      1  C   UNL     1       6.722 -20.711  26.458  1.00  0.00     0.048 C 
ATOM      2  C   UNL     1       7.083 -19.648  25.459  1.00  0.00    -0.012 C 
ATOM      3  C   UNL     1       7.303 -18.389  25.872  1.00  0.00    -0.019 C 
ATOM      4  C   UNL     1       7.686 -17.289  24.916  1.00  0.00     0.036 C 
ATOM      5  C   UNL     1       7.040 -17.507  23.535  1.00  0.00     0.025 C 
ATOM      6  C   UNL     1       7.396 -18.902  22.991  1.00  0.00     0.089 C 
ATOM      7  C   UNL     1       7.075 -19.964  24.008  1.00  0.00     0.158 C 
ATOM      8  O   UNL     1       6.834 -21.136  23.615  1.00  0.00    -0.295 OA
ENDROOT
BRANCH   5   9
ATOM      9  C   UNL     1       7.436 -16.411  22.556  1.00  0.00    -0.077 C 
ATOM     10  C   UNL     1       7.419 -15.125  22.941  1.00  0.00     0.008 C 
ATOM     11  C   UNL     1       7.853 -16.732  21.142  1.00  0.00     0.039 C 
ENDBRANCH   5   9
TORSDOF 1
ENDMDL
MODEL 8
REMARK VINA RESULT:    -4.381      2.434      4.907
REMARK INTER + INTRA:          -4.735
REMARK INTER:                  -4.637
REMARK INTRA:                  -0.098
REMARK UNBOUND:                -0.098
REMARK SMILES C=C(C)[C@@H]1CC=C(C)C(=O)C1
REMARK SMILES IDX 8 1 7 2 6 3 5 4 4 5 11 6 9 7 10 8 2 9 1 10 3 11
REMARK H PARENT
REMARK Flexibility Score: inf
ROOT
ATOM      1  C   UNL     1      15.517 -19.362  22.487  1.00  0.00     0.048 C 
ATOM      2  C   UNL     1      16.540 -20.284  23.089  1.00  0.00    -0.012 C 
ATOM      3  C   UNL     1      17.845 -19.975  23.013  1.00  0.00    -0.019 C 
ATOM      4  C   UNL     1      18.911 -20.854  23.614  1.00  0.00     0.036 C 
ATOM      5  C   UNL     1      18.503 -22.338  23.556  1.00  0.00     0.025 C 
ATOM      6  C   UNL     1      17.132 -22.543  24.225  1.00  0.00     0.089 C 
ATOM      7  C   UNL     1      16.117 -21.590  23.654  1.00  0.00     0.158 C 
ATOM      8  O   UNL     1      14.896 -21.898  23.694  1.00  0.00    -0.295 OA
ENDROOT
BRANCH   5   9
ATOM      9  C   UNL     1      19.565 -23.233  24.179  1.00  0.00    -0.077 C 
ATOM     10  C   UNL     1      20.408 -22.738  25.099  1.00  0.00     0.008 C 
ATOM     11  C   UNL     1      19.703 -24.683  23.784  1.00  0.00     0.039 C 
ENDBRANCH   5   9
TORSDOF 1
ENDMDL
MODEL 9
REMARK VINA RESULT:    -4.379     11.790     12.783
REMARK INTER + INTRA:          -4.733
REMARK INTER:                  -4.635
REMARK INTRA:                  -0.098
REMARK UNBOUND:                -0.098
REMARK SMILES C=C(C)[C@@H]1CC=C(C)C(=O)C1
REMARK SMILES IDX 8 1 7 2 6 3 5 4 4 5 11 6 9 7 10 8 2 9 1 10 3 11
REMARK H PARENT
REMARK Flexibility Score: inf
ROOT
ATOM      1  C   UNL     1       9.749 -15.147  24.019  1.00  0.00     0.048 C 
ATOM      2  C   UNL     1       9.185 -16.539  23.950  1.00  0.00    -0.012 C 
ATOM      3  C   UNL     1       9.282 -17.244  22.810  1.00  0.00    -0.019 C 
ATOM      4  C   UNL     1       8.751 -18.649  22.691  1.00  0.00     0.036 C 
ATOM      5  C   UNL     1       7.503 -18.845  23.572  1.00  0.00     0.025 C 
ATOM      6  C   UNL     1       7.811 -18.460  25.030  1.00  0.00     0.089 C 
ATOM      7  C   UNL     1       8.416 -17.083  25.097  1.00  0.00     0.158 C 
ATOM      8  O   UNL     1       8.293 -16.410  26.155  1.00  0.00    -0.295 OA
ENDROOT
BRANCH   5   9
ATOM      9  C   UNL     1       6.970 -20.267  23.473  1.00  0.00    -0.077 C 
ATOM     10  C   UNL     1       6.571 -20.915  24.579  1.00  0.00     0.008 C 
ATOM     11  C   UNL     1       6.880 -20.984  22.148  1.00  0.00     0.039 C 
ENDBRANCH   5   9
TORSDOF 1
ENDMDL
