MODEL 1
REMARK VINA RESULT:    -4.336      0.000      0.000
REMARK INTER + INTRA:          -5.791
REMARK INTER:                  -5.857
REMARK INTRA:                   0.066
REMARK UNBOUND:                 0.066
REMARK SMILES C=C1C(=O)O[C@H]2[C@H]3O[C@@]3(C)CCC=C(C)CC[C@@H]12
REMARK SMILES IDX 6 1 18 2 2 3 1 4 3 5 4 6 5 7 17 8 16 9 14 10 15 11 13 12
REMARK SMILES IDX 7 14 9 15 8 16 10 17 11 18 12 19
REMARK H PARENT
REMARK Flexibility Score: 70.00
ROOT
ATOM      1  C   UNL     1      16.663 -51.695   8.067  1.00  0.00     0.216 C 
ATOM      2  C   UNL     1      17.527 -50.820   7.080  1.00  0.00     0.070 C 
ATOM      3  C   UNL     1      18.381 -50.051   8.053  1.00  0.00     0.037 C 
ATOM      4  C   UNL     1      19.506 -49.396   7.769  1.00  0.00     0.021 C 
ATOM      5  C   UNL     1      17.754 -50.135   9.354  1.00  0.00     0.334 C 
ATOM      6  O   UNL     1      18.104 -49.497  10.382  1.00  0.00    -0.247 OA
ATOM      7  O   UNL     1      16.691 -51.011   9.321  1.00  0.00    -0.455 OA
ENDROOT
BRANCH   2   8
ATOM      8  C   UNL     1      16.829 -49.814   6.141  1.00  0.00     0.017 C 
BRANCH   8   9
ATOM      9  C   UNL     1      16.093 -48.675   6.871  1.00  0.00     0.031 C 
BRANCH   9  10
ATOM     10  C   UNL     1      14.978 -48.101   6.023  1.00  0.00    -0.077 C 
ATOM     11  C   UNL     1      15.302 -47.003   5.045  1.00  0.00     0.039 C 
ATOM     12  C   UNL     1      13.707 -48.558   6.087  1.00  0.00    -0.028 CG0
ATOM     13  G   UNL     1      13.256 -49.674   6.996  1.00  0.00     0.000 G0
ENDBRANCH   9  10
ENDBRANCH   8   9
ENDBRANCH   2   8
BRANCH   1  14
ATOM     14  C   UNL     1      15.305 -52.436   7.817  1.00  0.00     0.192 C 
ATOM     15  C   UNL     1      13.887 -52.161   7.351  1.00  0.00     0.096 C 
ATOM     16  O   UNL     1      14.341 -51.736   8.598  1.00  0.00    -0.362 OA
ATOM     17  C   UNL     1      12.875 -53.305   7.500  1.00  0.00     0.045 C 
BRANCH  15  18
ATOM     18  C   UNL     1      13.516 -51.049   6.359  1.00  0.00     0.042 C 
BRANCH  18  19
ATOM     19  C   UNL     1      13.246 -49.669   6.994  1.00  0.00     0.030 CG0
ATOM     20  G   UNL     1      13.706 -48.554   6.089  1.00  0.00     0.000 G0
ENDBRANCH  18  19
ENDBRANCH  15  18
ENDBRANCH   1  14
TORSDOF 0
ENDMDL
MODEL 2
REMARK VINA RESULT:    -3.552      2.473      4.364
REMARK INTER + INTRA:          -4.731
REMARK INTER:                  -4.804
REMARK INTRA:                   0.073
REMARK UNBOUND:                 0.066
REMARK SMILES C=C1C(=O)O[C@H]2[C@H]3O[C@@]3(C)CCC=C(C)CC[C@@H]12
REMARK SMILES IDX 6 1 18 2 2 3 1 4 3 5 4 6 5 7 17 8 16 9 14 10 15 11 13 12
REMARK SMILES IDX 7 14 9 15 8 16 10 17 11 18 12 19
REMARK H PARENT
REMARK Flexibility Score: 70.00
ROOT
ATOM      1  C   UNL     1      13.272 -49.778   6.968  1.00  0.00     0.216 C 
ATOM      2  C   UNL     1      14.271 -48.638   7.403  1.00  0.00     0.070 C 
ATOM      3  C   UNL     1      14.323 -47.810   6.145  1.00  0.00     0.037 C 
ATOM      4  C   UNL     1      14.765 -46.556   6.044  1.00  0.00     0.021 C 
ATOM      5  C   UNL     1      13.823 -48.622   5.059  1.00  0.00     0.334 C 
ATOM      6  O   UNL     1      13.850 -48.317   3.837  1.00  0.00    -0.247 OA
ATOM      7  O   UNL     1      13.313 -49.809   5.540  1.00  0.00    -0.455 OA
ENDROOT
BRANCH   2   8
ATOM      8  C   UNL     1      15.714 -49.001   7.809  1.00  0.00     0.017 C 
BRANCH   8   9
ATOM      9  C   UNL     1      16.499 -49.769   6.729  1.00  0.00     0.031 C 
BRANCH   9  10
ATOM     10  C   UNL     1      17.650 -50.549   7.329  1.00  0.00    -0.077 C 
ATOM     11  C   UNL     1      18.931 -49.824   7.646  1.00  0.00     0.039 C 
ATOM     12  C   UNL     1      17.561 -51.866   7.621  1.00  0.00    -0.028 CG0
ATOM     13  G   UNL     1      16.327 -52.702   7.387  1.00  0.00     0.000 G0
ENDBRANCH   9  10
ENDBRANCH   8   9
ENDBRANCH   2   8
BRANCH   1  14
ATOM     14  C   UNL     1      13.042 -51.196   7.594  1.00  0.00     0.192 C 
ATOM     15  C   UNL     1      13.814 -52.434   8.009  1.00  0.00     0.096 C 
ATOM     16  O   UNL     1      13.611 -52.116   6.669  1.00  0.00    -0.362 OA
ATOM     17  C   UNL     1      12.988 -53.664   8.411  1.00  0.00     0.045 C 
BRANCH  15  18
ATOM     18  C   UNL     1      15.272 -52.408   8.490  1.00  0.00     0.042 C 
BRANCH  18  19
ATOM     19  C   UNL     1      16.325 -52.699   7.401  1.00  0.00     0.030 CG0
ATOM     20  G   UNL     1      17.569 -51.871   7.611  1.00  0.00     0.000 G0
ENDBRANCH  18  19
ENDBRANCH  15  18
ENDBRANCH   1  14
TORSDOF 0
ENDMDL
MODEL 3
REMARK VINA RESULT:    -3.529     17.045     17.962
REMARK INTER + INTRA:          -4.701
REMARK INTER:                  -4.695
REMARK INTRA:                  -0.006
REMARK UNBOUND:                 0.066
REMARK SMILES C=C1C(=O)O[C@H]2[C@H]3O[C@@]3(C)CCC=C(C)CC[C@@H]12
REMARK SMILES IDX 6 1 18 2 2 3 1 4 3 5 4 6 5 7 17 8 16 9 14 10 15 11 13 12
REMARK SMILES IDX 7 14 9 15 8 16 10 17 11 18 12 19
REMARK H PARENT
REMARK Flexibility Score: 70.00
ROOT
ATOM      1  C   UNL     1      24.374 -42.219  -5.536  1.00  0.00     0.216 C 
ATOM      2  C   UNL     1      25.239 -43.522  -5.336  1.00  0.00     0.070 C 
ATOM      3  C   UNL     1      26.630 -42.970  -5.504  1.00  0.00     0.037 C 
ATOM      4  C   UNL     1      27.764 -43.561  -5.128  1.00  0.00     0.021 C 
ATOM      5  C   UNL     1      26.520 -41.687  -6.162  1.00  0.00     0.334 C 
ATOM      6  O   UNL     1      27.480 -40.997  -6.595  1.00  0.00    -0.247 OA
ATOM      7  O   UNL     1      25.198 -41.313  -6.271  1.00  0.00    -0.455 OA
ENDROOT
BRANCH   2   8
ATOM      8  C   UNL     1      25.064 -44.711  -6.304  1.00  0.00     0.017 C 
BRANCH   8   9
ATOM      9  C   UNL     1      23.793 -45.544  -6.057  1.00  0.00     0.031 C 
BRANCH   9  10
ATOM     10  C   UNL     1      23.374 -46.300  -7.301  1.00  0.00    -0.077 C 
ATOM     11  C   UNL     1      24.166 -47.512  -7.715  1.00  0.00     0.039 C 
ATOM     12  C   UNL     1      22.296 -45.947  -8.037  1.00  0.00    -0.028 CG0
ATOM     13  G   UNL     1      21.399 -44.778  -7.714  1.00  0.00     0.000 G0
ENDBRANCH   9  10
ENDBRANCH   8   9
ENDBRANCH   2   8
BRANCH   1  14
ATOM     14  C   UNL     1      22.855 -42.074  -5.892  1.00  0.00     0.192 C 
ATOM     15  C   UNL     1      21.888 -42.330  -7.034  1.00  0.00     0.096 C 
ATOM     16  O   UNL     1      22.817 -41.293  -7.083  1.00  0.00    -0.362 OA
ATOM     17  C   UNL     1      20.464 -41.780  -6.872  1.00  0.00     0.045 C 
BRANCH  15  18
ATOM     18  C   UNL     1      22.073 -43.444  -8.074  1.00  0.00     0.042 C 
BRANCH  18  19
ATOM     19  C   UNL     1      21.391 -44.783  -7.725  1.00  0.00     0.030 CG0
ATOM     20  G   UNL     1      22.300 -45.951  -8.021  1.00  0.00     0.000 G0
ENDBRANCH  18  19
ENDBRANCH  15  18
ENDBRANCH   1  14
TORSDOF 0
ENDMDL
MODEL 4
REMARK VINA RESULT:    -3.216     11.763     12.595
REMARK INTER + INTRA:          -4.277
REMARK INTER:                  -4.623
REMARK INTRA:                   0.346
REMARK UNBOUND:                 0.066
REMARK SMILES C=C1C(=O)O[C@H]2[C@H]3O[C@@]3(C)CCC=C(C)CC[C@@H]12
REMARK SMILES IDX 6 1 18 2 2 3 1 4 3 5 4 6 5 7 17 8 16 9 14 10 15 11 13 12
REMARK SMILES IDX 7 14 9 15 8 16 10 17 11 18 12 19
REMARK H PARENT
REMARK Flexibility Score: 70.00
ROOT
ATOM      1  C   UNL     1      16.776 -54.303  -4.470  1.00  0.00     0.216 C 
ATOM      2  C   UNL     1      15.898 -53.906  -3.222  1.00  0.00     0.070 C 
ATOM      3  C   UNL     1      16.898 -53.132  -2.404  1.00  0.00     0.037 C 
ATOM      4  C   UNL     1      16.621 -52.301  -1.400  1.00  0.00     0.021 C 
ATOM      5  C   UNL     1      18.219 -53.463  -2.891  1.00  0.00     0.334 C 
ATOM      6  O   UNL     1      19.308 -53.120  -2.358  1.00  0.00    -0.247 OA
ATOM      7  O   UNL     1      18.134 -54.233  -4.031  1.00  0.00    -0.455 OA
ENDROOT
BRANCH   2   8
ATOM      8  C   UNL     1      15.291 -55.012  -2.334  1.00  0.00     0.017 C 
BRANCH   8   9
ATOM      9  C   UNL     1      13.751 -55.029  -2.313  1.00  0.00     0.031 C 
BRANCH   9  10
ATOM     10  C   UNL     1      13.171 -54.024  -3.287  1.00  0.00    -0.077 C 
ATOM     11  C   UNL     1      12.950 -52.609  -2.824  1.00  0.00     0.039 C 
ATOM     12  C   UNL     1      12.875 -54.341  -4.568  1.00  0.00    -0.028 CG0
ATOM     13  G   UNL     1      13.081 -55.710  -5.168  1.00  0.00     0.000 G0
ENDBRANCH   9  10
ENDBRANCH   8   9
ENDBRANCH   2   8
BRANCH   1  14
ATOM     14  C   UNL     1      16.546 -55.428  -5.536  1.00  0.00     0.192 C 
ATOM     15  C   UNL     1      15.423 -56.208  -6.194  1.00  0.00     0.096 C 
ATOM     16  O   UNL     1      15.789 -56.433  -4.869  1.00  0.00    -0.362 OA
ATOM     17  C   UNL     1      15.829 -57.392  -7.082  1.00  0.00     0.045 C 
BRANCH  15  18
ATOM     18  C   UNL     1      14.010 -55.648  -6.412  1.00  0.00     0.042 C 
BRANCH  18  19
ATOM     19  C   UNL     1      13.082 -55.717  -5.182  1.00  0.00     0.030 CG0
ATOM     20  G   UNL     1      12.873 -54.350  -4.579  1.00  0.00     0.000 G0
ENDBRANCH  18  19
ENDBRANCH  15  18
ENDBRANCH   1  14
TORSDOF 0
ENDMDL
MODEL 5
REMARK VINA RESULT:    -3.168     10.839     12.291
REMARK INTER + INTRA:          -4.213
REMARK INTER:                  -4.389
REMARK INTRA:                   0.176
REMARK UNBOUND:                 0.066
REMARK SMILES C=C1C(=O)O[C@H]2[C@H]3O[C@@]3(C)CCC=C(C)CC[C@@H]12
REMARK SMILES IDX 6 1 18 2 2 3 1 4 3 5 4 6 5 7 17 8 16 9 14 10 15 11 13 12
REMARK SMILES IDX 7 14 9 15 8 16 10 17 11 18 12 19
REMARK H PARENT
REMARK Flexibility Score: 70.00
ROOT
ATOM      1  C   UNL     1      13.254 -54.907  -2.901  1.00  0.00     0.216 C 
ATOM      2  C   UNL     1      13.147 -55.023  -4.470  1.00  0.00     0.070 C 
ATOM      3  C   UNL     1      13.279 -56.512  -4.655  1.00  0.00     0.037 C 
ATOM      4  C   UNL     1      12.948 -57.204  -5.745  1.00  0.00     0.021 C 
ATOM      5  C   UNL     1      13.846 -57.060  -3.443  1.00  0.00     0.334 C 
ATOM      6  O   UNL     1      14.233 -58.248  -3.282  1.00  0.00    -0.247 OA
ATOM      7  O   UNL     1      13.926 -56.091  -2.467  1.00  0.00    -0.455 OA
ENDROOT
BRANCH   2   8
ATOM      8  C   UNL     1      14.194 -54.325  -5.361  1.00  0.00     0.017 C 
BRANCH   8   9
ATOM      9  C   UNL     1      15.241 -53.507  -4.581  1.00  0.00     0.031 C 
BRANCH   9  10
ATOM     10  C   UNL     1      16.484 -54.324  -4.296  1.00  0.00    -0.077 C 
ATOM     11  C   UNL     1      16.911 -55.368  -5.294  1.00  0.00     0.039 C 
ATOM     12  C   UNL     1      17.244 -54.130  -3.195  1.00  0.00    -0.028 CG0
ATOM     13  G   UNL     1      16.950 -53.097  -2.136  1.00  0.00     0.000 G0
ENDBRANCH   9  10
ENDBRANCH   8   9
ENDBRANCH   2   8
BRANCH   1  14
ATOM     14  C   UNL     1      13.596 -53.662  -2.013  1.00  0.00     0.192 C 
ATOM     15  C   UNL     1      14.625 -53.188  -1.003  1.00  0.00     0.096 C 
ATOM     16  O   UNL     1      13.679 -54.157  -0.680  1.00  0.00    -0.362 OA
ATOM     17  C   UNL     1      14.327 -51.870  -0.277  1.00  0.00     0.045 C 
BRANCH  15  18
ATOM     18  C   UNL     1      16.088 -53.652  -0.997  1.00  0.00     0.042 C 
BRANCH  18  19
ATOM     19  C   UNL     1      16.961 -53.079  -2.132  1.00  0.00     0.030 CG0
ATOM     20  G   UNL     1      17.229 -54.119  -3.192  1.00  0.00     0.000 G0
ENDBRANCH  18  19
ENDBRANCH  15  18
ENDBRANCH   1  14
TORSDOF 0
ENDMDL
MODEL 6
REMARK VINA RESULT:    -3.105      2.382      4.754
REMARK INTER + INTRA:          -4.127
REMARK INTER:                  -5.114
REMARK INTRA:                   0.987
REMARK UNBOUND:                 0.066
REMARK SMILES C=C1C(=O)O[C@H]2[C@H]3O[C@@]3(C)CCC=C(C)CC[C@@H]12
REMARK SMILES IDX 6 1 18 2 2 3 1 4 3 5 4 6 5 7 17 8 16 9 14 10 15 11 13 12
REMARK SMILES IDX 7 14 9 15 8 16 10 17 11 18 12 19
REMARK H PARENT
REMARK Flexibility Score: 70.00
ROOT
ATOM      1  C   UNL     1      15.977 -48.701   5.602  1.00  0.00     0.216 C 
ATOM      2  C   UNL     1      14.514 -48.826   5.028  1.00  0.00     0.070 C 
ATOM      3  C   UNL     1      13.962 -47.462   5.353  1.00  0.00     0.037 C 
ATOM      4  C   UNL     1      12.875 -46.904   4.822  1.00  0.00     0.021 C 
ATOM      5  C   UNL     1      14.814 -46.869   6.360  1.00  0.00     0.334 C 
ATOM      6  O   UNL     1      14.586 -45.796   6.979  1.00  0.00    -0.247 OA
ATOM      7  O   UNL     1      15.928 -47.653   6.572  1.00  0.00    -0.455 OA
ENDROOT
BRANCH   2   8
ATOM      8  C   UNL     1      13.557 -49.890   5.603  1.00  0.00     0.017 C 
BRANCH   8   9
ATOM      9  C   UNL     1      13.436 -49.866   7.138  1.00  0.00     0.031 C 
BRANCH   9  10
ATOM     10  C   UNL     1      13.992 -51.131   7.758  1.00  0.00    -0.077 C 
ATOM     11  C   UNL     1      13.305 -52.441   7.477  1.00  0.00     0.039 C 
ATOM     12  C   UNL     1      15.103 -51.134   8.530  1.00  0.00    -0.028 CG0
ATOM     13  G   UNL     1      15.905 -49.900   8.861  1.00  0.00     0.000 G0
ENDBRANCH   9  10
ENDBRANCH   8   9
ENDBRANCH   2   8
BRANCH   1  14
ATOM     14  C   UNL     1      17.000 -49.825   5.983  1.00  0.00     0.192 C 
ATOM     15  C   UNL     1      17.831 -50.305   7.158  1.00  0.00     0.096 C 
ATOM     16  O   UNL     1      18.153 -49.142   6.464  1.00  0.00    -0.362 OA
ATOM     17  C   UNL     1      18.856 -51.412   6.875  1.00  0.00     0.045 C 
BRANCH  15  18
ATOM     18  C   UNL     1      17.420 -50.118   8.626  1.00  0.00     0.042 C 
BRANCH  18  19
ATOM     19  C   UNL     1      15.910 -49.904   8.860  1.00  0.00     0.030 CG0
ATOM     20  G   UNL     1      15.125 -51.146   8.516  1.00  0.00     0.000 G0
ENDBRANCH  18  19
ENDBRANCH  15  18
ENDBRANCH   1  14
TORSDOF 0
ENDMDL
MODEL 7
REMARK VINA RESULT:    -3.028     16.739     18.000
REMARK INTER + INTRA:          -4.023
REMARK INTER:                  -3.973
REMARK INTRA:                  -0.051
REMARK UNBOUND:                 0.066
REMARK SMILES C=C1C(=O)O[C@H]2[C@H]3O[C@@]3(C)CCC=C(C)CC[C@@H]12
REMARK SMILES IDX 6 1 18 2 2 3 1 4 3 5 4 6 5 7 17 8 16 9 14 10 15 11 13 12
REMARK SMILES IDX 7 14 9 15 8 16 10 17 11 18 12 19
REMARK H PARENT
REMARK Flexibility Score: 70.00
ROOT
ATOM      1  C   UNL     1      25.845 -43.932  -7.506  1.00  0.00     0.216 C 
ATOM      2  C   UNL     1      25.306 -42.450  -7.506  1.00  0.00     0.070 C 
ATOM      3  C   UNL     1      26.330 -41.774  -6.632  1.00  0.00     0.037 C 
ATOM      4  C   UNL     1      26.548 -40.462  -6.543  1.00  0.00     0.021 C 
ATOM      5  C   UNL     1      27.027 -42.801  -5.892  1.00  0.00     0.334 C 
ATOM      6  O   UNL     1      27.852 -42.607  -4.959  1.00  0.00    -0.247 OA
ATOM      7  O   UNL     1      26.656 -44.052  -6.336  1.00  0.00    -0.455 OA
ENDROOT
BRANCH   2   8
ATOM      8  C   UNL     1      23.904 -42.148  -6.939  1.00  0.00     0.017 C 
BRANCH   8   9
ATOM      9  C   UNL     1      22.752 -42.426  -7.923  1.00  0.00     0.031 C 
BRANCH   9  10
ATOM     10  C   UNL     1      21.444 -42.659  -7.195  1.00  0.00    -0.077 C 
ATOM     11  C   UNL     1      20.684 -41.470  -6.670  1.00  0.00     0.039 C 
ATOM     12  C   UNL     1      20.916 -43.892  -7.027  1.00  0.00    -0.028 CG0
ATOM     13  G   UNL     1      21.556 -45.161  -7.534  1.00  0.00     0.000 G0
ENDBRANCH   9  10
ENDBRANCH   8   9
ENDBRANCH   2   8
BRANCH   1  14
ATOM     14  C   UNL     1      25.102 -45.264  -7.862  1.00  0.00     0.192 C 
ATOM     15  C   UNL     1      23.962 -46.139  -7.373  1.00  0.00     0.096 C 
ATOM     16  O   UNL     1      25.171 -46.064  -6.686  1.00  0.00    -0.362 OA
ATOM     17  C   UNL     1      23.801 -47.508  -8.047  1.00  0.00     0.045 C 
BRANCH  15  18
ATOM     18  C   UNL     1      22.733 -45.599  -6.627  1.00  0.00     0.042 C 
BRANCH  18  19
ATOM     19  C   UNL     1      21.556 -45.175  -7.529  1.00  0.00     0.030 CG0
ATOM     20  G   UNL     1      20.903 -43.916  -7.016  1.00  0.00     0.000 G0
ENDBRANCH  18  19
ENDBRANCH  15  18
ENDBRANCH   1  14
TORSDOF 0
ENDMDL
MODEL 8
REMARK VINA RESULT:    -3.025     16.654     17.714
REMARK INTER + INTRA:          -4.020
REMARK INTER:                  -3.991
REMARK INTRA:                  -0.029
REMARK UNBOUND:                 0.066
REMARK SMILES C=C1C(=O)O[C@H]2[C@H]3O[C@@]3(C)CCC=C(C)CC[C@@H]12
REMARK SMILES IDX 6 1 18 2 2 3 1 4 3 5 4 6 5 7 17 8 16 9 14 10 15 11 13 12
REMARK SMILES IDX 7 14 9 15 8 16 10 17 11 18 12 19
REMARK H PARENT
REMARK Flexibility Score: 70.00
ROOT
ATOM      1  C   UNL     1      24.061 -41.386  -5.971  1.00  0.00     0.216 C 
ATOM      2  C   UNL     1      22.642 -41.440  -6.657  1.00  0.00     0.070 C 
ATOM      3  C   UNL     1      21.879 -40.453  -5.813  1.00  0.00     0.037 C 
ATOM      4  C   UNL     1      20.724 -39.870  -6.131  1.00  0.00     0.021 C 
ATOM      5  C   UNL     1      22.616 -40.260  -4.584  1.00  0.00     0.334 C 
ATOM      6  O   UNL     1      22.215 -39.617  -3.578  1.00  0.00    -0.247 OA
ATOM      7  O   UNL     1      23.836 -40.897  -4.648  1.00  0.00    -0.455 OA
ENDROOT
BRANCH   2   8
ATOM      8  C   UNL     1      21.858 -42.768  -6.685  1.00  0.00     0.017 C 
BRANCH   8   9
ATOM      9  C   UNL     1      22.214 -43.686  -7.870  1.00  0.00     0.031 C 
BRANCH   9  10
ATOM     10  C   UNL     1      21.885 -45.133  -7.569  1.00  0.00    -0.077 C 
ATOM     11  C   UNL     1      20.465 -45.604  -7.732  1.00  0.00     0.039 C 
ATOM     12  C   UNL     1      22.826 -46.028  -7.190  1.00  0.00    -0.028 CG0
ATOM     13  G   UNL     1      24.288 -45.697  -7.023  1.00  0.00     0.000 G0
ENDBRANCH   9  10
ENDBRANCH   8   9
ENDBRANCH   2   8
BRANCH   1  14
ATOM     14  C   UNL     1      25.243 -42.412  -6.041  1.00  0.00     0.192 C 
ATOM     15  C   UNL     1      25.571 -43.850  -5.683  1.00  0.00     0.096 C 
ATOM     16  O   UNL     1      25.428 -42.869  -4.705  1.00  0.00    -0.362 OA
ATOM     17  C   UNL     1      27.038 -44.279  -5.816  1.00  0.00     0.045 C 
BRANCH  15  18
ATOM     18  C   UNL     1      24.532 -44.979  -5.656  1.00  0.00     0.042 C 
BRANCH  18  19
ATOM     19  C   UNL     1      24.290 -45.678  -7.011  1.00  0.00     0.030 CG0
ATOM     20  G   UNL     1      22.830 -46.008  -7.200  1.00  0.00     0.000 G0
ENDBRANCH  18  19
ENDBRANCH  15  18
ENDBRANCH   1  14
TORSDOF 0
ENDMDL
MODEL 9
REMARK VINA RESULT:    -2.954     17.242     19.030
REMARK INTER + INTRA:          -3.924
REMARK INTER:                  -4.424
REMARK INTRA:                   0.501
REMARK UNBOUND:                 0.066
REMARK SMILES C=C1C(=O)O[C@H]2[C@H]3O[C@@]3(C)CCC=C(C)CC[C@@H]12
REMARK SMILES IDX 6 1 18 2 2 3 1 4 3 5 4 6 5 7 17 8 16 9 14 10 15 11 13 12
REMARK SMILES IDX 7 14 9 15 8 16 10 17 11 18 12 19
REMARK H PARENT
REMARK Flexibility Score: 70.00
ROOT
ATOM      1  C   UNL     1      23.824 -43.111  -7.041  1.00  0.00     0.216 C 
ATOM      2  C   UNL     1      24.738 -44.343  -6.680  1.00  0.00     0.070 C 
ATOM      3  C   UNL     1      23.786 -45.485  -6.921  1.00  0.00     0.037 C 
ATOM      4  C   UNL     1      24.115 -46.767  -7.074  1.00  0.00     0.021 C 
ATOM      5  C   UNL     1      22.444 -44.946  -6.941  1.00  0.00     0.334 C 
ATOM      6  O   UNL     1      21.380 -45.619  -6.975  1.00  0.00    -0.247 OA
ATOM      7  O   UNL     1      22.478 -43.569  -6.902  1.00  0.00    -0.455 OA
ENDROOT
BRANCH   2   8
ATOM      8  C   UNL     1      25.310 -44.477  -5.253  1.00  0.00     0.017 C 
BRANCH   8   9
ATOM      9  C   UNL     1      26.788 -44.062  -5.125  1.00  0.00     0.031 C 
BRANCH   9  10
ATOM     10  C   UNL     1      27.448 -43.932  -6.483  1.00  0.00    -0.077 C 
ATOM     11  C   UNL     1      27.715 -45.179  -7.282  1.00  0.00     0.039 C 
ATOM     12  C   UNL     1      27.777 -42.735  -7.019  1.00  0.00    -0.028 CG0
ATOM     13  G   UNL     1      27.532 -41.410  -6.340  1.00  0.00     0.000 G0
ENDBRANCH   9  10
ENDBRANCH   8   9
ENDBRANCH   2   8
BRANCH   1  14
ATOM     14  C   UNL     1      23.987 -41.600  -6.659  1.00  0.00     0.192 C 
ATOM     15  C   UNL     1      25.068 -40.563  -6.411  1.00  0.00     0.096 C 
ATOM     16  O   UNL     1      24.819 -41.589  -5.502  1.00  0.00    -0.362 OA
ATOM     17  C   UNL     1      24.613 -39.211  -5.846  1.00  0.00     0.045 C 
BRANCH  15  18
ATOM     18  C   UNL     1      26.445 -40.589  -7.089  1.00  0.00     0.042 C 
BRANCH  18  19
ATOM     19  C   UNL     1      27.525 -41.400  -6.344  1.00  0.00     0.030 CG0
ATOM     20  G   UNL     1      27.769 -42.728  -7.015  1.00  0.00     0.000 G0
ENDBRANCH  18  19
ENDBRANCH  15  18
ENDBRANCH   1  14
TORSDOF 0
ENDMDL
