MODEL 1
REMARK VINA RESULT:    -3.400      0.000      0.000
REMARK INTER + INTRA:          -8.354
REMARK INTER:                  -6.182
REMARK INTRA:                  -2.172
REMARK UNBOUND:                -2.172
REMARK SMILES CCCCCCCCCCCCCCCC(=O)[O-]
REMARK SMILES IDX 9 1 10 2 11 3 12 4 13 5 14 6 15 7 16 8 17 9 18 10 8 11 7 12
REMARK SMILES IDX 6 13 5 14 4 15 3 16 2 17 1 18
REMARK H PARENT
REMARK Flexibility Score: inf
ROOT
ATOM      1  C   UNL     1      62.044  31.554  59.353  1.00  0.00     0.000 C 
ENDROOT
BRANCH   1   2
ATOM      2  C   UNL     1      61.147  31.808  60.576  1.00  0.00     0.000 C 
BRANCH   2   3
ATOM      3  C   UNL     1      60.982  30.557  61.453  1.00  0.00     0.000 C 
BRANCH   3   4
ATOM      4  C   UNL     1      61.141  29.252  60.654  1.00  0.00     0.000 C 
BRANCH   4   5
ATOM      5  C   UNL     1      62.190  28.303  61.259  1.00  0.00     0.000 C 
BRANCH   5   6
ATOM      6  C   UNL     1      63.439  28.080  60.386  1.00  0.00     0.006 C 
BRANCH   6   7
ATOM      7  C   UNL     1      64.570  29.069  60.695  1.00  0.00     0.053 C 
BRANCH   7   8
ATOM      8  C   UNL     1      65.887  28.509  60.265  1.00  0.00     0.041 C 
ATOM      9  O   UNL     1      66.076  28.182  59.063  1.00  0.00    -0.550 OA
ATOM     10  O   UNL     1      66.926  28.392  61.180  1.00  0.00    -0.550 OA
ENDBRANCH   7   8
ENDBRANCH   6   7
ENDBRANCH   5   6
ENDBRANCH   4   5
ENDBRANCH   3   4
ENDBRANCH   2   3
ENDBRANCH   1   2
BRANCH   1  11
ATOM     11  C   UNL     1      63.285  32.464  59.324  1.00  0.00     0.000 C 
BRANCH  11  12
ATOM     12  C   UNL     1      63.947  32.699  60.696  1.00  0.00    -0.000 C 
BRANCH  12  13
ATOM     13  C   UNL     1      64.315  34.165  61.000  1.00  0.00    -0.000 C 
BRANCH  13  14
ATOM     14  C   UNL     1      63.573  35.215  60.148  1.00  0.00    -0.000 C 
BRANCH  14  15
ATOM     15  C   UNL     1      62.367  35.880  60.835  1.00  0.00    -0.000 C 
BRANCH  15  16
ATOM     16  C   UNL     1      61.020  35.439  60.235  1.00  0.00    -0.000 C 
BRANCH  16  17
ATOM     17  C   UNL     1      61.039  35.425  58.698  1.00  0.00    -0.003 C 
ATOM     18  C   UNL     1      59.998  34.478  58.100  1.00  0.00     0.004 C 
ENDBRANCH  16  17
ENDBRANCH  15  16
ENDBRANCH  14  15
ENDBRANCH  13  14
ENDBRANCH  12  13
ENDBRANCH  11  12
ENDBRANCH   1  11
TORSDOF 14
ENDMDL
MODEL 2
REMARK VINA RESULT:    -3.274      2.968      6.006
REMARK INTER + INTRA:          -8.125
REMARK INTER:                  -6.023
REMARK INTRA:                  -2.102
REMARK UNBOUND:                -2.172
REMARK SMILES CCCCCCCCCCCCCCCC(=O)[O-]
REMARK SMILES IDX 9 1 10 2 11 3 12 4 13 5 14 6 15 7 16 8 17 9 18 10 8 11 7 12
REMARK SMILES IDX 6 13 5 14 4 15 3 16 2 17 1 18
REMARK H PARENT
REMARK Flexibility Score: inf
ROOT
ATOM      1  C   UNL     1      61.173  32.484  59.148  1.00  0.00     0.000 C 
ENDROOT
BRANCH   1   2
ATOM      2  C   UNL     1      61.635  33.944  58.997  1.00  0.00     0.000 C 
BRANCH   2   3
ATOM      3  C   UNL     1      61.400  34.769  60.272  1.00  0.00     0.000 C 
BRANCH   3   4
ATOM      4  C   UNL     1      62.667  35.507  60.737  1.00  0.00     0.000 C 
BRANCH   4   5
ATOM      5  C   UNL     1      63.829  34.554  61.069  1.00  0.00     0.000 C 
BRANCH   5   6
ATOM      6  C   UNL     1      65.233  35.145  60.846  1.00  0.00     0.006 C 
BRANCH   6   7
ATOM      7  C   UNL     1      65.219  36.408  59.976  1.00  0.00     0.053 C 
BRANCH   7   8
ATOM      8  C   UNL     1      65.628  36.083  58.574  1.00  0.00     0.041 C 
ATOM      9  O   UNL     1      66.847  36.071  58.256  1.00  0.00    -0.550 OA
ATOM     10  O   UNL     1      64.667  35.743  57.630  1.00  0.00    -0.550 OA
ENDBRANCH   7   8
ENDBRANCH   6   7
ENDBRANCH   5   6
ENDBRANCH   4   5
ENDBRANCH   3   4
ENDBRANCH   2   3
ENDBRANCH   1   2
BRANCH   1  11
ATOM     11  C   UNL     1      61.171  32.007  60.611  1.00  0.00     0.000 C 
BRANCH  11  12
ATOM     12  C   UNL     1      60.861  30.509  60.804  1.00  0.00    -0.000 C 
BRANCH  12  13
ATOM     13  C   UNL     1      61.922  29.719  61.595  1.00  0.00    -0.000 C 
BRANCH  13  14
ATOM     14  C   UNL     1      62.880  28.870  60.736  1.00  0.00    -0.000 C 
BRANCH  14  15
ATOM     15  C   UNL     1      64.362  29.285  60.806  1.00  0.00    -0.000 C 
BRANCH  15  16
ATOM     16  C   UNL     1      64.596  30.737  60.357  1.00  0.00    -0.000 C 
BRANCH  16  17
ATOM     17  C   UNL     1      64.781  30.859  58.835  1.00  0.00    -0.003 C 
ATOM     18  C   UNL     1      64.949  32.306  58.371  1.00  0.00     0.004 C 
ENDBRANCH  16  17
ENDBRANCH  15  16
ENDBRANCH  14  15
ENDBRANCH  13  14
ENDBRANCH  12  13
ENDBRANCH  11  12
ENDBRANCH   1  11
TORSDOF 14
ENDMDL
MODEL 3
REMARK VINA RESULT:    -3.224     10.318     12.102
REMARK INTER + INTRA:          -8.035
REMARK INTER:                  -5.824
REMARK INTRA:                  -2.211
REMARK UNBOUND:                -2.172
REMARK SMILES CCCCCCCCCCCCCCCC(=O)[O-]
REMARK SMILES IDX 9 1 10 2 11 3 12 4 13 5 14 6 15 7 16 8 17 9 18 10 8 11 7 12
REMARK SMILES IDX 6 13 5 14 4 15 3 16 2 17 1 18
REMARK H PARENT
REMARK Flexibility Score: inf
ROOT
ATOM      1  C   UNL     1      57.986  27.760  52.543  1.00  0.00     0.000 C 
ENDROOT
BRANCH   1   2
ATOM      2  C   UNL     1      58.426  29.219  52.755  1.00  0.00     0.000 C 
BRANCH   2   3
ATOM      3  C   UNL     1      59.050  29.833  51.493  1.00  0.00     0.000 C 
BRANCH   3   4
ATOM      4  C   UNL     1      58.430  29.278  50.199  1.00  0.00     0.000 C 
BRANCH   4   5
ATOM      5  C   UNL     1      59.420  29.258  49.020  1.00  0.00     0.000 C 
BRANCH   5   6
ATOM      6  C   UNL     1      60.345  28.028  48.975  1.00  0.00     0.006 C 
BRANCH   6   7
ATOM      7  C   UNL     1      59.612  26.715  49.277  1.00  0.00     0.053 C 
BRANCH   7   8
ATOM      8  C   UNL     1      60.543  25.729  49.908  1.00  0.00     0.041 C 
ATOM      9  O   UNL     1      61.788  25.857  49.772  1.00  0.00    -0.550 OA
ATOM     10  O   UNL     1      60.038  24.696  50.687  1.00  0.00    -0.550 OA
ENDBRANCH   7   8
ENDBRANCH   6   7
ENDBRANCH   5   6
ENDBRANCH   4   5
ENDBRANCH   3   4
ENDBRANCH   2   3
ENDBRANCH   1   2
BRANCH   1  11
ATOM     11  C   UNL     1      56.643  27.437  53.223  1.00  0.00     0.000 C 
BRANCH  11  12
ATOM     12  C   UNL     1      55.834  28.669  53.675  1.00  0.00    -0.000 C 
BRANCH  12  13
ATOM     13  C   UNL     1      54.645  29.038  52.765  1.00  0.00    -0.000 C 
BRANCH  13  14
ATOM     14  C   UNL     1      54.986  29.988  51.599  1.00  0.00    -0.000 C 
BRANCH  14  15
ATOM     15  C   UNL     1      54.689  29.431  50.195  1.00  0.00    -0.000 C 
BRANCH  15  16
ATOM     16  C   UNL     1      54.272  27.950  50.216  1.00  0.00    -0.000 C 
BRANCH  16  17
ATOM     17  C   UNL     1      55.416  27.011  49.802  1.00  0.00    -0.003 C 
ATOM     18  C   UNL     1      54.922  25.743  49.106  1.00  0.00     0.004 C 
ENDBRANCH  16  17
ENDBRANCH  15  16
ENDBRANCH  14  15
ENDBRANCH  13  14
ENDBRANCH  12  13
ENDBRANCH  11  12
ENDBRANCH   1  11
TORSDOF 14
ENDMDL
MODEL 4
REMARK VINA RESULT:    -3.147      3.399      6.814
REMARK INTER + INTRA:          -7.895
REMARK INTER:                  -5.753
REMARK INTRA:                  -2.141
REMARK UNBOUND:                -2.172
REMARK SMILES CCCCCCCCCCCCCCCC(=O)[O-]
REMARK SMILES IDX 9 1 10 2 11 3 12 4 13 5 14 6 15 7 16 8 17 9 18 10 8 11 7 12
REMARK SMILES IDX 6 13 5 14 4 15 3 16 2 17 1 18
REMARK H PARENT
REMARK Flexibility Score: inf
ROOT
ATOM      1  C   UNL     1      63.264  33.216  59.013  1.00  0.00     0.000 C 
ENDROOT
BRANCH   1   2
ATOM      2  C   UNL     1      64.166  33.034  60.246  1.00  0.00     0.000 C 
BRANCH   2   3
ATOM      3  C   UNL     1      64.269  34.310  61.093  1.00  0.00     0.000 C 
BRANCH   3   4
ATOM      4  C   UNL     1      64.130  35.590  60.250  1.00  0.00     0.000 C 
BRANCH   4   5
ATOM      5  C   UNL     1      63.015  36.523  60.755  1.00  0.00     0.000 C 
BRANCH   5   6
ATOM      6  C   UNL     1      61.603  35.910  60.737  1.00  0.00     0.006 C 
BRANCH   6   7
ATOM      7  C   UNL     1      60.613  36.715  59.886  1.00  0.00     0.053 C 
BRANCH   7   8
ATOM      8  C   UNL     1      60.327  36.003  58.603  1.00  0.00     0.041 C 
ATOM      9  O   UNL     1      61.248  35.815  57.764  1.00  0.00    -0.550 OA
ATOM     10  O   UNL     1      59.056  35.502  58.352  1.00  0.00    -0.550 OA
ENDBRANCH   7   8
ENDBRANCH   6   7
ENDBRANCH   5   6
ENDBRANCH   4   5
ENDBRANCH   3   4
ENDBRANCH   2   3
ENDBRANCH   1   2
BRANCH   1  11
ATOM     11  C   UNL     1      61.873  32.582  59.193  1.00  0.00     0.000 C 
BRANCH  11  12
ATOM     12  C   UNL     1      61.523  32.188  60.642  1.00  0.00    -0.000 C 
BRANCH  12  13
ATOM     13  C   UNL     1      60.769  30.851  60.791  1.00  0.00    -0.000 C 
BRANCH  13  14
ATOM     14  C   UNL     1      61.599  29.694  61.381  1.00  0.00    -0.000 C 
BRANCH  14  15
ATOM     15  C   UNL     1      63.124  29.911  61.367  1.00  0.00    -0.000 C 
BRANCH  15  16
ATOM     16  C   UNL     1      63.878  28.797  60.619  1.00  0.00    -0.000 C 
BRANCH  16  17
ATOM     17  C   UNL     1      64.591  29.314  59.359  1.00  0.00    -0.003 C 
ATOM     18  C   UNL     1      63.637  29.540  58.187  1.00  0.00     0.004 C 
ENDBRANCH  16  17
ENDBRANCH  15  16
ENDBRANCH  14  15
ENDBRANCH  13  14
ENDBRANCH  12  13
ENDBRANCH  11  12
ENDBRANCH   1  11
TORSDOF 14
ENDMDL
MODEL 5
REMARK VINA RESULT:    -3.144     10.365     12.208
REMARK INTER + INTRA:          -7.888
REMARK INTER:                  -5.507
REMARK INTRA:                  -2.381
REMARK UNBOUND:                -2.172
REMARK SMILES CCCCCCCCCCCCCCCC(=O)[O-]
REMARK SMILES IDX 9 1 10 2 11 3 12 4 13 5 14 6 15 7 16 8 17 9 18 10 8 11 7 12
REMARK SMILES IDX 6 13 5 14 4 15 3 16 2 17 1 18
REMARK H PARENT
REMARK Flexibility Score: inf
ROOT
ATOM      1  C   UNL     1      57.292  27.265  53.178  1.00  0.00     0.000 C 
ENDROOT
BRANCH   1   2
ATOM      2  C   UNL     1      57.558  28.644  52.550  1.00  0.00     0.000 C 
BRANCH   2   3
ATOM      3  C   UNL     1      59.055  28.976  52.473  1.00  0.00     0.000 C 
BRANCH   3   4
ATOM      4  C   UNL     1      59.405  29.840  51.248  1.00  0.00     0.000 C 
BRANCH   4   5
ATOM      5  C   UNL     1      58.745  29.337  49.952  1.00  0.00     0.000 C 
BRANCH   5   6
ATOM      6  C   UNL     1      59.709  28.679  48.949  1.00  0.00     0.006 C 
BRANCH   6   7
ATOM      7  C   UNL     1      60.056  27.230  49.315  1.00  0.00     0.053 C 
BRANCH   7   8
ATOM      8  C   UNL     1      61.527  27.085  49.539  1.00  0.00     0.041 C 
ATOM      9  O   UNL     1      61.984  26.057  50.105  1.00  0.00    -0.550 OA
ATOM     10  O   UNL     1      62.401  28.062  49.078  1.00  0.00    -0.550 OA
ENDBRANCH   7   8
ENDBRANCH   6   7
ENDBRANCH   5   6
ENDBRANCH   4   5
ENDBRANCH   3   4
ENDBRANCH   2   3
ENDBRANCH   1   2
BRANCH   1  11
ATOM     11  C   UNL     1      56.390  26.375  52.304  1.00  0.00     0.000 C 
BRANCH  11  12
ATOM     12  C   UNL     1      56.983  26.003  50.930  1.00  0.00    -0.000 C 
BRANCH  12  13
ATOM     13  C   UNL     1      56.188  26.522  49.715  1.00  0.00    -0.000 C 
BRANCH  13  14
ATOM     14  C   UNL     1      54.660  26.583  49.912  1.00  0.00    -0.000 C 
BRANCH  14  15
ATOM     15  C   UNL     1      54.031  27.975  49.716  1.00  0.00    -0.000 C 
BRANCH  15  16
ATOM     16  C   UNL     1      54.965  29.118  50.151  1.00  0.00    -0.000 C 
BRANCH  16  17
ATOM     17  C   UNL     1      54.319  30.037  51.200  1.00  0.00    -0.003 C 
ATOM     18  C   UNL     1      53.878  29.287  52.457  1.00  0.00     0.004 C 
ENDBRANCH  16  17
ENDBRANCH  15  16
ENDBRANCH  14  15
ENDBRANCH  13  14
ENDBRANCH  12  13
ENDBRANCH  11  12
ENDBRANCH   1  11
TORSDOF 14
ENDMDL
MODEL 6
REMARK VINA RESULT:    -3.140      3.143      4.155
REMARK INTER + INTRA:          -7.882
REMARK INTER:                  -6.846
REMARK INTRA:                  -1.036
REMARK UNBOUND:                -2.172
REMARK SMILES CCCCCCCCCCCCCCCC(=O)[O-]
REMARK SMILES IDX 9 1 10 2 11 3 12 4 13 5 14 6 15 7 16 8 17 9 18 10 8 11 7 12
REMARK SMILES IDX 6 13 5 14 4 15 3 16 2 17 1 18
REMARK H PARENT
REMARK Flexibility Score: inf
ROOT
ATOM      1  C   UNL     1      61.059  31.682  60.601  1.00  0.00     0.000 C 
ENDROOT
BRANCH   1   2
ATOM      2  C   UNL     1      61.107  30.516  61.603  1.00  0.00     0.000 C 
BRANCH   2   3
ATOM      3  C   UNL     1      62.316  29.596  61.377  1.00  0.00     0.000 C 
BRANCH   3   4
ATOM      4  C   UNL     1      61.978  28.387  60.487  1.00  0.00     0.000 C 
BRANCH   4   5
ATOM      5  C   UNL     1      62.898  27.180  60.740  1.00  0.00     0.000 C 
BRANCH   5   6
ATOM      6  C   UNL     1      62.165  25.852  61.001  1.00  0.00     0.006 C 
BRANCH   6   7
ATOM      7  C   UNL     1      61.839  25.630  62.483  1.00  0.00     0.053 C 
BRANCH   7   8
ATOM      8  C   UNL     1      60.415  25.206  62.648  1.00  0.00     0.041 C 
ATOM      9  O   UNL     1      59.548  25.554  61.803  1.00  0.00    -0.550 OA
ATOM     10  O   UNL     1      60.051  24.384  63.707  1.00  0.00    -0.550 OA
ENDBRANCH   7   8
ENDBRANCH   6   7
ENDBRANCH   5   6
ENDBRANCH   4   5
ENDBRANCH   3   4
ENDBRANCH   2   3
ENDBRANCH   1   2
BRANCH   1  11
ATOM     11  C   UNL     1      62.422  32.375  60.424  1.00  0.00     0.000 C 
BRANCH  11  12
ATOM     12  C   UNL     1      62.359  33.773  59.776  1.00  0.00    -0.000 C 
BRANCH  12  13
ATOM     13  C   UNL     1      61.164  34.642  60.216  1.00  0.00    -0.000 C 
BRANCH  13  14
ATOM     14  C   UNL     1      61.523  36.082  60.636  1.00  0.00    -0.000 C 
BRANCH  14  15
ATOM     15  C   UNL     1      62.923  36.557  60.208  1.00  0.00    -0.000 C 
BRANCH  15  16
ATOM     16  C   UNL     1      63.830  36.895  61.404  1.00  0.00    -0.000 C 
BRANCH  16  17
ATOM     17  C   UNL     1      64.892  35.814  61.660  1.00  0.00    -0.003 C 
ATOM     18  C   UNL     1      65.632  35.395  60.390  1.00  0.00     0.004 C 
ENDBRANCH  16  17
ENDBRANCH  15  16
ENDBRANCH  14  15
ENDBRANCH  13  14
ENDBRANCH  12  13
ENDBRANCH  11  12
ENDBRANCH   1  11
TORSDOF 14
ENDMDL
MODEL 7
REMARK VINA RESULT:    -3.137      2.793      5.754
REMARK INTER + INTRA:          -7.875
REMARK INTER:                  -5.737
REMARK INTRA:                  -2.138
REMARK UNBOUND:                -2.172
REMARK SMILES CCCCCCCCCCCCCCCC(=O)[O-]
REMARK SMILES IDX 9 1 10 2 11 3 12 4 13 5 14 6 15 7 16 8 17 9 18 10 8 11 7 12
REMARK SMILES IDX 6 13 5 14 4 15 3 16 2 17 1 18
REMARK H PARENT
REMARK Flexibility Score: inf
ROOT
ATOM      1  C   UNL     1      60.899  30.966  61.121  1.00  0.00     0.000 C 
ENDROOT
BRANCH   1   2
ATOM      2  C   UNL     1      61.654  32.204  60.608  1.00  0.00     0.000 C 
BRANCH   2   3
ATOM      3  C   UNL     1      61.185  32.643  59.213  1.00  0.00     0.000 C 
BRANCH   3   4
ATOM      4  C   UNL     1      61.475  34.128  58.934  1.00  0.00     0.000 C 
BRANCH   4   5
ATOM      5  C   UNL     1      60.890  35.065  60.007  1.00  0.00     0.000 C 
BRANCH   5   6
ATOM      6  C   UNL     1      61.922  35.965  60.711  1.00  0.00     0.006 C 
BRANCH   6   7
ATOM      7  C   UNL     1      63.325  35.856  60.101  1.00  0.00     0.053 C 
BRANCH   7   8
ATOM      8  C   UNL     1      64.313  35.421  61.136  1.00  0.00     0.041 C 
ATOM      9  O   UNL     1      64.937  36.277  61.816  1.00  0.00    -0.550 OA
ATOM     10  O   UNL     1      64.509  34.068  61.385  1.00  0.00    -0.550 OA
ENDBRANCH   7   8
ENDBRANCH   6   7
ENDBRANCH   5   6
ENDBRANCH   4   5
ENDBRANCH   3   4
ENDBRANCH   2   3
ENDBRANCH   1   2
BRANCH   1  11
ATOM     11  C   UNL     1      61.835  29.791  61.454  1.00  0.00     0.000 C 
BRANCH  11  12
ATOM     12  C   UNL     1      63.338  30.095  61.292  1.00  0.00    -0.000 C 
BRANCH  12  13
ATOM     13  C   UNL     1      64.163  28.970  60.634  1.00  0.00    -0.000 C 
BRANCH  13  14
ATOM     14  C   UNL     1      63.809  28.674  59.163  1.00  0.00    -0.000 C 
BRANCH  14  15
ATOM     15  C   UNL     1      63.484  29.913  58.308  1.00  0.00    -0.000 C 
BRANCH  15  16
ATOM     16  C   UNL     1      64.742  30.692  57.884  1.00  0.00    -0.000 C 
BRANCH  16  17
ATOM     17  C   UNL     1      64.881  32.030  58.628  1.00  0.00    -0.003 C 
ATOM     18  C   UNL     1      64.906  33.234  57.686  1.00  0.00     0.004 C 
ENDBRANCH  16  17
ENDBRANCH  15  16
ENDBRANCH  14  15
ENDBRANCH  13  14
ENDBRANCH  12  13
ENDBRANCH  11  12
ENDBRANCH   1  11
TORSDOF 14
ENDMDL
MODEL 8
REMARK VINA RESULT:    -3.122      3.872      5.580
REMARK INTER + INTRA:          -7.849
REMARK INTER:                  -5.929
REMARK INTRA:                  -1.920
REMARK UNBOUND:                -2.172
REMARK SMILES CCCCCCCCCCCCCCCC(=O)[O-]
REMARK SMILES IDX 9 1 10 2 11 3 12 4 13 5 14 6 15 7 16 8 17 9 18 10 8 11 7 12
REMARK SMILES IDX 6 13 5 14 4 15 3 16 2 17 1 18
REMARK H PARENT
REMARK Flexibility Score: inf
ROOT
ATOM      1  C   UNL     1      62.198  29.034  60.887  1.00  0.00     0.000 C 
ENDROOT
BRANCH   1   2
ATOM      2  C   UNL     1      61.642  30.180  61.748  1.00  0.00     0.000 C 
BRANCH   2   3
ATOM      3  C   UNL     1      60.734  31.128  60.950  1.00  0.00     0.000 C 
BRANCH   3   4
ATOM      4  C   UNL     1      60.729  30.809  59.445  1.00  0.00     0.000 C 
BRANCH   4   5
ATOM      5  C   UNL     1      60.896  32.062  58.566  1.00  0.00     0.000 C 
BRANCH   5   6
ATOM      6  C   UNL     1      59.629  32.488  57.802  1.00  0.00     0.006 C 
BRANCH   6   7
ATOM      7  C   UNL     1      58.497  31.457  57.897  1.00  0.00     0.053 C 
BRANCH   7   8
ATOM      8  C   UNL     1      57.236  32.010  57.313  1.00  0.00     0.041 C 
ATOM      9  O   UNL     1      56.764  33.097  57.738  1.00  0.00    -0.550 OA
ATOM     10  O   UNL     1      56.608  31.350  56.265  1.00  0.00    -0.550 OA
ENDBRANCH   7   8
ENDBRANCH   6   7
ENDBRANCH   5   6
ENDBRANCH   4   5
ENDBRANCH   3   4
ENDBRANCH   2   3
ENDBRANCH   1   2
BRANCH   1  11
ATOM     11  C   UNL     1      63.736  29.027  60.824  1.00  0.00     0.000 C 
BRANCH  11  12
ATOM     12  C   UNL     1      64.393  30.420  60.891  1.00  0.00    -0.000 C 
BRANCH  12  13
ATOM     13  C   UNL     1      64.777  31.027  59.526  1.00  0.00    -0.000 C 
BRANCH  13  14
ATOM     14  C   UNL     1      64.491  32.535  59.378  1.00  0.00    -0.000 C 
BRANCH  14  15
ATOM     15  C   UNL     1      63.791  33.188  60.583  1.00  0.00    -0.000 C 
BRANCH  15  16
ATOM     16  C   UNL     1      64.316  34.603  60.884  1.00  0.00    -0.000 C 
BRANCH  16  17
ATOM     17  C   UNL     1      63.193  35.652  60.917  1.00  0.00    -0.003 C 
ATOM     18  C   UNL     1      61.850  35.100  60.440  1.00  0.00     0.004 C 
ENDBRANCH  16  17
ENDBRANCH  15  16
ENDBRANCH  14  15
ENDBRANCH  13  14
ENDBRANCH  12  13
ENDBRANCH  11  12
ENDBRANCH   1  11
TORSDOF 14
ENDMDL
MODEL 9
REMARK VINA RESULT:    -3.093      3.092      4.619
REMARK INTER + INTRA:          -7.795
REMARK INTER:                  -6.007
REMARK INTRA:                  -1.788
REMARK UNBOUND:                -2.172
REMARK SMILES CCCCCCCCCCCCCCCC(=O)[O-]
REMARK SMILES IDX 9 1 10 2 11 3 12 4 13 5 14 6 15 7 16 8 17 9 18 10 8 11 7 12
REMARK SMILES IDX 6 13 5 14 4 15 3 16 2 17 1 18
REMARK H PARENT
REMARK Flexibility Score: inf
ROOT
ATOM      1  C   UNL     1      61.648  34.904  59.659  1.00  0.00     0.000 C 
ENDROOT
BRANCH   1   2
ATOM      2  C   UNL     1      61.905  33.502  60.240  1.00  0.00     0.000 C 
BRANCH   2   3
ATOM      3  C   UNL     1      63.035  32.761  59.509  1.00  0.00     0.000 C 
BRANCH   3   4
ATOM      4  C   UNL     1      64.112  32.233  60.472  1.00  0.00     0.000 C 
BRANCH   4   5
ATOM      5  C   UNL     1      64.212  30.697  60.476  1.00  0.00     0.000 C 
BRANCH   5   6
ATOM      6  C   UNL     1      63.175  29.985  61.364  1.00  0.00     0.006 C 
BRANCH   6   7
ATOM      7  C   UNL     1      62.100  29.249  60.554  1.00  0.00     0.053 C 
BRANCH   7   8
ATOM      8  C   UNL     1      60.800  29.983  60.623  1.00  0.00     0.041 C 
ATOM      9  O   UNL     1      59.971  29.895  59.679  1.00  0.00    -0.550 OA
ATOM     10  O   UNL     1      60.479  30.727  61.752  1.00  0.00    -0.550 OA
ENDBRANCH   7   8
ENDBRANCH   6   7
ENDBRANCH   5   6
ENDBRANCH   4   5
ENDBRANCH   3   4
ENDBRANCH   2   3
ENDBRANCH   1   2
BRANCH   1  11
ATOM     11  C   UNL     1      61.764  36.018  60.715  1.00  0.00     0.000 C 
BRANCH  11  12
ATOM     12  C   UNL     1      63.088  36.807  60.681  1.00  0.00    -0.000 C 
BRANCH  12  13
ATOM     13  C   UNL     1      64.274  36.120  61.387  1.00  0.00    -0.000 C 
BRANCH  13  14
ATOM     14  C   UNL     1      65.398  35.631  60.451  1.00  0.00    -0.000 C 
BRANCH  14  15
ATOM     15  C   UNL     1      65.132  35.839  58.948  1.00  0.00    -0.000 C 
BRANCH  15  16
ATOM     16  C   UNL     1      66.139  35.092  58.056  1.00  0.00    -0.000 C 
BRANCH  16  17
ATOM     17  C   UNL     1      67.288  35.996  57.582  1.00  0.00    -0.003 C 
ATOM     18  C   UNL     1      68.658  35.514  58.058  1.00  0.00     0.004 C 
ENDBRANCH  16  17
ENDBRANCH  15  16
ENDBRANCH  14  15
ENDBRANCH  13  14
ENDBRANCH  12  13
ENDBRANCH  11  12
ENDBRANCH   1  11
TORSDOF 14
ENDMDL
