MODEL 1
REMARK VINA RESULT:    -3.759      0.000      0.000
REMARK INTER + INTRA:          -5.228
REMARK INTER:                  -4.857
REMARK INTRA:                  -0.370
REMARK UNBOUND:                -0.370
REMARK SMILES CCCCCCC(=O)[O-]
REMARK SMILES IDX 5 1 6 2 7 3 8 4 9 5 4 6 3 7 2 8 1 9
REMARK H PARENT
REMARK Flexibility Score: inf
ROOT
ATOM      1  C   UNL     1      41.224  -9.462 -43.194  1.00  0.00     0.006 C 
ENDROOT
BRANCH   1   2
ATOM      2  C   UNL     1      40.944 -10.170 -41.865  1.00  0.00     0.053 C 
BRANCH   2   3
ATOM      3  C   UNL     1      42.213 -10.364 -41.097  1.00  0.00     0.041 C 
ATOM      4  O   UNL     1      42.197 -10.961 -39.988  1.00  0.00    -0.550 OA
ATOM      5  O   UNL     1      43.421  -9.930 -41.627  1.00  0.00    -0.550 OA
ENDBRANCH   2   3
ENDBRANCH   1   2
BRANCH   1   6
ATOM      6  C   UNL     1      40.600 -10.231 -44.368  1.00  0.00     0.000 C 
BRANCH   6   7
ATOM      7  C   UNL     1      41.097 -11.684 -44.456  1.00  0.00    -0.000 C 
BRANCH   7   8
ATOM      8  C   UNL     1      42.451 -11.803 -45.169  1.00  0.00    -0.003 C 
ATOM      9  C   UNL     1      43.539 -12.274 -44.207  1.00  0.00     0.004 C 
ENDBRANCH   7   8
ENDBRANCH   6   7
ENDBRANCH   1   6
TORSDOF 5
ENDMDL
MODEL 2
REMARK VINA RESULT:    -3.720      1.668      2.698
REMARK INTER + INTRA:          -5.177
REMARK INTER:                  -5.017
REMARK INTRA:                  -0.161
REMARK UNBOUND:                -0.370
REMARK SMILES CCCCCCC(=O)[O-]
REMARK SMILES IDX 5 1 6 2 7 3 8 4 9 5 4 6 3 7 2 8 1 9
REMARK H PARENT
REMARK Flexibility Score: inf
ROOT
ATOM      1  C   UNL     1      43.356 -11.376 -42.518  1.00  0.00     0.006 C 
ENDROOT
BRANCH   1   2
ATOM      2  C   UNL     1      43.995 -11.931 -41.241  1.00  0.00     0.053 C 
BRANCH   2   3
ATOM      3  C   UNL     1      43.940 -10.917 -40.143  1.00  0.00     0.041 C 
ATOM      4  O   UNL     1      42.882 -10.264 -39.937  1.00  0.00    -0.550 OA
ATOM      5  O   UNL     1      45.039 -10.726 -39.316  1.00  0.00    -0.550 OA
ENDBRANCH   2   3
ENDBRANCH   1   2
BRANCH   1   6
ATOM      6  C   UNL     1      43.541 -12.349 -43.691  1.00  0.00     0.000 C 
BRANCH   6   7
ATOM      7  C   UNL     1      42.658 -11.994 -44.899  1.00  0.00    -0.000 C 
BRANCH   7   8
ATOM      8  C   UNL     1      41.357 -11.287 -44.493  1.00  0.00    -0.003 C 
ATOM      9  C   UNL     1      40.136 -12.116 -44.882  1.00  0.00     0.004 C 
ENDBRANCH   7   8
ENDBRANCH   6   7
ENDBRANCH   1   6
TORSDOF 5
ENDMDL
MODEL 3
REMARK VINA RESULT:    -3.696      2.902      3.813
REMARK INTER + INTRA:          -5.147
REMARK INTER:                  -5.013
REMARK INTRA:                  -0.134
REMARK UNBOUND:                -0.370
REMARK SMILES CCCCCCC(=O)[O-]
REMARK SMILES IDX 5 1 6 2 7 3 8 4 9 5 4 6 3 7 2 8 1 9
REMARK H PARENT
REMARK Flexibility Score: inf
ROOT
ATOM      1  C   UNL     1      44.065 -12.412 -41.286  1.00  0.00     0.006 C 
ENDROOT
BRANCH   1   2
ATOM      2  C   UNL     1      44.587 -11.516 -40.158  1.00  0.00     0.053 C 
BRANCH   2   3
ATOM      3  C   UNL     1      45.654 -12.220 -39.382  1.00  0.00     0.041 C 
ATOM      4  O   UNL     1      46.797 -12.388 -39.886  1.00  0.00    -0.550 OA
ATOM      5  O   UNL     1      45.404 -12.648 -38.085  1.00  0.00    -0.550 OA
ENDBRANCH   2   3
ENDBRANCH   1   2
BRANCH   1   6
ATOM      6  C   UNL     1      43.473 -11.570 -42.426  1.00  0.00     0.000 C 
BRANCH   6   7
ATOM      7  C   UNL     1      43.482 -12.308 -43.775  1.00  0.00    -0.000 C 
BRANCH   7   8
ATOM      8  C   UNL     1      42.338 -11.865 -44.698  1.00  0.00    -0.003 C 
ATOM      9  C   UNL     1      41.316 -11.023 -43.940  1.00  0.00     0.004 C 
ENDBRANCH   7   8
ENDBRANCH   6   7
ENDBRANCH   1   6
TORSDOF 5
ENDMDL
MODEL 4
REMARK VINA RESULT:    -3.675      2.115      3.885
REMARK INTER + INTRA:          -5.120
REMARK INTER:                  -4.783
REMARK INTRA:                  -0.337
REMARK UNBOUND:                -0.370
REMARK SMILES CCCCCCC(=O)[O-]
REMARK SMILES IDX 5 1 6 2 7 3 8 4 9 5 4 6 3 7 2 8 1 9
REMARK H PARENT
REMARK Flexibility Score: inf
ROOT
ATOM      1  C   UNL     1      40.350 -10.785 -43.806  1.00  0.00     0.006 C 
ENDROOT
BRANCH   1   2
ATOM      2  C   UNL     1      40.789 -11.910 -44.749  1.00  0.00     0.053 C 
BRANCH   2   3
ATOM      3  C   UNL     1      42.280 -11.947 -44.861  1.00  0.00     0.041 C 
ATOM      4  O   UNL     1      42.833 -11.851 -45.989  1.00  0.00    -0.550 OA
ATOM      5  O   UNL     1      43.063 -12.039 -43.718  1.00  0.00    -0.550 OA
ENDBRANCH   2   3
ENDBRANCH   1   2
BRANCH   1   6
ATOM      6  C   UNL     1      40.677  -9.409 -44.403  1.00  0.00     0.000 C 
BRANCH   6   7
ATOM      7  C   UNL     1      41.069  -8.377 -43.333  1.00  0.00    -0.000 C 
BRANCH   7   8
ATOM      8  C   UNL     1      41.956  -8.975 -42.232  1.00  0.00    -0.003 C 
ATOM      9  C   UNL     1      41.407  -8.645 -40.846  1.00  0.00     0.004 C 
ENDBRANCH   7   8
ENDBRANCH   6   7
ENDBRANCH   1   6
TORSDOF 5
ENDMDL
MODEL 5
REMARK VINA RESULT:    -3.660      1.744      2.679
REMARK INTER + INTRA:          -5.100
REMARK INTER:                  -4.688
REMARK INTRA:                  -0.412
REMARK UNBOUND:                -0.370
REMARK SMILES CCCCCCC(=O)[O-]
REMARK SMILES IDX 5 1 6 2 7 3 8 4 9 5 4 6 3 7 2 8 1 9
REMARK H PARENT
REMARK Flexibility Score: inf
ROOT
ATOM      1  C   UNL     1      41.712 -10.354 -40.942  1.00  0.00     0.006 C 
ENDROOT
BRANCH   1   2
ATOM      2  C   UNL     1      43.031 -10.148 -41.694  1.00  0.00     0.053 C 
BRANCH   2   3
ATOM      3  C   UNL     1      43.629 -11.465 -42.073  1.00  0.00     0.041 C 
ATOM      4  O   UNL     1      44.267 -12.139 -41.221  1.00  0.00    -0.550 OA
ATOM      5  O   UNL     1      43.444 -11.972 -43.353  1.00  0.00    -0.550 OA
ENDBRANCH   2   3
ENDBRANCH   1   2
BRANCH   1   6
ATOM      6  C   UNL     1      40.510 -10.143 -41.874  1.00  0.00     0.000 C 
BRANCH   6   7
ATOM      7  C   UNL     1      40.842  -9.240 -43.074  1.00  0.00    -0.000 C 
BRANCH   7   8
ATOM      8  C   UNL     1      40.479  -9.887 -44.418  1.00  0.00    -0.003 C 
ATOM      9  C   UNL     1      40.017 -11.329 -44.227  1.00  0.00     0.004 C 
ENDBRANCH   7   8
ENDBRANCH   6   7
ENDBRANCH   1   6
TORSDOF 5
ENDMDL
MODEL 6
REMARK VINA RESULT:    -3.636     10.804     11.808
REMARK INTER + INTRA:          -5.070
REMARK INTER:                  -4.686
REMARK INTRA:                  -0.383
REMARK UNBOUND:                -0.370
REMARK SMILES CCCCCCC(=O)[O-]
REMARK SMILES IDX 5 1 6 2 7 3 8 4 9 5 4 6 3 7 2 8 1 9
REMARK H PARENT
REMARK Flexibility Score: inf
ROOT
ATOM      1  C   UNL     1      46.815 -14.421 -34.046  1.00  0.00     0.006 C 
ENDROOT
BRANCH   1   2
ATOM      2  C   UNL     1      47.521 -13.116 -33.666  1.00  0.00     0.053 C 
BRANCH   2   3
ATOM      3  C   UNL     1      48.177 -13.246 -32.328  1.00  0.00     0.041 C 
ATOM      4  O   UNL     1      47.990 -12.368 -31.444  1.00  0.00    -0.550 OA
ATOM      5  O   UNL     1      48.955 -14.359 -32.039  1.00  0.00    -0.550 OA
ENDBRANCH   2   3
ENDBRANCH   1   2
BRANCH   1   6
ATOM      6  C   UNL     1      45.583 -14.657 -33.160  1.00  0.00     0.000 C 
BRANCH   6   7
ATOM      7  C   UNL     1      44.326 -13.949 -33.693  1.00  0.00    -0.000 C 
BRANCH   7   8
ATOM      8  C   UNL     1      43.863 -12.802 -32.784  1.00  0.00    -0.003 C 
ATOM      9  C   UNL     1      44.263 -13.056 -31.333  1.00  0.00     0.004 C 
ENDBRANCH   7   8
ENDBRANCH   6   7
ENDBRANCH   1   6
TORSDOF 5
ENDMDL
MODEL 7
REMARK VINA RESULT:    -3.630      2.897      4.564
REMARK INTER + INTRA:          -5.061
REMARK INTER:                  -4.713
REMARK INTRA:                  -0.348
REMARK UNBOUND:                -0.370
REMARK SMILES CCCCCCC(=O)[O-]
REMARK SMILES IDX 5 1 6 2 7 3 8 4 9 5 4 6 3 7 2 8 1 9
REMARK H PARENT
REMARK Flexibility Score: inf
ROOT
ATOM      1  C   UNL     1      44.271 -11.809 -38.285  1.00  0.00     0.006 C 
ENDROOT
BRANCH   1   2
ATOM      2  C   UNL     1      43.736 -10.804 -37.260  1.00  0.00     0.053 C 
BRANCH   2   3
ATOM      3  C   UNL     1      42.429 -10.238 -37.714  1.00  0.00     0.041 C 
ATOM      4  O   UNL     1      41.428 -10.990 -37.855  1.00  0.00    -0.550 OA
ATOM      5  O   UNL     1      42.301  -8.873 -37.936  1.00  0.00    -0.550 OA
ENDBRANCH   2   3
ENDBRANCH   1   2
BRANCH   1   6
ATOM      6  C   UNL     1      44.546 -11.125 -39.632  1.00  0.00     0.000 C 
BRANCH   6   7
ATOM      7  C   UNL     1      44.178 -12.012 -40.833  1.00  0.00    -0.000 C 
BRANCH   7   8
ATOM      8  C   UNL     1      43.551 -11.214 -41.985  1.00  0.00    -0.003 C 
ATOM      9  C   UNL     1      42.857  -9.957 -41.469  1.00  0.00     0.004 C 
ENDBRANCH   7   8
ENDBRANCH   6   7
ENDBRANCH   1   6
TORSDOF 5
ENDMDL
MODEL 8
REMARK VINA RESULT:    -3.625      3.637      4.610
REMARK INTER + INTRA:          -5.054
REMARK INTER:                  -4.656
REMARK INTRA:                  -0.399
REMARK UNBOUND:                -0.370
REMARK SMILES CCCCCCC(=O)[O-]
REMARK SMILES IDX 5 1 6 2 7 3 8 4 9 5 4 6 3 7 2 8 1 9
REMARK H PARENT
REMARK Flexibility Score: inf
ROOT
ATOM      1  C   UNL     1      42.431 -10.730 -40.277  1.00  0.00     0.006 C 
ENDROOT
BRANCH   1   2
ATOM      2  C   UNL     1      42.324 -11.233 -38.834  1.00  0.00     0.053 C 
BRANCH   2   3
ATOM      3  C   UNL     1      42.899 -10.229 -37.886  1.00  0.00     0.041 C 
ATOM      4  O   UNL     1      43.874 -10.538 -37.151  1.00  0.00    -0.550 OA
ATOM      5  O   UNL     1      42.390  -8.937 -37.847  1.00  0.00    -0.550 OA
ENDBRANCH   2   3
ENDBRANCH   1   2
BRANCH   1   6
ATOM      6  C   UNL     1      43.876 -10.829 -40.788  1.00  0.00     0.000 C 
BRANCH   6   7
ATOM      7  C   UNL     1      44.508 -12.204 -40.516  1.00  0.00    -0.000 C 
BRANCH   7   8
ATOM      8  C   UNL     1      45.840 -12.103 -39.760  1.00  0.00    -0.003 C 
ATOM      9  C   UNL     1      45.944 -13.180 -38.684  1.00  0.00     0.004 C 
ENDBRANCH   7   8
ENDBRANCH   6   7
ENDBRANCH   1   6
TORSDOF 5
ENDMDL
MODEL 9
REMARK VINA RESULT:    -3.617      2.472      3.546
REMARK INTER + INTRA:          -5.045
REMARK INTER:                  -4.684
REMARK INTRA:                  -0.361
REMARK UNBOUND:                -0.370
REMARK SMILES CCCCCCC(=O)[O-]
REMARK SMILES IDX 5 1 6 2 7 3 8 4 9 5 4 6 3 7 2 8 1 9
REMARK H PARENT
REMARK Flexibility Score: inf
ROOT
ATOM      1  C   UNL     1      40.567 -10.053 -41.829  1.00  0.00     0.006 C 
ENDROOT
BRANCH   1   2
ATOM      2  C   UNL     1      41.010  -9.359 -43.121  1.00  0.00     0.053 C 
BRANCH   2   3
ATOM      3  C   UNL     1      40.273  -9.918 -44.295  1.00  0.00     0.041 C 
ATOM      4  O   UNL     1      40.389 -11.136 -44.595  1.00  0.00    -0.550 OA
ATOM      5  O   UNL     1      39.419  -9.107 -45.032  1.00  0.00    -0.550 OA
ENDBRANCH   2   3
ENDBRANCH   1   2
BRANCH   1   6
ATOM      6  C   UNL     1      41.765 -10.304 -40.901  1.00  0.00     0.000 C 
BRANCH   6   7
ATOM      7  C   UNL     1      43.110 -10.247 -41.643  1.00  0.00    -0.000 C 
BRANCH   7   8
ATOM      8  C   UNL     1      43.745 -11.633 -41.822  1.00  0.00    -0.003 C 
ATOM      9  C   UNL     1      43.513 -12.165 -43.233  1.00  0.00     0.004 C 
ENDBRANCH   7   8
ENDBRANCH   6   7
ENDBRANCH   1   6
TORSDOF 5
ENDMDL
