MODEL 1
REMARK VINA RESULT:    -5.010      0.000      0.000
REMARK INTER + INTRA:         -15.261
REMARK INTER:                 -12.625
REMARK INTRA:                  -2.635
REMARK UNBOUND:                -2.635
REMARK SMILES CCCCCCCCCCCCCCCCCCCCCCCCCCCC(=O)[O-]
REMARK SMILES IDX 15 1 16 2 17 3 18 4 19 5 20 6 21 7 22 8 23 9 24 10 25 11
REMARK SMILES IDX 26 12 27 13 28 14 29 15 30 16 14 17 13 18 12 19 11 20 10 21
REMARK SMILES IDX 9 22 8 23 7 24 6 25 5 26 4 27 3 28 2 29 1 30
REMARK H PARENT
REMARK Flexibility Score: inf
ROOT
ATOM      1  C   UNL     1     -23.864  -7.752  14.641  1.00  0.00     0.000 C 
ENDROOT
BRANCH   1   2
ATOM      2  C   UNL     1     -22.867  -8.673  15.368  1.00  0.00     0.000 C 
BRANCH   2   3
ATOM      3  C   UNL     1     -23.318  -9.047  16.794  1.00  0.00     0.000 C 
BRANCH   3   4
ATOM      4  C   UNL     1     -22.968  -7.959  17.831  1.00  0.00     0.000 C 
BRANCH   4   5
ATOM      5  C   UNL     1     -21.712  -7.138  17.475  1.00  0.00     0.000 C 
BRANCH   5   6
ATOM      6  C   UNL     1     -21.887  -5.613  17.552  1.00  0.00     0.000 C 
BRANCH   6   7
ATOM      7  C   UNL     1     -21.207  -4.877  16.387  1.00  0.00     0.000 C 
BRANCH   7   8
ATOM      8  C   UNL     1     -20.782  -5.859  15.287  1.00  0.00     0.000 C 
BRANCH   8   9
ATOM      9  C   UNL     1     -19.334  -5.594  14.849  1.00  0.00     0.000 C 
BRANCH   9  10
ATOM     10  C   UNL     1     -18.556  -6.883  14.541  1.00  0.00     0.000 C 
BRANCH  10  11
ATOM     11  C   UNL     1     -19.025  -8.103  15.359  1.00  0.00     0.000 C 
BRANCH  11  12
ATOM     12  C   UNL     1     -18.131  -8.366  16.579  1.00  0.00     0.006 C 
BRANCH  12  13
ATOM     13  C   UNL     1     -18.878  -9.186  17.637  1.00  0.00     0.053 C 
BRANCH  13  14
ATOM     14  C   UNL     1     -17.950 -10.097  18.380  1.00  0.00     0.041 C 
ATOM     15  O   UNL     1     -16.965  -9.625  19.007  1.00  0.00    -0.550 OA
ATOM     16  O   UNL     1     -18.208 -11.464  18.430  1.00  0.00    -0.550 OA
ENDBRANCH  13  14
ENDBRANCH  12  13
ENDBRANCH  11  12
ENDBRANCH  10  11
ENDBRANCH   9  10
ENDBRANCH   8   9
ENDBRANCH   7   8
ENDBRANCH   6   7
ENDBRANCH   5   6
ENDBRANCH   4   5
ENDBRANCH   3   4
ENDBRANCH   2   3
ENDBRANCH   1   2
BRANCH   1  17
ATOM     17  C   UNL     1     -25.034  -7.249  15.506  1.00  0.00     0.000 C 
BRANCH  17  18
ATOM     18  C   UNL     1     -26.258  -6.825  14.674  1.00  0.00     0.000 C 
BRANCH  18  19
ATOM     19  C   UNL     1     -27.559  -6.860  15.490  1.00  0.00     0.000 C 
BRANCH  19  20
ATOM     20  C   UNL     1     -27.681  -5.660  16.447  1.00  0.00     0.000 C 
BRANCH  20  21
ATOM     21  C   UNL     1     -27.756  -6.077  17.927  1.00  0.00     0.000 C 
BRANCH  21  22
ATOM     22  C   UNL     1     -27.133  -5.074  18.917  1.00  0.00    -0.000 C 
BRANCH  22  23
ATOM     23  C   UNL     1     -25.863  -5.571  19.637  1.00  0.00    -0.000 C 
BRANCH  23  24
ATOM     24  C   UNL     1     -25.912  -5.488  21.176  1.00  0.00    -0.000 C 
BRANCH  24  25
ATOM     25  C   UNL     1     -27.325  -5.379  21.779  1.00  0.00    -0.000 C 
BRANCH  25  26
ATOM     26  C   UNL     1     -27.581  -4.025  22.461  1.00  0.00    -0.000 C 
BRANCH  26  27
ATOM     27  C   UNL     1     -26.369  -3.083  22.366  1.00  0.00    -0.000 C 
BRANCH  27  28
ATOM     28  C   UNL     1     -25.589  -2.992  23.687  1.00  0.00    -0.000 C 
BRANCH  28  29
ATOM     29  C   UNL     1     -26.450  -2.363  24.788  1.00  0.00    -0.003 C 
ATOM     30  C   UNL     1     -26.866  -3.403  25.824  1.00  0.00     0.004 C 
ENDBRANCH  28  29
ENDBRANCH  27  28
ENDBRANCH  26  27
ENDBRANCH  25  26
ENDBRANCH  24  25
ENDBRANCH  23  24
ENDBRANCH  22  23
ENDBRANCH  21  22
ENDBRANCH  20  21
ENDBRANCH  19  20
ENDBRANCH  18  19
ENDBRANCH  17  18
ENDBRANCH   1  17
TORSDOF 26
ENDMDL
MODEL 2
REMARK VINA RESULT:    -4.677      2.284      5.376
REMARK INTER + INTRA:         -14.420
REMARK INTER:                 -10.813
REMARK INTRA:                  -3.608
REMARK UNBOUND:                -2.635
REMARK SMILES CCCCCCCCCCCCCCCCCCCCCCCCCCCC(=O)[O-]
REMARK SMILES IDX 15 1 16 2 17 3 18 4 19 5 20 6 21 7 22 8 23 9 24 10 25 11
REMARK SMILES IDX 26 12 27 13 28 14 29 15 30 16 14 17 13 18 12 19 11 20 10 21
REMARK SMILES IDX 9 22 8 23 7 24 6 25 5 26 4 27 3 28 2 29 1 30
REMARK H PARENT
REMARK Flexibility Score: inf
ROOT
ATOM      1  C   UNL     1     -23.458  -7.233  18.716  1.00  0.00     0.000 C 
ENDROOT
BRANCH   1   2
ATOM      2  C   UNL     1     -22.141  -6.825  18.028  1.00  0.00     0.000 C 
BRANCH   2   3
ATOM      3  C   UNL     1     -22.160  -5.379  17.496  1.00  0.00     0.000 C 
BRANCH   3   4
ATOM      4  C   UNL     1     -20.913  -5.043  16.650  1.00  0.00     0.000 C 
BRANCH   4   5
ATOM      5  C   UNL     1     -21.216  -4.802  15.158  1.00  0.00     0.000 C 
BRANCH   5   6
ATOM      6  C   UNL     1     -19.983  -4.557  14.273  1.00  0.00     0.000 C 
BRANCH   6   7
ATOM      7  C   UNL     1     -18.677  -5.033  14.927  1.00  0.00     0.000 C 
BRANCH   7   8
ATOM      8  C   UNL     1     -17.769  -5.729  13.904  1.00  0.00     0.000 C 
BRANCH   8   9
ATOM      9  C   UNL     1     -17.783  -7.251  14.108  1.00  0.00     0.000 C 
BRANCH   9  10
ATOM     10  C   UNL     1     -19.204  -7.832  14.190  1.00  0.00     0.000 C 
BRANCH  10  11
ATOM     11  C   UNL     1     -19.621  -8.253  15.613  1.00  0.00     0.000 C 
BRANCH  11  12
ATOM     12  C   UNL     1     -18.413  -8.594  16.499  1.00  0.00     0.006 C 
BRANCH  12  13
ATOM     13  C   UNL     1     -18.866  -9.014  17.902  1.00  0.00     0.053 C 
BRANCH  13  14
ATOM     14  C   UNL     1     -17.865  -9.918  18.552  1.00  0.00     0.041 C 
ATOM     15  O   UNL     1     -16.766  -9.458  18.961  1.00  0.00    -0.550 OA
ATOM     16  O   UNL     1     -18.170 -11.260  18.763  1.00  0.00    -0.550 OA
ENDBRANCH  13  14
ENDBRANCH  12  13
ENDBRANCH  11  12
ENDBRANCH  10  11
ENDBRANCH   9  10
ENDBRANCH   8   9
ENDBRANCH   7   8
ENDBRANCH   6   7
ENDBRANCH   5   6
ENDBRANCH   4   5
ENDBRANCH   3   4
ENDBRANCH   2   3
ENDBRANCH   1   2
BRANCH   1  17
ATOM     17  C   UNL     1     -24.669  -6.347  18.376  1.00  0.00     0.000 C 
BRANCH  17  18
ATOM     18  C   UNL     1     -25.488  -5.945  19.617  1.00  0.00     0.000 C 
BRANCH  18  19
ATOM     19  C   UNL     1     -26.749  -5.148  19.252  1.00  0.00     0.000 C 
BRANCH  19  20
ATOM     20  C   UNL     1     -27.421  -5.671  17.969  1.00  0.00     0.000 C 
BRANCH  20  21
ATOM     21  C   UNL     1     -27.705  -4.560  16.943  1.00  0.00     0.000 C 
BRANCH  21  22
ATOM     22  C   UNL     1     -27.954  -5.053  15.504  1.00  0.00    -0.000 C 
BRANCH  22  23
ATOM     23  C   UNL     1     -27.542  -6.515  15.235  1.00  0.00    -0.000 C 
BRANCH  23  24
ATOM     24  C   UNL     1     -26.161  -6.692  14.572  1.00  0.00    -0.000 C 
BRANCH  24  25
ATOM     25  C   UNL     1     -25.136  -7.485  15.403  1.00  0.00    -0.000 C 
BRANCH  25  26
ATOM     26  C   UNL     1     -23.736  -7.504  14.765  1.00  0.00    -0.000 C 
BRANCH  26  27
ATOM     27  C   UNL     1     -23.119  -8.912  14.746  1.00  0.00    -0.000 C 
BRANCH  27  28
ATOM     28  C   UNL     1     -22.669  -9.376  16.140  1.00  0.00    -0.000 C 
BRANCH  28  29
ATOM     29  C   UNL     1     -23.412 -10.650  16.558  1.00  0.00    -0.003 C 
ATOM     30  C   UNL     1     -24.727 -10.317  17.256  1.00  0.00     0.004 C 
ENDBRANCH  28  29
ENDBRANCH  27  28
ENDBRANCH  26  27
ENDBRANCH  25  26
ENDBRANCH  24  25
ENDBRANCH  23  24
ENDBRANCH  22  23
ENDBRANCH  21  22
ENDBRANCH  20  21
ENDBRANCH  19  20
ENDBRANCH  18  19
ENDBRANCH  17  18
ENDBRANCH   1  17
TORSDOF 26
ENDMDL
MODEL 3
REMARK VINA RESULT:    -4.331      1.396      2.365
REMARK INTER + INTRA:         -13.550
REMARK INTER:                 -11.127
REMARK INTRA:                  -2.424
REMARK UNBOUND:                -2.635
REMARK SMILES CCCCCCCCCCCCCCCCCCCCCCCCCCCC(=O)[O-]
REMARK SMILES IDX 15 1 16 2 17 3 18 4 19 5 20 6 21 7 22 8 23 9 24 10 25 11
REMARK SMILES IDX 26 12 27 13 28 14 29 15 30 16 14 17 13 18 12 19 11 20 10 21
REMARK SMILES IDX 9 22 8 23 7 24 6 25 5 26 4 27 3 28 2 29 1 30
REMARK H PARENT
REMARK Flexibility Score: inf
ROOT
ATOM      1  C   UNL     1     -23.013  -9.408  16.287  1.00  0.00     0.000 C 
ENDROOT
BRANCH   1   2
ATOM      2  C   UNL     1     -23.267  -8.651  14.971  1.00  0.00     0.000 C 
BRANCH   2   3
ATOM      3  C   UNL     1     -22.125  -7.686  14.597  1.00  0.00     0.000 C 
BRANCH   3   4
ATOM      4  C   UNL     1     -22.288  -6.295  15.247  1.00  0.00     0.000 C 
BRANCH   4   5
ATOM      5  C   UNL     1     -21.346  -5.221  14.668  1.00  0.00     0.000 C 
BRANCH   5   6
ATOM      6  C   UNL     1     -19.971  -5.124  15.347  1.00  0.00     0.000 C 
BRANCH   6   7
ATOM      7  C   UNL     1     -18.836  -4.837  14.353  1.00  0.00     0.000 C 
BRANCH   7   8
ATOM      8  C   UNL     1     -17.634  -5.757  14.607  1.00  0.00     0.000 C 
BRANCH   8   9
ATOM      9  C   UNL     1     -17.825  -7.111  13.906  1.00  0.00     0.000 C 
BRANCH   9  10
ATOM     10  C   UNL     1     -18.818  -8.029  14.637  1.00  0.00     0.000 C 
BRANCH  10  11
ATOM     11  C   UNL     1     -18.406  -8.362  16.085  1.00  0.00     0.000 C 
BRANCH  11  12
ATOM     12  C   UNL     1     -19.584  -8.884  16.921  1.00  0.00     0.006 C 
BRANCH  12  13
ATOM     13  C   UNL     1     -19.167  -9.089  18.383  1.00  0.00     0.053 C 
BRANCH  13  14
ATOM     14  C   UNL     1     -18.108 -10.141  18.507  1.00  0.00     0.041 C 
ATOM     15  O   UNL     1     -16.989  -9.857  19.010  1.00  0.00    -0.550 OA
ATOM     16  O   UNL     1     -18.378 -11.451  18.122  1.00  0.00    -0.550 OA
ENDBRANCH  13  14
ENDBRANCH  12  13
ENDBRANCH  11  12
ENDBRANCH  10  11
ENDBRANCH   9  10
ENDBRANCH   8   9
ENDBRANCH   7   8
ENDBRANCH   6   7
ENDBRANCH   5   6
ENDBRANCH   4   5
ENDBRANCH   3   4
ENDBRANCH   2   3
ENDBRANCH   1   2
BRANCH   1  17
ATOM     17  C   UNL     1     -23.852  -8.926  17.485  1.00  0.00     0.000 C 
BRANCH  17  18
ATOM     18  C   UNL     1     -23.235  -7.710  18.200  1.00  0.00     0.000 C 
BRANCH  18  19
ATOM     19  C   UNL     1     -24.285  -6.644  18.550  1.00  0.00     0.000 C 
BRANCH  19  20
ATOM     20  C   UNL     1     -25.640  -6.912  17.869  1.00  0.00     0.000 C 
BRANCH  20  21
ATOM     21  C   UNL     1     -26.626  -5.739  18.009  1.00  0.00     0.000 C 
BRANCH  21  22
ATOM     22  C   UNL     1     -26.881  -5.274  19.456  1.00  0.00    -0.000 C 
BRANCH  22  23
ATOM     23  C   UNL     1     -27.573  -3.902  19.588  1.00  0.00    -0.000 C 
BRANCH  23  24
ATOM     24  C   UNL     1     -27.675  -3.359  21.027  1.00  0.00    -0.000 C 
BRANCH  24  25
ATOM     25  C   UNL     1     -27.123  -4.296  22.118  1.00  0.00    -0.000 C 
BRANCH  25  26
ATOM     26  C   UNL     1     -25.680  -3.953  22.526  1.00  0.00    -0.000 C 
BRANCH  26  27
ATOM     27  C   UNL     1     -25.620  -2.850  23.596  1.00  0.00    -0.000 C 
BRANCH  27  28
ATOM     28  C   UNL     1     -26.520  -3.152  24.804  1.00  0.00    -0.000 C 
BRANCH  28  29
ATOM     29  C   UNL     1     -25.988  -2.464  26.067  1.00  0.00    -0.003 C 
ATOM     30  C   UNL     1     -24.467  -2.340  26.028  1.00  0.00     0.004 C 
ENDBRANCH  28  29
ENDBRANCH  27  28
ENDBRANCH  26  27
ENDBRANCH  25  26
ENDBRANCH  24  25
ENDBRANCH  23  24
ENDBRANCH  22  23
ENDBRANCH  21  22
ENDBRANCH  20  21
ENDBRANCH  19  20
ENDBRANCH  18  19
ENDBRANCH  17  18
ENDBRANCH   1  17
TORSDOF 26
ENDMDL
MODEL 4
REMARK VINA RESULT:    -4.310      2.042      7.089
REMARK INTER + INTRA:         -13.495
REMARK INTER:                  -9.915
REMARK INTRA:                  -3.580
REMARK UNBOUND:                -2.635
REMARK SMILES CCCCCCCCCCCCCCCCCCCCCCCCCCCC(=O)[O-]
REMARK SMILES IDX 15 1 16 2 17 3 18 4 19 5 20 6 21 7 22 8 23 9 24 10 25 11
REMARK SMILES IDX 26 12 27 13 28 14 29 15 30 16 14 17 13 18 12 19 11 20 10 21
REMARK SMILES IDX 9 22 8 23 7 24 6 25 5 26 4 27 3 28 2 29 1 30
REMARK H PARENT
REMARK Flexibility Score: inf
ROOT
ATOM      1  C   UNL     1     -27.699  -4.357  16.807  1.00  0.00     0.000 C 
ENDROOT
BRANCH   1   2
ATOM      2  C   UNL     1     -28.090  -4.342  18.296  1.00  0.00     0.000 C 
BRANCH   2   3
ATOM      3  C   UNL     1     -27.741  -5.654  19.026  1.00  0.00     0.000 C 
BRANCH   3   4
ATOM      4  C   UNL     1     -27.070  -5.409  20.394  1.00  0.00     0.000 C 
BRANCH   4   5
ATOM      5  C   UNL     1     -25.575  -5.785  20.433  1.00  0.00     0.000 C 
BRANCH   5   6
ATOM      6  C   UNL     1     -25.046  -6.488  19.173  1.00  0.00     0.000 C 
BRANCH   6   7
ATOM      7  C   UNL     1     -23.951  -5.684  18.457  1.00  0.00     0.000 C 
BRANCH   7   8
ATOM      8  C   UNL     1     -22.685  -6.529  18.258  1.00  0.00     0.000 C 
BRANCH   8   9
ATOM      9  C   UNL     1     -23.038  -8.019  18.137  1.00  0.00     0.000 C 
BRANCH   9  10
ATOM     10  C   UNL     1     -21.984  -8.823  17.358  1.00  0.00     0.000 C 
BRANCH  10  11
ATOM     11  C   UNL     1     -20.535  -8.370  17.627  1.00  0.00     0.000 C 
BRANCH  11  12
ATOM     12  C   UNL     1     -19.501  -9.345  17.044  1.00  0.00     0.006 C 
BRANCH  12  13
ATOM     13  C   UNL     1     -18.074  -8.881  17.358  1.00  0.00     0.053 C 
BRANCH  13  14
ATOM     14  C   UNL     1     -17.476  -9.671  18.481  1.00  0.00     0.041 C 
ATOM     15  O   UNL     1     -18.065 -10.693  18.921  1.00  0.00    -0.550 OA
ATOM     16  O   UNL     1     -16.235  -9.313  19.001  1.00  0.00    -0.550 OA
ENDBRANCH  13  14
ENDBRANCH  12  13
ENDBRANCH  11  12
ENDBRANCH  10  11
ENDBRANCH   9  10
ENDBRANCH   8   9
ENDBRANCH   7   8
ENDBRANCH   6   7
ENDBRANCH   5   6
ENDBRANCH   4   5
ENDBRANCH   3   4
ENDBRANCH   2   3
ENDBRANCH   1   2
BRANCH   1  17
ATOM     17  C   UNL     1     -27.947  -5.692  16.083  1.00  0.00     0.000 C 
BRANCH  17  18
ATOM     18  C   UNL     1     -27.744  -5.597  14.559  1.00  0.00     0.000 C 
BRANCH  18  19
ATOM     19  C   UNL     1     -26.816  -6.699  14.024  1.00  0.00     0.000 C 
BRANCH  19  20
ATOM     20  C   UNL     1     -26.039  -7.406  15.149  1.00  0.00     0.000 C 
BRANCH  20  21
ATOM     21  C   UNL     1     -24.563  -6.974  15.225  1.00  0.00     0.000 C 
BRANCH  21  22
ATOM     22  C   UNL     1     -23.586  -7.860  14.429  1.00  0.00    -0.000 C 
BRANCH  22  23
ATOM     23  C   UNL     1     -22.114  -7.400  14.462  1.00  0.00    -0.000 C 
BRANCH  23  24
ATOM     24  C   UNL     1     -21.910  -5.880  14.623  1.00  0.00    -0.000 C 
BRANCH  24  25
ATOM     25  C   UNL     1     -20.530  -5.461  15.163  1.00  0.00    -0.000 C 
BRANCH  25  26
ATOM     26  C   UNL     1     -19.439  -6.513  14.897  1.00  0.00    -0.000 C 
BRANCH  26  27
ATOM     27  C   UNL     1     -18.028  -5.903  14.879  1.00  0.00    -0.000 C 
BRANCH  27  28
ATOM     28  C   UNL     1     -17.283  -6.182  13.564  1.00  0.00    -0.000 C 
BRANCH  28  29
ATOM     29  C   UNL     1     -16.575  -4.919  13.059  1.00  0.00    -0.003 C 
ATOM     30  C   UNL     1     -17.533  -3.733  13.009  1.00  0.00     0.004 C 
ENDBRANCH  28  29
ENDBRANCH  27  28
ENDBRANCH  26  27
ENDBRANCH  25  26
ENDBRANCH  24  25
ENDBRANCH  23  24
ENDBRANCH  22  23
ENDBRANCH  21  22
ENDBRANCH  20  21
ENDBRANCH  19  20
ENDBRANCH  18  19
ENDBRANCH  17  18
ENDBRANCH   1  17
TORSDOF 26
ENDMDL
MODEL 5
REMARK VINA RESULT:    -4.288      2.475      8.029
REMARK INTER + INTRA:         -13.440
REMARK INTER:                 -10.198
REMARK INTRA:                  -3.242
REMARK UNBOUND:                -2.635
REMARK SMILES CCCCCCCCCCCCCCCCCCCCCCCCCCCC(=O)[O-]
REMARK SMILES IDX 15 1 16 2 17 3 18 4 19 5 20 6 21 7 22 8 23 9 24 10 25 11
REMARK SMILES IDX 26 12 27 13 28 14 29 15 30 16 14 17 13 18 12 19 11 20 10 21
REMARK SMILES IDX 9 22 8 23 7 24 6 25 5 26 4 27 3 28 2 29 1 30
REMARK H PARENT
REMARK Flexibility Score: inf
ROOT
ATOM      1  C   UNL     1     -24.873  -6.796  15.056  1.00  0.00     0.000 C 
ENDROOT
BRANCH   1   2
ATOM      2  C   UNL     1     -26.280  -7.032  14.475  1.00  0.00     0.000 C 
BRANCH   2   3
ATOM      3  C   UNL     1     -27.289  -5.935  14.868  1.00  0.00     0.000 C 
BRANCH   3   4
ATOM      4  C   UNL     1     -27.423  -5.775  16.397  1.00  0.00     0.000 C 
BRANCH   4   5
ATOM      5  C   UNL     1     -27.720  -4.331  16.850  1.00  0.00     0.000 C 
BRANCH   5   6
ATOM      6  C   UNL     1     -27.816  -4.132  18.371  1.00  0.00     0.000 C 
BRANCH   6   7
ATOM      7  C   UNL     1     -27.516  -5.415  19.160  1.00  0.00     0.000 C 
BRANCH   7   8
ATOM      8  C   UNL     1     -26.619  -5.123  20.370  1.00  0.00     0.000 C 
BRANCH   8   9
ATOM      9  C   UNL     1     -25.301  -5.906  20.275  1.00  0.00     0.000 C 
BRANCH   9  10
ATOM     10  C   UNL     1     -24.823  -6.100  18.827  1.00  0.00     0.000 C 
BRANCH  10  11
ATOM     11  C   UNL     1     -24.014  -7.394  18.608  1.00  0.00     0.000 C 
BRANCH  11  12
ATOM     12  C   UNL     1     -24.898  -8.650  18.661  1.00  0.00     0.006 C 
BRANCH  12  13
ATOM     13  C   UNL     1     -25.126  -9.217  17.255  1.00  0.00     0.053 C 
BRANCH  13  14
ATOM     14  C   UNL     1     -24.196 -10.355  16.965  1.00  0.00     0.041 C 
ATOM     15  O   UNL     1     -22.964 -10.144  16.816  1.00  0.00    -0.550 OA
ATOM     16  O   UNL     1     -24.683 -11.658  16.920  1.00  0.00    -0.550 OA
ENDBRANCH  13  14
ENDBRANCH  12  13
ENDBRANCH  11  12
ENDBRANCH  10  11
ENDBRANCH   9  10
ENDBRANCH   8   9
ENDBRANCH   7   8
ENDBRANCH   6   7
ENDBRANCH   5   6
ENDBRANCH   4   5
ENDBRANCH   3   4
ENDBRANCH   2   3
ENDBRANCH   1   2
BRANCH   1  17
ATOM     17  C   UNL     1     -23.771  -7.701  14.476  1.00  0.00     0.000 C 
BRANCH  17  18
ATOM     18  C   UNL     1     -22.351  -7.218  14.825  1.00  0.00     0.000 C 
BRANCH  18  19
ATOM     19  C   UNL     1     -22.310  -6.433  16.145  1.00  0.00     0.000 C 
BRANCH  19  20
ATOM     20  C   UNL     1     -21.235  -5.330  16.135  1.00  0.00     0.000 C 
BRANCH  20  21
ATOM     21  C   UNL     1     -21.023  -4.710  14.743  1.00  0.00     0.000 C 
BRANCH  21  22
ATOM     22  C   UNL     1     -19.550  -4.572  14.311  1.00  0.00    -0.000 C 
BRANCH  22  23
ATOM     23  C   UNL     1     -18.567  -5.512  15.037  1.00  0.00    -0.000 C 
BRANCH  23  24
ATOM     24  C   UNL     1     -17.985  -6.645  14.169  1.00  0.00    -0.000 C 
BRANCH  24  25
ATOM     25  C   UNL     1     -18.657  -8.019  14.354  1.00  0.00    -0.000 C 
BRANCH  25  26
ATOM     26  C   UNL     1     -19.257  -8.206  15.757  1.00  0.00    -0.000 C 
BRANCH  26  27
ATOM     27  C   UNL     1     -18.206  -8.639  16.792  1.00  0.00    -0.000 C 
BRANCH  27  28
ATOM     28  C   UNL     1     -18.822  -9.403  17.974  1.00  0.00    -0.000 C 
BRANCH  28  29
ATOM     29  C   UNL     1     -17.777 -10.297  18.651  1.00  0.00    -0.003 C 
ATOM     30  C   UNL     1     -16.537  -9.498  19.040  1.00  0.00     0.004 C 
ENDBRANCH  28  29
ENDBRANCH  27  28
ENDBRANCH  26  27
ENDBRANCH  25  26
ENDBRANCH  24  25
ENDBRANCH  23  24
ENDBRANCH  22  23
ENDBRANCH  21  22
ENDBRANCH  20  21
ENDBRANCH  19  20
ENDBRANCH  18  19
ENDBRANCH  17  18
ENDBRANCH   1  17
TORSDOF 26
ENDMDL
MODEL 6
REMARK VINA RESULT:    -3.948      2.813      6.894
REMARK INTER + INTRA:         -12.585
REMARK INTER:                  -9.720
REMARK INTRA:                  -2.865
REMARK UNBOUND:                -2.635
REMARK SMILES CCCCCCCCCCCCCCCCCCCCCCCCCCCC(=O)[O-]
REMARK SMILES IDX 15 1 16 2 17 3 18 4 19 5 20 6 21 7 22 8 23 9 24 10 25 11
REMARK SMILES IDX 26 12 27 13 28 14 29 15 30 16 14 17 13 18 12 19 11 20 10 21
REMARK SMILES IDX 9 22 8 23 7 24 6 25 5 26 4 27 3 28 2 29 1 30
REMARK H PARENT
REMARK Flexibility Score: inf
ROOT
ATOM      1  C   UNL     1     -27.599  -4.400  18.503  1.00  0.00     0.000 C 
ENDROOT
BRANCH   1   2
ATOM      2  C   UNL     1     -28.003  -5.297  19.688  1.00  0.00     0.000 C 
BRANCH   2   3
ATOM      3  C   UNL     1     -26.937  -5.346  20.800  1.00  0.00     0.000 C 
BRANCH   3   4
ATOM      4  C   UNL     1     -25.498  -5.292  20.244  1.00  0.00     0.000 C 
BRANCH   4   5
ATOM      5  C   UNL     1     -24.853  -6.678  20.045  1.00  0.00     0.000 C 
BRANCH   5   6
ATOM      6  C   UNL     1     -24.263  -6.929  18.648  1.00  0.00     0.000 C 
BRANCH   6   7
ATOM      7  C   UNL     1     -22.833  -6.388  18.501  1.00  0.00     0.000 C 
BRANCH   7   8
ATOM      8  C   UNL     1     -22.736  -5.390  17.339  1.00  0.00     0.000 C 
BRANCH   8   9
ATOM      9  C   UNL     1     -21.320  -5.379  16.745  1.00  0.00     0.000 C 
BRANCH   9  10
ATOM     10  C   UNL     1     -21.218  -4.551  15.454  1.00  0.00     0.000 C 
BRANCH  10  11
ATOM     11  C   UNL     1     -20.104  -5.024  14.499  1.00  0.00     0.000 C 
BRANCH  11  12
ATOM     12  C   UNL     1     -18.893  -5.595  15.252  1.00  0.00     0.006 C 
BRANCH  12  13
ATOM     13  C   UNL     1     -17.768  -5.961  14.278  1.00  0.00     0.053 C 
BRANCH  13  14
ATOM     14  C   UNL     1     -17.186  -4.743  13.630  1.00  0.00     0.041 C 
ATOM     15  O   UNL     1     -15.942  -4.551  13.641  1.00  0.00    -0.550 OA
ATOM     16  O   UNL     1     -18.016  -3.848  12.960  1.00  0.00    -0.550 OA
ENDBRANCH  13  14
ENDBRANCH  12  13
ENDBRANCH  11  12
ENDBRANCH  10  11
ENDBRANCH   9  10
ENDBRANCH   8   9
ENDBRANCH   7   8
ENDBRANCH   6   7
ENDBRANCH   5   6
ENDBRANCH   4   5
ENDBRANCH   3   4
ENDBRANCH   2   3
ENDBRANCH   1   2
BRANCH   1  17
ATOM     17  C   UNL     1     -27.395  -5.140  17.169  1.00  0.00     0.000 C 
BRANCH  17  18
ATOM     18  C   UNL     1     -27.769  -6.632  17.245  1.00  0.00     0.000 C 
BRANCH  18  19
ATOM     19  C   UNL     1     -27.019  -7.476  16.204  1.00  0.00     0.000 C 
BRANCH  19  20
ATOM     20  C   UNL     1     -26.532  -6.634  15.010  1.00  0.00     0.000 C 
BRANCH  20  21
ATOM     21  C   UNL     1     -25.222  -7.162  14.397  1.00  0.00     0.000 C 
BRANCH  21  22
ATOM     22  C   UNL     1     -24.128  -7.528  15.418  1.00  0.00    -0.000 C 
BRANCH  22  23
ATOM     23  C   UNL     1     -23.055  -8.509  14.901  1.00  0.00    -0.000 C 
BRANCH  23  24
ATOM     24  C   UNL     1     -22.449  -9.436  15.974  1.00  0.00    -0.000 C 
BRANCH  24  25
ATOM     25  C   UNL     1     -21.280  -8.832  16.773  1.00  0.00    -0.000 C 
BRANCH  25  26
ATOM     26  C   UNL     1     -20.013  -8.636  15.921  1.00  0.00    -0.000 C 
BRANCH  26  27
ATOM     27  C   UNL     1     -18.726  -8.721  16.758  1.00  0.00    -0.000 C 
BRANCH  27  28
ATOM     28  C   UNL     1     -18.963  -9.349  18.140  1.00  0.00    -0.000 C 
BRANCH  28  29
ATOM     29  C   UNL     1     -17.693 -10.041  18.650  1.00  0.00    -0.003 C 
ATOM     30  C   UNL     1     -16.512  -9.075  18.678  1.00  0.00     0.004 C 
ENDBRANCH  28  29
ENDBRANCH  27  28
ENDBRANCH  26  27
ENDBRANCH  25  26
ENDBRANCH  24  25
ENDBRANCH  23  24
ENDBRANCH  22  23
ENDBRANCH  21  22
ENDBRANCH  20  21
ENDBRANCH  19  20
ENDBRANCH  18  19
ENDBRANCH  17  18
ENDBRANCH   1  17
TORSDOF 26
ENDMDL
MODEL 7
REMARK VINA RESULT:    -3.939      3.104      5.070
REMARK INTER + INTRA:         -12.561
REMARK INTER:                 -10.149
REMARK INTRA:                  -2.412
REMARK UNBOUND:                -2.635
REMARK SMILES CCCCCCCCCCCCCCCCCCCCCCCCCCCC(=O)[O-]
REMARK SMILES IDX 15 1 16 2 17 3 18 4 19 5 20 6 21 7 22 8 23 9 24 10 25 11
REMARK SMILES IDX 26 12 27 13 28 14 29 15 30 16 14 17 13 18 12 19 11 20 10 21
REMARK SMILES IDX 9 22 8 23 7 24 6 25 5 26 4 27 3 28 2 29 1 30
REMARK H PARENT
REMARK Flexibility Score: inf
ROOT
ATOM      1  C   UNL     1     -20.947  -8.215  17.334  1.00  0.00     0.000 C 
ENDROOT
BRANCH   1   2
ATOM      2  C   UNL     1     -19.649  -9.001  17.598  1.00  0.00     0.000 C 
BRANCH   2   3
ATOM      3  C   UNL     1     -18.508  -8.628  16.630  1.00  0.00     0.000 C 
BRANCH   3   4
ATOM      4  C   UNL     1     -19.024  -7.966  15.335  1.00  0.00     0.000 C 
BRANCH   4   5
ATOM      5  C   UNL     1     -18.026  -6.978  14.698  1.00  0.00     0.000 C 
BRANCH   5   6
ATOM      6  C   UNL     1     -18.528  -5.530  14.579  1.00  0.00     0.000 C 
BRANCH   6   7
ATOM      7  C   UNL     1     -19.796  -5.270  15.406  1.00  0.00     0.000 C 
BRANCH   7   8
ATOM      8  C   UNL     1     -21.045  -5.263  14.514  1.00  0.00     0.000 C 
BRANCH   8   9
ATOM      9  C   UNL     1     -22.166  -6.108  15.137  1.00  0.00     0.000 C 
BRANCH   9  10
ATOM     10  C   UNL     1     -22.427  -7.415  14.372  1.00  0.00     0.000 C 
BRANCH  10  11
ATOM     11  C   UNL     1     -23.730  -8.128  14.788  1.00  0.00     0.000 C 
BRANCH  11  12
ATOM     12  C   UNL     1     -24.795  -7.146  15.299  1.00  0.00     0.006 C 
BRANCH  12  13
ATOM     13  C   UNL     1     -25.941  -7.010  14.289  1.00  0.00     0.053 C 
BRANCH  13  14
ATOM     14  C   UNL     1     -27.236  -6.694  14.971  1.00  0.00     0.041 C 
ATOM     15  O   UNL     1     -27.895  -5.674  14.638  1.00  0.00    -0.550 OA
ATOM     16  O   UNL     1     -27.746  -7.560  15.934  1.00  0.00    -0.550 OA
ENDBRANCH  13  14
ENDBRANCH  12  13
ENDBRANCH  11  12
ENDBRANCH  10  11
ENDBRANCH   9  10
ENDBRANCH   8   9
ENDBRANCH   7   8
ENDBRANCH   6   7
ENDBRANCH   5   6
ENDBRANCH   4   5
ENDBRANCH   3   4
ENDBRANCH   2   3
ENDBRANCH   1   2
BRANCH   1  17
ATOM     17  C   UNL     1     -21.393  -7.293  18.483  1.00  0.00     0.000 C 
BRANCH  17  18
ATOM     18  C   UNL     1     -22.704  -6.545  18.179  1.00  0.00     0.000 C 
BRANCH  18  19
ATOM     19  C   UNL     1     -23.944  -7.334  18.624  1.00  0.00     0.000 C 
BRANCH  19  20
ATOM     20  C   UNL     1     -24.976  -6.446  19.342  1.00  0.00     0.000 C 
BRANCH  20  21
ATOM     21  C   UNL     1     -25.960  -5.764  18.374  1.00  0.00     0.000 C 
BRANCH  21  22
ATOM     22  C   UNL     1     -27.416  -5.691  18.873  1.00  0.00    -0.000 C 
BRANCH  22  23
ATOM     23  C   UNL     1     -27.578  -5.287  20.353  1.00  0.00    -0.000 C 
BRANCH  23  24
ATOM     24  C   UNL     1     -27.042  -3.887  20.710  1.00  0.00    -0.000 C 
BRANCH  24  25
ATOM     25  C   UNL     1     -28.035  -2.980  21.460  1.00  0.00    -0.000 C 
BRANCH  25  26
ATOM     26  C   UNL     1     -27.435  -2.363  22.736  1.00  0.00    -0.000 C 
BRANCH  26  27
ATOM     27  C   UNL     1     -26.196  -3.129  23.229  1.00  0.00    -0.000 C 
BRANCH  27  28
ATOM     28  C   UNL     1     -25.014  -2.198  23.541  1.00  0.00    -0.000 C 
BRANCH  28  29
ATOM     29  C   UNL     1     -24.722  -2.170  25.046  1.00  0.00    -0.003 C 
ATOM     30  C   UNL     1     -25.826  -2.869  25.834  1.00  0.00     0.004 C 
ENDBRANCH  28  29
ENDBRANCH  27  28
ENDBRANCH  26  27
ENDBRANCH  25  26
ENDBRANCH  24  25
ENDBRANCH  23  24
ENDBRANCH  22  23
ENDBRANCH  21  22
ENDBRANCH  20  21
ENDBRANCH  19  20
ENDBRANCH  18  19
ENDBRANCH  17  18
ENDBRANCH   1  17
TORSDOF 26
ENDMDL
MODEL 8
REMARK VINA RESULT:    -3.883      3.504      9.404
REMARK INTER + INTRA:         -12.419
REMARK INTER:                 -10.224
REMARK INTRA:                  -2.195
REMARK UNBOUND:                -2.635
REMARK SMILES CCCCCCCCCCCCCCCCCCCCCCCCCCCC(=O)[O-]
REMARK SMILES IDX 15 1 16 2 17 3 18 4 19 5 20 6 21 7 22 8 23 9 24 10 25 11
REMARK SMILES IDX 26 12 27 13 28 14 29 15 30 16 14 17 13 18 12 19 11 20 10 21
REMARK SMILES IDX 9 22 8 23 7 24 6 25 5 26 4 27 3 28 2 29 1 30
REMARK H PARENT
REMARK Flexibility Score: inf
ROOT
ATOM      1  C   UNL     1     -23.435  -7.498  15.158  1.00  0.00     0.000 C 
ENDROOT
BRANCH   1   2
ATOM      2  C   UNL     1     -22.810  -8.865  14.824  1.00  0.00     0.000 C 
BRANCH   2   3
ATOM      3  C   UNL     1     -23.315 -10.000  15.737  1.00  0.00     0.000 C 
BRANCH   3   4
ATOM      4  C   UNL     1     -23.623  -9.515  17.169  1.00  0.00     0.000 C 
BRANCH   4   5
ATOM      5  C   UNL     1     -25.129  -9.373  17.470  1.00  0.00     0.000 C 
BRANCH   5   6
ATOM      6  C   UNL     1     -25.583  -7.962  17.876  1.00  0.00     0.000 C 
BRANCH   6   7
ATOM      7  C   UNL     1     -26.604  -7.361  16.898  1.00  0.00     0.000 C 
BRANCH   7   8
ATOM      8  C   UNL     1     -26.885  -5.889  17.229  1.00  0.00     0.000 C 
BRANCH   8   9
ATOM      9  C   UNL     1     -27.639  -5.763  18.561  1.00  0.00     0.000 C 
BRANCH   9  10
ATOM     10  C   UNL     1     -26.955  -4.805  19.549  1.00  0.00     0.000 C 
BRANCH  10  11
ATOM     11  C   UNL     1     -27.076  -5.243  21.023  1.00  0.00     0.000 C 
BRANCH  11  12
ATOM     12  C   UNL     1     -26.051  -4.541  21.926  1.00  0.00     0.006 C 
BRANCH  12  13
ATOM     13  C   UNL     1     -26.648  -3.272  22.546  1.00  0.00     0.053 C 
BRANCH  13  14
ATOM     14  C   UNL     1     -25.790  -2.749  23.657  1.00  0.00     0.041 C 
ATOM     15  O   UNL     1     -25.990  -3.124  24.842  1.00  0.00    -0.550 OA
ATOM     16  O   UNL     1     -24.729  -1.894  23.374  1.00  0.00    -0.550 OA
ENDBRANCH  13  14
ENDBRANCH  12  13
ENDBRANCH  11  12
ENDBRANCH  10  11
ENDBRANCH   9  10
ENDBRANCH   8   9
ENDBRANCH   7   8
ENDBRANCH   6   7
ENDBRANCH   5   6
ENDBRANCH   4   5
ENDBRANCH   3   4
ENDBRANCH   2   3
ENDBRANCH   1   2
BRANCH   1  17
ATOM     17  C   UNL     1     -22.442  -6.436  15.664  1.00  0.00     0.000 C 
BRANCH  17  18
ATOM     18  C   UNL     1     -22.669  -6.054  17.138  1.00  0.00     0.000 C 
BRANCH  18  19
ATOM     19  C   UNL     1     -21.840  -6.919  18.100  1.00  0.00     0.000 C 
BRANCH  19  20
ATOM     20  C   UNL     1     -20.681  -7.640  17.387  1.00  0.00     0.000 C 
BRANCH  20  21
ATOM     21  C   UNL     1     -20.037  -8.741  18.248  1.00  0.00     0.000 C 
BRANCH  21  22
ATOM     22  C   UNL     1     -18.656  -9.222  17.761  1.00  0.00    -0.000 C 
BRANCH  22  23
ATOM     23  C   UNL     1     -18.121  -8.504  16.505  1.00  0.00    -0.000 C 
BRANCH  23  24
ATOM     24  C   UNL     1     -19.045  -8.573  15.272  1.00  0.00    -0.000 C 
BRANCH  24  25
ATOM     25  C   UNL     1     -18.678  -7.609  14.129  1.00  0.00    -0.000 C 
BRANCH  25  26
ATOM     26  C   UNL     1     -18.935  -6.135  14.485  1.00  0.00    -0.000 C 
BRANCH  26  27
ATOM     27  C   UNL     1     -17.633  -5.329  14.621  1.00  0.00    -0.000 C 
BRANCH  27  28
ATOM     28  C   UNL     1     -16.857  -5.236  13.299  1.00  0.00    -0.000 C 
BRANCH  28  29
ATOM     29  C   UNL     1     -16.402  -3.796  13.032  1.00  0.00    -0.003 C 
ATOM     30  C   UNL     1     -17.574  -2.917  12.605  1.00  0.00     0.004 C 
ENDBRANCH  28  29
ENDBRANCH  27  28
ENDBRANCH  26  27
ENDBRANCH  25  26
ENDBRANCH  24  25
ENDBRANCH  23  24
ENDBRANCH  22  23
ENDBRANCH  21  22
ENDBRANCH  20  21
ENDBRANCH  19  20
ENDBRANCH  18  19
ENDBRANCH  17  18
ENDBRANCH   1  17
TORSDOF 26
ENDMDL
MODEL 9
REMARK VINA RESULT:    -3.800      3.747      9.028
REMARK INTER + INTRA:         -12.212
REMARK INTER:                  -9.978
REMARK INTRA:                  -2.234
REMARK UNBOUND:                -2.635
REMARK SMILES CCCCCCCCCCCCCCCCCCCCCCCCCCCC(=O)[O-]
REMARK SMILES IDX 15 1 16 2 17 3 18 4 19 5 20 6 21 7 22 8 23 9 24 10 25 11
REMARK SMILES IDX 26 12 27 13 28 14 29 15 30 16 14 17 13 18 12 19 11 20 10 21
REMARK SMILES IDX 9 22 8 23 7 24 6 25 5 26 4 27 3 28 2 29 1 30
REMARK H PARENT
REMARK Flexibility Score: inf
ROOT
ATOM      1  C   UNL     1     -19.947  -5.360  14.928  1.00  0.00     0.000 C 
ENDROOT
BRANCH   1   2
ATOM      2  C   UNL     1     -20.353  -5.081  16.387  1.00  0.00     0.000 C 
BRANCH   2   3
ATOM      3  C   UNL     1     -21.874  -5.181  16.621  1.00  0.00     0.000 C 
BRANCH   3   4
ATOM      4  C   UNL     1     -22.224  -5.914  17.933  1.00  0.00     0.000 C 
BRANCH   4   5
ATOM      5  C   UNL     1     -23.703  -6.337  18.037  1.00  0.00     0.000 C 
BRANCH   5   6
ATOM      6  C   UNL     1     -24.272  -6.376  19.464  1.00  0.00     0.000 C 
BRANCH   6   7
ATOM      7  C   UNL     1     -25.673  -5.754  19.564  1.00  0.00     0.000 C 
BRANCH   7   8
ATOM      8  C   UNL     1     -25.981  -5.315  21.002  1.00  0.00     0.000 C 
BRANCH   8   9
ATOM      9  C   UNL     1     -27.449  -4.884  21.138  1.00  0.00     0.000 C 
BRANCH   9  10
ATOM     10  C   UNL     1     -27.755  -3.563  20.413  1.00  0.00     0.000 C 
BRANCH  10  11
ATOM     11  C   UNL     1     -27.692  -2.324  21.327  1.00  0.00     0.000 C 
BRANCH  11  12
ATOM     12  C   UNL     1     -26.923  -2.597  22.629  1.00  0.00     0.006 C 
BRANCH  12  13
ATOM     13  C   UNL     1     -27.807  -2.327  23.852  1.00  0.00     0.053 C 
BRANCH  13  14
ATOM     14  C   UNL     1     -27.587  -3.351  24.923  1.00  0.00     0.041 C 
ATOM     15  O   UNL     1     -27.892  -4.556  24.720  1.00  0.00    -0.550 OA
ATOM     16  O   UNL     1     -26.989  -2.985  26.125  1.00  0.00    -0.550 OA
ENDBRANCH  13  14
ENDBRANCH  12  13
ENDBRANCH  11  12
ENDBRANCH  10  11
ENDBRANCH   9  10
ENDBRANCH   8   9
ENDBRANCH   7   8
ENDBRANCH   6   7
ENDBRANCH   5   6
ENDBRANCH   4   5
ENDBRANCH   3   4
ENDBRANCH   2   3
ENDBRANCH   1   2
BRANCH   1  17
ATOM     17  C   UNL     1     -18.436  -5.550  14.700  1.00  0.00     0.000 C 
BRANCH  17  18
ATOM     18  C   UNL     1     -18.061  -6.998  14.335  1.00  0.00     0.000 C 
BRANCH  18  19
ATOM     19  C   UNL     1     -19.085  -8.016  14.859  1.00  0.00     0.000 C 
BRANCH  19  20
ATOM     20  C   UNL     1     -18.736  -8.524  16.269  1.00  0.00     0.000 C 
BRANCH  20  21
ATOM     21  C   UNL     1     -19.974  -8.719  17.162  1.00  0.00     0.000 C 
BRANCH  21  22
ATOM     22  C   UNL     1     -21.297  -8.932  16.401  1.00  0.00    -0.000 C 
BRANCH  22  23
ATOM     23  C   UNL     1     -22.083 -10.198  16.800  1.00  0.00    -0.000 C 
BRANCH  23  24
ATOM     24  C   UNL     1     -23.582 -10.174  16.443  1.00  0.00    -0.000 C 
BRANCH  24  25
ATOM     25  C   UNL     1     -24.305  -8.850  16.752  1.00  0.00    -0.000 C 
BRANCH  25  26
ATOM     26  C   UNL     1     -25.758  -9.057  17.213  1.00  0.00    -0.000 C 
BRANCH  26  27
ATOM     27  C   UNL     1     -26.681  -7.906  16.777  1.00  0.00    -0.000 C 
BRANCH  27  28
ATOM     28  C   UNL     1     -26.080  -7.070  15.637  1.00  0.00    -0.000 C 
BRANCH  28  29
ATOM     29  C   UNL     1     -27.184  -6.413  14.801  1.00  0.00    -0.003 C 
ATOM     30  C   UNL     1     -27.094  -6.837  13.338  1.00  0.00     0.004 C 
ENDBRANCH  28  29
ENDBRANCH  27  28
ENDBRANCH  26  27
ENDBRANCH  25  26
ENDBRANCH  24  25
ENDBRANCH  23  24
ENDBRANCH  22  23
ENDBRANCH  21  22
ENDBRANCH  20  21
ENDBRANCH  19  20
ENDBRANCH  18  19
ENDBRANCH  17  18
ENDBRANCH   1  17
TORSDOF 26
ENDMDL
