MODEL 1
REMARK VINA RESULT:    -5.898      0.000      0.000
REMARK INTER + INTRA:          -7.052
REMARK INTER:                  -6.933
REMARK INTRA:                  -0.120
REMARK UNBOUND:                -0.120
REMARK SMILES O=C([O-])C=Cc1ccc(O)c(O)c1
REMARK SMILES IDX 6 1 13 2 7 3 11 4 8 5 9 6 5 7 4 8 2 9 1 10 3 11 12 12 10 14
REMARK H PARENT 12 13 10 15
REMARK Flexibility Score: inf
ROOT
ATOM      1  C   UNL     1      -2.176  44.080   2.549  1.00  0.00    -0.022 A 
ATOM      2  C   UNL     1      -2.732  43.761   1.302  1.00  0.00     0.058 A 
ATOM      3  C   UNL     1      -1.504  45.303   2.709  1.00  0.00     0.012 A 
ATOM      4  C   UNL     1      -2.576  44.628   0.211  1.00  0.00     0.157 A 
ATOM      5  C   UNL     1      -1.346  46.169   1.623  1.00  0.00     0.051 A 
ATOM      6  C   UNL     1      -1.878  45.833   0.370  1.00  0.00     0.157 A 
ENDROOT
BRANCH   1   7
ATOM      7  C   UNL     1      -2.401  43.175   3.694  1.00  0.00     0.010 C 
ATOM      8  C   UNL     1      -3.192  43.434   4.747  1.00  0.00     0.025 C 
BRANCH   8   9
ATOM      9  C   UNL     1      -3.836  44.728   5.044  1.00  0.00     0.064 C 
ATOM     10  O   UNL     1      -3.316  45.557   5.837  1.00  0.00    -0.545 OA
ATOM     11  O   UNL     1      -5.078  45.008   4.490  1.00  0.00    -0.545 OA
ENDBRANCH   8   9
ENDBRANCH   1   7
BRANCH   4  12
ATOM     12  O   UNL     1      -3.112  44.301  -1.034  1.00  0.00    -0.504 OA
ATOM     13  H   UNL     1      -3.657  44.968  -1.567  1.00  0.00     0.293 HD
ENDBRANCH   4  12
BRANCH   6  14
ATOM     14  O   UNL     1      -1.721  46.690  -0.716  1.00  0.00    -0.504 OA
ATOM     15  H   UNL     1      -2.517  47.134  -1.160  1.00  0.00     0.293 HD
ENDBRANCH   6  14
TORSDOF 4
ENDMDL
MODEL 2
REMARK VINA RESULT:    -5.883      2.374      5.523
REMARK INTER + INTRA:          -7.035
REMARK INTER:                  -7.187
REMARK INTRA:                   0.152
REMARK UNBOUND:                -0.120
REMARK SMILES O=C([O-])C=Cc1ccc(O)c(O)c1
REMARK SMILES IDX 6 1 13 2 7 3 11 4 8 5 9 6 5 7 4 8 2 9 1 10 3 11 12 12 10 14
REMARK H PARENT 12 13 10 15
REMARK Flexibility Score: inf
ROOT
ATOM      1  C   UNL     1      -0.740  44.661   0.168  1.00  0.00    -0.022 A 
ATOM      2  C   UNL     1      -0.883  43.666   1.146  1.00  0.00     0.058 A 
ATOM      3  C   UNL     1      -1.611  45.763   0.176  1.00  0.00     0.012 A 
ATOM      4  C   UNL     1      -1.915  43.742   2.091  1.00  0.00     0.157 A 
ATOM      5  C   UNL     1      -2.642  45.841   1.118  1.00  0.00     0.051 A 
ATOM      6  C   UNL     1      -2.800  44.829   2.075  1.00  0.00     0.157 A 
ENDROOT
BRANCH   1   7
ATOM      7  C   UNL     1       0.388  44.585  -0.783  1.00  0.00     0.010 C 
ATOM      8  C   UNL     1       0.346  44.959  -2.072  1.00  0.00     0.025 C 
BRANCH   8   9
ATOM      9  C   UNL     1      -0.867  45.343  -2.819  1.00  0.00     0.064 C 
ATOM     10  O   UNL     1      -1.643  44.478  -3.305  1.00  0.00    -0.545 OA
ATOM     11  O   UNL     1      -1.121  46.688  -3.050  1.00  0.00    -0.545 OA
ENDBRANCH   8   9
ENDBRANCH   1   7
BRANCH   4  12
ATOM     12  O   UNL     1      -2.068  42.742   3.051  1.00  0.00    -0.504 OA
ATOM     13  H   UNL     1      -2.885  42.703   3.649  1.00  0.00     0.293 HD
ENDBRANCH   4  12
BRANCH   6  14
ATOM     14  O   UNL     1      -3.826  44.900   3.014  1.00  0.00    -0.504 OA
ATOM     15  H   UNL     1      -3.836  44.304   3.833  1.00  0.00     0.293 HD
ENDBRANCH   6  14
TORSDOF 4
ENDMDL
MODEL 3
REMARK VINA RESULT:    -5.869      7.933      9.607
REMARK INTER + INTRA:          -7.019
REMARK INTER:                  -6.807
REMARK INTRA:                  -0.211
REMARK UNBOUND:                -0.120
REMARK SMILES O=C([O-])C=Cc1ccc(O)c(O)c1
REMARK SMILES IDX 6 1 13 2 7 3 11 4 8 5 9 6 5 7 4 8 2 9 1 10 3 11 12 12 10 14
REMARK H PARENT 12 13 10 15
REMARK Flexibility Score: inf
ROOT
ATOM      1  C   UNL     1       1.408  47.023  11.145  1.00  0.00    -0.022 A 
ATOM      2  C   UNL     1       0.494  46.406  10.278  1.00  0.00     0.058 A 
ATOM      3  C   UNL     1       1.817  48.341  10.887  1.00  0.00     0.012 A 
ATOM      4  C   UNL     1       0.032  47.079   9.137  1.00  0.00     0.157 A 
ATOM      5  C   UNL     1       1.358  49.014   9.751  1.00  0.00     0.051 A 
ATOM      6  C   UNL     1       0.468  48.383   8.870  1.00  0.00     0.157 A 
ENDROOT
BRANCH   1   7
ATOM      7  C   UNL     1       1.837  46.313  12.367  1.00  0.00     0.010 C 
ATOM      8  C   UNL     1       2.813  45.394  12.430  1.00  0.00     0.025 C 
BRANCH   8   9
ATOM      9  C   UNL     1       3.511  44.796  11.276  1.00  0.00     0.064 C 
ATOM     10  O   UNL     1       4.669  45.161  10.944  1.00  0.00    -0.545 OA
ATOM     11  O   UNL     1       2.847  43.858  10.496  1.00  0.00    -0.545 OA
ENDBRANCH   8   9
ENDBRANCH   1   7
BRANCH   4  12
ATOM     12  O   UNL     1      -0.862  46.458   8.265  1.00  0.00    -0.504 OA
ATOM     13  H   UNL     1      -0.548  45.784   7.577  1.00  0.00     0.293 HD
ENDBRANCH   4  12
BRANCH   6  14
ATOM     14  O   UNL     1       0.010  49.047   7.734  1.00  0.00    -0.504 OA
ATOM     15  H   UNL     1      -0.819  48.739   7.239  1.00  0.00     0.293 HD
ENDBRANCH   6  14
TORSDOF 4
ENDMDL
MODEL 4
REMARK VINA RESULT:    -5.849      1.282      4.642
REMARK INTER + INTRA:          -6.994
REMARK INTER:                  -6.787
REMARK INTRA:                  -0.207
REMARK UNBOUND:                -0.120
REMARK SMILES O=C([O-])C=Cc1ccc(O)c(O)c1
REMARK SMILES IDX 6 1 13 2 7 3 11 4 8 5 9 6 5 7 4 8 2 9 1 10 3 11 12 12 10 14
REMARK H PARENT 12 13 10 15
REMARK Flexibility Score: inf
ROOT
ATOM      1  C   UNL     1      -1.342  44.420   2.450  1.00  0.00    -0.022 A 
ATOM      2  C   UNL     1      -2.332  43.662   3.090  1.00  0.00     0.058 A 
ATOM      3  C   UNL     1      -0.874  45.595   3.060  1.00  0.00     0.012 A 
ATOM      4  C   UNL     1      -2.887  44.096   4.302  1.00  0.00     0.157 A 
ATOM      5  C   UNL     1      -1.427  46.032   4.268  1.00  0.00     0.051 A 
ATOM      6  C   UNL     1      -2.437  45.286   4.890  1.00  0.00     0.157 A 
ENDROOT
BRANCH   1   7
ATOM      7  C   UNL     1      -0.736  43.913   1.202  1.00  0.00     0.010 C 
ATOM      8  C   UNL     1      -0.970  44.395  -0.029  1.00  0.00     0.025 C 
BRANCH   8   9
ATOM      9  C   UNL     1      -1.999  45.391  -0.383  1.00  0.00     0.064 C 
ATOM     10  O   UNL     1      -1.690  46.524  -0.838  1.00  0.00    -0.545 OA
ATOM     11  O   UNL     1      -3.335  45.098  -0.144  1.00  0.00    -0.545 OA
ENDBRANCH   8   9
ENDBRANCH   1   7
BRANCH   4  12
ATOM     12  O   UNL     1      -3.886  43.351   4.929  1.00  0.00    -0.504 OA
ATOM     13  H   UNL     1      -4.429  42.662   4.423  1.00  0.00     0.293 HD
ENDBRANCH   4  12
BRANCH   6  14
ATOM     14  O   UNL     1      -2.994  45.717   6.093  1.00  0.00    -0.504 OA
ATOM     15  H   UNL     1      -3.915  45.415   6.388  1.00  0.00     0.293 HD
ENDBRANCH   6  14
TORSDOF 4
ENDMDL
MODEL 5
REMARK VINA RESULT:    -5.838      3.448      4.165
REMARK INTER + INTRA:          -6.982
REMARK INTER:                  -6.791
REMARK INTRA:                  -0.191
REMARK UNBOUND:                -0.120
REMARK SMILES O=C([O-])C=Cc1ccc(O)c(O)c1
REMARK SMILES IDX 6 1 13 2 7 3 11 4 8 5 9 6 5 7 4 8 2 9 1 10 3 11 12 12 10 14
REMARK H PARENT 12 13 10 15
REMARK Flexibility Score: inf
ROOT
ATOM      1  C   UNL     1      -0.174  45.563   2.322  1.00  0.00    -0.022 A 
ATOM      2  C   UNL     1       0.829  44.920   1.583  1.00  0.00     0.058 A 
ATOM      3  C   UNL     1       0.186  46.355   3.425  1.00  0.00     0.012 A 
ATOM      4  C   UNL     1       2.173  45.021   1.969  1.00  0.00     0.157 A 
ATOM      5  C   UNL     1       1.525  46.458   3.813  1.00  0.00     0.051 A 
ATOM      6  C   UNL     1       2.522  45.788   3.089  1.00  0.00     0.157 A 
ENDROOT
BRANCH   1   7
ATOM      7  C   UNL     1      -1.576  45.484   1.863  1.00  0.00     0.010 C 
ATOM      8  C   UNL     1      -2.581  44.895   2.530  1.00  0.00     0.025 C 
BRANCH   8   9
ATOM      9  C   UNL     1      -2.442  44.071   3.746  1.00  0.00     0.064 C 
ATOM     10  O   UNL     1      -2.370  42.815   3.686  1.00  0.00    -0.545 OA
ATOM     11  O   UNL     1      -2.462  44.690   4.988  1.00  0.00    -0.545 OA
ENDBRANCH   8   9
ENDBRANCH   1   7
BRANCH   4  12
ATOM     12  O   UNL     1       3.167  44.365   1.245  1.00  0.00    -0.504 OA
ATOM     13  H   UNL     1       2.963  43.541   0.692  1.00  0.00     0.293 HD
ENDBRANCH   4  12
BRANCH   6  14
ATOM     14  O   UNL     1       3.858  45.884   3.472  1.00  0.00    -0.504 OA
ATOM     15  H   UNL     1       4.601  45.501   2.901  1.00  0.00     0.293 HD
ENDBRANCH   6  14
TORSDOF 4
ENDMDL
MODEL 6
REMARK VINA RESULT:    -5.831      1.642      1.969
REMARK INTER + INTRA:          -6.974
REMARK INTER:                  -7.005
REMARK INTRA:                   0.031
REMARK UNBOUND:                -0.120
REMARK SMILES O=C([O-])C=Cc1ccc(O)c(O)c1
REMARK SMILES IDX 6 1 13 2 7 3 11 4 8 5 9 6 5 7 4 8 2 9 1 10 3 11 12 12 10 14
REMARK H PARENT 12 13 10 15
REMARK Flexibility Score: inf
ROOT
ATOM      1  C   UNL     1      -1.076  45.560   2.715  1.00  0.00    -0.022 A 
ATOM      2  C   UNL     1      -2.139  45.595   1.801  1.00  0.00     0.058 A 
ATOM      3  C   UNL     1       0.207  45.208   2.265  1.00  0.00     0.012 A 
ATOM      4  C   UNL     1      -1.936  45.232   0.462  1.00  0.00     0.157 A 
ATOM      5  C   UNL     1       0.411  44.845   0.930  1.00  0.00     0.051 A 
ATOM      6  C   UNL     1      -0.660  44.852   0.026  1.00  0.00     0.157 A 
ENDROOT
BRANCH   1   7
ATOM      7  C   UNL     1      -1.304  45.998   4.108  1.00  0.00     0.010 C 
ATOM      8  C   UNL     1      -2.177  45.445   4.964  1.00  0.00     0.025 C 
BRANCH   8   9
ATOM      9  C   UNL     1      -3.189  44.425   4.625  1.00  0.00     0.064 C 
ATOM     10  O   UNL     1      -2.875  43.219   4.447  1.00  0.00    -0.545 OA
ATOM     11  O   UNL     1      -4.506  44.819   4.430  1.00  0.00    -0.545 OA
ENDBRANCH   8   9
ENDBRANCH   1   7
BRANCH   4  12
ATOM     12  O   UNL     1      -2.998  45.248  -0.442  1.00  0.00    -0.504 OA
ATOM     13  H   UNL     1      -3.951  45.081  -0.142  1.00  0.00     0.293 HD
ENDBRANCH   4  12
BRANCH   6  14
ATOM     14  O   UNL     1      -0.463  44.489  -1.305  1.00  0.00    -0.504 OA
ATOM     15  H   UNL     1       0.037  45.090  -1.949  1.00  0.00     0.293 HD
ENDBRANCH   6  14
TORSDOF 4
ENDMDL
MODEL 7
REMARK VINA RESULT:    -5.800      2.031      2.598
REMARK INTER + INTRA:          -6.937
REMARK INTER:                  -6.864
REMARK INTRA:                  -0.073
REMARK UNBOUND:                -0.120
REMARK SMILES O=C([O-])C=Cc1ccc(O)c(O)c1
REMARK SMILES IDX 6 1 13 2 7 3 11 4 8 5 9 6 5 7 4 8 2 9 1 10 3 11 12 12 10 14
REMARK H PARENT 12 13 10 15
REMARK Flexibility Score: inf
ROOT
ATOM      1  C   UNL     1      -1.009  45.736   2.497  1.00  0.00    -0.022 A 
ATOM      2  C   UNL     1       0.204  45.173   2.074  1.00  0.00     0.058 A 
ATOM      3  C   UNL     1      -2.056  45.884   1.573  1.00  0.00     0.012 A 
ATOM      4  C   UNL     1       0.390  44.809   0.733  1.00  0.00     0.157 A 
ATOM      5  C   UNL     1      -1.874  45.523   0.235  1.00  0.00     0.051 A 
ATOM      6  C   UNL     1      -0.650  44.989  -0.190  1.00  0.00     0.157 A 
ENDROOT
BRANCH   1   7
ATOM      7  C   UNL     1      -1.197  46.060   3.926  1.00  0.00     0.010 C 
ATOM      8  C   UNL     1      -2.032  45.427   4.764  1.00  0.00     0.025 C 
BRANCH   8   9
ATOM      9  C   UNL     1      -3.038  44.418   4.380  1.00  0.00     0.064 C 
ATOM     10  O   UNL     1      -2.711  43.235   4.099  1.00  0.00    -0.545 OA
ATOM     11  O   UNL     1      -4.367  44.801   4.259  1.00  0.00    -0.545 OA
ENDBRANCH   8   9
ENDBRANCH   1   7
BRANCH   4  12
ATOM     12  O   UNL     1       1.603  44.267   0.309  1.00  0.00    -0.504 OA
ATOM     13  H   UNL     1       2.487  44.701   0.547  1.00  0.00     0.293 HD
ENDBRANCH   4  12
BRANCH   6  14
ATOM     14  O   UNL     1      -0.460  44.630  -1.523  1.00  0.00    -0.504 OA
ATOM     15  H   UNL     1      -0.627  45.286  -2.277  1.00  0.00     0.293 HD
ENDBRANCH   6  14
TORSDOF 4
ENDMDL
MODEL 8
REMARK VINA RESULT:    -5.785      6.584      8.896
REMARK INTER + INTRA:          -6.920
REMARK INTER:                  -6.815
REMARK INTRA:                  -0.105
REMARK UNBOUND:                -0.120
REMARK SMILES O=C([O-])C=Cc1ccc(O)c(O)c1
REMARK SMILES IDX 6 1 13 2 7 3 11 4 8 5 9 6 5 7 4 8 2 9 1 10 3 11 12 12 10 14
REMARK H PARENT 12 13 10 15
REMARK Flexibility Score: inf
ROOT
ATOM      1  C   UNL     1       3.477  43.605  -2.268  1.00  0.00    -0.022 A 
ATOM      2  C   UNL     1       2.616  43.546  -3.373  1.00  0.00     0.058 A 
ATOM      3  C   UNL     1       3.018  44.175  -1.069  1.00  0.00     0.012 A 
ATOM      4  C   UNL     1       1.328  44.095  -3.301  1.00  0.00     0.157 A 
ATOM      5  C   UNL     1       1.735  44.724  -0.994  1.00  0.00     0.051 A 
ATOM      6  C   UNL     1       0.887  44.690  -2.110  1.00  0.00     0.157 A 
ENDROOT
BRANCH   1   7
ATOM      7  C   UNL     1       4.809  42.972  -2.354  1.00  0.00     0.010 C 
ATOM      8  C   UNL     1       5.830  43.408  -3.108  1.00  0.00     0.025 C 
BRANCH   8   9
ATOM      9  C   UNL     1       5.760  44.481  -4.118  1.00  0.00     0.064 C 
ATOM     10  O   UNL     1       5.960  45.687  -3.812  1.00  0.00    -0.545 OA
ATOM     11  O   UNL     1       5.397  44.163  -5.419  1.00  0.00    -0.545 OA
ENDBRANCH   8   9
ENDBRANCH   1   7
BRANCH   4  12
ATOM     12  O   UNL     1       0.479  44.054  -4.406  1.00  0.00    -0.504 OA
ATOM     13  H   UNL     1      -0.518  43.905  -4.303  1.00  0.00     0.293 HD
ENDBRANCH   4  12
BRANCH   6  14
ATOM     14  O   UNL     1      -0.392  45.238  -2.043  1.00  0.00    -0.504 OA
ATOM     15  H   UNL     1      -0.785  45.559  -1.166  1.00  0.00     0.293 HD
ENDBRANCH   6  14
TORSDOF 4
ENDMDL
MODEL 9
REMARK VINA RESULT:    -5.759      2.334      2.839
REMARK INTER + INTRA:          -6.889
REMARK INTER:                  -6.829
REMARK INTRA:                  -0.060
REMARK UNBOUND:                -0.120
REMARK SMILES O=C([O-])C=Cc1ccc(O)c(O)c1
REMARK SMILES IDX 6 1 13 2 7 3 11 4 8 5 9 6 5 7 4 8 2 9 1 10 3 11 12 12 10 14
REMARK H PARENT 12 13 10 15
REMARK Flexibility Score: inf
ROOT
ATOM      1  C   UNL     1      -0.348  45.466   1.637  1.00  0.00    -0.022 A 
ATOM      2  C   UNL     1      -1.191  45.651   0.531  1.00  0.00     0.058 A 
ATOM      3  C   UNL     1       0.928  44.914   1.443  1.00  0.00     0.012 A 
ATOM      4  C   UNL     1      -0.786  45.241  -0.747  1.00  0.00     0.157 A 
ATOM      5  C   UNL     1       1.335  44.504   0.170  1.00  0.00     0.051 A 
ATOM      6  C   UNL     1       0.478  44.662  -0.928  1.00  0.00     0.157 A 
ENDROOT
BRANCH   1   7
ATOM      7  C   UNL     1      -0.778  45.955   2.963  1.00  0.00     0.010 C 
ATOM      8  C   UNL     1      -1.707  45.379   3.741  1.00  0.00     0.025 C 
BRANCH   8   9
ATOM      9  C   UNL     1      -2.593  44.266   3.346  1.00  0.00     0.064 C 
ATOM     10  O   UNL     1      -2.393  43.090   3.750  1.00  0.00    -0.545 OA
ATOM     11  O   UNL     1      -3.628  44.510   2.453  1.00  0.00    -0.545 OA
ENDBRANCH   8   9
ENDBRANCH   1   7
BRANCH   4  12
ATOM     12  O   UNL     1      -1.632  45.407  -1.843  1.00  0.00    -0.504 OA
ATOM     13  H   UNL     1      -1.885  44.628  -2.439  1.00  0.00     0.293 HD
ENDBRANCH   4  12
BRANCH   6  14
ATOM     14  O   UNL     1       0.876  44.254  -2.199  1.00  0.00    -0.504 OA
ATOM     15  H   UNL     1       0.532  43.394  -2.610  1.00  0.00     0.293 HD
ENDBRANCH   6  14
TORSDOF 4
ENDMDL
