MODEL 1
REMARK VINA RESULT:    -3.852      0.000      0.000
REMARK INTER + INTRA:          -8.357
REMARK INTER:                  -6.780
REMARK INTRA:                  -1.577
REMARK UNBOUND:                -1.577
REMARK SMILES CCCCCCC=CCCCCCCCC(=O)[O-]
REMARK SMILES IDX 10 1 11 2 12 3 13 4 14 5 15 6 16 7 17 8 18 9 9 10 8 11 7 12
REMARK SMILES IDX 6 13 5 14 4 15 3 16 2 17 1 18
REMARK H PARENT
REMARK Flexibility Score: inf
ROOT
ATOM      1  C   UNL     1       1.699  -6.896  -7.305  1.00  0.00     0.004 C 
ENDROOT
BRANCH   1   2
ATOM      2  C   UNL     1       1.450  -6.229  -8.669  1.00  0.00     0.000 C 
BRANCH   2   3
ATOM      3  C   UNL     1       1.774  -4.726  -8.665  1.00  0.00     0.000 C 
BRANCH   3   4
ATOM      4  C   UNL     1       2.202  -4.156  -7.300  1.00  0.00     0.000 C 
BRANCH   4   5
ATOM      5  C   UNL     1       3.569  -3.438  -7.325  1.00  0.00     0.006 C 
BRANCH   5   6
ATOM      6  C   UNL     1       3.532  -2.089  -6.593  1.00  0.00     0.053 C 
BRANCH   6   7
ATOM      7  C   UNL     1       2.613  -1.139  -7.292  1.00  0.00     0.041 C 
ATOM      8  O   UNL     1       2.926  -0.666  -8.416  1.00  0.00    -0.550 OA
ATOM      9  O   UNL     1       1.388  -0.813  -6.725  1.00  0.00    -0.550 OA
ENDBRANCH   6   7
ENDBRANCH   5   6
ENDBRANCH   4   5
ENDBRANCH   3   4
ENDBRANCH   2   3
ENDBRANCH   1   2
BRANCH   1  10
ATOM     10  C   UNL     1       2.807  -7.954  -7.374  1.00  0.00     0.027 C 
BRANCH  10  11
ATOM     11  C   UNL     1       4.083  -7.462  -6.745  1.00  0.00    -0.031 C 
ATOM     12  C   UNL     1       4.127  -7.058  -5.467  1.00  0.00    -0.031 C 
BRANCH  12  13
ATOM     13  C   UNL     1       5.411  -6.613  -4.820  1.00  0.00     0.027 C 
BRANCH  13  14
ATOM     14  C   UNL     1       5.677  -5.115  -5.046  1.00  0.00     0.004 C 
BRANCH  14  15
ATOM     15  C   UNL     1       5.917  -4.320  -3.748  1.00  0.00     0.000 C 
BRANCH  15  16
ATOM     16  C   UNL     1       6.007  -2.790  -3.915  1.00  0.00    -0.000 C 
BRANCH  16  17
ATOM     17  C   UNL     1       7.193  -2.125  -3.195  1.00  0.00    -0.003 C 
ATOM     18  C   UNL     1       8.307  -3.111  -2.846  1.00  0.00     0.004 C 
ENDBRANCH  16  17
ENDBRANCH  15  16
ENDBRANCH  14  15
ENDBRANCH  13  14
ENDBRANCH  12  13
ENDBRANCH  10  11
ENDBRANCH   1  10
TORSDOF 13
ENDMDL
MODEL 2
REMARK VINA RESULT:    -3.766      0.731      1.457
REMARK INTER + INTRA:          -8.204
REMARK INTER:                  -6.492
REMARK INTRA:                  -1.712
REMARK UNBOUND:                -1.577
REMARK SMILES CCCCCCC=CCCCCCCCC(=O)[O-]
REMARK SMILES IDX 10 1 11 2 12 3 13 4 14 5 15 6 16 7 17 8 18 9 9 10 8 11 7 12
REMARK SMILES IDX 6 13 5 14 4 15 3 16 2 17 1 18
REMARK H PARENT
REMARK Flexibility Score: inf
ROOT
ATOM      1  C   UNL     1       3.006  -7.668  -7.249  1.00  0.00     0.004 C 
ENDROOT
BRANCH   1   2
ATOM      2  C   UNL     1       1.816  -6.696  -7.293  1.00  0.00     0.000 C 
BRANCH   2   3
ATOM      3  C   UNL     1       2.125  -5.409  -8.077  1.00  0.00     0.000 C 
BRANCH   3   4
ATOM      4  C   UNL     1       2.095  -4.115  -7.241  1.00  0.00     0.000 C 
BRANCH   4   5
ATOM      5  C   UNL     1       3.369  -3.255  -7.379  1.00  0.00     0.006 C 
BRANCH   5   6
ATOM      6  C   UNL     1       3.235  -1.897  -6.677  1.00  0.00     0.053 C 
BRANCH   6   7
ATOM      7  C   UNL     1       2.159  -1.080  -7.319  1.00  0.00     0.041 C 
ATOM      8  O   UNL     1       1.127  -0.769  -6.668  1.00  0.00    -0.550 OA
ATOM      9  O   UNL     1       2.318  -0.620  -8.619  1.00  0.00    -0.550 OA
ENDBRANCH   6   7
ENDBRANCH   5   6
ENDBRANCH   4   5
ENDBRANCH   3   4
ENDBRANCH   2   3
ENDBRANCH   1   2
BRANCH   1  10
ATOM     10  C   UNL     1       3.618  -7.769  -5.847  1.00  0.00     0.027 C 
BRANCH  10  11
ATOM     11  C   UNL     1       4.358  -6.513  -5.472  1.00  0.00    -0.031 C 
ATOM     12  C   UNL     1       5.538  -6.201  -6.027  1.00  0.00    -0.031 C 
BRANCH  12  13
ATOM     13  C   UNL     1       6.258  -4.921  -5.693  1.00  0.00     0.027 C 
BRANCH  13  14
ATOM     14  C   UNL     1       5.735  -4.295  -4.389  1.00  0.00     0.004 C 
BRANCH  14  15
ATOM     15  C   UNL     1       5.972  -2.775  -4.288  1.00  0.00     0.000 C 
BRANCH  15  16
ATOM     16  C   UNL     1       6.921  -2.328  -3.158  1.00  0.00    -0.000 C 
BRANCH  16  17
ATOM     17  C   UNL     1       8.317  -1.873  -3.621  1.00  0.00    -0.003 C 
ATOM     18  C   UNL     1       9.369  -2.975  -3.507  1.00  0.00     0.004 C 
ENDBRANCH  16  17
ENDBRANCH  15  16
ENDBRANCH  14  15
ENDBRANCH  13  14
ENDBRANCH  12  13
ENDBRANCH  10  11
ENDBRANCH   1  10
TORSDOF 13
ENDMDL
MODEL 3
REMARK VINA RESULT:    -3.751      2.602      6.033
REMARK INTER + INTRA:          -8.179
REMARK INTER:                  -6.578
REMARK INTRA:                  -1.601
REMARK UNBOUND:                -1.577
REMARK SMILES CCCCCCC=CCCCCCCCC(=O)[O-]
REMARK SMILES IDX 10 1 11 2 12 3 13 4 14 5 15 6 16 7 17 8 18 9 9 10 8 11 7 12
REMARK SMILES IDX 6 13 5 14 4 15 3 16 2 17 1 18
REMARK H PARENT
REMARK Flexibility Score: inf
ROOT
ATOM      1  C   UNL     1       3.466  -5.874  -7.739  1.00  0.00     0.004 C 
ENDROOT
BRANCH   1   2
ATOM      2  C   UNL     1       3.480  -7.047  -6.745  1.00  0.00     0.000 C 
BRANCH   2   3
ATOM      3  C   UNL     1       4.302  -6.747  -5.480  1.00  0.00     0.000 C 
BRANCH   3   4
ATOM      4  C   UNL     1       5.361  -5.640  -5.640  1.00  0.00     0.000 C 
BRANCH   4   5
ATOM      5  C   UNL     1       5.861  -5.058  -4.301  1.00  0.00     0.006 C 
BRANCH   5   6
ATOM      6  C   UNL     1       6.790  -3.852  -4.499  1.00  0.00     0.053 C 
BRANCH   6   7
ATOM      7  C   UNL     1       6.366  -2.715  -3.626  1.00  0.00     0.041 C 
ATOM      8  O   UNL     1       7.001  -2.456  -2.569  1.00  0.00    -0.550 OA
ATOM      9  O   UNL     1       5.300  -1.908  -4.004  1.00  0.00    -0.550 OA
ENDBRANCH   6   7
ENDBRANCH   5   6
ENDBRANCH   4   5
ENDBRANCH   3   4
ENDBRANCH   2   3
ENDBRANCH   1   2
BRANCH   1  10
ATOM     10  C   UNL     1       2.100  -5.180  -7.793  1.00  0.00     0.027 C 
BRANCH  10  11
ATOM     11  C   UNL     1       2.123  -3.854  -7.083  1.00  0.00    -0.031 C 
ATOM     12  C   UNL     1       2.971  -2.879  -7.441  1.00  0.00    -0.031 C 
BRANCH  12  13
ATOM     13  C   UNL     1       2.963  -1.533  -6.766  1.00  0.00     0.027 C 
BRANCH  13  14
ATOM     14  C   UNL     1       1.734  -0.700  -7.166  1.00  0.00     0.004 C 
BRANCH  14  15
ATOM     15  C   UNL     1       1.587  -0.493  -8.687  1.00  0.00     0.000 C 
BRANCH  15  16
ATOM     16  C   UNL     1       0.149  -0.592  -9.232  1.00  0.00    -0.000 C 
BRANCH  16  17
ATOM     17  C   UNL     1      -0.622  -1.856  -8.813  1.00  0.00    -0.003 C 
ATOM     18  C   UNL     1      -0.359  -3.046  -9.734  1.00  0.00     0.004 C 
ENDBRANCH  16  17
ENDBRANCH  15  16
ENDBRANCH  14  15
ENDBRANCH  13  14
ENDBRANCH  12  13
ENDBRANCH  10  11
ENDBRANCH   1  10
TORSDOF 13
ENDMDL
MODEL 4
REMARK VINA RESULT:    -3.717      2.817      5.910
REMARK INTER + INTRA:          -8.119
REMARK INTER:                  -6.430
REMARK INTRA:                  -1.689
REMARK UNBOUND:                -1.577
REMARK SMILES CCCCCCC=CCCCCCCCC(=O)[O-]
REMARK SMILES IDX 10 1 11 2 12 3 13 4 14 5 15 6 16 7 17 8 18 9 9 10 8 11 7 12
REMARK SMILES IDX 6 13 5 14 4 15 3 16 2 17 1 18
REMARK H PARENT
REMARK Flexibility Score: inf
ROOT
ATOM      1  C   UNL     1       3.863  -6.651  -6.989  1.00  0.00     0.004 C 
ENDROOT
BRANCH   1   2
ATOM      2  C   UNL     1       4.253  -6.901  -5.523  1.00  0.00     0.000 C 
BRANCH   2   3
ATOM      3  C   UNL     1       5.630  -6.317  -5.165  1.00  0.00     0.000 C 
BRANCH   3   4
ATOM      4  C   UNL     1       5.594  -4.951  -4.454  1.00  0.00     0.000 C 
BRANCH   4   5
ATOM      5  C   UNL     1       5.782  -3.750  -5.405  1.00  0.00     0.006 C 
BRANCH   5   6
ATOM      6  C   UNL     1       5.829  -2.413  -4.653  1.00  0.00     0.053 C 
BRANCH   6   7
ATOM      7  C   UNL     1       7.115  -2.279  -3.901  1.00  0.00     0.041 C 
ATOM      8  O   UNL     1       8.168  -1.940  -4.503  1.00  0.00    -0.550 OA
ATOM      9  O   UNL     1       7.141  -2.479  -2.527  1.00  0.00    -0.550 OA
ENDBRANCH   6   7
ENDBRANCH   5   6
ENDBRANCH   4   5
ENDBRANCH   3   4
ENDBRANCH   2   3
ENDBRANCH   1   2
BRANCH   1  10
ATOM     10  C   UNL     1       2.501  -5.958  -7.115  1.00  0.00     0.027 C 
BRANCH  10  11
ATOM     11  C   UNL     1       2.641  -4.459  -7.129  1.00  0.00    -0.031 C 
ATOM     12  C   UNL     1       3.369  -3.830  -8.062  1.00  0.00    -0.031 C 
BRANCH  12  13
ATOM     13  C   UNL     1       3.471  -2.329  -8.110  1.00  0.00     0.027 C 
BRANCH  13  14
ATOM     14  C   UNL     1       2.892  -1.675  -6.843  1.00  0.00     0.004 C 
BRANCH  14  15
ATOM     15  C   UNL     1       1.676  -0.767  -7.109  1.00  0.00     0.000 C 
BRANCH  15  16
ATOM     16  C   UNL     1       1.114  -0.817  -8.544  1.00  0.00    -0.000 C 
BRANCH  16  17
ATOM     17  C   UNL     1      -0.229  -1.554  -8.694  1.00  0.00    -0.003 C 
ATOM     18  C   UNL     1      -1.256  -0.760  -9.499  1.00  0.00     0.004 C 
ENDBRANCH  16  17
ENDBRANCH  15  16
ENDBRANCH  14  15
ENDBRANCH  13  14
ENDBRANCH  12  13
ENDBRANCH  10  11
ENDBRANCH   1  10
TORSDOF 13
ENDMDL
MODEL 5
REMARK VINA RESULT:    -3.670      1.276      2.224
REMARK INTER + INTRA:          -8.036
REMARK INTER:                  -6.270
REMARK INTRA:                  -1.766
REMARK UNBOUND:                -1.577
REMARK SMILES CCCCCCC=CCCCCCCCC(=O)[O-]
REMARK SMILES IDX 10 1 11 2 12 3 13 4 14 5 15 6 16 7 17 8 18 9 9 10 8 11 7 12
REMARK SMILES IDX 6 13 5 14 4 15 3 16 2 17 1 18
REMARK H PARENT
REMARK Flexibility Score: inf
ROOT
ATOM      1  C   UNL     1       3.304  -7.699  -5.873  1.00  0.00     0.004 C 
ENDROOT
BRANCH   1   2
ATOM      2  C   UNL     1       2.950  -7.439  -7.347  1.00  0.00     0.000 C 
BRANCH   2   3
ATOM      3  C   UNL     1       1.709  -6.545  -7.512  1.00  0.00     0.000 C 
BRANCH   3   4
ATOM      4  C   UNL     1       1.944  -5.248  -8.310  1.00  0.00     0.000 C 
BRANCH   4   5
ATOM      5  C   UNL     1       1.919  -3.971  -7.442  1.00  0.00     0.006 C 
BRANCH   5   6
ATOM      6  C   UNL     1       2.009  -2.692  -8.286  1.00  0.00     0.053 C 
BRANCH   6   7
ATOM      7  C   UNL     1       1.048  -1.663  -7.781  1.00  0.00     0.041 C 
ATOM      8  O   UNL     1       1.236  -1.114  -6.663  1.00  0.00    -0.550 OA
ATOM      9  O   UNL     1      -0.029  -1.273  -8.567  1.00  0.00    -0.550 OA
ENDBRANCH   6   7
ENDBRANCH   5   6
ENDBRANCH   4   5
ENDBRANCH   3   4
ENDBRANCH   2   3
ENDBRANCH   1   2
BRANCH   1  10
ATOM     10  C   UNL     1       4.666  -7.105  -5.494  1.00  0.00     0.027 C 
BRANCH  10  11
ATOM     11  C   UNL     1       4.717  -5.623  -5.755  1.00  0.00    -0.031 C 
ATOM     12  C   UNL     1       5.657  -5.079  -6.541  1.00  0.00    -0.031 C 
BRANCH  12  13
ATOM     13  C   UNL     1       5.681  -3.605  -6.844  1.00  0.00     0.027 C 
BRANCH  13  14
ATOM     14  C   UNL     1       5.003  -2.781  -5.736  1.00  0.00     0.004 C 
BRANCH  14  15
ATOM     15  C   UNL     1       5.981  -2.230  -4.681  1.00  0.00     0.000 C 
BRANCH  15  16
ATOM     16  C   UNL     1       6.129  -3.083  -3.406  1.00  0.00    -0.000 C 
BRANCH  16  17
ATOM     17  C   UNL     1       7.544  -3.631  -3.149  1.00  0.00    -0.003 C 
ATOM     18  C   UNL     1       8.637  -2.587  -3.375  1.00  0.00     0.004 C 
ENDBRANCH  16  17
ENDBRANCH  15  16
ENDBRANCH  14  15
ENDBRANCH  13  14
ENDBRANCH  12  13
ENDBRANCH  10  11
ENDBRANCH   1  10
TORSDOF 13
ENDMDL
MODEL 6
REMARK VINA RESULT:    -3.650      1.693      3.613
REMARK INTER + INTRA:          -8.001
REMARK INTER:                  -6.055
REMARK INTRA:                  -1.946
REMARK UNBOUND:                -1.577
REMARK SMILES CCCCCCC=CCCCCCCCC(=O)[O-]
REMARK SMILES IDX 10 1 11 2 12 3 13 4 14 5 15 6 16 7 17 8 18 9 9 10 8 11 7 12
REMARK SMILES IDX 6 13 5 14 4 15 3 16 2 17 1 18
REMARK H PARENT
REMARK Flexibility Score: inf
ROOT
ATOM      1  C   UNL     1       5.900  -6.715  -5.144  1.00  0.00     0.004 C 
ENDROOT
BRANCH   1   2
ATOM      2  C   UNL     1       4.404  -7.002  -5.359  1.00  0.00     0.000 C 
BRANCH   2   3
ATOM      3  C   UNL     1       3.757  -6.054  -6.383  1.00  0.00     0.000 C 
BRANCH   3   4
ATOM      4  C   UNL     1       4.458  -4.692  -6.543  1.00  0.00     0.000 C 
BRANCH   4   5
ATOM      5  C   UNL     1       3.882  -3.826  -7.684  1.00  0.00     0.006 C 
BRANCH   5   6
ATOM      6  C   UNL     1       3.593  -2.387  -7.236  1.00  0.00     0.053 C 
BRANCH   6   7
ATOM      7  C   UNL     1       2.121  -2.172  -7.083  1.00  0.00     0.041 C 
ATOM      8  O   UNL     1       1.326  -3.145  -7.169  1.00  0.00    -0.550 OA
ATOM      9  O   UNL     1       1.630  -0.905  -6.796  1.00  0.00    -0.550 OA
ENDBRANCH   6   7
ENDBRANCH   5   6
ENDBRANCH   4   5
ENDBRANCH   3   4
ENDBRANCH   2   3
ENDBRANCH   1   2
BRANCH   1  10
ATOM     10  C   UNL     1       6.204  -6.282  -3.705  1.00  0.00     0.027 C 
BRANCH  10  11
ATOM     11  C   UNL     1       6.692  -4.859  -3.645  1.00  0.00    -0.031 C 
ATOM     12  C   UNL     1       5.851  -3.835  -3.444  1.00  0.00    -0.031 C 
BRANCH  12  13
ATOM     13  C   UNL     1       6.341  -2.416  -3.334  1.00  0.00     0.027 C 
BRANCH  13  14
ATOM     14  C   UNL     1       7.877  -2.337  -3.366  1.00  0.00     0.004 C 
BRANCH  14  15
ATOM     15  C   UNL     1       8.429  -1.353  -4.416  1.00  0.00     0.000 C 
BRANCH  15  16
ATOM     16  C   UNL     1       8.892  -1.990  -5.742  1.00  0.00    -0.000 C 
BRANCH  16  17
ATOM     17  C   UNL     1       7.763  -2.548  -6.626  1.00  0.00    -0.003 C 
ATOM     18  C   UNL     1       7.979  -4.010  -7.014  1.00  0.00     0.004 C 
ENDBRANCH  16  17
ENDBRANCH  15  16
ENDBRANCH  14  15
ENDBRANCH  13  14
ENDBRANCH  12  13
ENDBRANCH  10  11
ENDBRANCH   1  10
TORSDOF 13
ENDMDL
MODEL 7
REMARK VINA RESULT:    -3.532      1.570      2.055
REMARK INTER + INTRA:          -7.792
REMARK INTER:                  -6.180
REMARK INTRA:                  -1.612
REMARK UNBOUND:                -1.577
REMARK SMILES CCCCCCC=CCCCCCCCC(=O)[O-]
REMARK SMILES IDX 10 1 11 2 12 3 13 4 14 5 15 6 16 7 17 8 18 9 9 10 8 11 7 12
REMARK SMILES IDX 6 13 5 14 4 15 3 16 2 17 1 18
REMARK H PARENT
REMARK Flexibility Score: inf
ROOT
ATOM      1  C   UNL     1       3.169  -6.974  -6.583  1.00  0.00     0.004 C 
ENDROOT
BRANCH   1   2
ATOM      2  C   UNL     1       3.985  -5.708  -6.271  1.00  0.00     0.000 C 
BRANCH   2   3
ATOM      3  C   UNL     1       4.531  -5.025  -7.537  1.00  0.00     0.000 C 
BRANCH   3   4
ATOM      4  C   UNL     1       5.204  -3.660  -7.299  1.00  0.00     0.000 C 
BRANCH   4   5
ATOM      5  C   UNL     1       4.302  -2.638  -6.575  1.00  0.00     0.006 C 
BRANCH   5   6
ATOM      6  C   UNL     1       3.385  -1.880  -7.544  1.00  0.00     0.053 C 
BRANCH   6   7
ATOM      7  C   UNL     1       1.949  -2.118  -7.201  1.00  0.00     0.041 C 
ATOM      8  O   UNL     1       1.514  -3.293  -7.075  1.00  0.00    -0.550 OA
ATOM      9  O   UNL     1       1.101  -1.042  -6.971  1.00  0.00    -0.550 OA
ENDBRANCH   6   7
ENDBRANCH   5   6
ENDBRANCH   4   5
ENDBRANCH   3   4
ENDBRANCH   2   3
ENDBRANCH   1   2
BRANCH   1  10
ATOM     10  C   UNL     1       3.619  -8.173  -5.740  1.00  0.00     0.027 C 
BRANCH  10  11
ATOM     11  C   UNL     1       4.635  -7.772  -4.704  1.00  0.00    -0.031 C 
ATOM     12  C   UNL     1       5.919  -8.145  -4.798  1.00  0.00    -0.031 C 
BRANCH  12  13
ATOM     13  C   UNL     1       6.948  -7.704  -3.792  1.00  0.00     0.027 C 
BRANCH  13  14
ATOM     14  C   UNL     1       6.527  -6.412  -3.070  1.00  0.00     0.004 C 
BRANCH  14  15
ATOM     15  C   UNL     1       6.908  -5.123  -3.824  1.00  0.00     0.000 C 
BRANCH  15  16
ATOM     16  C   UNL     1       5.936  -3.940  -3.646  1.00  0.00    -0.000 C 
BRANCH  16  17
ATOM     17  C   UNL     1       6.591  -2.615  -3.220  1.00  0.00    -0.003 C 
ATOM     18  C   UNL     1       8.115  -2.704  -3.142  1.00  0.00     0.004 C 
ENDBRANCH  16  17
ENDBRANCH  15  16
ENDBRANCH  14  15
ENDBRANCH  13  14
ENDBRANCH  12  13
ENDBRANCH  10  11
ENDBRANCH   1  10
TORSDOF 13
ENDMDL
MODEL 8
REMARK VINA RESULT:    -3.494      2.390      5.436
REMARK INTER + INTRA:          -7.727
REMARK INTER:                  -6.285
REMARK INTRA:                  -1.442
REMARK UNBOUND:                -1.577
REMARK SMILES CCCCCCC=CCCCCCCCC(=O)[O-]
REMARK SMILES IDX 10 1 11 2 12 3 13 4 14 5 15 6 16 7 17 8 18 9 9 10 8 11 7 12
REMARK SMILES IDX 6 13 5 14 4 15 3 16 2 17 1 18
REMARK H PARENT
REMARK Flexibility Score: inf
ROOT
ATOM      1  C   UNL     1       3.163  -7.030  -7.321  1.00  0.00     0.004 C 
ENDROOT
BRANCH   1   2
ATOM      2  C   UNL     1       3.610  -7.245  -5.866  1.00  0.00     0.000 C 
BRANCH   2   3
ATOM      3  C   UNL     1       4.926  -6.519  -5.533  1.00  0.00     0.000 C 
BRANCH   3   4
ATOM      4  C   UNL     1       5.033  -5.084  -6.082  1.00  0.00     0.000 C 
BRANCH   4   5
ATOM      5  C   UNL     1       6.189  -4.267  -5.467  1.00  0.00     0.006 C 
BRANCH   5   6
ATOM      6  C   UNL     1       6.124  -4.229  -3.934  1.00  0.00     0.053 C 
BRANCH   6   7
ATOM      7  C   UNL     1       6.140  -2.816  -3.444  1.00  0.00     0.041 C 
ATOM      8  O   UNL     1       6.960  -2.462  -2.556  1.00  0.00    -0.550 OA
ATOM      9  O   UNL     1       5.282  -1.877  -4.002  1.00  0.00    -0.550 OA
ENDBRANCH   6   7
ENDBRANCH   5   6
ENDBRANCH   4   5
ENDBRANCH   3   4
ENDBRANCH   2   3
ENDBRANCH   1   2
BRANCH   1  10
ATOM     10  C   UNL     1       1.724  -6.507  -7.412  1.00  0.00     0.027 C 
BRANCH  10  11
ATOM     11  C   UNL     1       1.679  -5.095  -7.929  1.00  0.00    -0.031 C 
ATOM     12  C   UNL     1       1.431  -4.826  -9.219  1.00  0.00    -0.031 C 
BRANCH  12  13
ATOM     13  C   UNL     1       1.335  -3.413  -9.731  1.00  0.00     0.027 C 
BRANCH  13  14
ATOM     14  C   UNL     1       0.252  -2.609  -8.990  1.00  0.00     0.004 C 
BRANCH  14  15
ATOM     15  C   UNL     1       0.418  -1.081  -9.110  1.00  0.00     0.000 C 
BRANCH  15  16
ATOM     16  C   UNL     1       1.701  -0.504  -8.482  1.00  0.00    -0.000 C 
BRANCH  16  17
ATOM     17  C   UNL     1       1.966  -0.935  -7.028  1.00  0.00    -0.003 C 
ATOM     18  C   UNL     1       3.229  -1.781  -6.879  1.00  0.00     0.004 C 
ENDBRANCH  16  17
ENDBRANCH  15  16
ENDBRANCH  14  15
ENDBRANCH  13  14
ENDBRANCH  12  13
ENDBRANCH  10  11
ENDBRANCH   1  10
TORSDOF 13
ENDMDL
MODEL 9
REMARK VINA RESULT:    -3.445     13.839     16.454
REMARK INTER + INTRA:          -7.640
REMARK INTER:                  -5.505
REMARK INTRA:                  -2.136
REMARK UNBOUND:                -1.577
REMARK SMILES CCCCCCC=CCCCCCCCC(=O)[O-]
REMARK SMILES IDX 10 1 11 2 12 3 13 4 14 5 15 6 16 7 17 8 18 9 9 10 8 11 7 12
REMARK SMILES IDX 6 13 5 14 4 15 3 16 2 17 1 18
REMARK H PARENT
REMARK Flexibility Score: inf
ROOT
ATOM      1  C   UNL     1      -4.034   6.592   3.958  1.00  0.00     0.004 C 
ENDROOT
BRANCH   1   2
ATOM      2  C   UNL     1      -2.795   7.439   4.293  1.00  0.00     0.000 C 
BRANCH   2   3
ATOM      3  C   UNL     1      -1.768   7.471   3.148  1.00  0.00     0.000 C 
BRANCH   3   4
ATOM      4  C   UNL     1      -1.726   8.788   2.349  1.00  0.00     0.000 C 
BRANCH   4   5
ATOM      5  C   UNL     1      -2.197   8.643   0.886  1.00  0.00     0.006 C 
BRANCH   5   6
ATOM      6  C   UNL     1      -1.105   8.066  -0.024  1.00  0.00     0.053 C 
BRANCH   6   7
ATOM      7  C   UNL     1      -1.566   6.788  -0.651  1.00  0.00     0.041 C 
ATOM      8  O   UNL     1      -1.920   6.768  -1.859  1.00  0.00    -0.550 OA
ATOM      9  O   UNL     1      -1.557   5.610   0.084  1.00  0.00    -0.550 OA
ENDBRANCH   6   7
ENDBRANCH   5   6
ENDBRANCH   4   5
ENDBRANCH   3   4
ENDBRANCH   2   3
ENDBRANCH   1   2
BRANCH   1  10
ATOM     10  C   UNL     1      -5.183   7.445   3.406  1.00  0.00     0.027 C 
BRANCH  10  11
ATOM     11  C   UNL     1      -5.539   7.051   1.998  1.00  0.00    -0.031 C 
ATOM     12  C   UNL     1      -4.800   6.173   1.305  1.00  0.00    -0.031 C 
BRANCH  12  13
ATOM     13  C   UNL     1      -5.181   5.739  -0.085  1.00  0.00     0.027 C 
BRANCH  13  14
ATOM     14  C   UNL     1      -5.436   4.223  -0.162  1.00  0.00     0.004 C 
BRANCH  14  15
ATOM     15  C   UNL     1      -6.922   3.834  -0.034  1.00  0.00     0.000 C 
BRANCH  15  16
ATOM     16  C   UNL     1      -7.929   4.973  -0.289  1.00  0.00    -0.000 C 
BRANCH  16  17
ATOM     17  C   UNL     1      -8.809   5.347   0.917  1.00  0.00    -0.003 C 
ATOM     18  C   UNL     1      -8.367   4.664   2.210  1.00  0.00     0.004 C 
ENDBRANCH  16  17
ENDBRANCH  15  16
ENDBRANCH  14  15
ENDBRANCH  13  14
ENDBRANCH  12  13
ENDBRANCH  10  11
ENDBRANCH   1  10
TORSDOF 13
ENDMDL
