MODEL 1
REMARK VINA RESULT:    -6.604      0.000      0.000
REMARK INTER + INTRA:          -8.283
REMARK INTER:                  -7.955
REMARK INTRA:                  -0.328
REMARK UNBOUND:                -0.328
REMARK SMILES O=c1c(O)c(-c2ccc(O)c(O)c2)oc2cc(O)cc(O)c12
REMARK SMILES IDX 5 1 3 2 2 3 1 4 22 5 20 6 19 7 17 8 16 9 15 10 14 11 6 12
REMARK SMILES IDX 7 13 8 14 9 15 13 16 11 17 10 18 12 20 4 22 21 24 18 26
REMARK H PARENT 10 19 12 21 4 23 21 25 18 27
REMARK Flexibility Score: inf
ROOT
ATOM      1  C   UNL     1     131.199 139.509 146.226  1.00  0.00     0.180 A 
ATOM      2  C   UNL     1     132.470 139.089 145.798  1.00  0.00     0.208 A 
ATOM      3  C   UNL     1     132.747 139.050 144.422  1.00  0.00     0.238 A 
ATOM      4  O   UNL     1     133.904 138.725 144.047  1.00  0.00    -0.285 OA
ATOM      5  C   UNL     1     131.745 139.417 143.491  1.00  0.00     0.111 A 
ATOM      6  C   UNL     1     131.903 139.377 142.073  1.00  0.00     0.134 A 
ATOM      7  C   UNL     1     130.889 139.886 141.251  1.00  0.00     0.093 A 
ATOM      8  C   UNL     1     129.700 140.373 141.792  1.00  0.00     0.123 A 
ATOM      9  C   UNL     1     129.511 140.361 143.174  1.00  0.00     0.094 A 
ATOM     10  C   UNL     1     130.518 139.893 144.022  1.00  0.00     0.146 A 
ATOM     11  O   UNL     1     130.303 139.909 145.332  1.00  0.00    -0.452 OA
ENDROOT
BRANCH   1  12
ATOM     12  C   UNL     1     130.824 139.551 147.658  1.00  0.00     0.025 A 
ATOM     13  C   UNL     1     130.202 138.459 148.284  1.00  0.00     0.016 A 
ATOM     14  C   UNL     1     129.837 138.532 149.629  1.00  0.00     0.051 A 
ATOM     15  C   UNL     1     130.072 139.694 150.372  1.00  0.00     0.157 A 
ATOM     16  C   UNL     1     131.042 140.726 148.395  1.00  0.00     0.062 A 
ATOM     17  C   UNL     1     130.679 140.808 149.746  1.00  0.00     0.158 A 
BRANCH  15  18
ATOM     18  O   UNL     1     129.687 139.700 151.715  1.00  0.00    -0.504 OA
ATOM     19  H   UNL     1     130.223 140.131 152.454  1.00  0.00     0.293 HD
ENDBRANCH  15  18
BRANCH  17  20
ATOM     20  O   UNL     1     130.937 142.004 150.419  1.00  0.00    -0.504 OA
ATOM     21  H   UNL     1     131.245 142.057 151.378  1.00  0.00     0.293 HD
ENDBRANCH  17  20
ENDBRANCH   1  12
BRANCH   2  22
ATOM     22  O   UNL     1     133.452 138.752 146.735  1.00  0.00    -0.502 OA
ATOM     23  H   UNL     1     134.197 138.097 146.530  1.00  0.00     0.293 HD
ENDBRANCH   2  22
BRANCH   6  24
ATOM     24  O   UNL     1     133.014 138.827 141.427  1.00  0.00    -0.507 OA
ATOM     25  H   UNL     1     133.121 137.852 141.196  1.00  0.00     0.293 HD
ENDBRANCH   6  24
BRANCH   8  26
ATOM     26  O   UNL     1     128.707 140.857 140.943  1.00  0.00    -0.508 OA
ATOM     27  H   UNL     1     128.113 140.231 140.412  1.00  0.00     0.293 HD
ENDBRANCH   8  26
TORSDOF 6
ENDMDL
MODEL 2
REMARK VINA RESULT:    -6.526      1.522      6.893
REMARK INTER + INTRA:          -8.189
REMARK INTER:                  -7.958
REMARK INTRA:                  -0.231
REMARK UNBOUND:                -0.328
REMARK SMILES O=c1c(O)c(-c2ccc(O)c(O)c2)oc2cc(O)cc(O)c12
REMARK SMILES IDX 5 1 3 2 2 3 1 4 22 5 20 6 19 7 17 8 16 9 15 10 14 11 6 12
REMARK SMILES IDX 7 13 8 14 9 15 13 16 11 17 10 18 12 20 4 22 21 24 18 26
REMARK H PARENT 10 19 12 21 4 23 21 25 18 27
REMARK Flexibility Score: inf
ROOT
ATOM      1  C   UNL     1     131.105 140.027 146.581  1.00  0.00     0.180 A 
ATOM      2  C   UNL     1     132.186 140.726 147.145  1.00  0.00     0.208 A 
ATOM      3  C   UNL     1     132.186 140.980 148.526  1.00  0.00     0.238 A 
ATOM      4  O   UNL     1     133.183 141.557 149.034  1.00  0.00    -0.285 OA
ATOM      5  C   UNL     1     131.100 140.544 149.323  1.00  0.00     0.111 A 
ATOM      6  C   UNL     1     130.977 140.781 150.726  1.00  0.00     0.134 A 
ATOM      7  C   UNL     1     129.924 140.192 151.435  1.00  0.00     0.093 A 
ATOM      8  C   UNL     1     128.954 139.430 150.785  1.00  0.00     0.123 A 
ATOM      9  C   UNL     1     129.031 139.242 149.405  1.00  0.00     0.094 A 
ATOM     10  C   UNL     1     130.090 139.787 148.674  1.00  0.00     0.146 A 
ATOM     11  O   UNL     1     130.133 139.575 147.364  1.00  0.00    -0.452 OA
ENDROOT
BRANCH   1  12
ATOM     12  C   UNL     1     131.020 139.746 145.129  1.00  0.00     0.025 A 
ATOM     13  C   UNL     1     131.863 138.804 144.517  1.00  0.00     0.016 A 
ATOM     14  C   UNL     1     131.780 138.573 143.142  1.00  0.00     0.051 A 
ATOM     15  C   UNL     1     130.869 139.282 142.352  1.00  0.00     0.157 A 
ATOM     16  C   UNL     1     130.120 140.473 144.336  1.00  0.00     0.062 A 
ATOM     17  C   UNL     1     130.030 140.249 142.956  1.00  0.00     0.158 A 
BRANCH  15  18
ATOM     18  O   UNL     1     130.833 139.000 140.985  1.00  0.00    -0.504 OA
ATOM     19  H   UNL     1     131.476 139.390 140.311  1.00  0.00     0.293 HD
ENDBRANCH  15  18
BRANCH  17  20
ATOM     20  O   UNL     1     129.104 141.001 142.231  1.00  0.00    -0.504 OA
ATOM     21  H   UNL     1     128.994 140.949 141.229  1.00  0.00     0.293 HD
ENDBRANCH  17  20
ENDBRANCH   1  12
BRANCH   2  22
ATOM     22  O   UNL     1     133.259 141.128 146.344  1.00  0.00    -0.502 OA
ATOM     23  H   UNL     1     133.448 140.714 145.440  1.00  0.00     0.293 HD
ENDBRANCH   2  22
BRANCH   6  24
ATOM     24  O   UNL     1     131.841 141.602 151.456  1.00  0.00    -0.507 OA
ATOM     25  H   UNL     1     132.739 141.924 151.132  1.00  0.00     0.293 HD
ENDBRANCH   6  24
BRANCH   8  26
ATOM     26  O   UNL     1     127.911 138.872 151.521  1.00  0.00    -0.508 OA
ATOM     27  H   UNL     1     126.942 139.068 151.298  1.00  0.00     0.293 HD
ENDBRANCH   8  26
TORSDOF 6
ENDMDL
MODEL 3
REMARK VINA RESULT:    -6.498      2.070      6.802
REMARK INTER + INTRA:          -8.156
REMARK INTER:                  -7.848
REMARK INTRA:                  -0.308
REMARK UNBOUND:                -0.328
REMARK SMILES O=c1c(O)c(-c2ccc(O)c(O)c2)oc2cc(O)cc(O)c12
REMARK SMILES IDX 5 1 3 2 2 3 1 4 22 5 20 6 19 7 17 8 16 9 15 10 14 11 6 12
REMARK SMILES IDX 7 13 8 14 9 15 13 16 11 17 10 18 12 20 4 22 21 24 18 26
REMARK H PARENT 10 19 12 21 4 23 21 25 18 27
REMARK Flexibility Score: inf
ROOT
ATOM      1  C   UNL     1     131.758 139.764 146.325  1.00  0.00     0.180 A 
ATOM      2  C   UNL     1     132.792 140.613 146.755  1.00  0.00     0.208 A 
ATOM      3  C   UNL     1     133.234 140.530 148.085  1.00  0.00     0.238 A 
ATOM      4  O   UNL     1     134.197 141.254 148.449  1.00  0.00    -0.285 OA
ATOM      5  C   UNL     1     132.626 139.609 148.973  1.00  0.00     0.111 A 
ATOM      6  C   UNL     1     132.966 139.467 150.352  1.00  0.00     0.134 A 
ATOM      7  C   UNL     1     132.390 138.435 151.102  1.00  0.00     0.093 A 
ATOM      8  C   UNL     1     131.439 137.582 150.543  1.00  0.00     0.123 A 
ATOM      9  C   UNL     1     131.055 137.750 149.213  1.00  0.00     0.094 A 
ATOM     10  C   UNL     1     131.638 138.748 148.428  1.00  0.00     0.146 A 
ATOM     11  O   UNL     1     131.253 138.867 147.163  1.00  0.00    -0.452 OA
ENDROOT
BRANCH   1  12
ATOM     12  C   UNL     1     131.221 139.812 144.946  1.00  0.00     0.025 A 
ATOM     13  C   UNL     1     131.688 138.940 143.949  1.00  0.00     0.016 A 
ATOM     14  C   UNL     1     131.183 139.020 142.650  1.00  0.00     0.051 A 
ATOM     15  C   UNL     1     130.217 139.975 142.316  1.00  0.00     0.157 A 
ATOM     16  C   UNL     1     130.268 140.785 144.609  1.00  0.00     0.062 A 
ATOM     17  C   UNL     1     129.756 140.874 143.308  1.00  0.00     0.158 A 
BRANCH  15  18
ATOM     18  O   UNL     1     129.750 140.000 141.000  1.00  0.00    -0.504 OA
ATOM     19  H   UNL     1     129.358 140.817 140.555  1.00  0.00     0.293 HD
ENDBRANCH  15  18
BRANCH  17  20
ATOM     20  O   UNL     1     128.801 141.858 143.048  1.00  0.00    -0.504 OA
ATOM     21  H   UNL     1     128.926 142.604 142.379  1.00  0.00     0.293 HD
ENDBRANCH  17  20
ENDBRANCH   1  12
BRANCH   2  22
ATOM     22  O   UNL     1     133.394 141.500 145.857  1.00  0.00    -0.502 OA
ATOM     23  H   UNL     1     133.649 142.445 146.114  1.00  0.00     0.293 HD
ENDBRANCH   2  22
BRANCH   6  24
ATOM     24  O   UNL     1     133.837 140.324 151.033  1.00  0.00    -0.507 OA
ATOM     25  H   UNL     1     134.839 140.226 151.055  1.00  0.00     0.293 HD
ENDBRANCH   6  24
BRANCH   8  26
ATOM     26  O   UNL     1     130.875 136.576 151.325  1.00  0.00    -0.508 OA
ATOM     27  H   UNL     1     129.881 136.551 151.518  1.00  0.00     0.293 HD
ENDBRANCH   8  26
TORSDOF 6
ENDMDL
MODEL 4
REMARK VINA RESULT:    -6.397      1.760      7.137
REMARK INTER + INTRA:          -8.034
REMARK INTER:                  -7.703
REMARK INTRA:                  -0.331
REMARK UNBOUND:                -0.328
REMARK SMILES O=c1c(O)c(-c2ccc(O)c(O)c2)oc2cc(O)cc(O)c12
REMARK SMILES IDX 5 1 3 2 2 3 1 4 22 5 20 6 19 7 17 8 16 9 15 10 14 11 6 12
REMARK SMILES IDX 7 13 8 14 9 15 13 16 11 17 10 18 12 20 4 22 21 24 18 26
REMARK H PARENT 10 19 12 21 4 23 21 25 18 27
REMARK Flexibility Score: inf
ROOT
ATOM      1  C   UNL     1     131.168 139.729 147.130  1.00  0.00     0.180 A 
ATOM      2  C   UNL     1     130.513 138.853 148.012  1.00  0.00     0.208 A 
ATOM      3  C   UNL     1     130.552 139.119 149.391  1.00  0.00     0.238 A 
ATOM      4  O   UNL     1     129.917 138.361 150.170  1.00  0.00    -0.285 OA
ATOM      5  C   UNL     1     131.259 140.247 149.871  1.00  0.00     0.111 A 
ATOM      6  C   UNL     1     131.399 140.590 151.250  1.00  0.00     0.134 A 
ATOM      7  C   UNL     1     132.009 141.800 151.602  1.00  0.00     0.093 A 
ATOM      8  C   UNL     1     132.542 142.647 150.631  1.00  0.00     0.123 A 
ATOM      9  C   UNL     1     132.465 142.293 149.284  1.00  0.00     0.094 A 
ATOM     10  C   UNL     1     131.829 141.110 148.899  1.00  0.00     0.146 A 
ATOM     11  O   UNL     1     131.767 140.815 147.606  1.00  0.00    -0.452 OA
ENDROOT
BRANCH   1  12
ATOM     12  C   UNL     1     131.193 139.502 145.667  1.00  0.00     0.025 A 
ATOM     13  C   UNL     1     132.210 138.747 145.062  1.00  0.00     0.016 A 
ATOM     14  C   UNL     1     132.225 138.565 143.678  1.00  0.00     0.051 A 
ATOM     15  C   UNL     1     131.238 139.141 142.871  1.00  0.00     0.157 A 
ATOM     16  C   UNL     1     130.214 140.099 144.859  1.00  0.00     0.062 A 
ATOM     17  C   UNL     1     130.220 139.923 143.469  1.00  0.00     0.158 A 
BRANCH  15  18
ATOM     18  O   UNL     1     131.307 138.918 141.494  1.00  0.00    -0.504 OA
ATOM     19  H   UNL     1     131.825 138.163 141.070  1.00  0.00     0.293 HD
ENDBRANCH  15  18
BRANCH  17  20
ATOM     20  O   UNL     1     129.208 140.536 142.729  1.00  0.00    -0.504 OA
ATOM     21  H   UNL     1     128.667 141.324 143.055  1.00  0.00     0.293 HD
ENDBRANCH  17  20
ENDBRANCH   1  12
BRANCH   2  22
ATOM     22  O   UNL     1     129.801 137.756 147.516  1.00  0.00    -0.502 OA
ATOM     23  H   UNL     1     129.314 137.780 146.628  1.00  0.00     0.293 HD
ENDBRANCH   2  22
BRANCH   6  24
ATOM     24  O   UNL     1     130.982 139.771 152.303  1.00  0.00    -0.507 OA
ATOM     25  H   UNL     1     131.584 139.150 152.821  1.00  0.00     0.293 HD
ENDBRANCH   6  24
BRANCH   8  26
ATOM     26  O   UNL     1     133.157 143.836 151.019  1.00  0.00    -0.508 OA
ATOM     27  H   UNL     1     132.616 144.663 151.242  1.00  0.00     0.293 HD
ENDBRANCH   8  26
TORSDOF 6
ENDMDL
MODEL 5
REMARK VINA RESULT:    -6.340      2.498      6.788
REMARK INTER + INTRA:          -7.965
REMARK INTER:                  -7.673
REMARK INTRA:                  -0.292
REMARK UNBOUND:                -0.328
REMARK SMILES O=c1c(O)c(-c2ccc(O)c(O)c2)oc2cc(O)cc(O)c12
REMARK SMILES IDX 5 1 3 2 2 3 1 4 22 5 20 6 19 7 17 8 16 9 15 10 14 11 6 12
REMARK SMILES IDX 7 13 8 14 9 15 13 16 11 17 10 18 12 20 4 22 21 24 18 26
REMARK H PARENT 10 19 12 21 4 23 21 25 18 27
REMARK Flexibility Score: inf
ROOT
ATOM      1  C   UNL     1     131.670 140.077 145.694  1.00  0.00     0.180 A 
ATOM      2  C   UNL     1     131.206 139.246 146.728  1.00  0.00     0.208 A 
ATOM      3  C   UNL     1     131.989 139.096 147.884  1.00  0.00     0.238 A 
ATOM      4  O   UNL     1     131.543 138.394 148.829  1.00  0.00    -0.285 OA
ATOM      5  C   UNL     1     133.232 139.766 147.985  1.00  0.00     0.111 A 
ATOM      6  C   UNL     1     134.126 139.654 149.093  1.00  0.00     0.134 A 
ATOM      7  C   UNL     1     135.267 140.464 149.144  1.00  0.00     0.093 A 
ATOM      8  C   UNL     1     135.581 141.332 148.099  1.00  0.00     0.123 A 
ATOM      9  C   UNL     1     134.747 141.404 146.983  1.00  0.00     0.094 A 
ATOM     10  C   UNL     1     133.581 140.636 146.920  1.00  0.00     0.146 A 
ATOM     11  O   UNL     1     132.808 140.743 145.846  1.00  0.00    -0.452 OA
ENDROOT
BRANCH   1  12
ATOM     12  C   UNL     1     130.913 140.265 144.435  1.00  0.00     0.025 A 
ATOM     13  C   UNL     1     129.822 141.144 144.362  1.00  0.00     0.016 A 
ATOM     14  C   UNL     1     129.109 141.287 143.169  1.00  0.00     0.051 A 
ATOM     15  C   UNL     1     129.462 140.549 142.034  1.00  0.00     0.157 A 
ATOM     16  C   UNL     1     131.256 139.507 143.304  1.00  0.00     0.062 A 
ATOM     17  C   UNL     1     130.547 139.642 142.103  1.00  0.00     0.158 A 
BRANCH  15  18
ATOM     18  O   UNL     1     128.712 140.740 140.872  1.00  0.00    -0.504 OA
ATOM     19  H   UNL     1     129.113 140.849 139.952  1.00  0.00     0.293 HD
ENDBRANCH  15  18
BRANCH  17  20
ATOM     20  O   UNL     1     130.951 138.865 141.016  1.00  0.00    -0.504 OA
ATOM     21  H   UNL     1     130.360 138.647 140.227  1.00  0.00     0.293 HD
ENDBRANCH  17  20
ENDBRANCH   1  12
BRANCH   2  22
ATOM     22  O   UNL     1     129.966 138.610 146.618  1.00  0.00    -0.502 OA
ATOM     23  H   UNL     1     129.868 137.666 146.267  1.00  0.00     0.293 HD
ENDBRANCH   2  22
BRANCH   6  24
ATOM     24  O   UNL     1     133.952 138.752 150.147  1.00  0.00    -0.507 OA
ATOM     25  H   UNL     1     133.119 138.208 150.307  1.00  0.00     0.293 HD
ENDBRANCH   6  24
BRANCH   8  26
ATOM     26  O   UNL     1     136.734 142.111 148.176  1.00  0.00    -0.508 OA
ATOM     27  H   UNL     1     137.626 141.771 147.837  1.00  0.00     0.293 HD
ENDBRANCH   8  26
TORSDOF 6
ENDMDL
MODEL 6
REMARK VINA RESULT:    -6.321      2.452      6.901
REMARK INTER + INTRA:          -7.942
REMARK INTER:                  -7.628
REMARK INTRA:                  -0.313
REMARK UNBOUND:                -0.328
REMARK SMILES O=c1c(O)c(-c2ccc(O)c(O)c2)oc2cc(O)cc(O)c12
REMARK SMILES IDX 5 1 3 2 2 3 1 4 22 5 20 6 19 7 17 8 16 9 15 10 14 11 6 12
REMARK SMILES IDX 7 13 8 14 9 15 13 16 11 17 10 18 12 20 4 22 21 24 18 26
REMARK H PARENT 10 19 12 21 4 23 21 25 18 27
REMARK Flexibility Score: inf
ROOT
ATOM      1  C   UNL     1     131.659 139.750 146.355  1.00  0.00     0.180 A 
ATOM      2  C   UNL     1     130.957 139.090 147.378  1.00  0.00     0.208 A 
ATOM      3  C   UNL     1     131.499 139.069 148.673  1.00  0.00     0.238 A 
ATOM      4  O   UNL     1     130.839 138.524 149.596  1.00  0.00    -0.285 OA
ATOM      5  C   UNL     1     132.744 139.694 148.926  1.00  0.00     0.111 A 
ATOM      6  C   UNL     1     133.407 139.700 150.190  1.00  0.00     0.134 A 
ATOM      7  C   UNL     1     134.571 140.460 150.356  1.00  0.00     0.093 A 
ATOM      8  C   UNL     1     135.132 141.161 149.289  1.00  0.00     0.123 A 
ATOM      9  C   UNL     1     134.526 141.113 148.034  1.00  0.00     0.094 A 
ATOM     10  C   UNL     1     133.343 140.393 147.845  1.00  0.00     0.146 A 
ATOM     11  O   UNL     1     132.792 140.383 146.638  1.00  0.00    -0.452 OA
ENDROOT
BRANCH   1  12
ATOM     12  C   UNL     1     131.164 139.793 144.960  1.00  0.00     0.025 A 
ATOM     13  C   UNL     1     131.627 138.887 143.992  1.00  0.00     0.016 A 
ATOM     14  C   UNL     1     131.163 138.962 142.677  1.00  0.00     0.051 A 
ATOM     15  C   UNL     1     130.241 139.945 142.300  1.00  0.00     0.157 A 
ATOM     16  C   UNL     1     130.257 140.793 144.580  1.00  0.00     0.062 A 
ATOM     17  C   UNL     1     129.785 140.877 143.263  1.00  0.00     0.158 A 
BRANCH  15  18
ATOM     18  O   UNL     1     129.813 139.963 140.971  1.00  0.00    -0.504 OA
ATOM     19  H   UNL     1     129.647 139.134 140.420  1.00  0.00     0.293 HD
ENDBRANCH  15  18
BRANCH  17  20
ATOM     20  O   UNL     1     128.874 141.890 142.959  1.00  0.00    -0.504 OA
ATOM     21  H   UNL     1     127.872 141.787 143.024  1.00  0.00     0.293 HD
ENDBRANCH  17  20
ENDBRANCH   1  12
BRANCH   2  22
ATOM     22  O   UNL     1     129.718 138.498 147.112  1.00  0.00    -0.502 OA
ATOM     23  H   UNL     1     129.365 137.713 147.645  1.00  0.00     0.293 HD
ENDBRANCH   2  22
BRANCH   6  24
ATOM     24  O   UNL     1     132.981 138.960 151.297  1.00  0.00    -0.507 OA
ATOM     25  H   UNL     1     132.925 137.954 151.330  1.00  0.00     0.293 HD
ENDBRANCH   6  24
BRANCH   8  26
ATOM     26  O   UNL     1     136.300 141.894 149.487  1.00  0.00    -0.508 OA
ATOM     27  H   UNL     1     136.655 142.525 148.779  1.00  0.00     0.293 HD
ENDBRANCH   8  26
TORSDOF 6
ENDMDL
MODEL 7
REMARK VINA RESULT:    -6.121      1.071      1.670
REMARK INTER + INTRA:          -7.701
REMARK INTER:                  -7.381
REMARK INTRA:                  -0.319
REMARK UNBOUND:                -0.328
REMARK SMILES O=c1c(O)c(-c2ccc(O)c(O)c2)oc2cc(O)cc(O)c12
REMARK SMILES IDX 5 1 3 2 2 3 1 4 22 5 20 6 19 7 17 8 16 9 15 10 14 11 6 12
REMARK SMILES IDX 7 13 8 14 9 15 13 16 11 17 10 18 12 20 4 22 21 24 18 26
REMARK H PARENT 10 19 12 21 4 23 21 25 18 27
REMARK Flexibility Score: inf
ROOT
ATOM      1  C   UNL     1     131.876 139.565 146.085  1.00  0.00     0.180 A 
ATOM      2  C   UNL     1     133.016 139.065 145.432  1.00  0.00     0.208 A 
ATOM      3  C   UNL     1     133.013 138.978 144.030  1.00  0.00     0.238 A 
ATOM      4  O   UNL     1     134.056 138.583 143.447  1.00  0.00    -0.285 OA
ATOM      5  C   UNL     1     131.866 139.377 143.301  1.00  0.00     0.111 A 
ATOM      6  C   UNL     1     131.738 139.294 141.882  1.00  0.00     0.134 A 
ATOM      7  C   UNL     1     130.609 139.838 141.258  1.00  0.00     0.093 A 
ATOM      8  C   UNL     1     129.575 140.402 142.004  1.00  0.00     0.123 A 
ATOM      9  C   UNL     1     129.662 140.433 143.396  1.00  0.00     0.094 A 
ATOM     10  C   UNL     1     130.793 139.932 144.046  1.00  0.00     0.146 A 
ATOM     11  O   UNL     1     130.842 139.991 145.371  1.00  0.00    -0.452 OA
ENDROOT
BRANCH   1  12
ATOM     12  C   UNL     1     131.795 139.662 147.561  1.00  0.00     0.025 A 
ATOM     13  C   UNL     1     132.284 140.784 148.248  1.00  0.00     0.016 A 
ATOM     14  C   UNL     1     132.217 140.842 149.642  1.00  0.00     0.051 A 
ATOM     15  C   UNL     1     131.674 139.782 150.376  1.00  0.00     0.157 A 
ATOM     16  C   UNL     1     131.269 138.588 148.296  1.00  0.00     0.062 A 
ATOM     17  C   UNL     1     131.198 138.637 149.694  1.00  0.00     0.158 A 
BRANCH  15  18
ATOM     18  O   UNL     1     131.632 139.905 151.766  1.00  0.00    -0.504 OA
ATOM     19  H   UNL     1     131.571 140.786 152.254  1.00  0.00     0.293 HD
ENDBRANCH  15  18
BRANCH  17  20
ATOM     20  O   UNL     1     130.652 137.537 150.358  1.00  0.00    -0.504 OA
ATOM     21  H   UNL     1     130.879 137.281 151.308  1.00  0.00     0.293 HD
ENDBRANCH  17  20
ENDBRANCH   1  12
BRANCH   2  22
ATOM     22  O   UNL     1     134.146 138.698 146.168  1.00  0.00    -0.502 OA
ATOM     23  H   UNL     1     134.853 138.072 145.803  1.00  0.00     0.293 HD
ENDBRANCH   2  22
BRANCH   6  24
ATOM     24  O   UNL     1     132.672 138.669 141.050  1.00  0.00    -0.507 OA
ATOM     25  H   UNL     1     133.139 137.802 141.260  1.00  0.00     0.293 HD
ENDBRANCH   6  24
BRANCH   8  26
ATOM     26  O   UNL     1     128.458 140.919 141.350  1.00  0.00    -0.508 OA
ATOM     27  H   UNL     1     128.145 140.545 140.462  1.00  0.00     0.293 HD
ENDBRANCH   8  26
TORSDOF 6
ENDMDL
MODEL 8
REMARK VINA RESULT:    -6.087      3.624      4.329
REMARK INTER + INTRA:          -7.661
REMARK INTER:                  -7.446
REMARK INTRA:                  -0.214
REMARK UNBOUND:                -0.328
REMARK SMILES O=c1c(O)c(-c2ccc(O)c(O)c2)oc2cc(O)cc(O)c12
REMARK SMILES IDX 5 1 3 2 2 3 1 4 22 5 20 6 19 7 17 8 16 9 15 10 14 11 6 12
REMARK SMILES IDX 7 13 8 14 9 15 13 16 11 17 10 18 12 20 4 22 21 24 18 26
REMARK H PARENT 10 19 12 21 4 23 21 25 18 27
REMARK Flexibility Score: inf
ROOT
ATOM      1  C   UNL     1     133.869 140.683 144.623  1.00  0.00     0.180 A 
ATOM      2  C   UNL     1     134.363 139.992 143.503  1.00  0.00     0.208 A 
ATOM      3  C   UNL     1     133.482 139.673 142.457  1.00  0.00     0.238 A 
ATOM      4  O   UNL     1     133.941 139.103 141.433  1.00  0.00    -0.285 OA
ATOM      5  C   UNL     1     132.116 140.035 142.551  1.00  0.00     0.111 A 
ATOM      6  C   UNL     1     131.126 139.727 141.569  1.00  0.00     0.134 A 
ATOM      7  C   UNL     1     129.834 140.248 141.705  1.00  0.00     0.093 A 
ATOM      8  C   UNL     1     129.477 141.009 142.818  1.00  0.00     0.123 A 
ATOM      9  C   UNL     1     130.420 141.265 143.813  1.00  0.00     0.094 A 
ATOM     10  C   UNL     1     131.728 140.790 143.688  1.00  0.00     0.146 A 
ATOM     11  O   UNL     1     132.598 141.065 144.652  1.00  0.00    -0.452 OA
ENDROOT
BRANCH   1  12
ATOM     12  C   UNL     1     134.731 141.031 145.776  1.00  0.00     0.025 A 
ATOM     13  C   UNL     1     134.566 140.411 147.025  1.00  0.00     0.016 A 
ATOM     14  C   UNL     1     135.375 140.773 148.104  1.00  0.00     0.051 A 
ATOM     15  C   UNL     1     136.352 141.764 147.964  1.00  0.00     0.157 A 
ATOM     16  C   UNL     1     135.695 142.040 145.638  1.00  0.00     0.062 A 
ATOM     17  C   UNL     1     136.512 142.411 146.715  1.00  0.00     0.158 A 
BRANCH  15  18
ATOM     18  O   UNL     1     137.131 142.076 149.080  1.00  0.00    -0.504 OA
ATOM     19  H   UNL     1     138.091 142.385 149.030  1.00  0.00     0.293 HD
ENDBRANCH  15  18
BRANCH  17  20
ATOM     20  O   UNL     1     137.458 143.415 146.501  1.00  0.00    -0.504 OA
ATOM     21  H   UNL     1     138.195 143.644 147.151  1.00  0.00     0.293 HD
ENDBRANCH  17  20
ENDBRANCH   1  12
BRANCH   2  22
ATOM     22  O   UNL     1     135.719 139.663 143.420  1.00  0.00    -0.502 OA
ATOM     23  H   UNL     1     136.099 138.815 143.822  1.00  0.00     0.293 HD
ENDBRANCH   2  22
BRANCH   6  24
ATOM     24  O   UNL     1     131.354 138.899 140.465  1.00  0.00    -0.507 OA
ATOM     25  H   UNL     1     130.631 138.456 139.920  1.00  0.00     0.293 HD
ENDBRANCH   6  24
BRANCH   8  26
ATOM     26  O   UNL     1     128.177 141.498 142.928  1.00  0.00    -0.508 OA
ATOM     27  H   UNL     1     127.774 141.730 143.827  1.00  0.00     0.293 HD
ENDBRANCH   8  26
TORSDOF 6
ENDMDL
MODEL 9
REMARK VINA RESULT:    -5.930      2.633      3.272
REMARK INTER + INTRA:          -7.471
REMARK INTER:                  -7.183
REMARK INTRA:                  -0.288
REMARK UNBOUND:                -0.328
REMARK SMILES O=c1c(O)c(-c2ccc(O)c(O)c2)oc2cc(O)cc(O)c12
REMARK SMILES IDX 5 1 3 2 2 3 1 4 22 5 20 6 19 7 17 8 16 9 15 10 14 11 6 12
REMARK SMILES IDX 7 13 8 14 9 15 13 16 11 17 10 18 12 20 4 22 21 24 18 26
REMARK H PARENT 10 19 12 21 4 23 21 25 18 27
REMARK Flexibility Score: inf
ROOT
ATOM      1  C   UNL     1     133.131 140.429 145.197  1.00  0.00     0.180 A 
ATOM      2  C   UNL     1     133.850 139.868 144.128  1.00  0.00     0.208 A 
ATOM      3  C   UNL     1     133.201 139.674 142.897  1.00  0.00     0.238 A 
ATOM      4  O   UNL     1     133.865 139.223 141.928  1.00  0.00    -0.285 OA
ATOM      5  C   UNL     1     131.837 140.029 142.757  1.00  0.00     0.111 A 
ATOM      6  C   UNL     1     131.069 139.839 141.568  1.00  0.00     0.134 A 
ATOM      7  C   UNL     1     129.765 140.346 141.502  1.00  0.00     0.093 A 
ATOM      8  C   UNL     1     129.180 140.977 142.599  1.00  0.00     0.123 A 
ATOM      9  C   UNL     1     129.901 141.114 143.785  1.00  0.00     0.094 A 
ATOM     10  C   UNL     1     131.217 140.651 143.871  1.00  0.00     0.146 A 
ATOM     11  O   UNL     1     131.872 140.811 145.014  1.00  0.00    -0.452 OA
ENDROOT
BRANCH   1  12
ATOM     12  C   UNL     1     133.739 140.640 146.531  1.00  0.00     0.025 A 
ATOM     13  C   UNL     1     134.593 141.726 146.781  1.00  0.00     0.016 A 
ATOM     14  C   UNL     1     135.173 141.890 148.041  1.00  0.00     0.051 A 
ATOM     15  C   UNL     1     134.925 140.973 149.067  1.00  0.00     0.157 A 
ATOM     16  C   UNL     1     133.505 139.706 147.551  1.00  0.00     0.062 A 
ATOM     17  C   UNL     1     134.083 139.863 148.819  1.00  0.00     0.158 A 
BRANCH  15  18
ATOM     18  O   UNL     1     135.532 141.197 150.305  1.00  0.00    -0.504 OA
ATOM     19  H   UNL     1     135.337 141.994 150.893  1.00  0.00     0.293 HD
ENDBRANCH  15  18
BRANCH  17  20
ATOM     20  O   UNL     1     133.796 138.901 149.789  1.00  0.00    -0.504 OA
ATOM     21  H   UNL     1     133.886 137.907 149.643  1.00  0.00     0.293 HD
ENDBRANCH  17  20
ENDBRANCH   1  12
BRANCH   2  22
ATOM     22  O   UNL     1     135.202 139.546 144.281  1.00  0.00    -0.502 OA
ATOM     23  H   UNL     1     135.942 140.080 143.842  1.00  0.00     0.293 HD
ENDBRANCH   2  22
BRANCH   6  24
ATOM     24  O   UNL     1     131.526 139.142 140.447  1.00  0.00    -0.507 OA
ATOM     25  H   UNL     1     132.497 139.019 140.203  1.00  0.00     0.293 HD
ENDBRANCH   6  24
BRANCH   8  26
ATOM     26  O   UNL     1     127.875 141.455 142.501  1.00  0.00    -0.508 OA
ATOM     27  H   UNL     1     127.515 141.837 141.634  1.00  0.00     0.293 HD
ENDBRANCH   8  26
TORSDOF 6
ENDMDL
