MODEL 1
REMARK VINA RESULT:    -6.060      0.000      0.000
REMARK INTER + INTRA:          -8.656
REMARK INTER:                  -8.540
REMARK INTRA:                  -0.116
REMARK UNBOUND:                -0.116
REMARK SMILES CC1=CCC(=C(C)C)C(=O)CC(C)=CCC1
REMARK SMILES IDX 12 1 14 2 13 3 15 4 16 5 2 6 1 7 3 8 11 10 9 11 10 12 5 13
REMARK SMILES IDX 6 14 7 15 8 16 4 17
REMARK H PARENT
REMARK Flexibility Score: 60.00
ROOT
ATOM      1  C   UNL     1      25.524  57.542 139.664  1.00  0.00    -0.070 C 
ATOM      2  C   UNL     1      25.719  58.853 139.393  1.00  0.00    -0.027 C 
ATOM      3  C   UNL     1      24.575  56.787 138.763  1.00  0.00     0.039 C 
ENDROOT
BRANCH   2   4
ATOM      4  C   UNL     1      26.648  59.790 140.123  1.00  0.00     0.032 C 
BRANCH   4   5
ATOM      5  C   UNL     1      27.860  60.289 139.300  1.00  0.00     0.034 C 
BRANCH   5   6
ATOM      6  C   UNL     1      28.312  59.371 138.173  1.00  0.00    -0.077 C 
ATOM      7  C   UNL     1      27.877  59.723 136.770  1.00  0.00     0.039 C 
ATOM      8  C   UNL     1      29.029  58.225 138.332  1.00  0.00    -0.023 CG0
ATOM      9  G   UNL     1      29.729  57.676 139.566  1.00  0.00     0.000 G0
ENDBRANCH   5   6
ENDBRANCH   4   5
ENDBRANCH   2   4
BRANCH   1  10
ATOM     10  C   UNL     1      26.224  56.764 140.772  1.00  0.00     0.111 C 
BRANCH  10  11
ATOM     11  C   UNL     1      27.663  56.377 140.523  1.00  0.00     0.163 C 
ATOM     12  O   UNL     1      27.862  55.211 140.087  1.00  0.00    -0.294 OA
BRANCH  11  13
ATOM     13  C   UNL     1      28.833  57.302 140.754  1.00  0.00    -0.002 C 
ATOM     14  C   UNL     1      29.149  57.778 142.000  1.00  0.00    -0.069 C 
ATOM     15  C   UNL     1      28.263  57.541 143.202  1.00  0.00     0.039 C 
ATOM     16  C   UNL     1      30.397  58.604 142.234  1.00  0.00     0.039 C 
BRANCH  13  17
ATOM     17  C   UNL     1      29.715  57.655 139.565  1.00  0.00     0.066 CG0
ATOM     18  G   UNL     1      29.017  58.227 138.340  1.00  0.00     0.000 G0
ENDBRANCH  13  17
ENDBRANCH  11  13
ENDBRANCH  10  11
ENDBRANCH   1  10
TORSDOF 0
ENDMDL
MODEL 2
REMARK VINA RESULT:    -5.889      1.915      4.306
REMARK INTER + INTRA:          -8.414
REMARK INTER:                  -7.973
REMARK INTRA:                  -0.442
REMARK UNBOUND:                -0.116
REMARK SMILES CC1=CCC(=C(C)C)C(=O)CC(C)=CCC1
REMARK SMILES IDX 12 1 14 2 13 3 15 4 16 5 2 6 1 7 3 8 11 10 9 11 10 12 5 13
REMARK SMILES IDX 6 14 7 15 8 16 4 17
REMARK H PARENT
REMARK Flexibility Score: 60.00
ROOT
ATOM      1  C   UNL     1      27.637  60.166 140.919  1.00  0.00    -0.070 C 
ATOM      2  C   UNL     1      27.305  59.549 142.077  1.00  0.00    -0.027 C 
ATOM      3  C   UNL     1      26.563  60.985 140.244  1.00  0.00     0.039 C 
ENDROOT
BRANCH   2   4
ATOM      4  C   UNL     1      28.220  58.721 142.944  1.00  0.00     0.032 C 
BRANCH   4   5
ATOM      5  C   UNL     1      28.223  57.204 142.638  1.00  0.00     0.034 C 
BRANCH   5   6
ATOM      6  C   UNL     1      27.056  56.701 141.798  1.00  0.00    -0.077 C 
ATOM      7  C   UNL     1      25.725  56.524 142.488  1.00  0.00     0.039 C 
ATOM      8  C   UNL     1      27.129  56.342 140.487  1.00  0.00    -0.023 CG0
ATOM      9  G   UNL     1      28.258  56.531 139.485  1.00  0.00     0.000 G0
ENDBRANCH   5   6
ENDBRANCH   4   5
ENDBRANCH   2   4
BRANCH   1  10
ATOM     10  C   UNL     1      29.020  60.137 140.277  1.00  0.00     0.111 C 
BRANCH  10  11
ATOM     11  C   UNL     1      29.434  58.841 139.618  1.00  0.00     0.163 C 
ATOM     12  O   UNL     1      30.652  58.532 139.710  1.00  0.00    -0.294 OA
BRANCH  11  13
ATOM     13  C   UNL     1      28.479  57.926 138.893  1.00  0.00    -0.002 C 
ATOM     14  C   UNL     1      27.861  58.297 137.726  1.00  0.00    -0.069 C 
ATOM     15  C   UNL     1      27.966  59.698 137.168  1.00  0.00     0.039 C 
ATOM     16  C   UNL     1      27.003  57.323 136.945  1.00  0.00     0.039 C 
BRANCH  13  17
ATOM     17  C   UNL     1      28.256  56.530 139.454  1.00  0.00     0.066 CG0
ATOM     18  G   UNL     1      27.133  56.369 140.468  1.00  0.00     0.000 G0
ENDBRANCH  13  17
ENDBRANCH  11  13
ENDBRANCH  10  11
ENDBRANCH   1  10
TORSDOF 0
ENDMDL
MODEL 3
REMARK VINA RESULT:    -5.812      1.745      3.586
REMARK INTER + INTRA:          -8.307
REMARK INTER:                  -8.144
REMARK INTRA:                  -0.163
REMARK UNBOUND:                -0.116
REMARK SMILES CC1=CCC(=C(C)C)C(=O)CC(C)=CCC1
REMARK SMILES IDX 12 1 14 2 13 3 15 4 16 5 2 6 1 7 3 8 11 10 9 11 10 12 5 13
REMARK SMILES IDX 6 14 7 15 8 16 4 17
REMARK H PARENT
REMARK Flexibility Score: 60.00
ROOT
ATOM      1  C   UNL     1      26.311  57.373 142.209  1.00  0.00    -0.070 C 
ATOM      2  C   UNL     1      25.607  56.745 141.239  1.00  0.00    -0.027 C 
ATOM      3  C   UNL     1      26.551  56.608 143.489  1.00  0.00     0.039 C 
ENDROOT
BRANCH   2   4
ATOM      4  C   UNL     1      25.286  57.291 139.870  1.00  0.00     0.032 C 
BRANCH   4   5
ATOM      5  C   UNL     1      26.122  56.697 138.711  1.00  0.00     0.034 C 
BRANCH   5   6
ATOM      6  C   UNL     1      27.322  55.858 139.130  1.00  0.00    -0.077 C 
ATOM      7  C   UNL     1      27.108  54.375 139.311  1.00  0.00     0.039 C 
ATOM      8  C   UNL     1      28.562  56.346 139.411  1.00  0.00    -0.023 CG0
ATOM      9  G   UNL     1      29.134  57.738 139.194  1.00  0.00     0.000 G0
ENDBRANCH   5   6
ENDBRANCH   4   5
ENDBRANCH   2   4
BRANCH   1  10
ATOM     10  C   UNL     1      26.920  58.765 142.086  1.00  0.00     0.111 C 
BRANCH  10  11
ATOM     11  C   UNL     1      28.249  58.864 141.374  1.00  0.00     0.163 C 
ATOM     12  O   UNL     1      29.274  58.916 142.106  1.00  0.00    -0.294 OA
BRANCH  11  13
ATOM     13  C   UNL     1      28.397  58.887 139.873  1.00  0.00    -0.002 C 
ATOM     14  C   UNL     1      27.933  59.929 139.112  1.00  0.00    -0.069 C 
ATOM     15  C   UNL     1      27.105  61.050 139.699  1.00  0.00     0.039 C 
ATOM     16  C   UNL     1      28.198  59.996 137.623  1.00  0.00     0.039 C 
BRANCH  13  17
ATOM     17  C   UNL     1      29.141  57.739 139.207  1.00  0.00     0.066 CG0
ATOM     18  G   UNL     1      28.568  56.344 139.403  1.00  0.00     0.000 G0
ENDBRANCH  13  17
ENDBRANCH  11  13
ENDBRANCH  10  11
ENDBRANCH   1  10
TORSDOF 0
ENDMDL
MODEL 4
REMARK VINA RESULT:    -5.676      1.880      3.996
REMARK INTER + INTRA:          -8.115
REMARK INTER:                  -7.822
REMARK INTRA:                  -0.293
REMARK UNBOUND:                -0.116
REMARK SMILES CC1=CCC(=C(C)C)C(=O)CC(C)=CCC1
REMARK SMILES IDX 12 1 14 2 13 3 15 4 16 5 2 6 1 7 3 8 11 10 9 11 10 12 5 13
REMARK SMILES IDX 6 14 7 15 8 16 4 17
REMARK H PARENT
REMARK Flexibility Score: 60.00
ROOT
ATOM      1  C   UNL     1      27.579  56.461 140.821  1.00  0.00    -0.070 C 
ATOM      2  C   UNL     1      28.242  57.000 141.871  1.00  0.00    -0.027 C 
ATOM      3  C   UNL     1      28.390  55.646 139.841  1.00  0.00     0.039 C 
ENDROOT
BRANCH   2   4
ATOM      4  C   UNL     1      27.636  57.807 142.992  1.00  0.00     0.032 C 
BRANCH   4   5
ATOM      5  C   UNL     1      27.509  59.324 142.717  1.00  0.00     0.034 C 
BRANCH   5   6
ATOM      6  C   UNL     1      28.393  59.866 141.602  1.00  0.00    -0.077 C 
ATOM      7  C   UNL     1      29.845  60.127 141.926  1.00  0.00     0.039 C 
ATOM      8  C   UNL     1      27.969  60.191 140.349  1.00  0.00    -0.023 CG0
ATOM      9  G   UNL     1      26.633  59.923 139.672  1.00  0.00     0.000 G0
ENDBRANCH   5   6
ENDBRANCH   4   5
ENDBRANCH   2   4
BRANCH   1  10
ATOM     10  C   UNL     1      26.077  56.572 140.584  1.00  0.00     0.111 C 
BRANCH  10  11
ATOM     11  C   UNL     1      25.632  57.517 139.492  1.00  0.00     0.163 C 
ATOM     12  O   UNL     1      24.452  57.371 139.072  1.00  0.00    -0.294 OA
BRANCH  11  13
ATOM     13  C   UNL     1      26.506  58.602 138.912  1.00  0.00    -0.002 C 
ATOM     14  C   UNL     1      27.131  58.462 137.700  1.00  0.00    -0.069 C 
ATOM     15  C   UNL     1      27.120  57.159 136.933  1.00  0.00     0.039 C 
ATOM     16  C   UNL     1      27.904  59.605 137.076  1.00  0.00     0.039 C 
BRANCH  13  17
ATOM     17  C   UNL     1      26.635  59.908 139.682  1.00  0.00     0.066 CG0
ATOM     18  G   UNL     1      27.978  60.188 140.338  1.00  0.00     0.000 G0
ENDBRANCH  13  17
ENDBRANCH  11  13
ENDBRANCH  10  11
ENDBRANCH   1  10
TORSDOF 0
ENDMDL
MODEL 5
REMARK VINA RESULT:    -5.664      2.194      3.745
REMARK INTER + INTRA:          -8.099
REMARK INTER:                  -7.797
REMARK INTRA:                  -0.302
REMARK UNBOUND:                -0.116
REMARK SMILES CC1=CCC(=C(C)C)C(=O)CC(C)=CCC1
REMARK SMILES IDX 12 1 14 2 13 3 15 4 16 5 2 6 1 7 3 8 11 10 9 11 10 12 5 13
REMARK SMILES IDX 6 14 7 15 8 16 4 17
REMARK H PARENT
REMARK Flexibility Score: 60.00
ROOT
ATOM      1  C   UNL     1      26.912  59.272 138.713  1.00  0.00    -0.070 C 
ATOM      2  C   UNL     1      26.370  58.092 138.331  1.00  0.00    -0.027 C 
ATOM      3  C   UNL     1      28.156  59.724 137.985  1.00  0.00     0.039 C 
ENDROOT
BRANCH   2   4
ATOM      4  C   UNL     1      25.113  57.466 138.880  1.00  0.00     0.032 C 
BRANCH   4   5
ATOM      5  C   UNL     1      25.317  56.547 140.108  1.00  0.00     0.034 C 
BRANCH   5   6
ATOM      6  C   UNL     1      26.744  56.071 140.343  1.00  0.00    -0.077 C 
ATOM      7  C   UNL     1      27.232  54.900 139.524  1.00  0.00     0.039 C 
ATOM      8  C   UNL     1      27.599  56.577 141.273  1.00  0.00    -0.023 CG0
ATOM      9  G   UNL     1      27.472  57.822 142.140  1.00  0.00     0.000 G0
ENDBRANCH   5   6
ENDBRANCH   4   5
ENDBRANCH   2   4
BRANCH   1  10
ATOM     10  C   UNL     1      26.337  60.194 139.781  1.00  0.00     0.111 C 
BRANCH  10  11
ATOM     11  C   UNL     1      27.023  60.184 141.128  1.00  0.00     0.163 C 
ATOM     12  O   UNL     1      26.720  61.118 141.918  1.00  0.00    -0.294 OA
BRANCH  11  13
ATOM     13  C   UNL     1      28.011  59.128 141.558  1.00  0.00    -0.002 C 
ATOM     14  C   UNL     1      29.365  59.332 141.495  1.00  0.00    -0.069 C 
ATOM     15  C   UNL     1      29.968  60.558 140.848  1.00  0.00     0.039 C 
ATOM     16  C   UNL     1      30.341  58.312 142.045  1.00  0.00     0.039 C 
BRANCH  13  17
ATOM     17  C   UNL     1      27.469  57.829 142.134  1.00  0.00     0.066 CG0
ATOM     18  G   UNL     1      27.599  56.586 141.265  1.00  0.00     0.000 G0
ENDBRANCH  13  17
ENDBRANCH  11  13
ENDBRANCH  10  11
ENDBRANCH   1  10
TORSDOF 0
ENDMDL
MODEL 6
REMARK VINA RESULT:    -5.644      1.537      2.611
REMARK INTER + INTRA:          -8.070
REMARK INTER:                  -7.757
REMARK INTRA:                  -0.313
REMARK UNBOUND:                -0.116
REMARK SMILES CC1=CCC(=C(C)C)C(=O)CC(C)=CCC1
REMARK SMILES IDX 12 1 14 2 13 3 15 4 16 5 2 6 1 7 3 8 11 10 9 11 10 12 5 13
REMARK SMILES IDX 6 14 7 15 8 16 4 17
REMARK H PARENT
REMARK Flexibility Score: 60.00
ROOT
ATOM      1  C   UNL     1      27.169  59.762 141.015  1.00  0.00    -0.070 C 
ATOM      2  C   UNL     1      26.400  59.573 139.917  1.00  0.00    -0.027 C 
ATOM      3  C   UNL     1      28.011  61.015 141.057  1.00  0.00     0.039 C 
ENDROOT
BRANCH   2   4
ATOM      4  C   UNL     1      25.450  58.427 139.677  1.00  0.00     0.032 C 
BRANCH   4   5
ATOM      5  C   UNL     1      25.950  57.357 138.677  1.00  0.00     0.034 C 
BRANCH   5   6
ATOM      6  C   UNL     1      27.327  57.609 138.078  1.00  0.00    -0.077 C 
ATOM      7  C   UNL     1      27.390  58.330 136.752  1.00  0.00     0.039 C 
ATOM      8  C   UNL     1      28.507  57.187 138.611  1.00  0.00    -0.023 CG0
ATOM      9  G   UNL     1      28.797  56.577 139.974  1.00  0.00     0.000 G0
ENDBRANCH   5   6
ENDBRANCH   4   5
ENDBRANCH   2   4
BRANCH   1  10
ATOM     10  C   UNL     1      27.210  58.835 142.225  1.00  0.00     0.111 C 
BRANCH  10  11
ATOM     11  C   UNL     1      28.282  57.770 142.227  1.00  0.00     0.163 C 
ATOM     12  O   UNL     1      28.348  57.045 143.257  1.00  0.00    -0.294 OA
BRANCH  11  13
ATOM     13  C   UNL     1      29.234  57.536 141.081  1.00  0.00    -0.002 C 
ATOM     14  C   UNL     1      30.477  58.114 141.038  1.00  0.00    -0.069 C 
ATOM     15  C   UNL     1      30.921  59.146 142.049  1.00  0.00     0.039 C 
ATOM     16  C   UNL     1      31.467  57.772 139.945  1.00  0.00     0.039 C 
BRANCH  13  17
ATOM     17  C   UNL     1      28.810  56.576 139.979  1.00  0.00     0.066 CG0
ATOM     18  G   UNL     1      28.510  57.184 138.618  1.00  0.00     0.000 G0
ENDBRANCH  13  17
ENDBRANCH  11  13
ENDBRANCH  10  11
ENDBRANCH   1  10
TORSDOF 0
ENDMDL
MODEL 7
REMARK VINA RESULT:    -5.636      1.673      3.631
REMARK INTER + INTRA:          -8.059
REMARK INTER:                  -7.637
REMARK INTRA:                  -0.422
REMARK UNBOUND:                -0.116
REMARK SMILES CC1=CCC(=C(C)C)C(=O)CC(C)=CCC1
REMARK SMILES IDX 12 1 14 2 13 3 15 4 16 5 2 6 1 7 3 8 11 10 9 11 10 12 5 13
REMARK SMILES IDX 6 14 7 15 8 16 4 17
REMARK H PARENT
REMARK Flexibility Score: 60.00
ROOT
ATOM      1  C   UNL     1      26.184  56.730 140.410  1.00  0.00    -0.070 C 
ATOM      2  C   UNL     1      26.124  57.157 141.693  1.00  0.00    -0.027 C 
ATOM      3  C   UNL     1      24.998  57.038 139.527  1.00  0.00     0.039 C 
ENDROOT
BRANCH   2   4
ATOM      4  C   UNL     1      27.201  57.004 142.738  1.00  0.00     0.032 C 
BRANCH   4   5
ATOM      5  C   UNL     1      28.310  58.082 142.703  1.00  0.00     0.034 C 
BRANCH   5   6
ATOM      6  C   UNL     1      27.882  59.449 142.187  1.00  0.00    -0.077 C 
ATOM      7  C   UNL     1      27.061  60.317 143.111  1.00  0.00     0.039 C 
ATOM      8  C   UNL     1      28.130  59.931 140.939  1.00  0.00    -0.023 CG0
ATOM      9  G   UNL     1      29.031  59.382 139.842  1.00  0.00     0.000 G0
ENDBRANCH   5   6
ENDBRANCH   4   5
ENDBRANCH   2   4
BRANCH   1  10
ATOM     10  C   UNL     1      27.372  56.010 139.782  1.00  0.00     0.111 C 
BRANCH  10  11
ATOM     11  C   UNL     1      28.578  56.857 139.448  1.00  0.00     0.163 C 
ATOM     12  O   UNL     1      29.704  56.308 139.592  1.00  0.00    -0.294 OA
BRANCH  11  13
ATOM     13  C   UNL     1      28.494  58.279 138.951  1.00  0.00    -0.002 C 
ATOM     14  C   UNL     1      27.891  58.598 137.761  1.00  0.00    -0.069 C 
ATOM     15  C   UNL     1      27.411  57.543 136.791  1.00  0.00     0.039 C 
ATOM     16  C   UNL     1      27.705  60.040 137.335  1.00  0.00     0.039 C 
BRANCH  13  17
ATOM     17  C   UNL     1      29.043  59.384 139.839  1.00  0.00     0.066 CG0
ATOM     18  G   UNL     1      28.118  59.917 140.923  1.00  0.00     0.000 G0
ENDBRANCH  13  17
ENDBRANCH  11  13
ENDBRANCH  10  11
ENDBRANCH   1  10
TORSDOF 0
ENDMDL
MODEL 8
REMARK VINA RESULT:    -5.535      1.412      3.238
REMARK INTER + INTRA:          -7.916
REMARK INTER:                  -7.815
REMARK INTRA:                  -0.101
REMARK UNBOUND:                -0.116
REMARK SMILES CC1=CCC(=C(C)C)C(=O)CC(C)=CCC1
REMARK SMILES IDX 12 1 14 2 13 3 15 4 16 5 2 6 1 7 3 8 11 10 9 11 10 12 5 13
REMARK SMILES IDX 6 14 7 15 8 16 4 17
REMARK H PARENT
REMARK Flexibility Score: 60.00
ROOT
ATOM      1  C   UNL     1      28.566  58.508 141.420  1.00  0.00    -0.070 C 
ATOM      2  C   UNL     1      27.973  59.719 141.311  1.00  0.00    -0.027 C 
ATOM      3  C   UNL     1      28.666  57.913 142.805  1.00  0.00     0.039 C 
ENDROOT
BRANCH   2   4
ATOM      4  C   UNL     1      27.723  60.481 140.034  1.00  0.00     0.032 C 
BRANCH   4   5
ATOM      5  C   UNL     1      26.794  59.776 139.017  1.00  0.00     0.034 C 
BRANCH   5   6
ATOM      6  C   UNL     1      27.455  59.340 137.716  1.00  0.00    -0.077 C 
ATOM      7  C   UNL     1      28.244  60.377 136.953  1.00  0.00     0.039 C 
ATOM      8  C   UNL     1      27.344  58.106 137.153  1.00  0.00    -0.023 CG0
ATOM      9  G   UNL     1      26.756  56.824 137.722  1.00  0.00     0.000 G0
ENDBRANCH   5   6
ENDBRANCH   4   5
ENDBRANCH   2   4
BRANCH   1  10
ATOM     10  C   UNL     1      29.092  57.682 140.251  1.00  0.00     0.111 C 
BRANCH  10  11
ATOM     11  C   UNL     1      28.259  56.493 139.832  1.00  0.00     0.163 C 
ATOM     12  O   UNL     1      28.772  55.357 140.019  1.00  0.00    -0.294 OA
BRANCH  11  13
ATOM     13  C   UNL     1      26.879  56.604 139.233  1.00  0.00    -0.002 C 
ATOM     14  C   UNL     1      25.747  56.581 140.006  1.00  0.00    -0.069 C 
ATOM     15  C   UNL     1      25.788  56.286 141.488  1.00  0.00     0.039 C 
ATOM     16  C   UNL     1      24.377  56.817 139.404  1.00  0.00     0.039 C 
BRANCH  13  17
ATOM     17  C   UNL     1      26.763  56.810 137.730  1.00  0.00     0.066 CG0
ATOM     18  G   UNL     1      27.342  58.100 137.168  1.00  0.00     0.000 G0
ENDBRANCH  13  17
ENDBRANCH  11  13
ENDBRANCH  10  11
ENDBRANCH   1  10
TORSDOF 0
ENDMDL
MODEL 9
REMARK VINA RESULT:    -5.469      1.239      3.427
REMARK INTER + INTRA:          -7.823
REMARK INTER:                  -7.767
REMARK INTRA:                  -0.056
REMARK UNBOUND:                -0.116
REMARK SMILES CC1=CCC(=C(C)C)C(=O)CC(C)=CCC1
REMARK SMILES IDX 12 1 14 2 13 3 15 4 16 5 2 6 1 7 3 8 11 10 9 11 10 12 5 13
REMARK SMILES IDX 6 14 7 15 8 16 4 17
REMARK H PARENT
REMARK Flexibility Score: 60.00
ROOT
ATOM      1  C   UNL     1      27.158  57.774 142.579  1.00  0.00    -0.070 C 
ATOM      2  C   UNL     1      27.556  59.068 142.599  1.00  0.00    -0.027 C 
ATOM      3  C   UNL     1      27.241  57.009 143.879  1.00  0.00     0.039 C 
ENDROOT
BRANCH   2   4
ATOM      4  C   UNL     1      27.520  60.033 141.441  1.00  0.00     0.032 C 
BRANCH   4   5
ATOM      5  C   UNL     1      28.892  60.331 140.790  1.00  0.00     0.034 C 
BRANCH   5   6
ATOM      6  C   UNL     1      29.970  59.281 141.019  1.00  0.00    -0.077 C 
ATOM      7  C   UNL     1      30.842  59.430 142.243  1.00  0.00     0.039 C 
ATOM      8  C   UNL     1      30.252  58.248 140.177  1.00  0.00    -0.023 CG0
ATOM      9  G   UNL     1      29.489  57.744 138.962  1.00  0.00     0.000 G0
ENDBRANCH   5   6
ENDBRANCH   4   5
ENDBRANCH   2   4
BRANCH   1  10
ATOM     10  C   UNL     1      26.590  57.052 141.362  1.00  0.00     0.111 C 
BRANCH  10  11
ATOM     11  C   UNL     1      27.584  56.597 140.319  1.00  0.00     0.163 C 
ATOM     12  O   UNL     1      28.057  55.437 140.465  1.00  0.00    -0.294 OA
BRANCH  11  13
ATOM     13  C   UNL     1      28.008  57.438 139.141  1.00  0.00    -0.002 C 
ATOM     14  C   UNL     1      27.099  57.984 138.272  1.00  0.00    -0.069 C 
ATOM     15  C   UNL     1      25.624  57.657 138.337  1.00  0.00     0.039 C 
ATOM     16  C   UNL     1      27.532  58.926 137.168  1.00  0.00     0.039 C 
BRANCH  13  17
ATOM     17  C   UNL     1      29.491  57.730 138.963  1.00  0.00     0.066 CG0
ATOM     18  G   UNL     1      30.239  58.248 140.183  1.00  0.00     0.000 G0
ENDBRANCH  13  17
ENDBRANCH  11  13
ENDBRANCH  10  11
ENDBRANCH   1  10
TORSDOF 0
ENDMDL
