MODEL 1
REMARK VINA RESULT:    -3.645      0.000      0.000
REMARK INTER + INTRA:          -5.758
REMARK INTER:                  -5.137
REMARK INTRA:                  -0.621
REMARK UNBOUND:                -0.621
REMARK SMILES CCCCCCCCC(=O)[O-]
REMARK SMILES IDX 6 1 7 2 8 3 9 4 10 5 11 6 5 7 4 8 3 9 2 10 1 11
REMARK H PARENT
REMARK Flexibility Score: inf
ROOT
ATOM      1  C   UNL     1     126.905 145.960 106.366  1.00  0.00     0.000 C 
ENDROOT
BRANCH   1   2
ATOM      2  C   UNL     1     127.112 145.165 107.665  1.00  0.00     0.006 C 
BRANCH   2   3
ATOM      3  C   UNL     1     127.617 146.041 108.820  1.00  0.00     0.053 C 
BRANCH   3   4
ATOM      4  C   UNL     1     129.106 145.950 108.930  1.00  0.00     0.041 C 
ATOM      5  O   UNL     1     129.728 146.695 109.733  1.00  0.00    -0.550 OA
ATOM      6  O   UNL     1     129.814 145.079 108.111  1.00  0.00    -0.550 OA
ENDBRANCH   3   4
ENDBRANCH   2   3
ENDBRANCH   1   2
BRANCH   1   7
ATOM      7  C   UNL     1     127.814 145.476 105.226  1.00  0.00     0.000 C 
BRANCH   7   8
ATOM      8  C   UNL     1     127.559 143.994 104.914  1.00  0.00    -0.000 C 
BRANCH   8   9
ATOM      9  C   UNL     1     128.761 143.093 105.253  1.00  0.00    -0.000 C 
BRANCH   9  10
ATOM     10  C   UNL     1     128.455 141.955 106.243  1.00  0.00    -0.003 C 
ATOM     11  C   UNL     1     126.959 141.682 106.398  1.00  0.00     0.004 C 
ENDBRANCH   9  10
ENDBRANCH   8   9
ENDBRANCH   7   8
ENDBRANCH   1   7
TORSDOF 7
ENDMDL
MODEL 2
REMARK VINA RESULT:    -3.461      2.581      3.841
REMARK INTER + INTRA:          -5.498
REMARK INTER:                  -4.801
REMARK INTRA:                  -0.697
REMARK UNBOUND:                -0.621
REMARK SMILES CCCCCCCCC(=O)[O-]
REMARK SMILES IDX 6 1 7 2 8 3 9 4 10 5 11 6 5 7 4 8 3 9 2 10 1 11
REMARK H PARENT
REMARK Flexibility Score: inf
ROOT
ATOM      1  C   UNL     1     130.357 143.309 106.901  1.00  0.00     0.000 C 
ENDROOT
BRANCH   1   2
ATOM      2  C   UNL     1     131.170 144.192 105.941  1.00  0.00     0.006 C 
BRANCH   2   3
ATOM      3  C   UNL     1     130.908 145.690 106.150  1.00  0.00     0.053 C 
BRANCH   3   4
ATOM      4  C   UNL     1     132.197 146.420 106.359  1.00  0.00     0.041 C 
ATOM      5  O   UNL     1     133.106 146.363 105.489  1.00  0.00    -0.550 OA
ATOM      6  O   UNL     1     132.415 147.123 107.537  1.00  0.00    -0.550 OA
ENDBRANCH   3   4
ENDBRANCH   2   3
ENDBRANCH   1   2
BRANCH   1   7
ATOM      7  C   UNL     1     129.341 142.419 106.169  1.00  0.00     0.000 C 
BRANCH   7   8
ATOM      8  C   UNL     1     127.954 143.079 106.141  1.00  0.00    -0.000 C 
BRANCH   8   9
ATOM      9  C   UNL     1     127.668 143.820 104.823  1.00  0.00    -0.000 C 
BRANCH   9  10
ATOM     10  C   UNL     1     127.288 145.303 104.985  1.00  0.00    -0.003 C 
ATOM     11  C   UNL     1     127.102 145.717 106.444  1.00  0.00     0.004 C 
ENDBRANCH   9  10
ENDBRANCH   8   9
ENDBRANCH   7   8
ENDBRANCH   1   7
TORSDOF 7
ENDMDL
MODEL 3
REMARK VINA RESULT:    -3.442      1.484      2.353
REMARK INTER + INTRA:          -5.472
REMARK INTER:                  -4.612
REMARK INTRA:                  -0.859
REMARK UNBOUND:                -0.621
REMARK SMILES CCCCCCCCC(=O)[O-]
REMARK SMILES IDX 6 1 7 2 8 3 9 4 10 5 11 6 5 7 4 8 3 9 2 10 1 11
REMARK H PARENT
REMARK Flexibility Score: inf
ROOT
ATOM      1  C   UNL     1     127.269 145.649 105.907  1.00  0.00     0.000 C 
ENDROOT
BRANCH   1   2
ATOM      2  C   UNL     1     127.008 145.296 107.380  1.00  0.00     0.006 C 
BRANCH   2   3
ATOM      3  C   UNL     1     127.582 146.339 108.349  1.00  0.00     0.053 C 
BRANCH   3   4
ATOM      4  C   UNL     1     128.711 145.754 109.136  1.00  0.00     0.041 C 
ATOM      5  O   UNL     1     128.746 144.517 109.368  1.00  0.00    -0.550 OA
ATOM      6  O   UNL     1     129.698 146.580 109.657  1.00  0.00    -0.550 OA
ENDBRANCH   3   4
ENDBRANCH   2   3
ENDBRANCH   1   2
BRANCH   1   7
ATOM      7  C   UNL     1     127.567 144.413 105.046  1.00  0.00     0.000 C 
BRANCH   7   8
ATOM      8  C   UNL     1     128.459 143.419 105.805  1.00  0.00    -0.000 C 
BRANCH   8   9
ATOM      9  C   UNL     1     129.952 143.566 105.459  1.00  0.00    -0.000 C 
BRANCH   9  10
ATOM     10  C   UNL     1     130.772 144.384 106.473  1.00  0.00    -0.003 C 
ATOM     11  C   UNL     1     130.918 145.853 106.079  1.00  0.00     0.004 C 
ENDBRANCH   9  10
ENDBRANCH   8   9
ENDBRANCH   7   8
ENDBRANCH   1   7
TORSDOF 7
ENDMDL
MODEL 4
REMARK VINA RESULT:    -3.431      2.766      3.863
REMARK INTER + INTRA:          -5.456
REMARK INTER:                  -4.925
REMARK INTRA:                  -0.531
REMARK UNBOUND:                -0.621
REMARK SMILES CCCCCCCCC(=O)[O-]
REMARK SMILES IDX 6 1 7 2 8 3 9 4 10 5 11 6 5 7 4 8 3 9 2 10 1 11
REMARK H PARENT
REMARK Flexibility Score: inf
ROOT
ATOM      1  C   UNL     1     130.620 144.613 106.118  1.00  0.00     0.000 C 
ENDROOT
BRANCH   1   2
ATOM      2  C   UNL     1     130.657 146.148 106.185  1.00  0.00     0.006 C 
BRANCH   2   3
ATOM      3  C   UNL     1     132.063 146.716 105.944  1.00  0.00     0.053 C 
BRANCH   3   4
ATOM      4  C   UNL     1     132.883 146.624 107.191  1.00  0.00     0.041 C 
ATOM      5  O   UNL     1     134.128 146.447 107.118  1.00  0.00    -0.550 OA
ATOM      6  O   UNL     1     132.269 146.684 108.435  1.00  0.00    -0.550 OA
ENDBRANCH   3   4
ENDBRANCH   2   3
ENDBRANCH   1   2
BRANCH   1   7
ATOM      7  C   UNL     1     129.206 144.065 105.877  1.00  0.00     0.000 C 
BRANCH   7   8
ATOM      8  C   UNL     1     128.242 145.193 105.477  1.00  0.00    -0.000 C 
BRANCH   8   9
ATOM      9  C   UNL     1     127.049 145.333 106.440  1.00  0.00    -0.000 C 
BRANCH   9  10
ATOM     10  C   UNL     1     127.283 144.755 107.847  1.00  0.00    -0.003 C 
ATOM     11  C   UNL     1     127.426 145.833 108.921  1.00  0.00     0.004 C 
ENDBRANCH   9  10
ENDBRANCH   8   9
ENDBRANCH   7   8
ENDBRANCH   1   7
TORSDOF 7
ENDMDL
MODEL 5
REMARK VINA RESULT:    -3.422      2.912      3.385
REMARK INTER + INTRA:          -5.443
REMARK INTER:                  -5.076
REMARK INTRA:                  -0.367
REMARK UNBOUND:                -0.621
REMARK SMILES CCCCCCCCC(=O)[O-]
REMARK SMILES IDX 6 1 7 2 8 3 9 4 10 5 11 6 5 7 4 8 3 9 2 10 1 11
REMARK H PARENT
REMARK Flexibility Score: inf
ROOT
ATOM      1  C   UNL     1     130.186 145.165 106.237  1.00  0.00     0.000 C 
ENDROOT
BRANCH   1   2
ATOM      2  C   UNL     1     131.132 146.357 106.027  1.00  0.00     0.006 C 
BRANCH   2   3
ATOM      3  C   UNL     1     132.608 145.982 106.220  1.00  0.00     0.053 C 
BRANCH   3   4
ATOM      4  C   UNL     1     133.123 146.537 107.510  1.00  0.00     0.041 C 
ATOM      5  O   UNL     1     134.355 146.757 107.657  1.00  0.00    -0.550 OA
ATOM      6  O   UNL     1     132.252 146.764 108.568  1.00  0.00    -0.550 OA
ENDBRANCH   3   4
ENDBRANCH   2   3
ENDBRANCH   1   2
BRANCH   1   7
ATOM      7  C   UNL     1     128.748 145.600 106.559  1.00  0.00     0.000 C 
BRANCH   7   8
ATOM      8  C   UNL     1     127.798 145.253 105.403  1.00  0.00    -0.000 C 
BRANCH   8   9
ATOM      9  C   UNL     1     127.886 143.776 104.977  1.00  0.00    -0.000 C 
BRANCH   9  10
ATOM     10  C   UNL     1     127.330 142.774 106.003  1.00  0.00    -0.003 C 
ATOM     11  C   UNL     1     128.211 141.535 106.168  1.00  0.00     0.004 C 
ENDBRANCH   9  10
ENDBRANCH   8   9
ENDBRANCH   7   8
ENDBRANCH   1   7
TORSDOF 7
ENDMDL
MODEL 6
REMARK VINA RESULT:    -3.402      2.744      4.485
REMARK INTER + INTRA:          -5.415
REMARK INTER:                  -4.715
REMARK INTRA:                  -0.699
REMARK UNBOUND:                -0.621
REMARK SMILES CCCCCCCCC(=O)[O-]
REMARK SMILES IDX 6 1 7 2 8 3 9 4 10 5 11 6 5 7 4 8 3 9 2 10 1 11
REMARK H PARENT
REMARK Flexibility Score: inf
ROOT
ATOM      1  C   UNL     1     128.218 143.137 105.594  1.00  0.00     0.000 C 
ENDROOT
BRANCH   1   2
ATOM      2  C   UNL     1     127.169 142.345 106.390  1.00  0.00     0.006 C 
BRANCH   2   3
ATOM      3  C   UNL     1     127.670 141.931 107.780  1.00  0.00     0.053 C 
BRANCH   3   4
ATOM      4  C   UNL     1     127.807 140.444 107.864  1.00  0.00     0.041 C 
ATOM      5  O   UNL     1     128.463 139.921 108.804  1.00  0.00    -0.550 OA
ATOM      6  O   UNL     1     127.254 139.637 106.879  1.00  0.00    -0.550 OA
ENDBRANCH   3   4
ENDBRANCH   2   3
ENDBRANCH   1   2
BRANCH   1   7
ATOM      7  C   UNL     1     127.633 144.392 104.928  1.00  0.00     0.000 C 
BRANCH   7   8
ATOM      8  C   UNL     1     127.962 145.650 105.745  1.00  0.00    -0.000 C 
BRANCH   8   9
ATOM      9  C   UNL     1     126.876 145.995 106.780  1.00  0.00    -0.000 C 
BRANCH   9  10
ATOM     10  C   UNL     1     127.375 146.090 108.233  1.00  0.00    -0.003 C 
ATOM     11  C   UNL     1     128.812 145.596 108.405  1.00  0.00     0.004 C 
ENDBRANCH   9  10
ENDBRANCH   8   9
ENDBRANCH   7   8
ENDBRANCH   1   7
TORSDOF 7
ENDMDL
MODEL 7
REMARK VINA RESULT:    -3.315      1.683      2.327
REMARK INTER + INTRA:          -5.292
REMARK INTER:                  -4.606
REMARK INTRA:                  -0.686
REMARK UNBOUND:                -0.621
REMARK SMILES CCCCCCCCC(=O)[O-]
REMARK SMILES IDX 6 1 7 2 8 3 9 4 10 5 11 6 5 7 4 8 3 9 2 10 1 11
REMARK H PARENT
REMARK Flexibility Score: inf
ROOT
ATOM      1  C   UNL     1     126.923 145.341 107.427  1.00  0.00     0.000 C 
ENDROOT
BRANCH   1   2
ATOM      2  C   UNL     1     128.001 145.930 108.350  1.00  0.00     0.006 C 
BRANCH   2   3
ATOM      3  C   UNL     1     127.991 145.299 109.749  1.00  0.00     0.053 C 
BRANCH   3   4
ATOM      4  C   UNL     1     128.210 143.822 109.656  1.00  0.00     0.041 C 
ATOM      5  O   UNL     1     129.284 143.370 109.179  1.00  0.00    -0.550 OA
ATOM      6  O   UNL     1     127.208 142.944 110.049  1.00  0.00    -0.550 OA
ENDBRANCH   3   4
ENDBRANCH   2   3
ENDBRANCH   1   2
BRANCH   1   7
ATOM      7  C   UNL     1     126.894 146.013 106.046  1.00  0.00     0.000 C 
BRANCH   7   8
ATOM      8  C   UNL     1     127.483 145.086 104.972  1.00  0.00    -0.000 C 
BRANCH   8   9
ATOM      9  C   UNL     1     127.568 143.618 105.428  1.00  0.00    -0.000 C 
BRANCH   9  10
ATOM     10  C   UNL     1     128.983 143.014 105.397  1.00  0.00    -0.003 C 
ATOM     11  C   UNL     1     130.064 143.995 105.851  1.00  0.00     0.004 C 
ENDBRANCH   9  10
ENDBRANCH   8   9
ENDBRANCH   7   8
ENDBRANCH   1   7
TORSDOF 7
ENDMDL
MODEL 8
REMARK VINA RESULT:    -3.314      1.800      2.696
REMARK INTER + INTRA:          -5.291
REMARK INTER:                  -4.537
REMARK INTRA:                  -0.754
REMARK UNBOUND:                -0.621
REMARK SMILES CCCCCCCCC(=O)[O-]
REMARK SMILES IDX 6 1 7 2 8 3 9 4 10 5 11 6 5 7 4 8 3 9 2 10 1 11
REMARK H PARENT
REMARK Flexibility Score: inf
ROOT
ATOM      1  C   UNL     1     127.672 144.537 105.101  1.00  0.00     0.000 C 
ENDROOT
BRANCH   1   2
ATOM      2  C   UNL     1     128.563 145.628 105.717  1.00  0.00     0.006 C 
BRANCH   2   3
ATOM      3  C   UNL     1     130.005 145.156 105.943  1.00  0.00     0.053 C 
BRANCH   3   4
ATOM      4  C   UNL     1     130.694 146.039 106.935  1.00  0.00     0.041 C 
ATOM      5  O   UNL     1     130.318 146.054 108.138  1.00  0.00    -0.550 OA
ATOM      6  O   UNL     1     131.718 146.882 106.524  1.00  0.00    -0.550 OA
ENDBRANCH   3   4
ENDBRANCH   2   3
ENDBRANCH   1   2
BRANCH   1   7
ATOM      7  C   UNL     1     128.181 143.119 105.402  1.00  0.00     0.000 C 
BRANCH   7   8
ATOM      8  C   UNL     1     127.105 142.292 106.121  1.00  0.00    -0.000 C 
BRANCH   8   9
ATOM      9  C   UNL     1     127.558 141.789 107.504  1.00  0.00    -0.000 C 
BRANCH   9  10
ATOM     10  C   UNL     1     128.543 142.715 108.238  1.00  0.00    -0.003 C 
ATOM     11  C   UNL     1     127.849 143.704 109.174  1.00  0.00     0.004 C 
ENDBRANCH   9  10
ENDBRANCH   8   9
ENDBRANCH   7   8
ENDBRANCH   1   7
TORSDOF 7
ENDMDL
