MODEL 1
REMARK VINA RESULT:    -7.415      0.000      0.000
REMARK INTER + INTRA:         -11.880
REMARK INTER:                 -10.882
REMARK INTRA:                  -0.997
REMARK UNBOUND:                -0.997
REMARK SMILES Cc1cc2c(C(C)C)c(O)c(O)c(C=O)c2c(O)c1-c1c(C)cc2c(C(C)C)c(O)c(O)c(C=O)c2c1O
REMARK SMILES IDX 1 1 2 2 3 3 4 4 16 5 13 6 11 7 9 8 5 9 17 10 19 11 20 12
REMARK SMILES IDX 37 13 21 14 36 15 23 16 22 17 24 18 33 19 25 20 31 21 29 22
REMARK SMILES IDX 38 23 34 25 35 26 26 27 27 28 28 29 32 30 30 32 18 34 6 36
REMARK SMILES IDX 7 37 8 38 14 39 15 40 10 41 12 43
REMARK H PARENT 38 24 32 31 30 33 18 35 10 42 12 44
REMARK Flexibility Score: inf
ROOT
ATOM      1  C   UNL     1      18.435 -31.755  24.662  1.00  0.00     0.045 C 
ATOM      2  C   UNL     1      17.689 -32.196  23.425  1.00  0.00    -0.039 A 
ATOM      3  C   UNL     1      16.352 -31.831  23.265  1.00  0.00     0.013 A 
ATOM      4  C   UNL     1      15.594 -32.242  22.145  1.00  0.00    -0.006 A 
ATOM      5  C   UNL     1      16.239 -32.998  21.120  1.00  0.00     0.039 A 
ATOM      6  C   UNL     1      15.483 -33.391  19.976  1.00  0.00     0.072 A 
ATOM      7  C   UNL     1      14.185 -32.883  19.784  1.00  0.00     0.169 A 
ATOM      8  C   UNL     1      13.593 -32.061  20.757  1.00  0.00     0.162 A 
ATOM      9  C   UNL     1      14.220 -31.874  22.008  1.00  0.00     0.008 A 
ATOM     10  C   UNL     1      17.628 -33.300  21.252  1.00  0.00     0.132 A 
ATOM     11  C   UNL     1      18.334 -32.926  22.415  1.00  0.00     0.031 A 
ENDROOT
BRANCH  11  12
ATOM     12  C   UNL     1      19.774 -33.268  22.558  1.00  0.00     0.031 A 
ATOM     13  C   UNL     1      20.158 -34.468  23.193  1.00  0.00     0.132 A 
ATOM     14  C   UNL     1      20.752 -32.391  22.065  1.00  0.00    -0.039 A 
ATOM     15  C   UNL     1      21.540 -34.786  23.366  1.00  0.00     0.039 A 
ATOM     16  C   UNL     1      22.099 -32.749  22.144  1.00  0.00     0.013 A 
ATOM     17  C   UNL     1      20.370 -31.097  21.386  1.00  0.00     0.045 C 
ATOM     18  C   UNL     1      22.522 -33.953  22.743  1.00  0.00    -0.006 A 
ATOM     19  C   UNL     1      21.970 -35.917  24.121  1.00  0.00     0.072 A 
ATOM     20  C   UNL     1      23.899 -34.343  22.743  1.00  0.00     0.008 A 
ATOM     21  C   UNL     1      23.345 -36.215  24.217  1.00  0.00     0.169 A 
ATOM     22  C   UNL     1      24.288 -35.454  23.522  1.00  0.00     0.162 A 
BRANCH  13  23
ATOM     23  O   UNL     1      19.167 -35.357  23.625  1.00  0.00    -0.507 OA
ATOM     24  H   UNL     1      18.880 -36.179  23.109  1.00  0.00     0.293 HD
ENDBRANCH  13  23
BRANCH  19  25
ATOM     25  C   UNL     1      21.020 -36.755  24.881  1.00  0.00     0.264 C 
ATOM     26  O   UNL     1      20.901 -36.620  26.127  1.00  0.00    -0.298 OA
ENDBRANCH  19  25
BRANCH  20  27
ATOM     27  C   UNL     1      24.998 -33.623  21.934  1.00  0.00     0.017 C 
ATOM     28  C   UNL     1      25.815 -34.597  21.073  1.00  0.00     0.012 C 
ATOM     29  C   UNL     1      25.877 -32.666  22.765  1.00  0.00     0.012 C 
ENDBRANCH  20  27
BRANCH  21  30
ATOM     30  O   UNL     1      23.813 -37.262  25.022  1.00  0.00    -0.504 OA
ATOM     31  H   UNL     1      23.841 -38.231  24.734  1.00  0.00     0.293 HD
ENDBRANCH  21  30
BRANCH  22  32
ATOM     32  O   UNL     1      25.642 -35.792  23.621  1.00  0.00    -0.504 OA
ATOM     33  H   UNL     1      26.025 -36.659  23.262  1.00  0.00     0.293 HD
ENDBRANCH  22  32
ENDBRANCH  11  12
BRANCH  10  34
ATOM     34  O   UNL     1      18.315 -33.934  20.210  1.00  0.00    -0.507 OA
ATOM     35  H   UNL     1      18.675 -34.878  20.262  1.00  0.00     0.293 HD
ENDBRANCH  10  34
BRANCH   9  36
ATOM     36  C   UNL     1      13.430 -31.236  23.167  1.00  0.00     0.017 C 
ATOM     37  C   UNL     1      13.517 -32.100  24.429  1.00  0.00     0.012 C 
ATOM     38  C   UNL     1      13.825 -29.776  23.461  1.00  0.00     0.012 C 
ENDBRANCH   9  36
BRANCH   6  39
ATOM     39  C   UNL     1      15.984 -34.391  19.002  1.00  0.00     0.264 C 
ATOM     40  O   UNL     1      16.095 -35.606  19.317  1.00  0.00    -0.298 OA
ENDBRANCH   6  39
BRANCH   8  41
ATOM     41  O   UNL     1      12.385 -31.409  20.495  1.00  0.00    -0.504 OA
ATOM     42  H   UNL     1      11.596 -31.402  21.126  1.00  0.00     0.293 HD
ENDBRANCH   8  41
BRANCH   7  43
ATOM     43  O   UNL     1      13.480 -33.255  18.634  1.00  0.00    -0.504 OA
ATOM     44  H   UNL     1      12.649 -33.830  18.639  1.00  0.00     0.293 HD
ENDBRANCH   7  43
TORSDOF 11
ENDMDL
MODEL 2
REMARK VINA RESULT:    -7.357      9.991     12.426
REMARK INTER + INTRA:         -11.795
REMARK INTER:                 -10.153
REMARK INTRA:                  -1.642
REMARK UNBOUND:                -0.997
REMARK SMILES Cc1cc2c(C(C)C)c(O)c(O)c(C=O)c2c(O)c1-c1c(C)cc2c(C(C)C)c(O)c(O)c(C=O)c2c1O
REMARK SMILES IDX 1 1 2 2 3 3 4 4 16 5 13 6 11 7 9 8 5 9 17 10 19 11 20 12
REMARK SMILES IDX 37 13 21 14 36 15 23 16 22 17 24 18 33 19 25 20 31 21 29 22
REMARK SMILES IDX 38 23 34 25 35 26 26 27 27 28 28 29 32 30 30 32 18 34 6 36
REMARK SMILES IDX 7 37 8 38 14 39 15 40 10 41 12 43
REMARK H PARENT 38 24 32 31 30 33 18 35 10 42 12 44
REMARK Flexibility Score: inf
ROOT
ATOM      1  C   UNL     1      22.603 -22.210  25.630  1.00  0.00     0.045 C 
ATOM      2  C   UNL     1      22.591 -23.688  25.320  1.00  0.00    -0.039 A 
ATOM      3  C   UNL     1      22.373 -24.112  24.009  1.00  0.00     0.013 A 
ATOM      4  C   UNL     1      22.318 -25.482  23.667  1.00  0.00    -0.006 A 
ATOM      5  C   UNL     1      22.556 -26.454  24.684  1.00  0.00     0.039 A 
ATOM      6  C   UNL     1      22.528 -27.837  24.335  1.00  0.00     0.072 A 
ATOM      7  C   UNL     1      22.449 -28.218  22.983  1.00  0.00     0.169 A 
ATOM      8  C   UNL     1      22.310 -27.246  21.978  1.00  0.00     0.162 A 
ATOM      9  C   UNL     1      22.075 -25.897  22.320  1.00  0.00     0.008 A 
ATOM     10  C   UNL     1      22.858 -26.012  26.008  1.00  0.00     0.132 A 
ATOM     11  C   UNL     1      22.841 -24.637  26.324  1.00  0.00     0.031 A 
ENDROOT
BRANCH  11  12
ATOM     12  C   UNL     1      23.128 -24.185  27.711  1.00  0.00     0.031 A 
ATOM     13  C   UNL     1      24.458 -23.956  28.121  1.00  0.00     0.132 A 
ATOM     14  C   UNL     1      22.073 -23.990  28.615  1.00  0.00    -0.039 A 
ATOM     15  C   UNL     1      24.744 -23.556  29.463  1.00  0.00     0.039 A 
ATOM     16  C   UNL     1      22.343 -23.504  29.894  1.00  0.00     0.013 A 
ATOM     17  C   UNL     1      20.639 -24.232  28.205  1.00  0.00     0.045 C 
ATOM     18  C   UNL     1      23.656 -23.233  30.332  1.00  0.00    -0.006 A 
ATOM     19  C   UNL     1      26.079 -23.448  29.954  1.00  0.00     0.072 A 
ATOM     20  C   UNL     1      23.910 -22.657  31.618  1.00  0.00     0.008 A 
ATOM     21  C   UNL     1      26.308 -22.999  31.270  1.00  0.00     0.169 A 
ATOM     22  C   UNL     1      25.243 -22.591  32.078  1.00  0.00     0.162 A 
BRANCH  13  23
ATOM     23  O   UNL     1      25.492 -24.098  27.188  1.00  0.00    -0.507 OA
ATOM     24  H   UNL     1      26.359 -24.587  27.374  1.00  0.00     0.293 HD
ENDBRANCH  13  23
BRANCH  19  25
ATOM     25  C   UNL     1      27.244 -23.871  29.148  1.00  0.00     0.264 C 
ATOM     26  O   UNL     1      28.041 -23.017  28.678  1.00  0.00    -0.298 OA
ENDBRANCH  19  25
BRANCH  20  27
ATOM     27  C   UNL     1      22.811 -22.093  32.542  1.00  0.00     0.017 C 
ATOM     28  C   UNL     1      22.008 -23.205  33.232  1.00  0.00     0.012 C 
ATOM     29  C   UNL     1      21.919 -21.018  31.888  1.00  0.00     0.012 C 
ENDBRANCH  20  27
BRANCH  21  30
ATOM     30  O   UNL     1      27.596 -22.967  31.820  1.00  0.00    -0.504 OA
ATOM     31  H   UNL     1      27.894 -23.534  32.602  1.00  0.00     0.293 HD
ENDBRANCH  21  30
BRANCH  22  32
ATOM     32  O   UNL     1      25.508 -22.128  33.372  1.00  0.00    -0.504 OA
ATOM     33  H   UNL     1      24.788 -22.002  34.074  1.00  0.00     0.293 HD
ENDBRANCH  22  32
ENDBRANCH  11  12
BRANCH  10  34
ATOM     34  O   UNL     1      23.213 -26.936  26.998  1.00  0.00    -0.507 OA
ATOM     35  H   UNL     1      22.559 -27.343  27.654  1.00  0.00     0.293 HD
ENDBRANCH  10  34
BRANCH   9  36
ATOM     36  C   UNL     1      21.618 -24.905  21.234  1.00  0.00     0.017 C 
ATOM     37  C   UNL     1      22.764 -24.583  20.269  1.00  0.00     0.012 C 
ATOM     38  C   UNL     1      20.356 -25.351  20.473  1.00  0.00     0.012 C 
ENDBRANCH   9  36
BRANCH   6  39
ATOM     39  C   UNL     1      22.497 -28.910  25.358  1.00  0.00     0.264 C 
ATOM     40  O   UNL     1      23.511 -29.623  25.585  1.00  0.00    -0.298 OA
ENDBRANCH   6  39
BRANCH   8  41
ATOM     41  O   UNL     1      22.413 -27.600  20.630  1.00  0.00    -0.504 OA
ATOM     42  H   UNL     1      21.664 -27.505  19.960  1.00  0.00     0.293 HD
ENDBRANCH   8  41
BRANCH   7  43
ATOM     43  O   UNL     1      22.462 -29.581  22.666  1.00  0.00    -0.504 OA
ATOM     44  H   UNL     1      21.833 -30.015  22.005  1.00  0.00     0.293 HD
ENDBRANCH   7  43
TORSDOF 11
ENDMDL
MODEL 3
REMARK VINA RESULT:    -7.235      9.902     13.012
REMARK INTER + INTRA:         -11.616
REMARK INTER:                  -9.981
REMARK INTRA:                  -1.635
REMARK UNBOUND:                -0.997
REMARK SMILES Cc1cc2c(C(C)C)c(O)c(O)c(C=O)c2c(O)c1-c1c(C)cc2c(C(C)C)c(O)c(O)c(C=O)c2c1O
REMARK SMILES IDX 1 1 2 2 3 3 4 4 16 5 13 6 11 7 9 8 5 9 17 10 19 11 20 12
REMARK SMILES IDX 37 13 21 14 36 15 23 16 22 17 24 18 33 19 25 20 31 21 29 22
REMARK SMILES IDX 38 23 34 25 35 26 26 27 27 28 28 29 32 30 30 32 18 34 6 36
REMARK SMILES IDX 7 37 8 38 14 39 15 40 10 41 12 43
REMARK H PARENT 38 24 32 31 30 33 18 35 10 42 12 44
REMARK Flexibility Score: inf
ROOT
ATOM      1  C   UNL     1      20.787 -24.387  28.230  1.00  0.00     0.045 C 
ATOM      2  C   UNL     1      22.220 -24.114  28.620  1.00  0.00    -0.039 A 
ATOM      3  C   UNL     1      22.506 -23.667  29.910  1.00  0.00     0.013 A 
ATOM      4  C   UNL     1      23.824 -23.364  30.322  1.00  0.00    -0.006 A 
ATOM      5  C   UNL     1      24.896 -23.584  29.406  1.00  0.00     0.039 A 
ATOM      6  C   UNL     1      26.230 -23.304  29.828  1.00  0.00     0.072 A 
ATOM      7  C   UNL     1      26.489 -22.995  31.176  1.00  0.00     0.169 A 
ATOM      8  C   UNL     1      25.432 -22.873  32.093  1.00  0.00     0.162 A 
ATOM      9  C   UNL     1      24.094 -22.889  31.643  1.00  0.00     0.008 A 
ATOM     10  C   UNL     1      24.606 -24.117  28.114  1.00  0.00     0.132 A 
ATOM     11  C   UNL     1      23.271 -24.347  27.719  1.00  0.00     0.031 A 
ENDROOT
BRANCH  11  12
ATOM     12  C   UNL     1      22.973 -24.876  26.361  1.00  0.00     0.031 A 
ATOM     13  C   UNL     1      22.958 -26.268  26.130  1.00  0.00     0.132 A 
ATOM     14  C   UNL     1      22.713 -23.988  25.307  1.00  0.00    -0.039 A 
ATOM     15  C   UNL     1      22.708 -26.783  24.821  1.00  0.00     0.039 A 
ATOM     16  C   UNL     1      22.371 -24.492  24.052  1.00  0.00     0.013 A 
ATOM     17  C   UNL     1      22.728 -22.493  25.524  1.00  0.00     0.045 C 
ATOM     18  C   UNL     1      22.314 -25.876  23.788  1.00  0.00    -0.006 A 
ATOM     19  C   UNL     1      22.819 -28.172  24.518  1.00  0.00     0.072 A 
ATOM     20  C   UNL     1      21.881 -26.376  22.519  1.00  0.00     0.008 A 
ATOM     21  C   UNL     1      22.511 -28.634  23.222  1.00  0.00     0.169 A 
ATOM     22  C   UNL     1      22.030 -27.754  22.249  1.00  0.00     0.162 A 
BRANCH  13  23
ATOM     23  O   UNL     1      23.162 -27.139  27.207  1.00  0.00    -0.507 OA
ATOM     24  H   UNL     1      23.471 -28.097  27.109  1.00  0.00     0.293 HD
ENDBRANCH  13  23
BRANCH  19  25
ATOM     25  C   UNL     1      23.327 -29.148  25.504  1.00  0.00     0.264 C 
ATOM     26  O   UNL     1      22.552 -29.989  26.032  1.00  0.00    -0.298 OA
ENDBRANCH  19  25
BRANCH  20  27
ATOM     27  C   UNL     1      21.251 -25.501  21.416  1.00  0.00     0.017 C 
ATOM     28  C   UNL     1      22.305 -24.693  20.646  1.00  0.00     0.012 C 
ATOM     29  C   UNL     1      20.057 -24.645  21.886  1.00  0.00     0.012 C 
ENDBRANCH  20  27
BRANCH  21  30
ATOM     30  O   UNL     1      22.695 -29.974  22.860  1.00  0.00    -0.504 OA
ATOM     31  H   UNL     1      21.947 -30.594  22.576  1.00  0.00     0.293 HD
ENDBRANCH  21  30
BRANCH  22  32
ATOM     32  O   UNL     1      21.712 -28.251  20.980  1.00  0.00    -0.504 OA
ATOM     33  H   UNL     1      22.158 -29.067  20.576  1.00  0.00     0.293 HD
ENDBRANCH  22  32
ENDBRANCH  11  12
BRANCH  10  34
ATOM     34  O   UNL     1      25.645 -24.456  27.239  1.00  0.00    -0.507 OA
ATOM     35  H   UNL     1      26.388 -23.824  26.972  1.00  0.00     0.293 HD
ENDBRANCH  10  34
BRANCH   9  36
ATOM     36  C   UNL     1      22.965 -22.449  32.594  1.00  0.00     0.017 C 
ATOM     37  C   UNL     1      22.761 -23.475  33.713  1.00  0.00     0.012 C 
ATOM     38  C   UNL     1      23.149 -21.030  33.165  1.00  0.00     0.012 C 
ENDBRANCH   9  36
BRANCH   6  39
ATOM     39  C   UNL     1      27.365 -23.246  28.875  1.00  0.00     0.264 C 
ATOM     40  O   UNL     1      28.223 -24.167  28.828  1.00  0.00    -0.298 OA
ENDBRANCH   6  39
BRANCH   8  41
ATOM     41  O   UNL     1      25.689 -22.746  33.461  1.00  0.00    -0.504 OA
ATOM     42  H   UNL     1      25.960 -21.883  33.909  1.00  0.00     0.293 HD
ENDBRANCH   8  41
BRANCH   7  43
ATOM     43  O   UNL     1      27.811 -22.762  31.571  1.00  0.00    -0.504 OA
ATOM     44  H   UNL     1      28.073 -22.297  32.429  1.00  0.00     0.293 HD
ENDBRANCH   7  43
TORSDOF 11
ENDMDL
MODEL 4
REMARK VINA RESULT:    -7.183      4.921      7.390
REMARK INTER + INTRA:         -11.540
REMARK INTER:                 -10.071
REMARK INTRA:                  -1.468
REMARK UNBOUND:                -0.997
REMARK SMILES Cc1cc2c(C(C)C)c(O)c(O)c(C=O)c2c(O)c1-c1c(C)cc2c(C(C)C)c(O)c(O)c(C=O)c2c1O
REMARK SMILES IDX 1 1 2 2 3 3 4 4 16 5 13 6 11 7 9 8 5 9 17 10 19 11 20 12
REMARK SMILES IDX 37 13 21 14 36 15 23 16 22 17 24 18 33 19 25 20 31 21 29 22
REMARK SMILES IDX 38 23 34 25 35 26 26 27 27 28 28 29 32 30 30 32 18 34 6 36
REMARK SMILES IDX 7 37 8 38 14 39 15 40 10 41 12 43
REMARK H PARENT 38 24 32 31 30 33 18 35 10 42 12 44
REMARK Flexibility Score: inf
ROOT
ATOM      1  C   UNL     1      22.478 -32.279  24.867  1.00  0.00     0.045 C 
ATOM      2  C   UNL     1      22.145 -31.101  23.983  1.00  0.00    -0.039 A 
ATOM      3  C   UNL     1      20.989 -31.134  23.204  1.00  0.00     0.013 A 
ATOM      4  C   UNL     1      20.644 -30.075  22.333  1.00  0.00    -0.006 A 
ATOM      5  C   UNL     1      21.473 -28.914  22.302  1.00  0.00     0.039 A 
ATOM      6  C   UNL     1      21.112 -27.833  21.445  1.00  0.00     0.072 A 
ATOM      7  C   UNL     1      19.868 -27.844  20.787  1.00  0.00     0.169 A 
ATOM      8  C   UNL     1      19.016 -28.955  20.899  1.00  0.00     0.162 A 
ATOM      9  C   UNL     1      19.464 -30.136  21.528  1.00  0.00     0.008 A 
ATOM     10  C   UNL     1      22.611 -28.853  23.162  1.00  0.00     0.132 A 
ATOM     11  C   UNL     1      22.957 -29.956  23.970  1.00  0.00     0.031 A 
ENDROOT
BRANCH  11  12
ATOM     12  C   UNL     1      24.160 -29.897  24.842  1.00  0.00     0.031 A 
ATOM     13  C   UNL     1      25.411 -30.330  24.356  1.00  0.00     0.132 A 
ATOM     14  C   UNL     1      24.048 -29.413  26.155  1.00  0.00    -0.039 A 
ATOM     15  C   UNL     1      26.564 -30.309  25.200  1.00  0.00     0.039 A 
ATOM     16  C   UNL     1      25.192 -29.299  26.946  1.00  0.00     0.013 A 
ATOM     17  C   UNL     1      22.720 -28.947  26.705  1.00  0.00     0.045 C 
ATOM     18  C   UNL     1      26.465 -29.692  26.485  1.00  0.00    -0.006 A 
ATOM     19  C   UNL     1      27.813 -30.865  24.792  1.00  0.00     0.072 A 
ATOM     20  C   UNL     1      27.640 -29.492  27.279  1.00  0.00     0.008 A 
ATOM     21  C   UNL     1      28.933 -30.771  25.643  1.00  0.00     0.169 A 
ATOM     22  C   UNL     1      28.852 -30.078  26.854  1.00  0.00     0.162 A 
BRANCH  13  23
ATOM     23  O   UNL     1      25.515 -30.754  23.025  1.00  0.00    -0.507 OA
ATOM     24  H   UNL     1      26.376 -31.065  22.596  1.00  0.00     0.293 HD
ENDBRANCH  13  23
BRANCH  19  25
ATOM     25  C   UNL     1      27.958 -31.613  23.527  1.00  0.00     0.264 C 
ATOM     26  O   UNL     1      27.864 -32.869  23.510  1.00  0.00    -0.298 OA
ENDBRANCH  19  25
BRANCH  20  27
ATOM     27  C   UNL     1      27.670 -28.664  28.580  1.00  0.00     0.017 C 
ATOM     28  C   UNL     1      27.151 -29.460  29.785  1.00  0.00     0.012 C 
ATOM     29  C   UNL     1      27.034 -27.264  28.460  1.00  0.00     0.012 C 
ENDBRANCH  20  27
BRANCH  21  30
ATOM     30  O   UNL     1      30.151 -31.383  25.320  1.00  0.00    -0.504 OA
ATOM     31  H   UNL     1      31.027 -30.886  25.218  1.00  0.00     0.293 HD
ENDBRANCH  21  30
BRANCH  22  32
ATOM     32  O   UNL     1      29.989 -29.985  27.663  1.00  0.00    -0.504 OA
ATOM     33  H   UNL     1      29.951 -29.759  28.650  1.00  0.00     0.293 HD
ENDBRANCH  22  32
ENDBRANCH  11  12
BRANCH  10  34
ATOM     34  O   UNL     1      23.373 -27.681  23.243  1.00  0.00    -0.507 OA
ATOM     35  H   UNL     1      24.372 -27.643  23.084  1.00  0.00     0.293 HD
ENDBRANCH  10  34
BRANCH   9  36
ATOM     36  C   UNL     1      18.651 -31.436  21.375  1.00  0.00     0.017 C 
ATOM     37  C   UNL     1      19.496 -32.536  20.724  1.00  0.00     0.012 C 
ATOM     38  C   UNL     1      18.008 -31.927  22.685  1.00  0.00     0.012 C 
ENDBRANCH   9  36
BRANCH   6  39
ATOM     39  C   UNL     1      22.040 -26.715  21.148  1.00  0.00     0.264 C 
ATOM     40  O   UNL     1      21.847 -25.564  21.624  1.00  0.00    -0.298 OA
ENDBRANCH   6  39
BRANCH   8  41
ATOM     41  O   UNL     1      17.710 -28.900  20.401  1.00  0.00    -0.504 OA
ATOM     42  H   UNL     1      16.884 -29.057  20.960  1.00  0.00     0.293 HD
ENDBRANCH   8  41
BRANCH   7  43
ATOM     43  O   UNL     1      19.524 -26.753  19.981  1.00  0.00    -0.504 OA
ATOM     44  H   UNL     1      19.630 -26.735  18.976  1.00  0.00     0.293 HD
ENDBRANCH   7  43
TORSDOF 11
ENDMDL
MODEL 5
REMARK VINA RESULT:    -7.125      5.158     11.340
REMARK INTER + INTRA:         -11.455
REMARK INTER:                  -9.837
REMARK INTRA:                  -1.618
REMARK UNBOUND:                -0.997
REMARK SMILES Cc1cc2c(C(C)C)c(O)c(O)c(C=O)c2c(O)c1-c1c(C)cc2c(C(C)C)c(O)c(O)c(C=O)c2c1O
REMARK SMILES IDX 1 1 2 2 3 3 4 4 16 5 13 6 11 7 9 8 5 9 17 10 19 11 20 12
REMARK SMILES IDX 37 13 21 14 36 15 23 16 22 17 24 18 33 19 25 20 31 21 29 22
REMARK SMILES IDX 38 23 34 25 35 26 26 27 27 28 28 29 32 30 30 32 18 34 6 36
REMARK SMILES IDX 7 37 8 38 14 39 15 40 10 41 12 43
REMARK H PARENT 38 24 32 31 30 33 18 35 10 42 12 44
REMARK Flexibility Score: inf
ROOT
ATOM      1  C   UNL     1      25.622 -31.808  22.760  1.00  0.00     0.045 C 
ATOM      2  C   UNL     1      25.810 -31.023  24.036  1.00  0.00    -0.039 A 
ATOM      3  C   UNL     1      27.084 -30.919  24.595  1.00  0.00     0.013 A 
ATOM      4  C   UNL     1      27.314 -30.226  25.805  1.00  0.00    -0.006 A 
ATOM      5  C   UNL     1      26.219 -29.562  26.435  1.00  0.00     0.039 A 
ATOM      6  C   UNL     1      26.455 -28.838  27.642  1.00  0.00     0.072 A 
ATOM      7  C   UNL     1      27.772 -28.637  28.093  1.00  0.00     0.169 A 
ATOM      8  C   UNL     1      28.853 -29.219  27.411  1.00  0.00     0.162 A 
ATOM      9  C   UNL     1      28.624 -30.147  26.373  1.00  0.00     0.008 A 
ATOM     10  C   UNL     1      24.934 -29.604  25.815  1.00  0.00     0.132 A 
ATOM     11  C   UNL     1      24.731 -30.360  24.640  1.00  0.00     0.031 A 
ENDROOT
BRANCH  11  12
ATOM     12  C   UNL     1      23.383 -30.423  24.016  1.00  0.00     0.031 A 
ATOM     13  C   UNL     1      22.987 -29.442  23.083  1.00  0.00     0.132 A 
ATOM     14  C   UNL     1      22.502 -31.459  24.359  1.00  0.00    -0.039 A 
ATOM     15  C   UNL     1      21.680 -29.476  22.505  1.00  0.00     0.039 A 
ATOM     16  C   UNL     1      21.264 -31.550  23.721  1.00  0.00     0.013 A 
ATOM     17  C   UNL     1      22.897 -32.521  25.359  1.00  0.00     0.045 C 
ATOM     18  C   UNL     1      20.844 -30.607  22.761  1.00  0.00    -0.006 A 
ATOM     19  C   UNL     1      21.194 -28.430  21.667  1.00  0.00     0.072 A 
ATOM     20  C   UNL     1      19.607 -30.760  22.056  1.00  0.00     0.008 A 
ATOM     21  C   UNL     1      19.916 -28.538  21.080  1.00  0.00     0.169 A 
ATOM     22  C   UNL     1      19.148 -29.692  21.255  1.00  0.00     0.162 A 
BRANCH  13  23
ATOM     23  O   UNL     1      23.901 -28.450  22.709  1.00  0.00    -0.507 OA
ATOM     24  H   UNL     1      24.522 -28.524  21.913  1.00  0.00     0.293 HD
ENDBRANCH  13  23
BRANCH  19  25
ATOM     25  C   UNL     1      21.958 -27.184  21.450  1.00  0.00     0.264 C 
ATOM     26  O   UNL     1      22.507 -26.953  20.340  1.00  0.00    -0.298 OA
ENDBRANCH  19  25
BRANCH  20  27
ATOM     27  C   UNL     1      18.736 -32.031  22.111  1.00  0.00     0.017 C 
ATOM     28  C   UNL     1      18.071 -32.219  23.482  1.00  0.00     0.012 C 
ATOM     29  C   UNL     1      19.436 -33.306  21.598  1.00  0.00     0.012 C 
ENDBRANCH  20  27
BRANCH  21  30
ATOM     30  O   UNL     1      19.366 -27.493  20.326  1.00  0.00    -0.504 OA
ATOM     31  H   UNL     1      19.704 -27.211  19.415  1.00  0.00     0.293 HD
ENDBRANCH  21  30
BRANCH  22  32
ATOM     32  O   UNL     1      17.895 -29.775  20.639  1.00  0.00    -0.504 OA
ATOM     33  H   UNL     1      17.763 -30.114  19.693  1.00  0.00     0.293 HD
ENDBRANCH  22  32
ENDBRANCH  11  12
BRANCH  10  34
ATOM     34  O   UNL     1      23.869 -28.864  26.343  1.00  0.00    -0.507 OA
ATOM     35  H   UNL     1      23.965 -27.936  26.734  1.00  0.00     0.293 HD
ENDBRANCH  10  34
BRANCH   9  36
ATOM     36  C   UNL     1      29.790 -31.005  25.846  1.00  0.00     0.017 C 
ATOM     37  C   UNL     1      30.664 -30.204  24.876  1.00  0.00     0.012 C 
ATOM     38  C   UNL     1      30.638 -31.653  26.957  1.00  0.00     0.012 C 
ENDBRANCH   9  36
BRANCH   6  39
ATOM     39  C   UNL     1      25.348 -28.349  28.499  1.00  0.00     0.264 C 
ATOM     40  O   UNL     1      25.054 -27.124  28.546  1.00  0.00    -0.298 OA
ENDBRANCH   6  39
BRANCH   8  41
ATOM     41  O   UNL     1      30.168 -28.878  27.743  1.00  0.00    -0.504 OA
ATOM     42  H   UNL     1      30.707 -29.336  28.464  1.00  0.00     0.293 HD
ENDBRANCH   8  41
BRANCH   7  43
ATOM     43  O   UNL     1      27.977 -27.892  29.260  1.00  0.00    -0.504 OA
ATOM     44  H   UNL     1      27.818 -26.897  29.332  1.00  0.00     0.293 HD
ENDBRANCH   7  43
TORSDOF 11
ENDMDL
MODEL 6
REMARK VINA RESULT:    -7.106      1.523      2.080
REMARK INTER + INTRA:         -11.427
REMARK INTER:                  -9.996
REMARK INTRA:                  -1.430
REMARK UNBOUND:                -0.997
REMARK SMILES Cc1cc2c(C(C)C)c(O)c(O)c(C=O)c2c(O)c1-c1c(C)cc2c(C(C)C)c(O)c(O)c(C=O)c2c1O
REMARK SMILES IDX 1 1 2 2 3 3 4 4 16 5 13 6 11 7 9 8 5 9 17 10 19 11 20 12
REMARK SMILES IDX 37 13 21 14 36 15 23 16 22 17 24 18 33 19 25 20 31 21 29 22
REMARK SMILES IDX 38 23 34 25 35 26 26 27 27 28 28 29 32 30 30 32 18 34 6 36
REMARK SMILES IDX 7 37 8 38 14 39 15 40 10 41 12 43
REMARK H PARENT 38 24 32 31 30 33 18 35 10 42 12 44
REMARK Flexibility Score: inf
ROOT
ATOM      1  C   UNL     1      19.878 -31.814  25.051  1.00  0.00     0.045 C 
ATOM      2  C   UNL     1      19.089 -32.620  24.047  1.00  0.00    -0.039 A 
ATOM      3  C   UNL     1      17.753 -32.298  23.808  1.00  0.00     0.013 A 
ATOM      4  C   UNL     1      16.956 -33.037  22.904  1.00  0.00    -0.006 A 
ATOM      5  C   UNL     1      17.560 -34.102  22.170  1.00  0.00     0.039 A 
ATOM      6  C   UNL     1      16.764 -34.831  21.236  1.00  0.00     0.072 A 
ATOM      7  C   UNL     1      15.468 -34.386  20.920  1.00  0.00     0.169 A 
ATOM      8  C   UNL     1      14.917 -33.276  21.582  1.00  0.00     0.162 A 
ATOM      9  C   UNL     1      15.583 -32.703  22.687  1.00  0.00     0.008 A 
ATOM     10  C   UNL     1      18.948 -34.374  22.359  1.00  0.00     0.132 A 
ATOM     11  C   UNL     1      19.694 -33.656  23.318  1.00  0.00     0.031 A 
ENDROOT
BRANCH  11  12
ATOM     12  C   UNL     1      21.133 -33.964  23.531  1.00  0.00     0.031 A 
ATOM     13  C   UNL     1      21.516 -34.961  24.452  1.00  0.00     0.132 A 
ATOM     14  C   UNL     1      22.112 -33.256  22.817  1.00  0.00    -0.039 A 
ATOM     15  C   UNL     1      22.897 -35.238  24.688  1.00  0.00     0.039 A 
ATOM     16  C   UNL     1      23.456 -33.595  22.973  1.00  0.00     0.013 A 
ATOM     17  C   UNL     1      21.731 -32.180  21.828  1.00  0.00     0.045 C 
ATOM     18  C   UNL     1      23.877 -34.606  23.860  1.00  0.00    -0.006 A 
ATOM     19  C   UNL     1      23.328 -36.138  25.707  1.00  0.00     0.072 A 
ATOM     20  C   UNL     1      25.252 -34.997  23.948  1.00  0.00     0.008 A 
ATOM     21  C   UNL     1      24.701 -36.415  25.864  1.00  0.00     0.169 A 
ATOM     22  C   UNL     1      25.642 -35.871  24.986  1.00  0.00     0.162 A 
BRANCH  13  23
ATOM     23  O   UNL     1      20.523 -35.696  25.111  1.00  0.00    -0.507 OA
ATOM     24  H   UNL     1      19.994 -35.351  25.901  1.00  0.00     0.293 HD
ENDBRANCH  13  23
BRANCH  19  25
ATOM     25  C   UNL     1      22.380 -36.739  26.669  1.00  0.00     0.264 C 
ATOM     26  O   UNL     1      22.678 -36.833  27.889  1.00  0.00    -0.298 OA
ENDBRANCH  19  25
BRANCH  20  27
ATOM     27  C   UNL     1      26.346 -34.525  22.969  1.00  0.00     0.017 C 
ATOM     28  C   UNL     1      26.670 -33.034  23.137  1.00  0.00     0.012 C 
ATOM     29  C   UNL     1      26.105 -34.930  21.500  1.00  0.00     0.012 C 
ENDBRANCH  20  27
BRANCH  21  30
ATOM     30  O   UNL     1      25.171 -37.221  26.909  1.00  0.00    -0.504 OA
ATOM     31  H   UNL     1      25.216 -38.231  26.872  1.00  0.00     0.293 HD
ENDBRANCH  21  30
BRANCH  22  32
ATOM     32  O   UNL     1      26.994 -36.187  25.156  1.00  0.00    -0.504 OA
ATOM     33  H   UNL     1      27.469 -36.128  26.049  1.00  0.00     0.293 HD
ENDBRANCH  22  32
ENDBRANCH  11  12
BRANCH  10  34
ATOM     34  O   UNL     1      19.595 -35.331  21.568  1.00  0.00    -0.507 OA
ATOM     35  H   UNL     1      20.384 -35.129  20.967  1.00  0.00     0.293 HD
ENDBRANCH  10  34
BRANCH   9  36
ATOM     36  C   UNL     1      14.838 -31.702  23.590  1.00  0.00     0.017 C 
ATOM     37  C   UNL     1      14.669 -30.351  22.887  1.00  0.00     0.012 C 
ATOM     38  C   UNL     1      13.492 -32.227  24.124  1.00  0.00     0.012 C 
ENDBRANCH   9  36
BRANCH   6  39
ATOM     39  C   UNL     1      17.223 -36.107  20.634  1.00  0.00     0.264 C 
ATOM     40  O   UNL     1      17.534 -36.176  19.415  1.00  0.00    -0.298 OA
ENDBRANCH   6  39
BRANCH   8  41
ATOM     41  O   UNL     1      13.710 -32.719  21.150  1.00  0.00    -0.504 OA
ATOM     42  H   UNL     1      13.527 -32.432  20.199  1.00  0.00     0.293 HD
ENDBRANCH   8  41
BRANCH   7  43
ATOM     43  O   UNL     1      14.724 -35.099  19.973  1.00  0.00    -0.504 OA
ATOM     44  H   UNL     1      14.953 -36.031  19.658  1.00  0.00     0.293 HD
ENDBRANCH   7  43
TORSDOF 11
ENDMDL
MODEL 7
REMARK VINA RESULT:    -7.081      0.944      9.193
REMARK INTER + INTRA:         -11.389
REMARK INTER:                 -10.007
REMARK INTRA:                  -1.383
REMARK UNBOUND:                -0.997
REMARK SMILES Cc1cc2c(C(C)C)c(O)c(O)c(C=O)c2c(O)c1-c1c(C)cc2c(C(C)C)c(O)c(O)c(C=O)c2c1O
REMARK SMILES IDX 1 1 2 2 3 3 4 4 16 5 13 6 11 7 9 8 5 9 17 10 19 11 20 12
REMARK SMILES IDX 37 13 21 14 36 15 23 16 22 17 24 18 33 19 25 20 31 21 29 22
REMARK SMILES IDX 38 23 34 25 35 26 26 27 27 28 28 29 32 30 30 32 18 34 6 36
REMARK SMILES IDX 7 37 8 38 14 39 15 40 10 41 12 43
REMARK H PARENT 38 24 32 31 30 33 18 35 10 42 12 44
REMARK Flexibility Score: inf
ROOT
ATOM      1  C   UNL     1      21.383 -31.511  21.274  1.00  0.00     0.045 C 
ATOM      2  C   UNL     1      21.719 -32.678  22.172  1.00  0.00    -0.039 A 
ATOM      3  C   UNL     1      23.055 -33.024  22.374  1.00  0.00     0.013 A 
ATOM      4  C   UNL     1      23.428 -34.126  23.177  1.00  0.00    -0.006 A 
ATOM      5  C   UNL     1      22.406 -34.863  23.849  1.00  0.00     0.039 A 
ATOM      6  C   UNL     1      22.782 -35.958  24.682  1.00  0.00     0.072 A 
ATOM      7  C   UNL     1      24.140 -36.185  24.973  1.00  0.00     0.169 A 
ATOM      8  C   UNL     1      25.136 -35.393  24.379  1.00  0.00     0.162 A 
ATOM      9  C   UNL     1      24.802 -34.478  23.357  1.00  0.00     0.008 A 
ATOM     10  C   UNL     1      21.046 -34.453  23.702  1.00  0.00     0.132 A 
ATOM     11  C   UNL     1      20.710 -33.387  22.841  1.00  0.00     0.031 A 
ENDROOT
BRANCH  11  12
ATOM     12  C   UNL     1      19.289 -32.983  22.671  1.00  0.00     0.031 A 
ATOM     13  C   UNL     1      18.511 -33.545  21.636  1.00  0.00     0.132 A 
ATOM     14  C   UNL     1      18.722 -32.037  23.538  1.00  0.00    -0.039 A 
ATOM     15  C   UNL     1      17.156 -33.136  21.444  1.00  0.00     0.039 A 
ATOM     16  C   UNL     1      17.371 -31.711  23.414  1.00  0.00     0.013 A 
ATOM     17  C   UNL     1      19.532 -31.415  24.651  1.00  0.00     0.045 C 
ATOM     18  C   UNL     1      16.553 -32.274  22.413  1.00  0.00    -0.006 A 
ATOM     19  C   UNL     1      16.381 -33.576  20.331  1.00  0.00     0.072 A 
ATOM     20  C   UNL     1      15.151 -31.992  22.351  1.00  0.00     0.008 A 
ATOM     21  C   UNL     1      15.031 -33.183  20.217  1.00  0.00     0.169 A 
ATOM     22  C   UNL     1      14.423 -32.424  21.220  1.00  0.00     0.162 A 
BRANCH  13  23
ATOM     23  O   UNL     1      19.076 -34.531  20.818  1.00  0.00    -0.507 OA
ATOM     24  H   UNL     1      20.015 -34.891  20.933  1.00  0.00     0.293 HD
ENDBRANCH  13  23
BRANCH  19  25
ATOM     25  C   UNL     1      16.970 -34.375  19.237  1.00  0.00     0.264 C 
ATOM     26  O   UNL     1      16.697 -35.598  19.117  1.00  0.00    -0.298 OA
ENDBRANCH  19  25
BRANCH  20  27
ATOM     27  C   UNL     1      14.372 -31.244  23.452  1.00  0.00     0.017 C 
ATOM     28  C   UNL     1      13.450 -32.179  24.246  1.00  0.00     0.012 C 
ATOM     29  C   UNL     1      13.665 -29.960  22.971  1.00  0.00     0.012 C 
ENDBRANCH  20  27
BRANCH  21  30
ATOM     30  O   UNL     1      14.264 -33.518  19.094  1.00  0.00    -0.504 OA
ATOM     31  H   UNL     1      13.998 -34.462  18.848  1.00  0.00     0.293 HD
ENDBRANCH  21  30
BRANCH  22  32
ATOM     32  O   UNL     1      13.076 -32.072  21.086  1.00  0.00    -0.504 OA
ATOM     33  H   UNL     1      12.770 -31.186  20.701  1.00  0.00     0.293 HD
ENDBRANCH  22  32
ENDBRANCH  11  12
BRANCH  10  34
ATOM     34  O   UNL     1      20.036 -35.078  24.442  1.00  0.00    -0.507 OA
ATOM     35  H   UNL     1      19.306 -34.582  24.936  1.00  0.00     0.293 HD
ENDBRANCH  10  34
BRANCH   9  36
ATOM     36  C   UNL     1      25.920 -33.847  22.504  1.00  0.00     0.017 C 
ATOM     37  C   UNL     1      26.667 -32.768  23.294  1.00  0.00     0.012 C 
ATOM     38  C   UNL     1      26.895 -34.873  21.899  1.00  0.00     0.012 C 
ENDBRANCH   9  36
BRANCH   6  39
ATOM     39  C   UNL     1      21.792 -36.934  25.199  1.00  0.00     0.264 C 
ATOM     40  O   UNL     1      21.477 -36.958  26.419  1.00  0.00    -0.298 OA
ENDBRANCH   6  39
BRANCH   8  41
ATOM     41  O   UNL     1      26.465 -35.491  24.799  1.00  0.00    -0.504 OA
ATOM     42  H   UNL     1      27.214 -34.910  24.449  1.00  0.00     0.293 HD
ENDBRANCH   8  41
BRANCH   7  43
ATOM     43  O   UNL     1      24.478 -37.244  25.823  1.00  0.00    -0.504 OA
ATOM     44  H   UNL     1      24.602 -37.152  26.822  1.00  0.00     0.293 HD
ENDBRANCH   7  43
TORSDOF 11
ENDMDL
MODEL 8
REMARK VINA RESULT:    -7.029      4.017      5.992
REMARK INTER + INTRA:         -11.314
REMARK INTER:                  -9.727
REMARK INTRA:                  -1.587
REMARK UNBOUND:                -0.997
REMARK SMILES Cc1cc2c(C(C)C)c(O)c(O)c(C=O)c2c(O)c1-c1c(C)cc2c(C(C)C)c(O)c(O)c(C=O)c2c1O
REMARK SMILES IDX 1 1 2 2 3 3 4 4 16 5 13 6 11 7 9 8 5 9 17 10 19 11 20 12
REMARK SMILES IDX 37 13 21 14 36 15 23 16 22 17 24 18 33 19 25 20 31 21 29 22
REMARK SMILES IDX 38 23 34 25 35 26 26 27 27 28 28 29 32 30 30 32 18 34 6 36
REMARK SMILES IDX 7 37 8 38 14 39 15 40 10 41 12 43
REMARK H PARENT 38 24 32 31 30 33 18 35 10 42 12 44
REMARK Flexibility Score: inf
ROOT
ATOM      1  C   UNL     1      22.722 -34.252  24.915  1.00  0.00     0.045 C 
ATOM      2  C   UNL     1      21.908 -33.332  24.037  1.00  0.00    -0.039 A 
ATOM      3  C   UNL     1      20.610 -33.696  23.680  1.00  0.00     0.013 A 
ATOM      4  C   UNL     1      19.813 -32.891  22.835  1.00  0.00    -0.006 A 
ATOM      5  C   UNL     1      20.335 -31.639  22.389  1.00  0.00     0.039 A 
ATOM      6  C   UNL     1      19.522 -30.812  21.558  1.00  0.00     0.072 A 
ATOM      7  C   UNL     1      18.173 -31.146  21.340  1.00  0.00     0.169 A 
ATOM      8  C   UNL     1      17.642 -32.337  21.863  1.00  0.00     0.162 A 
ATOM      9  C   UNL     1      18.492 -33.291  22.464  1.00  0.00     0.008 A 
ATOM     10  C   UNL     1      21.633 -31.235  22.823  1.00  0.00     0.132 A 
ATOM     11  C   UNL     1      22.422 -32.096  23.616  1.00  0.00     0.031 A 
ENDROOT
BRANCH  11  12
ATOM     12  C   UNL     1      23.785 -31.680  24.041  1.00  0.00     0.031 A 
ATOM     13  C   UNL     1      23.960 -30.927  25.221  1.00  0.00     0.132 A 
ATOM     14  C   UNL     1      24.898 -32.034  23.264  1.00  0.00    -0.039 A 
ATOM     15  C   UNL     1      25.263 -30.494  25.617  1.00  0.00     0.039 A 
ATOM     16  C   UNL     1      26.179 -31.698  23.703  1.00  0.00     0.013 A 
ATOM     17  C   UNL     1      24.740 -32.835  21.993  1.00  0.00     0.045 C 
ATOM     18  C   UNL     1      26.398 -30.973  24.892  1.00  0.00    -0.006 A 
ATOM     19  C   UNL     1      25.468 -29.618  26.725  1.00  0.00     0.072 A 
ATOM     20  C   UNL     1      27.721 -30.707  25.370  1.00  0.00     0.008 A 
ATOM     21  C   UNL     1      26.778 -29.263  27.105  1.00  0.00     0.169 A 
ATOM     22  C   UNL     1      27.883 -29.816  26.453  1.00  0.00     0.162 A 
BRANCH  13  23
ATOM     23  O   UNL     1      22.845 -30.634  26.014  1.00  0.00    -0.507 OA
ATOM     24  H   UNL     1      22.393 -29.730  26.043  1.00  0.00     0.293 HD
ENDBRANCH  13  23
BRANCH  19  25
ATOM     25  C   UNL     1      24.338 -28.999  27.449  1.00  0.00     0.264 C 
ATOM     26  O   UNL     1      23.971 -27.825  27.179  1.00  0.00    -0.298 OA
ENDBRANCH  19  25
BRANCH  20  27
ATOM     27  C   UNL     1      28.996 -31.342  24.777  1.00  0.00     0.017 C 
ATOM     28  C   UNL     1      29.378 -30.719  23.427  1.00  0.00     0.012 C 
ATOM     29  C   UNL     1      28.987 -32.884  24.752  1.00  0.00     0.012 C 
ENDBRANCH  20  27
BRANCH  21  30
ATOM     30  O   UNL     1      27.017 -28.335  28.127  1.00  0.00    -0.504 OA
ATOM     31  H   UNL     1      27.931 -27.969  28.359  1.00  0.00     0.293 HD
ENDBRANCH  21  30
BRANCH  22  32
ATOM     32  O   UNL     1      29.169 -29.459  26.872  1.00  0.00    -0.504 OA
ATOM     33  H   UNL     1      29.362 -29.044  27.776  1.00  0.00     0.293 HD
ENDBRANCH  22  32
ENDBRANCH  11  12
BRANCH  10  34
ATOM     34  O   UNL     1      22.122 -29.963  22.502  1.00  0.00    -0.507 OA
ATOM     35  H   UNL     1      22.246 -29.626  21.556  1.00  0.00     0.293 HD
ENDBRANCH  10  34
BRANCH   9  36
ATOM     36  C   UNL     1      17.962 -34.709  22.751  1.00  0.00     0.017 C 
ATOM     37  C   UNL     1      16.956 -34.694  23.906  1.00  0.00     0.012 C 
ATOM     38  C   UNL     1      17.382 -35.419  21.514  1.00  0.00     0.012 C 
ENDBRANCH   9  36
BRANCH   6  39
ATOM     39  C   UNL     1      20.068 -29.637  20.836  1.00  0.00     0.264 C 
ATOM     40  O   UNL     1      19.799 -28.463  21.206  1.00  0.00    -0.298 OA
ENDBRANCH   6  39
BRANCH   8  41
ATOM     41  O   UNL     1      16.268 -32.587  21.807  1.00  0.00    -0.504 OA
ATOM     42  H   UNL     1      15.567 -31.997  22.231  1.00  0.00     0.293 HD
ENDBRANCH   8  41
BRANCH   7  43
ATOM     43  O   UNL     1      17.388 -30.297  20.551  1.00  0.00    -0.504 OA
ATOM     44  H   UNL     1      16.448 -30.011  20.789  1.00  0.00     0.293 HD
ENDBRANCH   7  43
TORSDOF 11
ENDMDL
MODEL 9
REMARK VINA RESULT:    -7.029      3.399      8.963
REMARK INTER + INTRA:         -11.313
REMARK INTER:                  -9.980
REMARK INTRA:                  -1.333
REMARK UNBOUND:                -0.997
REMARK SMILES Cc1cc2c(C(C)C)c(O)c(O)c(C=O)c2c(O)c1-c1c(C)cc2c(C(C)C)c(O)c(O)c(C=O)c2c1O
REMARK SMILES IDX 1 1 2 2 3 3 4 4 16 5 13 6 11 7 9 8 5 9 17 10 19 11 20 12
REMARK SMILES IDX 37 13 21 14 36 15 23 16 22 17 24 18 33 19 25 20 31 21 29 22
REMARK SMILES IDX 38 23 34 25 35 26 26 27 27 28 28 29 32 30 30 32 18 34 6 36
REMARK SMILES IDX 7 37 8 38 14 39 15 40 10 41 12 43
REMARK H PARENT 38 24 32 31 30 33 18 35 10 42 12 44
REMARK Flexibility Score: inf
ROOT
ATOM      1  C   UNL     1      24.345 -33.280  21.620  1.00  0.00     0.045 C 
ATOM      2  C   UNL     1      24.155 -32.589  22.949  1.00  0.00    -0.039 A 
ATOM      3  C   UNL     1      25.258 -32.027  23.593  1.00  0.00     0.013 A 
ATOM      4  C   UNL     1      25.146 -31.396  24.853  1.00  0.00    -0.006 A 
ATOM      5  C   UNL     1      23.854 -31.279  25.450  1.00  0.00     0.039 A 
ATOM      6  C   UNL     1      23.736 -30.618  26.709  1.00  0.00     0.072 A 
ATOM      7  C   UNL     1      24.842 -29.942  27.254  1.00  0.00     0.169 A 
ATOM      8  C   UNL     1      26.089 -29.986  26.609  1.00  0.00     0.162 A 
ATOM      9  C   UNL     1      26.291 -30.843  25.506  1.00  0.00     0.008 A 
ATOM     10  C   UNL     1      22.719 -31.784  24.748  1.00  0.00     0.132 A 
ATOM     11  C   UNL     1      22.880 -32.464  23.522  1.00  0.00     0.031 A 
ENDROOT
BRANCH  11  12
ATOM     12  C   UNL     1      21.696 -33.013  22.810  1.00  0.00     0.031 A 
ATOM     13  C   UNL     1      21.309 -34.355  23.008  1.00  0.00     0.132 A 
ATOM     14  C   UNL     1      20.965 -32.195  21.934  1.00  0.00    -0.039 A 
ATOM     15  C   UNL     1      20.193 -34.900  22.301  1.00  0.00     0.039 A 
ATOM     16  C   UNL     1      19.818 -32.698  21.320  1.00  0.00     0.013 A 
ATOM     17  C   UNL     1      21.360 -30.756  21.698  1.00  0.00     0.045 C 
ATOM     18  C   UNL     1      19.380 -34.023  21.517  1.00  0.00    -0.006 A 
ATOM     19  C   UNL     1      19.854 -36.284  22.369  1.00  0.00     0.072 A 
ATOM     20  C   UNL     1      18.156 -34.498  20.945  1.00  0.00     0.008 A 
ATOM     21  C   UNL     1      18.713 -36.760  21.692  1.00  0.00     0.169 A 
ATOM     22  C   UNL     1      17.869 -35.878  21.012  1.00  0.00     0.162 A 
BRANCH  13  23
ATOM     23  O   UNL     1      22.014 -35.138  23.930  1.00  0.00    -0.507 OA
ATOM     24  H   UNL     1      21.646 -35.422  24.829  1.00  0.00     0.293 HD
ENDBRANCH  13  23
BRANCH  19  25
ATOM     25  C   UNL     1      20.711 -37.264  23.067  1.00  0.00     0.264 C 
ATOM     26  O   UNL     1      20.345 -37.772  24.160  1.00  0.00    -0.298 OA
ENDBRANCH  19  25
BRANCH  20  27
ATOM     27  C   UNL     1      17.117 -33.589  20.257  1.00  0.00     0.017 C 
ATOM     28  C   UNL     1      15.821 -33.471  21.071  1.00  0.00     0.012 C 
ATOM     29  C   UNL     1      16.871 -33.915  18.769  1.00  0.00     0.012 C 
ENDBRANCH  20  27
BRANCH  21  30
ATOM     30  O   UNL     1      18.398 -38.125  21.659  1.00  0.00    -0.504 OA
ATOM     31  H   UNL     1      19.041 -38.849  21.370  1.00  0.00     0.293 HD
ENDBRANCH  21  30
BRANCH  22  32
ATOM     32  O   UNL     1      16.732 -36.382  20.371  1.00  0.00    -0.504 OA
ATOM     33  H   UNL     1      15.832 -36.475  20.829  1.00  0.00     0.293 HD
ENDBRANCH  22  32
ENDBRANCH  11  12
BRANCH  10  34
ATOM     34  O   UNL     1      21.428 -31.577  25.249  1.00  0.00    -0.507 OA
ATOM     35  H   UNL     1      21.222 -31.025  26.072  1.00  0.00     0.293 HD
ENDBRANCH  10  34
BRANCH   9  36
ATOM     36  C   UNL     1      27.722 -31.117  25.006  1.00  0.00     0.017 C 
ATOM     37  C   UNL     1      28.016 -32.621  24.983  1.00  0.00     0.012 C 
ATOM     38  C   UNL     1      28.044 -30.464  23.649  1.00  0.00     0.012 C 
ENDBRANCH   9  36
BRANCH   6  39
ATOM     39  C   UNL     1      22.496 -30.683  27.521  1.00  0.00     0.264 C 
ATOM     40  O   UNL     1      21.733 -29.685  27.624  1.00  0.00    -0.298 OA
ENDBRANCH   6  39
BRANCH   8  41
ATOM     41  O   UNL     1      27.141 -29.173  27.043  1.00  0.00    -0.504 OA
ATOM     42  H   UNL     1      27.770 -29.414  27.796  1.00  0.00     0.293 HD
ENDBRANCH   8  41
BRANCH   7  43
ATOM     43  O   UNL     1      24.687 -29.271  28.472  1.00  0.00    -0.504 OA
ATOM     44  H   UNL     1      25.323 -28.564  28.815  1.00  0.00     0.293 HD
ENDBRANCH   7  43
TORSDOF 11
ENDMDL
