MODEL 1
REMARK VINA RESULT:    -4.827      0.000      0.000
REMARK INTER + INTRA:          -6.998
REMARK INTER:                  -6.520
REMARK INTRA:                  -0.477
REMARK UNBOUND:                -0.477
REMARK SMILES CC(=O)CCC=C(C)CCC=C(C)C
REMARK SMILES IDX 7 1 6 2 8 3 9 4 10 5 11 6 13 7 12 8 14 9 5 10 4 11 2 12 3 13
REMARK SMILES IDX 1 14
REMARK H PARENT
REMARK Flexibility Score: inf
ROOT
ATOM      1  C   UNL     1      15.030 -47.896  -4.007  1.00  0.00    -0.077 C 
ATOM      2  C   UNL     1      14.415 -48.289  -5.146  1.00  0.00    -0.028 C 
ATOM      3  C   UNL     1      14.420 -46.865  -3.087  1.00  0.00     0.039 C 
ENDROOT
BRANCH   1   4
ATOM      4  C   UNL     1      16.358 -48.518  -3.638  1.00  0.00     0.034 C 
BRANCH   4   5
ATOM      5  C   UNL     1      16.918 -47.884  -2.359  1.00  0.00     0.032 C 
BRANCH   5   6
ATOM      6  C   UNL     1      18.413 -48.073  -2.278  1.00  0.00    -0.028 C 
ATOM      7  C   UNL     1      18.294 -49.357  -0.131  1.00  0.00     0.039 C 
ATOM      8  C   UNL     1      19.043 -48.754  -1.296  1.00  0.00    -0.080 C 
ATOM      9  C   UNL     1      20.542 -48.895  -1.368  1.00  0.00     0.039 C 
ENDBRANCH   5   6
ENDBRANCH   4   5
ENDBRANCH   1   4
BRANCH   2  10
ATOM     10  C   UNL     1      13.116 -47.716  -5.654  1.00  0.00     0.035 C 
BRANCH  10  11
ATOM     11  C   UNL     1      13.370 -46.750  -6.816  1.00  0.00     0.079 C 
BRANCH  11  12
ATOM     12  C   UNL     1      12.359 -45.633  -6.808  1.00  0.00     0.130 C 
ATOM     13  O   UNL     1      12.600 -44.600  -7.414  1.00  0.00    -0.300 OA
ATOM     14  C   UNL     1      11.065 -45.757  -6.060  1.00  0.00     0.087 C 
ENDBRANCH  11  12
ENDBRANCH  10  11
ENDBRANCH   2  10
TORSDOF 6
ENDMDL
MODEL 2
REMARK VINA RESULT:    -4.648      3.628      7.487
REMARK INTER + INTRA:          -6.755
REMARK INTER:                  -6.178
REMARK INTRA:                  -0.577
REMARK UNBOUND:                -0.477
REMARK SMILES CC(=O)CCC=C(C)CCC=C(C)C
REMARK SMILES IDX 7 1 6 2 8 3 9 4 10 5 11 6 13 7 12 8 14 9 5 10 4 11 2 12 3 13
REMARK SMILES IDX 1 14
REMARK H PARENT
REMARK Flexibility Score: inf
ROOT
ATOM      1  C   UNL     1      17.692 -48.407  -1.755  1.00  0.00    -0.077 C 
ATOM      2  C   UNL     1      19.012 -48.248  -2.005  1.00  0.00    -0.028 C 
ATOM      3  C   UNL     1      17.195 -49.080  -0.497  1.00  0.00     0.039 C 
ENDROOT
BRANCH   1   4
ATOM      4  C   UNL     1      16.687 -47.881  -2.755  1.00  0.00     0.034 C 
BRANCH   4   5
ATOM      5  C   UNL     1      15.961 -49.036  -3.454  1.00  0.00     0.032 C 
BRANCH   5   6
ATOM      6  C   UNL     1      16.153 -48.962  -4.949  1.00  0.00    -0.028 C 
ATOM      7  C   UNL     1      14.011 -47.720  -5.323  1.00  0.00     0.039 C 
ATOM      8  C   UNL     1      15.298 -48.352  -5.799  1.00  0.00    -0.080 C 
ATOM      9  C   UNL     1      15.642 -48.322  -7.266  1.00  0.00     0.039 C 
ENDBRANCH   5   6
ENDBRANCH   4   5
ENDBRANCH   1   4
BRANCH   2  10
ATOM     10  C   UNL     1      20.116 -48.766  -1.118  1.00  0.00     0.035 C 
BRANCH  10  11
ATOM     11  C   UNL     1      20.888 -49.890  -1.818  1.00  0.00     0.079 C 
BRANCH  11  12
ATOM     12  C   UNL     1      21.902 -49.321  -2.776  1.00  0.00     0.130 C 
ATOM     13  O   UNL     1      22.774 -48.577  -2.356  1.00  0.00    -0.300 OA
ATOM     14  C   UNL     1      21.856 -49.641  -4.241  1.00  0.00     0.087 C 
ENDBRANCH  11  12
ENDBRANCH  10  11
ENDBRANCH   2  10
TORSDOF 6
ENDMDL
MODEL 3
REMARK VINA RESULT:    -4.626      1.492      2.160
REMARK INTER + INTRA:          -6.726
REMARK INTER:                  -6.120
REMARK INTRA:                  -0.605
REMARK UNBOUND:                -0.477
REMARK SMILES CC(=O)CCC=C(C)CCC=C(C)C
REMARK SMILES IDX 7 1 6 2 8 3 9 4 10 5 11 6 13 7 12 8 14 9 5 10 4 11 2 12 3 13
REMARK SMILES IDX 1 14
REMARK H PARENT
REMARK Flexibility Score: inf
ROOT
ATOM      1  C   UNL     1      15.546 -48.086  -3.107  1.00  0.00    -0.077 C 
ATOM      2  C   UNL     1      15.531 -49.033  -4.073  1.00  0.00    -0.028 C 
ATOM      3  C   UNL     1      14.537 -46.962  -3.076  1.00  0.00     0.039 C 
ENDROOT
BRANCH   1   4
ATOM      4  C   UNL     1      16.592 -48.165  -2.018  1.00  0.00     0.034 C 
BRANCH   4   5
ATOM      5  C   UNL     1      17.990 -47.895  -2.586  1.00  0.00     0.032 C 
BRANCH   5   6
ATOM      6  C   UNL     1      19.057 -48.392  -1.643  1.00  0.00    -0.028 C 
ATOM      7  C   UNL     1      20.582 -49.114  -3.493  1.00  0.00     0.039 C 
ATOM      8  C   UNL     1      20.238 -48.919  -2.035  1.00  0.00    -0.080 C 
ATOM      9  C   UNL     1      21.227 -49.335  -0.977  1.00  0.00     0.039 C 
ENDBRANCH   5   6
ENDBRANCH   4   5
ENDBRANCH   1   4
BRANCH   2  10
ATOM     10  C   UNL     1      14.576 -49.044  -5.240  1.00  0.00     0.035 C 
BRANCH  10  11
ATOM     11  C   UNL     1      15.200 -48.350  -6.456  1.00  0.00     0.079 C 
BRANCH  11  12
ATOM     12  C   UNL     1      14.141 -47.663  -7.277  1.00  0.00     0.130 C 
ATOM     13  O   UNL     1      14.143 -47.792  -8.491  1.00  0.00    -0.300 OA
ATOM     14  C   UNL     1      13.086 -46.811  -6.634  1.00  0.00     0.087 C 
ENDBRANCH  11  12
ENDBRANCH  10  11
ENDBRANCH   2  10
TORSDOF 6
ENDMDL
MODEL 4
REMARK VINA RESULT:    -4.577      2.850      7.487
REMARK INTER + INTRA:          -6.660
REMARK INTER:                  -6.226
REMARK INTRA:                  -0.434
REMARK UNBOUND:                -0.477
REMARK SMILES CC(=O)CCC=C(C)CCC=C(C)C
REMARK SMILES IDX 7 1 6 2 8 3 9 4 10 5 11 6 13 7 12 8 14 9 5 10 4 11 2 12 3 13
REMARK SMILES IDX 1 14
REMARK H PARENT
REMARK Flexibility Score: inf
ROOT
ATOM      1  C   UNL     1      15.307 -48.022  -3.857  1.00  0.00    -0.077 C 
ATOM      2  C   UNL     1      16.486 -48.525  -3.423  1.00  0.00    -0.028 C 
ATOM      3  C   UNL     1      14.566 -46.952  -3.090  1.00  0.00     0.039 C 
ENDROOT
BRANCH   1   4
ATOM      4  C   UNL     1      14.724 -48.534  -5.155  1.00  0.00     0.034 C 
BRANCH   4   5
ATOM      5  C   UNL     1      13.348 -47.914  -5.414  1.00  0.00     0.032 C 
BRANCH   5   6
ATOM      6  C   UNL     1      13.430 -46.855  -6.486  1.00  0.00    -0.028 C 
ATOM      7  C   UNL     1      11.192 -45.882  -5.922  1.00  0.00     0.039 C 
ATOM      8  C   UNL     1      12.481 -45.919  -6.709  1.00  0.00    -0.080 C 
ATOM      9  C   UNL     1      12.720 -44.897  -7.791  1.00  0.00     0.039 C 
ENDBRANCH   5   6
ENDBRANCH   4   5
ENDBRANCH   1   4
BRANCH   2  10
ATOM     10  C   UNL     1      17.151 -48.138  -2.125  1.00  0.00     0.035 C 
BRANCH  10  11
ATOM     11  C   UNL     1      18.675 -48.119  -2.285  1.00  0.00     0.079 C 
BRANCH  11  12
ATOM     12  C   UNL     1      19.342 -48.746  -1.088  1.00  0.00     0.130 C 
ATOM     13  O   UNL     1      18.659 -49.122  -0.148  1.00  0.00    -0.300 OA
ATOM     14  C   UNL     1      20.831 -48.911  -1.022  1.00  0.00     0.087 C 
ENDBRANCH  11  12
ENDBRANCH  10  11
ENDBRANCH   2  10
TORSDOF 6
ENDMDL
MODEL 5
REMARK VINA RESULT:    -4.453      1.295      2.039
REMARK INTER + INTRA:          -6.492
REMARK INTER:                  -5.982
REMARK INTRA:                  -0.509
REMARK UNBOUND:                -0.477
REMARK SMILES CC(=O)CCC=C(C)CCC=C(C)C
REMARK SMILES IDX 7 1 6 2 8 3 9 4 10 5 11 6 13 7 12 8 14 9 5 10 4 11 2 12 3 13
REMARK SMILES IDX 1 14
REMARK H PARENT
REMARK Flexibility Score: inf
ROOT
ATOM      1  C   UNL     1      15.042 -48.529  -5.324  1.00  0.00    -0.077 C 
ATOM      2  C   UNL     1      13.747 -48.260  -5.042  1.00  0.00    -0.028 C 
ATOM      3  C   UNL     1      15.598 -48.396  -6.723  1.00  0.00     0.039 C 
ENDROOT
BRANCH   1   4
ATOM      4  C   UNL     1      15.964 -48.957  -4.204  1.00  0.00     0.034 C 
BRANCH   4   5
ATOM      5  C   UNL     1      16.023 -47.886  -3.110  1.00  0.00     0.032 C 
BRANCH   5   6
ATOM      6  C   UNL     1      16.432 -48.490  -1.789  1.00  0.00    -0.028 C 
ATOM      7  C   UNL     1      18.877 -48.155  -2.212  1.00  0.00     0.039 C 
ATOM      8  C   UNL     1      17.710 -48.595  -1.361  1.00  0.00    -0.080 C 
ATOM      9  C   UNL     1      17.964 -49.185   0.002  1.00  0.00     0.039 C 
ENDBRANCH   5   6
ENDBRANCH   4   5
ENDBRANCH   1   4
BRANCH   2  10
ATOM     10  C   UNL     1      12.714 -47.873  -6.070  1.00  0.00     0.035 C 
BRANCH  10  11
ATOM     11  C   UNL     1      12.423 -46.370  -6.004  1.00  0.00     0.079 C 
BRANCH  11  12
ATOM     12  C   UNL     1      10.946 -46.121  -5.844  1.00  0.00     0.130 C 
ATOM     13  O   UNL     1      10.528 -44.974  -5.829  1.00  0.00    -0.300 OA
ATOM     14  C   UNL     1       9.976 -47.255  -5.692  1.00  0.00     0.087 C 
ENDBRANCH  11  12
ENDBRANCH  10  11
ENDBRANCH   2  10
TORSDOF 6
ENDMDL
MODEL 6
REMARK VINA RESULT:    -4.444      1.910      2.057
REMARK INTER + INTRA:          -6.480
REMARK INTER:                  -5.846
REMARK INTRA:                  -0.633
REMARK UNBOUND:                -0.477
REMARK SMILES CC(=O)CCC=C(C)CCC=C(C)C
REMARK SMILES IDX 7 1 6 2 8 3 9 4 10 5 11 6 13 7 12 8 14 9 5 10 4 11 2 12 3 13
REMARK SMILES IDX 1 14
REMARK H PARENT
REMARK Flexibility Score: inf
ROOT
ATOM      1  C   UNL     1      15.427 -48.225  -4.301  1.00  0.00    -0.077 C 
ATOM      2  C   UNL     1      15.338 -48.534  -5.615  1.00  0.00    -0.028 C 
ATOM      3  C   UNL     1      14.468 -47.261  -3.642  1.00  0.00     0.039 C 
ENDROOT
BRANCH   1   4
ATOM      4  C   UNL     1      16.506 -48.876  -3.465  1.00  0.00     0.034 C 
BRANCH   4   5
ATOM      5  C   UNL     1      17.083 -47.881  -2.452  1.00  0.00     0.032 C 
BRANCH   5   6
ATOM      6  C   UNL     1      18.559 -48.116  -2.251  1.00  0.00    -0.028 C 
ATOM      7  C   UNL     1      18.233 -49.341  -0.092  1.00  0.00     0.039 C 
ATOM      8  C   UNL     1      19.090 -48.793  -1.209  1.00  0.00    -0.080 C 
ATOM      9  C   UNL     1      20.584 -48.985  -1.162  1.00  0.00     0.039 C 
ENDBRANCH   5   6
ENDBRANCH   4   5
ENDBRANCH   1   4
BRANCH   2  10
ATOM     10  C   UNL     1      14.343 -47.921  -6.569  1.00  0.00     0.035 C 
BRANCH  10  11
ATOM     11  C   UNL     1      13.425 -48.998  -7.156  1.00  0.00     0.079 C 
BRANCH  11  12
ATOM     12  C   UNL     1      12.124 -49.057  -6.398  1.00  0.00     0.130 C 
ATOM     13  O   UNL     1      11.543 -50.125  -6.283  1.00  0.00    -0.300 OA
ATOM     14  C   UNL     1      11.520 -47.826  -5.788  1.00  0.00     0.087 C 
ENDBRANCH  11  12
ENDBRANCH  10  11
ENDBRANCH   2  10
TORSDOF 6
ENDMDL
MODEL 7
REMARK VINA RESULT:    -4.442     17.446     18.831
REMARK INTER + INTRA:          -6.478
REMARK INTER:                  -5.756
REMARK INTRA:                  -0.721
REMARK UNBOUND:                -0.477
REMARK SMILES CC(=O)CCC=C(C)CCC=C(C)C
REMARK SMILES IDX 7 1 6 2 8 3 9 4 10 5 11 6 13 7 12 8 14 9 5 10 4 11 2 12 3 13
REMARK SMILES IDX 1 14
REMARK H PARENT
REMARK Flexibility Score: inf
ROOT
ATOM      1  C   UNL     1      22.448 -31.194 -10.405  1.00  0.00    -0.077 C 
ATOM      2  C   UNL     1      21.173 -31.393  -9.997  1.00  0.00    -0.028 C 
ATOM      3  C   UNL     1      22.902 -29.875 -10.985  1.00  0.00     0.039 C 
ENDROOT
BRANCH   1   4
ATOM      4  C   UNL     1      23.449 -32.318 -10.260  1.00  0.00     0.034 C 
BRANCH   4   5
ATOM      5  C   UNL     1      24.532 -32.222 -11.340  1.00  0.00     0.032 C 
BRANCH   5   6
ATOM      6  C   UNL     1      24.292 -33.236 -12.431  1.00  0.00    -0.028 C 
ATOM      7  C   UNL     1      24.210 -31.506 -14.240  1.00  0.00     0.039 C 
ATOM      8  C   UNL     1      24.170 -32.932 -13.743  1.00  0.00    -0.080 C 
ATOM      9  C   UNL     1      23.974 -34.057 -14.726  1.00  0.00     0.039 C 
ENDBRANCH   5   6
ENDBRANCH   4   5
ENDBRANCH   1   4
BRANCH   2  10
ATOM     10  C   UNL     1      20.067 -30.377 -10.129  1.00  0.00     0.035 C 
BRANCH  10  11
ATOM     11  C   UNL     1      18.941 -30.671  -9.133  1.00  0.00     0.079 C 
BRANCH  11  12
ATOM     12  C   UNL     1      18.157 -31.884  -9.562  1.00  0.00     0.130 C 
ATOM     13  O   UNL     1      18.275 -32.928  -8.938  1.00  0.00    -0.300 OA
ATOM     14  C   UNL     1      17.239 -31.840 -10.747  1.00  0.00     0.087 C 
ENDBRANCH  11  12
ENDBRANCH  10  11
ENDBRANCH   2  10
TORSDOF 6
ENDMDL
MODEL 8
REMARK VINA RESULT:    -4.333     19.133     20.030
REMARK INTER + INTRA:          -6.330
REMARK INTER:                  -5.565
REMARK INTRA:                  -0.765
REMARK UNBOUND:                -0.477
REMARK SMILES CC(=O)CCC=C(C)CCC=C(C)C
REMARK SMILES IDX 7 1 6 2 8 3 9 4 10 5 11 6 13 7 12 8 14 9 5 10 4 11 2 12 3 13
REMARK SMILES IDX 1 14
REMARK H PARENT
REMARK Flexibility Score: inf
ROOT
ATOM      1  C   UNL     1      24.619 -32.899 -13.399  1.00  0.00    -0.077 C 
ATOM      2  C   UNL     1      23.823 -31.857 -13.069  1.00  0.00    -0.028 C 
ATOM      3  C   UNL     1      26.040 -33.008 -12.896  1.00  0.00     0.039 C 
ENDROOT
BRANCH   1   4
ATOM      4  C   UNL     1      24.066 -33.995 -14.283  1.00  0.00     0.034 C 
BRANCH   4   5
ATOM      5  C   UNL     1      24.997 -34.257 -15.471  1.00  0.00     0.032 C 
BRANCH   5   6
ATOM      6  C   UNL     1      25.418 -35.705 -15.514  1.00  0.00    -0.028 C 
ATOM      7  C   UNL     1      27.863 -35.161 -15.497  1.00  0.00     0.039 C 
ATOM      8  C   UNL     1      26.702 -36.128 -15.500  1.00  0.00    -0.080 C 
ATOM      9  C   UNL     1      26.970 -37.611 -15.505  1.00  0.00     0.039 C 
ENDBRANCH   5   6
ENDBRANCH   4   5
ENDBRANCH   1   4
BRANCH   2  10
ATOM     10  C   UNL     1      24.263 -30.678 -12.238  1.00  0.00     0.035 C 
BRANCH  10  11
ATOM     11  C   UNL     1      23.448 -30.594 -10.944  1.00  0.00     0.079 C 
BRANCH  11  12
ATOM     12  C   UNL     1      23.988 -31.552  -9.913  1.00  0.00     0.130 C 
ATOM     13  O   UNL     1      23.563 -32.696  -9.874  1.00  0.00    -0.300 OA
ATOM     14  C   UNL     1      25.033 -31.126  -8.925  1.00  0.00     0.087 C 
ENDBRANCH  11  12
ENDBRANCH  10  11
ENDBRANCH   2  10
TORSDOF 6
ENDMDL
MODEL 9
REMARK VINA RESULT:    -4.219     19.036     20.170
REMARK INTER + INTRA:          -6.177
REMARK INTER:                  -5.489
REMARK INTRA:                  -0.688
REMARK UNBOUND:                -0.477
REMARK SMILES CC(=O)CCC=C(C)CCC=C(C)C
REMARK SMILES IDX 7 1 6 2 8 3 9 4 10 5 11 6 13 7 12 8 14 9 5 10 4 11 2 12 3 13
REMARK SMILES IDX 1 14
REMARK H PARENT
REMARK Flexibility Score: inf
ROOT
ATOM      1  C   UNL     1      24.992 -33.906 -15.093  1.00  0.00    -0.077 C 
ATOM      2  C   UNL     1      26.323 -33.760 -15.290  1.00  0.00    -0.028 C 
ATOM      3  C   UNL     1      24.264 -35.173 -15.477  1.00  0.00     0.039 C 
ENDROOT
BRANCH   1   4
ATOM      4  C   UNL     1      24.216 -32.775 -14.456  1.00  0.00     0.034 C 
BRANCH   4   5
ATOM      5  C   UNL     1      23.801 -33.140 -13.026  1.00  0.00     0.032 C 
BRANCH   5   6
ATOM      6  C   UNL     1      24.725 -32.499 -12.020  1.00  0.00    -0.028 C 
ATOM      7  C   UNL     1      22.888 -32.061 -10.375  1.00  0.00     0.039 C 
ATOM      8  C   UNL     1      24.333 -32.033 -10.813  1.00  0.00    -0.080 C 
ATOM      9  C   UNL     1      25.378 -31.454  -9.894  1.00  0.00     0.039 C 
ENDBRANCH   5   6
ENDBRANCH   4   5
ENDBRANCH   1   4
BRANCH   2  10
ATOM     10  C   UNL     1      27.203 -34.787 -15.957  1.00  0.00     0.035 C 
BRANCH  10  11
ATOM     11  C   UNL     1      28.259 -35.311 -14.978  1.00  0.00     0.079 C 
BRANCH  11  12
ATOM     12  C   UNL     1      27.961 -36.735 -14.588  1.00  0.00     0.130 C 
ATOM     13  O   UNL     1      28.453 -37.195 -13.569  1.00  0.00    -0.300 OA
ATOM     14  C   UNL     1      27.079 -37.607 -15.433  1.00  0.00     0.087 C 
ENDBRANCH  11  12
ENDBRANCH  10  11
ENDBRANCH   2  10
TORSDOF 6
ENDMDL
