MODEL 1
REMARK VINA RESULT:    -3.831      0.000      0.000
REMARK INTER + INTRA:          -5.342
REMARK INTER:                  -4.951
REMARK INTRA:                  -0.392
REMARK UNBOUND:                -0.392
REMARK SMILES C=CC(=O)CCCCC
REMARK SMILES IDX 6 1 7 2 8 3 9 4 5 5 3 6 4 7 2 8 1 9
REMARK H PARENT
REMARK Flexibility Score: inf
ROOT
ATOM      1  C   UNL     1     -11.394  -4.887 -16.183  1.00  0.00     0.008 C 
ENDROOT
BRANCH   1   2
ATOM      2  C   UNL     1     -11.560  -5.287 -14.712  1.00  0.00     0.000 C 
BRANCH   2   3
ATOM      3  C   UNL     1     -12.638  -4.439 -14.030  1.00  0.00    -0.003 C 
ATOM      4  C   UNL     1     -13.698  -3.986 -15.031  1.00  0.00     0.004 C 
ENDBRANCH   2   3
ENDBRANCH   1   2
BRANCH   1   5
ATOM      5  C   UNL     1     -10.265  -3.865 -16.351  1.00  0.00     0.080 C 
BRANCH   5   6
ATOM      6  C   UNL     1      -8.946  -4.471 -15.972  1.00  0.00     0.155 C 
ATOM      7  O   UNL     1      -8.589  -5.556 -16.506  1.00  0.00    -0.295 OA
BRANCH   6   8
ATOM      8  C   UNL     1      -8.062  -3.777 -15.016  1.00  0.00     0.039 C 
ATOM      9  C   UNL     1      -8.494  -3.322 -13.842  1.00  0.00     0.012 C 
ENDBRANCH   6   8
ENDBRANCH   5   6
ENDBRANCH   1   5
TORSDOF 5
ENDMDL
MODEL 2
REMARK VINA RESULT:    -3.749      1.826      3.813
REMARK INTER + INTRA:          -5.236
REMARK INTER:                  -4.627
REMARK INTRA:                  -0.609
REMARK UNBOUND:                -0.392
REMARK SMILES C=CC(=O)CCCCC
REMARK SMILES IDX 6 1 7 2 8 3 9 4 5 5 3 6 4 7 2 8 1 9
REMARK H PARENT
REMARK Flexibility Score: inf
ROOT
ATOM      1  C   UNL     1      -9.669  -3.848 -16.218  1.00  0.00     0.008 C 
ENDROOT
BRANCH   1   2
ATOM      2  C   UNL     1      -8.375  -4.598 -15.883  1.00  0.00     0.000 C 
BRANCH   2   3
ATOM      3  C   UNL     1      -8.012  -4.433 -14.403  1.00  0.00    -0.003 C 
ATOM      4  C   UNL     1      -8.650  -3.177 -13.816  1.00  0.00     0.004 C 
ENDBRANCH   2   3
ENDBRANCH   1   2
BRANCH   1   5
ATOM      5  C   UNL     1     -10.810  -4.826 -16.513  1.00  0.00     0.080 C 
BRANCH   5   6
ATOM      6  C   UNL     1     -11.869  -4.735 -15.454  1.00  0.00     0.155 C 
ATOM      7  O   UNL     1     -12.909  -4.056 -15.675  1.00  0.00    -0.295 OA
BRANCH   6   8
ATOM      8  C   UNL     1     -11.708  -5.470 -14.184  1.00  0.00     0.039 C 
ATOM      9  C   UNL     1     -11.001  -6.595 -14.094  1.00  0.00     0.012 C 
ENDBRANCH   6   8
ENDBRANCH   5   6
ENDBRANCH   1   5
TORSDOF 5
ENDMDL
MODEL 3
REMARK VINA RESULT:    -3.716      6.726      8.651
REMARK INTER + INTRA:          -5.195
REMARK INTER:                  -4.941
REMARK INTRA:                  -0.254
REMARK UNBOUND:                -0.392
REMARK SMILES C=CC(=O)CCCCC
REMARK SMILES IDX 6 1 7 2 8 3 9 4 5 5 3 6 4 7 2 8 1 9
REMARK H PARENT
REMARK Flexibility Score: inf
ROOT
ATOM      1  C   UNL     1      -6.563  -0.494  -9.411  1.00  0.00     0.008 C 
ENDROOT
BRANCH   1   2
ATOM      2  C   UNL     1      -6.945  -0.600 -10.893  1.00  0.00     0.000 C 
BRANCH   2   3
ATOM      3  C   UNL     1      -7.364  -2.031 -11.250  1.00  0.00    -0.003 C 
ATOM      4  C   UNL     1      -8.116  -2.069 -12.578  1.00  0.00     0.004 C 
ENDBRANCH   2   3
ENDBRANCH   1   2
BRANCH   1   5
ATOM      5  C   UNL     1      -7.345   0.627  -8.721  1.00  0.00     0.080 C 
BRANCH   5   6
ATOM      6  C   UNL     1      -6.623   1.935  -8.860  1.00  0.00     0.155 C 
ATOM      7  O   UNL     1      -5.545   2.116  -8.232  1.00  0.00    -0.295 OA
BRANCH   6   8
ATOM      8  C   UNL     1      -7.153   2.979  -9.759  1.00  0.00     0.039 C 
ATOM      9  C   UNL     1      -6.877   3.009 -11.061  1.00  0.00     0.012 C 
ENDBRANCH   6   8
ENDBRANCH   5   6
ENDBRANCH   1   5
TORSDOF 5
ENDMDL
MODEL 4
REMARK VINA RESULT:    -3.707      7.013      8.846
REMARK INTER + INTRA:          -5.182
REMARK INTER:                  -5.009
REMARK INTRA:                  -0.173
REMARK UNBOUND:                -0.392
REMARK SMILES C=CC(=O)CCCCC
REMARK SMILES IDX 6 1 7 2 8 3 9 4 5 5 3 6 4 7 2 8 1 9
REMARK H PARENT
REMARK Flexibility Score: inf
ROOT
ATOM      1  C   UNL     1      -3.520  -1.413 -17.564  1.00  0.00     0.008 C 
ENDROOT
BRANCH   1   2
ATOM      2  C   UNL     1      -3.561  -2.538 -16.523  1.00  0.00     0.000 C 
BRANCH   2   3
ATOM      3  C   UNL     1      -4.423  -2.141 -15.319  1.00  0.00    -0.003 C 
ATOM      4  C   UNL     1      -5.472  -3.207 -15.017  1.00  0.00     0.004 C 
ENDBRANCH   2   3
ENDBRANCH   1   2
BRANCH   1   5
ATOM      5  C   UNL     1      -2.886  -1.897 -18.872  1.00  0.00     0.080 C 
BRANCH   5   6
ATOM      6  C   UNL     1      -1.425  -1.556 -18.906  1.00  0.00     0.155 C 
ATOM      7  O   UNL     1      -0.977  -0.677 -18.120  1.00  0.00    -0.295 OA
BRANCH   6   8
ATOM      8  C   UNL     1      -0.520  -2.276 -19.823  1.00  0.00     0.039 C 
ATOM      9  C   UNL     1       0.124  -3.385 -19.466  1.00  0.00     0.012 C 
ENDBRANCH   6   8
ENDBRANCH   5   6
ENDBRANCH   1   5
TORSDOF 5
ENDMDL
MODEL 5
REMARK VINA RESULT:    -3.691      7.018      9.194
REMARK INTER + INTRA:          -5.161
REMARK INTER:                  -4.741
REMARK INTRA:                  -0.420
REMARK UNBOUND:                -0.392
REMARK SMILES C=CC(=O)CCCCC
REMARK SMILES IDX 6 1 7 2 8 3 9 4 5 5 3 6 4 7 2 8 1 9
REMARK H PARENT
REMARK Flexibility Score: inf
ROOT
ATOM      1  C   UNL     1      -6.455   1.992  -8.878  1.00  0.00     0.008 C 
ENDROOT
BRANCH   1   2
ATOM      2  C   UNL     1      -5.860   2.243 -10.269  1.00  0.00     0.000 C 
BRANCH   2   3
ATOM      3  C   UNL     1      -6.878   2.932 -11.185  1.00  0.00    -0.003 C 
ATOM      4  C   UNL     1      -7.721   3.942 -10.412  1.00  0.00     0.004 C 
ENDBRANCH   2   3
ENDBRANCH   1   2
BRANCH   1   5
ATOM      5  C   UNL     1      -7.063   0.589  -8.786  1.00  0.00     0.080 C 
BRANCH   5   6
ATOM      6  C   UNL     1      -6.021  -0.455  -9.057  1.00  0.00     0.155 C 
ATOM      7  O   UNL     1      -5.008  -0.526  -8.309  1.00  0.00    -0.295 OA
BRANCH   6   8
ATOM      8  C   UNL     1      -6.207  -1.415 -10.163  1.00  0.00     0.039 C 
ATOM      9  C   UNL     1      -7.156  -1.268 -11.085  1.00  0.00     0.012 C 
ENDBRANCH   6   8
ENDBRANCH   5   6
ENDBRANCH   1   5
TORSDOF 5
ENDMDL
MODEL 6
REMARK VINA RESULT:    -3.682      7.286      9.181
REMARK INTER + INTRA:          -5.150
REMARK INTER:                  -4.602
REMARK INTRA:                  -0.548
REMARK UNBOUND:                -0.392
REMARK SMILES C=CC(=O)CCCCC
REMARK SMILES IDX 6 1 7 2 8 3 9 4 5 5 3 6 4 7 2 8 1 9
REMARK H PARENT
REMARK Flexibility Score: inf
ROOT
ATOM      1  C   UNL     1      -6.813   0.177  -8.746  1.00  0.00     0.008 C 
ENDROOT
BRANCH   1   2
ATOM      2  C   UNL     1      -5.678  -0.828  -8.979  1.00  0.00     0.000 C 
BRANCH   2   3
ATOM      3  C   UNL     1      -6.031  -1.802 -10.108  1.00  0.00    -0.003 C 
ATOM      4  C   UNL     1      -7.024  -1.178 -11.085  1.00  0.00     0.004 C 
ENDBRANCH   2   3
ENDBRANCH   1   2
BRANCH   1   5
ATOM      5  C   UNL     1      -6.265   1.598  -8.586  1.00  0.00     0.080 C 
BRANCH   5   6
ATOM      6  C   UNL     1      -6.768   2.483  -9.688  1.00  0.00     0.155 C 
ATOM      7  O   UNL     1      -7.740   3.255  -9.466  1.00  0.00    -0.295 OA
BRANCH   6   8
ATOM      8  C   UNL     1      -6.098   2.477 -11.004  1.00  0.00     0.039 C 
ATOM      9  C   UNL     1      -4.840   2.073 -11.164  1.00  0.00     0.012 C 
ENDBRANCH   6   8
ENDBRANCH   5   6
ENDBRANCH   1   5
TORSDOF 5
ENDMDL
MODEL 7
REMARK VINA RESULT:    -3.666      7.794      9.322
REMARK INTER + INTRA:          -5.129
REMARK INTER:                  -4.542
REMARK INTRA:                  -0.588
REMARK UNBOUND:                -0.392
REMARK SMILES C=CC(=O)CCCCC
REMARK SMILES IDX 6 1 7 2 8 3 9 4 5 5 3 6 4 7 2 8 1 9
REMARK H PARENT
REMARK Flexibility Score: inf
ROOT
ATOM      1  C   UNL     1      -6.524  -0.503  -9.145  1.00  0.00     0.008 C 
ENDROOT
BRANCH   1   2
ATOM      2  C   UNL     1      -6.798  -0.757 -10.632  1.00  0.00     0.000 C 
BRANCH   2   3
ATOM      3  C   UNL     1      -5.504  -1.108 -11.376  1.00  0.00    -0.003 C 
ATOM      4  C   UNL     1      -4.494   0.033 -11.294  1.00  0.00     0.004 C 
ENDBRANCH   2   3
ENDBRANCH   1   2
BRANCH   1   5
ATOM      5  C   UNL     1      -7.322   0.702  -8.637  1.00  0.00     0.080 C 
BRANCH   5   6
ATOM      6  C   UNL     1      -6.572   1.976  -8.896  1.00  0.00     0.155 C 
ATOM      7  O   UNL     1      -5.453   2.157  -8.343  1.00  0.00    -0.295 OA
BRANCH   6   8
ATOM      8  C   UNL     1      -7.124   2.982  -9.823  1.00  0.00     0.039 C 
ATOM      9  C   UNL     1      -6.825   3.000 -11.120  1.00  0.00     0.012 C 
ENDBRANCH   6   8
ENDBRANCH   5   6
ENDBRANCH   1   5
TORSDOF 5
ENDMDL
MODEL 8
REMARK VINA RESULT:    -3.571      1.476      4.104
REMARK INTER + INTRA:          -5.007
REMARK INTER:                  -4.693
REMARK INTRA:                  -0.314
REMARK UNBOUND:                -0.392
REMARK SMILES C=CC(=O)CCCCC
REMARK SMILES IDX 6 1 7 2 8 3 9 4 5 5 3 6 4 7 2 8 1 9
REMARK H PARENT
REMARK Flexibility Score: inf
ROOT
ATOM      1  C   UNL     1     -10.222  -3.724 -16.084  1.00  0.00     0.008 C 
ENDROOT
BRANCH   1   2
ATOM      2  C   UNL     1      -9.188  -3.726 -14.952  1.00  0.00     0.000 C 
BRANCH   2   3
ATOM      3  C   UNL     1      -7.882  -4.391 -15.403  1.00  0.00    -0.003 C 
ATOM      4  C   UNL     1      -7.664  -5.720 -14.686  1.00  0.00     0.004 C 
ENDBRANCH   2   3
ENDBRANCH   1   2
BRANCH   1   5
ATOM      5  C   UNL     1     -11.033  -5.023 -16.089  1.00  0.00     0.080 C 
BRANCH   5   6
ATOM      6  C   UNL     1     -11.645  -5.268 -14.741  1.00  0.00     0.155 C 
ATOM      7  O   UNL     1     -11.204  -6.208 -14.024  1.00  0.00    -0.295 OA
BRANCH   6   8
ATOM      8  C   UNL     1     -12.721  -4.387 -14.247  1.00  0.00     0.039 C 
ATOM      9  C   UNL     1     -13.724  -3.980 -15.022  1.00  0.00     0.012 C 
ENDBRANCH   6   8
ENDBRANCH   5   6
ENDBRANCH   1   5
TORSDOF 5
ENDMDL
MODEL 9
REMARK VINA RESULT:    -3.501      1.484      4.312
REMARK INTER + INTRA:          -4.916
REMARK INTER:                  -4.777
REMARK INTRA:                  -0.139
REMARK UNBOUND:                -0.392
REMARK SMILES C=CC(=O)CCCCC
REMARK SMILES IDX 6 1 7 2 8 3 9 4 5 5 3 6 4 7 2 8 1 9
REMARK H PARENT
REMARK Flexibility Score: inf
ROOT
ATOM      1  C   UNL     1      -9.289  -3.934 -14.812  1.00  0.00     0.008 C 
ENDROOT
BRANCH   1   2
ATOM      2  C   UNL     1      -8.080  -3.982 -13.870  1.00  0.00     0.000 C 
BRANCH   2   3
ATOM      3  C   UNL     1      -7.504  -2.580 -13.644  1.00  0.00    -0.003 C 
ATOM      4  C   UNL     1      -8.178  -1.891 -12.461  1.00  0.00     0.004 C 
ENDBRANCH   2   3
ENDBRANCH   1   2
BRANCH   1   5
ATOM      5  C   UNL     1     -10.220  -5.127 -14.573  1.00  0.00     0.080 C 
BRANCH   5   6
ATOM      6  C   UNL     1     -11.543  -4.905 -15.246  1.00  0.00     0.155 C 
ATOM      7  O   UNL     1     -11.642  -5.089 -16.490  1.00  0.00    -0.295 OA
BRANCH   6   8
ATOM      8  C   UNL     1     -12.722  -4.519 -14.447  1.00  0.00     0.039 C 
ATOM      9  C   UNL     1     -13.798  -3.952 -14.989  1.00  0.00     0.012 C 
ENDBRANCH   6   8
ENDBRANCH   5   6
ENDBRANCH   1   5
TORSDOF 5
ENDMDL
