MODEL 1
REMARK VINA RESULT:    -6.759      0.000      0.000
REMARK INTER + INTRA:          -8.430
REMARK INTER:                  -8.142
REMARK INTRA:                  -0.288
REMARK UNBOUND:                -0.288
REMARK SMILES Oc1cc(O)c2c(c1)O[C@H](c1ccc(O)c(O)c1)[C@H](O)C2
REMARK SMILES IDX 21 1 19 2 10 3 9 4 7 5 8 6 2 7 3 8 4 9 6 10 20 11 11 13
REMARK SMILES IDX 18 14 12 15 16 16 13 17 14 18 17 19 15 21 5 23 1 25
REMARK H PARENT 20 12 17 20 15 22 5 24 1 26
REMARK Flexibility Score: inf
ROOT
ATOM      1  C   UNL     1     -25.985  82.118  76.106  1.00  0.00     0.079 C 
ATOM      2  C   UNL     1     -25.228  81.684  77.376  1.00  0.00     0.164 C 
ATOM      3  C   UNL     1     -26.153  81.841  78.599  1.00  0.00     0.232 C 
ATOM      4  O   UNL     1     -26.620  83.189  78.694  1.00  0.00    -0.482 OA
ATOM      5  C   UNL     1     -26.949  83.946  77.564  1.00  0.00     0.131 A 
ATOM      6  C   UNL     1     -27.567  85.189  77.726  1.00  0.00     0.093 A 
ATOM      7  C   UNL     1     -27.904  85.960  76.607  1.00  0.00     0.122 A 
ATOM      8  C   UNL     1     -27.622  85.483  75.324  1.00  0.00     0.092 A 
ATOM      9  C   UNL     1     -26.996  84.241  75.148  1.00  0.00     0.126 A 
ATOM     10  C   UNL     1     -26.638  83.472  76.272  1.00  0.00     0.039 A 
ENDROOT
BRANCH   2  11
ATOM     11  O   UNL     1     -24.077  82.473  77.540  1.00  0.00    -0.389 OA
ATOM     12  H   UNL     1     -24.170  83.247  76.925  1.00  0.00     0.211 HD
ENDBRANCH   2  11
BRANCH   3  13
ATOM     13  C   UNL     1     -25.456  81.429  79.875  1.00  0.00    -0.001 A 
ATOM     14  C   UNL     1     -24.651  80.280  79.893  1.00  0.00     0.057 A 
ATOM     15  C   UNL     1     -25.548  82.216  81.034  1.00  0.00     0.012 A 
ATOM     16  C   UNL     1     -23.968  79.897  81.054  1.00  0.00     0.157 A 
ATOM     17  C   UNL     1     -24.872  81.842  82.196  1.00  0.00     0.050 A 
ATOM     18  C   UNL     1     -24.082  80.687  82.223  1.00  0.00     0.157 A 
BRANCH  16  19
ATOM     19  O   UNL     1     -23.190  78.738  81.001  1.00  0.00    -0.504 OA
ATOM     20  H   UNL     1     -22.573  78.438  81.742  1.00  0.00     0.293 HD
ENDBRANCH  16  19
BRANCH  18  21
ATOM     21  O   UNL     1     -23.435  80.367  83.417  1.00  0.00    -0.504 OA
ATOM     22  H   UNL     1     -23.228  81.036  84.146  1.00  0.00     0.293 HD
ENDBRANCH  18  21
ENDBRANCH   3  13
BRANCH   9  23
ATOM     23  O   UNL     1     -26.730  83.769  73.862  1.00  0.00    -0.507 OA
ATOM     24  H   UNL     1     -26.436  84.391  73.119  1.00  0.00     0.293 HD
ENDBRANCH   9  23
BRANCH   7  25
ATOM     25  O   UNL     1     -28.524  87.198  76.759  1.00  0.00    -0.508 OA
ATOM     26  H   UNL     1     -28.574  87.658  77.662  1.00  0.00     0.293 HD
ENDBRANCH   7  25
TORSDOF 6
ENDMDL
MODEL 2
REMARK VINA RESULT:    -6.724      8.988     11.907
REMARK INTER + INTRA:          -8.388
REMARK INTER:                  -8.074
REMARK INTRA:                  -0.314
REMARK UNBOUND:                -0.288
REMARK SMILES Oc1cc(O)c2c(c1)O[C@H](c1ccc(O)c(O)c1)[C@H](O)C2
REMARK SMILES IDX 21 1 19 2 10 3 9 4 7 5 8 6 2 7 3 8 4 9 6 10 20 11 11 13
REMARK SMILES IDX 18 14 12 15 16 16 13 17 14 18 17 19 15 21 5 23 1 25
REMARK H PARENT 20 12 17 20 15 22 5 24 1 26
REMARK Flexibility Score: inf
ROOT
ATOM      1  C   UNL     1     -25.632  91.902  85.472  1.00  0.00     0.079 C 
ATOM      2  C   UNL     1     -24.871  92.337  84.206  1.00  0.00     0.164 C 
ATOM      3  C   UNL     1     -25.820  92.269  82.993  1.00  0.00     0.232 C 
ATOM      4  O   UNL     1     -26.359  90.952  82.862  1.00  0.00    -0.482 OA
ATOM      5  C   UNL     1     -26.712  90.177  83.973  1.00  0.00     0.131 A 
ATOM      6  C   UNL     1     -27.397  88.974  83.780  1.00  0.00     0.093 A 
ATOM      7  C   UNL     1     -27.759  88.185  84.879  1.00  0.00     0.122 A 
ATOM      8  C   UNL     1     -27.434  88.604  86.172  1.00  0.00     0.092 A 
ATOM      9  C   UNL     1     -26.740  89.805  86.378  1.00  0.00     0.126 A 
ATOM     10  C   UNL     1     -26.358  90.591  85.274  1.00  0.00     0.039 A 
ENDROOT
BRANCH   2  11
ATOM     11  O   UNL     1     -23.766  91.494  83.998  1.00  0.00    -0.389 OA
ATOM     12  H   UNL     1     -22.996  92.081  83.774  1.00  0.00     0.211 HD
ENDBRANCH   2  11
BRANCH   3  13
ATOM     13  C   UNL     1     -25.120  92.685  81.719  1.00  0.00    -0.001 A 
ATOM     14  C   UNL     1     -24.302  93.826  81.711  1.00  0.00     0.057 A 
ATOM     15  C   UNL     1     -25.223  91.911  80.553  1.00  0.00     0.012 A 
ATOM     16  C   UNL     1     -23.615  94.212  80.553  1.00  0.00     0.157 A 
ATOM     17  C   UNL     1     -24.544  92.288  79.394  1.00  0.00     0.050 A 
ATOM     18  C   UNL     1     -23.740  93.434  79.377  1.00  0.00     0.157 A 
BRANCH  16  19
ATOM     19  O   UNL     1     -22.825  95.361  80.616  1.00  0.00    -0.504 OA
ATOM     20  H   UNL     1     -22.921  96.074  81.326  1.00  0.00     0.293 HD
ENDBRANCH  16  19
BRANCH  18  21
ATOM     21  O   UNL     1     -23.091  93.759  78.185  1.00  0.00    -0.504 OA
ATOM     22  H   UNL     1     -22.090  93.852  78.094  1.00  0.00     0.293 HD
ENDBRANCH  18  21
ENDBRANCH   3  13
BRANCH   9  23
ATOM     23  O   UNL     1     -26.432  90.220  87.674  1.00  0.00    -0.507 OA
ATOM     24  H   UNL     1     -27.087  90.756  88.229  1.00  0.00     0.293 HD
ENDBRANCH   9  23
BRANCH   7  25
ATOM     25  O   UNL     1     -28.446  86.987  84.697  1.00  0.00    -0.508 OA
ATOM     26  H   UNL     1     -28.225  86.361  83.931  1.00  0.00     0.293 HD
ENDBRANCH   7  25
TORSDOF 6
ENDMDL
MODEL 3
REMARK VINA RESULT:    -6.580      8.564     11.862
REMARK INTER + INTRA:          -8.215
REMARK INTER:                  -7.950
REMARK INTRA:                  -0.265
REMARK UNBOUND:                -0.288
REMARK SMILES Oc1cc(O)c2c(c1)O[C@H](c1ccc(O)c(O)c1)[C@H](O)C2
REMARK SMILES IDX 21 1 19 2 10 3 9 4 7 5 8 6 2 7 3 8 4 9 6 10 20 11 11 13
REMARK SMILES IDX 18 14 12 15 16 16 13 17 14 18 17 19 15 21 5 23 1 25
REMARK H PARENT 20 12 17 20 15 22 5 24 1 26
REMARK Flexibility Score: inf
ROOT
ATOM      1  C   UNL     1     -26.224  91.463  85.852  1.00  0.00     0.079 C 
ATOM      2  C   UNL     1     -25.793  92.290  84.626  1.00  0.00     0.164 C 
ATOM      3  C   UNL     1     -26.362  91.642  83.348  1.00  0.00     0.232 C 
ATOM      4  O   UNL     1     -25.931  90.283  83.250  1.00  0.00    -0.482 OA
ATOM      5  C   UNL     1     -25.818  89.453  84.372  1.00  0.00     0.131 A 
ATOM      6  C   UNL     1     -25.565  88.090  84.194  1.00  0.00     0.093 A 
ATOM      7  C   UNL     1     -25.451  87.244  85.304  1.00  0.00     0.122 A 
ATOM      8  C   UNL     1     -25.590  87.766  86.593  1.00  0.00     0.092 A 
ATOM      9  C   UNL     1     -25.837  89.133  86.784  1.00  0.00     0.126 A 
ATOM     10  C   UNL     1     -25.933  89.990  85.671  1.00  0.00     0.039 A 
ENDROOT
BRANCH   2  11
ATOM     11  O   UNL     1     -24.390  92.342  84.554  1.00  0.00    -0.389 OA
ATOM     12  H   UNL     1     -24.045  91.681  85.209  1.00  0.00     0.211 HD
ENDBRANCH   2  11
BRANCH   3  13
ATOM     13  C   UNL     1     -25.965  92.416  82.112  1.00  0.00    -0.001 A 
ATOM     14  C   UNL     1     -24.856  92.006  81.357  1.00  0.00     0.057 A 
ATOM     15  C   UNL     1     -26.728  93.507  81.668  1.00  0.00     0.012 A 
ATOM     16  C   UNL     1     -24.489  92.686  80.188  1.00  0.00     0.157 A 
ATOM     17  C   UNL     1     -26.370  94.192  80.506  1.00  0.00     0.050 A 
ATOM     18  C   UNL     1     -25.254  93.796  79.759  1.00  0.00     0.157 A 
BRANCH  16  19
ATOM     19  O   UNL     1     -23.370  92.227  79.491  1.00  0.00    -0.504 OA
ATOM     20  H   UNL     1     -22.738  92.826  78.980  1.00  0.00     0.293 HD
ENDBRANCH  16  19
BRANCH  18  21
ATOM     21  O   UNL     1     -24.947  94.526  78.609  1.00  0.00    -0.504 OA
ATOM     22  H   UNL     1     -25.628  94.799  77.914  1.00  0.00     0.293 HD
ENDBRANCH  18  21
ENDBRANCH   3  13
BRANCH   9  23
ATOM     23  O   UNL     1     -25.987  89.641  88.075  1.00  0.00    -0.507 OA
ATOM     24  H   UNL     1     -26.081  90.635  88.246  1.00  0.00     0.293 HD
ENDBRANCH   9  23
BRANCH   7  25
ATOM     25  O   UNL     1     -25.202  85.883  85.137  1.00  0.00    -0.508 OA
ATOM     26  H   UNL     1     -24.613  85.541  84.386  1.00  0.00     0.293 HD
ENDBRANCH   7  25
TORSDOF 6
ENDMDL
MODEL 4
REMARK VINA RESULT:    -6.550      1.680      1.905
REMARK INTER + INTRA:          -8.179
REMARK INTER:                  -7.911
REMARK INTRA:                  -0.268
REMARK UNBOUND:                -0.288
REMARK SMILES Oc1cc(O)c2c(c1)O[C@H](c1ccc(O)c(O)c1)[C@H](O)C2
REMARK SMILES IDX 21 1 19 2 10 3 9 4 7 5 8 6 2 7 3 8 4 9 6 10 20 11 11 13
REMARK SMILES IDX 18 14 12 15 16 16 13 17 14 18 17 19 15 21 5 23 1 25
REMARK H PARENT 20 12 17 20 15 22 5 24 1 26
REMARK Flexibility Score: inf
ROOT
ATOM      1  C   UNL     1     -26.438  82.614  75.753  1.00  0.00     0.079 C 
ATOM      2  C   UNL     1     -26.047  81.764  76.977  1.00  0.00     0.164 C 
ATOM      3  C   UNL     1     -26.578  82.440  78.257  1.00  0.00     0.232 C 
ATOM      4  O   UNL     1     -26.075  83.774  78.355  1.00  0.00    -0.482 OA
ATOM      5  C   UNL     1     -25.922  84.598  77.234  1.00  0.00     0.131 A 
ATOM      6  C   UNL     1     -25.597  85.946  77.411  1.00  0.00     0.093 A 
ATOM      7  C   UNL     1     -25.441  86.785  76.302  1.00  0.00     0.122 A 
ATOM      8  C   UNL     1     -25.612  86.273  75.013  1.00  0.00     0.092 A 
ATOM      9  C   UNL     1     -25.931  84.921  74.821  1.00  0.00     0.126 A 
ATOM     10  C   UNL     1     -26.069  84.070  75.934  1.00  0.00     0.039 A 
ENDROOT
BRANCH   2  11
ATOM     11  O   UNL     1     -24.649  81.638  77.045  1.00  0.00    -0.389 OA
ATOM     12  H   UNL     1     -24.375  81.072  76.277  1.00  0.00     0.211 HD
ENDBRANCH   2  11
BRANCH   3  13
ATOM     13  C   UNL     1     -26.218  81.645  79.491  1.00  0.00    -0.001 A 
ATOM     14  C   UNL     1     -25.088  81.997  80.246  1.00  0.00     0.057 A 
ATOM     15  C   UNL     1     -27.034  80.593  79.935  1.00  0.00     0.012 A 
ATOM     16  C   UNL     1     -24.754  81.297  81.412  1.00  0.00     0.157 A 
ATOM     17  C   UNL     1     -26.709  79.889  81.095  1.00  0.00     0.050 A 
ATOM     18  C   UNL     1     -25.574  80.227  81.842  1.00  0.00     0.157 A 
BRANCH  16  19
ATOM     19  O   UNL     1     -23.613  81.699  82.109  1.00  0.00    -0.504 OA
ATOM     20  H   UNL     1     -23.559  82.539  82.667  1.00  0.00     0.293 HD
ENDBRANCH  16  19
BRANCH  18  21
ATOM     21  O   UNL     1     -25.303  79.481  82.990  1.00  0.00    -0.504 OA
ATOM     22  H   UNL     1     -25.264  79.870  83.921  1.00  0.00     0.293 HD
ENDBRANCH  18  21
ENDBRANCH   3  13
BRANCH   9  23
ATOM     23  O   UNL     1     -26.112  84.423  73.531  1.00  0.00    -0.507 OA
ATOM     24  H   UNL     1     -26.844  83.757  73.317  1.00  0.00     0.293 HD
ENDBRANCH   9  23
BRANCH   7  25
ATOM     25  O   UNL     1     -25.121  88.131  76.469  1.00  0.00    -0.508 OA
ATOM     26  H   UNL     1     -25.418  88.648  77.290  1.00  0.00     0.293 HD
ENDBRANCH   7  25
TORSDOF 6
ENDMDL
MODEL 5
REMARK VINA RESULT:    -6.408      4.903      6.771
REMARK INTER + INTRA:          -8.008
REMARK INTER:                  -7.623
REMARK INTRA:                  -0.384
REMARK UNBOUND:                -0.288
REMARK SMILES Oc1cc(O)c2c(c1)O[C@H](c1ccc(O)c(O)c1)[C@H](O)C2
REMARK SMILES IDX 21 1 19 2 10 3 9 4 7 5 8 6 2 7 3 8 4 9 6 10 20 11 11 13
REMARK SMILES IDX 18 14 12 15 16 16 13 17 14 18 17 19 15 21 5 23 1 25
REMARK H PARENT 20 12 17 20 15 22 5 24 1 26
REMARK Flexibility Score: inf
ROOT
ATOM      1  C   UNL     1     -25.238  85.051  75.168  1.00  0.00     0.079 C 
ATOM      2  C   UNL     1     -25.588  86.446  75.720  1.00  0.00     0.164 C 
ATOM      3  C   UNL     1     -26.297  86.292  77.080  1.00  0.00     0.232 C 
ATOM      4  O   UNL     1     -27.457  85.469  76.942  1.00  0.00    -0.482 OA
ATOM      5  C   UNL     1     -27.485  84.354  76.096  1.00  0.00     0.131 A 
ATOM      6  C   UNL     1     -28.581  83.489  76.137  1.00  0.00     0.093 A 
ATOM      7  C   UNL     1     -28.626  82.368  75.299  1.00  0.00     0.122 A 
ATOM      8  C   UNL     1     -27.570  82.115  74.419  1.00  0.00     0.092 A 
ATOM      9  C   UNL     1     -26.467  82.979  74.364  1.00  0.00     0.126 A 
ATOM     10  C   UNL     1     -26.428  84.118  75.191  1.00  0.00     0.039 A 
ENDROOT
BRANCH   2  11
ATOM     11  O   UNL     1     -26.426  87.122  74.817  1.00  0.00    -0.389 OA
ATOM     12  H   UNL     1     -27.034  87.689  75.359  1.00  0.00     0.211 HD
ENDBRANCH   2  11
BRANCH   3  13
ATOM     13  C   UNL     1     -26.665  87.635  77.667  1.00  0.00    -0.001 A 
ATOM     14  C   UNL     1     -25.662  88.578  77.939  1.00  0.00     0.057 A 
ATOM     15  C   UNL     1     -28.006  87.983  77.887  1.00  0.00     0.012 A 
ATOM     16  C   UNL     1     -25.982  89.843  78.450  1.00  0.00     0.157 A 
ATOM     17  C   UNL     1     -28.335  89.240  78.397  1.00  0.00     0.050 A 
ATOM     18  C   UNL     1     -27.336  90.177  78.685  1.00  0.00     0.157 A 
BRANCH  16  19
ATOM     19  O   UNL     1     -24.932  90.728  78.702  1.00  0.00    -0.504 OA
ATOM     20  H   UNL     1     -24.435  91.234  77.983  1.00  0.00     0.293 HD
ENDBRANCH  16  19
BRANCH  18  21
ATOM     21  O   UNL     1     -27.731  91.415  79.197  1.00  0.00    -0.504 OA
ATOM     22  H   UNL     1     -27.537  92.299  78.750  1.00  0.00     0.293 HD
ENDBRANCH  18  21
ENDBRANCH   3  13
BRANCH   9  23
ATOM     23  O   UNL     1     -25.412  82.710  73.492  1.00  0.00    -0.507 OA
ATOM     24  H   UNL     1     -25.426  81.908  72.874  1.00  0.00     0.293 HD
ENDBRANCH   9  23
BRANCH   7  25
ATOM     25  O   UNL     1     -29.713  81.497  75.335  1.00  0.00    -0.508 OA
ATOM     26  H   UNL     1     -30.655  81.818  75.140  1.00  0.00     0.293 HD
ENDBRANCH   7  25
TORSDOF 6
ENDMDL
MODEL 6
REMARK VINA RESULT:    -6.395      6.381      9.617
REMARK INTER + INTRA:          -7.991
REMARK INTER:                  -7.850
REMARK INTRA:                  -0.141
REMARK UNBOUND:                -0.288
REMARK SMILES Oc1cc(O)c2c(c1)O[C@H](c1ccc(O)c(O)c1)[C@H](O)C2
REMARK SMILES IDX 21 1 19 2 10 3 9 4 7 5 8 6 2 7 3 8 4 9 6 10 20 11 11 13
REMARK SMILES IDX 18 14 12 15 16 16 13 17 14 18 17 19 15 21 5 23 1 25
REMARK H PARENT 20 12 17 20 15 22 5 24 1 26
REMARK Flexibility Score: inf
ROOT
ATOM      1  C   UNL     1     -27.178  91.611  80.828  1.00  0.00     0.079 C 
ATOM      2  C   UNL     1     -27.577  90.634  79.707  1.00  0.00     0.164 C 
ATOM      3  C   UNL     1     -26.324  89.881  79.217  1.00  0.00     0.232 C 
ATOM      4  O   UNL     1     -25.329  90.811  78.782  1.00  0.00    -0.482 OA
ATOM      5  C   UNL     1     -25.108  92.028  79.437  1.00  0.00     0.131 A 
ATOM      6  C   UNL     1     -24.008  92.811  79.077  1.00  0.00     0.093 A 
ATOM      7  C   UNL     1     -23.770  94.030  79.722  1.00  0.00     0.122 A 
ATOM      8  C   UNL     1     -24.636  94.465  80.729  1.00  0.00     0.092 A 
ATOM      9  C   UNL     1     -25.747  93.692  81.094  1.00  0.00     0.126 A 
ATOM     10  C   UNL     1     -26.001  92.474  80.434  1.00  0.00     0.039 A 
ENDROOT
BRANCH   2  11
ATOM     11  O   UNL     1     -28.160  91.341  78.640  1.00  0.00    -0.389 OA
ATOM     12  H   UNL     1     -27.595  91.170  77.841  1.00  0.00     0.211 HD
ENDBRANCH   2  11
BRANCH   3  13
ATOM     13  C   UNL     1     -26.661  88.908  78.110  1.00  0.00    -0.001 A 
ATOM     14  C   UNL     1     -25.676  88.532  77.184  1.00  0.00     0.057 A 
ATOM     15  C   UNL     1     -27.933  88.319  78.030  1.00  0.00     0.012 A 
ATOM     16  C   UNL     1     -25.955  87.606  76.172  1.00  0.00     0.157 A 
ATOM     17  C   UNL     1     -28.221  87.396  77.024  1.00  0.00     0.050 A 
ATOM     18  C   UNL     1     -27.246  87.032  76.088  1.00  0.00     0.157 A 
BRANCH  16  19
ATOM     19  O   UNL     1     -24.928  87.284  75.282  1.00  0.00    -0.504 OA
ATOM     20  H   UNL     1     -24.135  86.706  75.520  1.00  0.00     0.293 HD
ENDBRANCH  16  19
BRANCH  18  21
ATOM     21  O   UNL     1     -27.599  86.106  75.105  1.00  0.00    -0.504 OA
ATOM     22  H   UNL     1     -26.995  85.362  74.787  1.00  0.00     0.293 HD
ENDBRANCH  18  21
ENDBRANCH   3  13
BRANCH   9  23
ATOM     23  O   UNL     1     -26.598  94.129  82.109  1.00  0.00    -0.507 OA
ATOM     24  H   UNL     1     -26.856  93.527  82.882  1.00  0.00     0.293 HD
ENDBRANCH   9  23
BRANCH   7  25
ATOM     25  O   UNL     1     -22.673  94.816  79.372  1.00  0.00    -0.508 OA
ATOM     26  H   UNL     1     -21.867  94.420  78.902  1.00  0.00     0.293 HD
ENDBRANCH   7  25
TORSDOF 6
ENDMDL
MODEL 7
REMARK VINA RESULT:    -6.338      5.059      7.196
REMARK INTER + INTRA:          -7.923
REMARK INTER:                  -7.657
REMARK INTRA:                  -0.266
REMARK UNBOUND:                -0.288
REMARK SMILES Oc1cc(O)c2c(c1)O[C@H](c1ccc(O)c(O)c1)[C@H](O)C2
REMARK SMILES IDX 21 1 19 2 10 3 9 4 7 5 8 6 2 7 3 8 4 9 6 10 20 11 11 13
REMARK SMILES IDX 18 14 12 15 16 16 13 17 14 18 17 19 15 21 5 23 1 25
REMARK H PARENT 20 12 17 20 15 22 5 24 1 26
REMARK Flexibility Score: inf
ROOT
ATOM      1  C   UNL     1     -29.050  88.428  78.471  1.00  0.00     0.079 C 
ATOM      2  C   UNL     1     -28.657  87.436  77.360  1.00  0.00     0.164 C 
ATOM      3  C   UNL     1     -27.266  86.849  77.669  1.00  0.00     0.232 C 
ATOM      4  O   UNL     1     -26.307  87.900  77.806  1.00  0.00    -0.482 OA
ATOM      5  C   UNL     1     -26.618  89.119  78.419  1.00  0.00     0.131 A 
ATOM      6  C   UNL     1     -25.596  90.035  78.684  1.00  0.00     0.093 A 
ATOM      7  C   UNL     1     -25.889  91.259  79.298  1.00  0.00     0.122 A 
ATOM      8  C   UNL     1     -27.207  91.564  79.647  1.00  0.00     0.092 A 
ATOM      9  C   UNL     1     -28.242  90.657  79.380  1.00  0.00     0.126 A 
ATOM     10  C   UNL     1     -27.954  89.433  78.746  1.00  0.00     0.039 A 
ENDROOT
BRANCH   2  11
ATOM     11  O   UNL     1     -28.635  88.094  76.118  1.00  0.00    -0.389 OA
ATOM     12  H   UNL     1     -28.026  87.575  75.529  1.00  0.00     0.211 HD
ENDBRANCH   2  11
BRANCH   3  13
ATOM     13  C   UNL     1     -26.831  85.868  76.604  1.00  0.00    -0.001 A 
ATOM     14  C   UNL     1     -25.480  85.795  76.230  1.00  0.00     0.057 A 
ATOM     15  C   UNL     1     -27.749  84.979  76.023  1.00  0.00     0.012 A 
ATOM     16  C   UNL     1     -25.047  84.871  75.271  1.00  0.00     0.157 A 
ATOM     17  C   UNL     1     -27.327  84.056  75.066  1.00  0.00     0.050 A 
ATOM     18  C   UNL     1     -25.984  83.991  74.678  1.00  0.00     0.157 A 
BRANCH  16  19
ATOM     19  O   UNL     1     -23.690  84.859  74.943  1.00  0.00    -0.504 OA
ATOM     20  H   UNL     1     -23.009  85.494  75.335  1.00  0.00     0.293 HD
ENDBRANCH  16  19
BRANCH  18  21
ATOM     21  O   UNL     1     -25.628  83.048  73.713  1.00  0.00    -0.504 OA
ATOM     22  H   UNL     1     -24.897  83.186  73.030  1.00  0.00     0.293 HD
ENDBRANCH  18  21
ENDBRANCH   3  13
BRANCH   9  23
ATOM     23  O   UNL     1     -29.553  90.966  79.744  1.00  0.00    -0.507 OA
ATOM     24  H   UNL     1     -29.756  91.647  80.465  1.00  0.00     0.293 HD
ENDBRANCH   9  23
BRANCH   7  25
ATOM     25  O   UNL     1     -24.876  92.176  79.569  1.00  0.00    -0.508 OA
ATOM     26  H   UNL     1     -24.905  92.769  80.391  1.00  0.00     0.293 HD
ENDBRANCH   7  25
TORSDOF 6
ENDMDL
MODEL 8
REMARK VINA RESULT:    -6.337      5.161      7.308
REMARK INTER + INTRA:          -7.922
REMARK INTER:                  -7.592
REMARK INTRA:                  -0.329
REMARK UNBOUND:                -0.288
REMARK SMILES Oc1cc(O)c2c(c1)O[C@H](c1ccc(O)c(O)c1)[C@H](O)C2
REMARK SMILES IDX 21 1 19 2 10 3 9 4 7 5 8 6 2 7 3 8 4 9 6 10 20 11 11 13
REMARK SMILES IDX 18 14 12 15 16 16 13 17 14 18 17 19 15 21 5 23 1 25
REMARK H PARENT 20 12 17 20 15 22 5 24 1 26
REMARK Flexibility Score: inf
ROOT
ATOM      1  C   UNL     1     -25.901  89.782  78.410  1.00  0.00     0.079 C 
ATOM      2  C   UNL     1     -25.628  88.399  77.791  1.00  0.00     0.164 C 
ATOM      3  C   UNL     1     -26.520  88.211  76.548  1.00  0.00     0.232 C 
ATOM      4  O   UNL     1     -27.896  88.372  76.900  1.00  0.00    -0.482 OA
ATOM      5  C   UNL     1     -28.320  89.325  77.834  1.00  0.00     0.131 A 
ATOM      6  C   UNL     1     -29.688  89.558  78.004  1.00  0.00     0.093 A 
ATOM      7  C   UNL     1     -30.131  90.508  78.932  1.00  0.00     0.122 A 
ATOM      8  C   UNL     1     -29.202  91.226  79.689  1.00  0.00     0.092 A 
ATOM      9  C   UNL     1     -27.828  90.997  79.533  1.00  0.00     0.126 A 
ATOM     10  C   UNL     1     -27.379  90.028  78.615  1.00  0.00     0.039 A 
ENDROOT
BRANCH   2  11
ATOM     11  O   UNL     1     -25.899  87.391  78.733  1.00  0.00    -0.389 OA
ATOM     12  H   UNL     1     -25.157  86.734  78.671  1.00  0.00     0.211 HD
ENDBRANCH   2  11
BRANCH   3  13
ATOM     13  C   UNL     1     -26.292  86.864  75.902  1.00  0.00    -0.001 A 
ATOM     14  C   UNL     1     -24.984  86.407  75.679  1.00  0.00     0.057 A 
ATOM     15  C   UNL     1     -27.371  86.028  75.576  1.00  0.00     0.012 A 
ATOM     16  C   UNL     1     -24.747  85.148  75.114  1.00  0.00     0.157 A 
ATOM     17  C   UNL     1     -27.145  84.772  75.011  1.00  0.00     0.050 A 
ATOM     18  C   UNL     1     -25.842  84.320  74.772  1.00  0.00     0.157 A 
BRANCH  16  19
ATOM     19  O   UNL     1     -23.419  84.762  74.915  1.00  0.00    -0.504 OA
ATOM     20  H   UNL     1     -23.016  83.914  75.287  1.00  0.00     0.293 HD
ENDBRANCH  16  19
BRANCH  18  21
ATOM     21  O   UNL     1     -25.685  83.056  74.201  1.00  0.00    -0.504 OA
ATOM     22  H   UNL     1     -25.438  82.899  73.235  1.00  0.00     0.293 HD
ENDBRANCH  18  21
ENDBRANCH   3  13
BRANCH   9  23
ATOM     23  O   UNL     1     -26.908  91.728  80.285  1.00  0.00    -0.507 OA
ATOM     24  H   UNL     1     -26.896  92.741  80.271  1.00  0.00     0.293 HD
ENDBRANCH   9  23
BRANCH   7  25
ATOM     25  O   UNL     1     -31.493  90.750  79.105  1.00  0.00    -0.508 OA
ATOM     26  H   UNL     1     -32.184  90.363  78.472  1.00  0.00     0.293 HD
ENDBRANCH   7  25
TORSDOF 6
ENDMDL
MODEL 9
REMARK VINA RESULT:    -6.329      6.603      8.666
REMARK INTER + INTRA:          -7.912
REMARK INTER:                  -7.661
REMARK INTRA:                  -0.251
REMARK UNBOUND:                -0.288
REMARK SMILES Oc1cc(O)c2c(c1)O[C@H](c1ccc(O)c(O)c1)[C@H](O)C2
REMARK SMILES IDX 21 1 19 2 10 3 9 4 7 5 8 6 2 7 3 8 4 9 6 10 20 11 11 13
REMARK SMILES IDX 18 14 12 15 16 16 13 17 14 18 17 19 15 21 5 23 1 25
REMARK H PARENT 20 12 17 20 15 22 5 24 1 26
REMARK Flexibility Score: inf
ROOT
ATOM      1  C   UNL     1     -28.994  85.714  83.151  1.00  0.00     0.079 C 
ATOM      2  C   UNL     1     -28.554  86.680  84.267  1.00  0.00     0.164 C 
ATOM      3  C   UNL     1     -27.136  87.201  83.961  1.00  0.00     0.232 C 
ATOM      4  O   UNL     1     -26.229  86.106  83.819  1.00  0.00    -0.482 OA
ATOM      5  C   UNL     1     -26.598  84.907  83.199  1.00  0.00     0.131 A 
ATOM      6  C   UNL     1     -25.622  83.944  82.930  1.00  0.00     0.093 A 
ATOM      7  C   UNL     1     -25.972  82.738  82.310  1.00  0.00     0.122 A 
ATOM      8  C   UNL     1     -27.303  82.498  81.960  1.00  0.00     0.092 A 
ATOM      9  C   UNL     1     -28.294  83.453  82.231  1.00  0.00     0.126 A 
ATOM     10  C   UNL     1     -27.948  84.659  82.871  1.00  0.00     0.039 A 
ENDROOT
BRANCH   2  11
ATOM     11  O   UNL     1     -28.564  86.016  85.506  1.00  0.00    -0.389 OA
ATOM     12  H   UNL     1     -29.032  86.613  86.147  1.00  0.00     0.211 HD
ENDBRANCH   2  11
BRANCH   3  13
ATOM     13  C   UNL     1     -26.655  88.154  85.031  1.00  0.00    -0.001 A 
ATOM     14  C   UNL     1     -25.297  88.181  85.384  1.00  0.00     0.057 A 
ATOM     15  C   UNL     1     -27.536  89.063  85.637  1.00  0.00     0.012 A 
ATOM     16  C   UNL     1     -24.821  89.080  86.348  1.00  0.00     0.157 A 
ATOM     17  C   UNL     1     -27.072  89.962  86.599  1.00  0.00     0.050 A 
ATOM     18  C   UNL     1     -25.721  89.980  86.966  1.00  0.00     0.157 A 
BRANCH  16  19
ATOM     19  O   UNL     1     -23.459  89.046  86.654  1.00  0.00    -0.504 OA
ATOM     20  H   UNL     1     -22.818  88.349  86.302  1.00  0.00     0.293 HD
ENDBRANCH  16  19
BRANCH  18  21
ATOM     21  O   UNL     1     -25.322  90.900  87.937  1.00  0.00    -0.504 OA
ATOM     22  H   UNL     1     -24.788  91.734  87.739  1.00  0.00     0.293 HD
ENDBRANCH  18  21
ENDBRANCH   3  13
BRANCH   9  23
ATOM     23  O   UNL     1     -29.618  83.209  81.865  1.00  0.00    -0.507 OA
ATOM     24  H   UNL     1     -30.248  82.694  82.467  1.00  0.00     0.293 HD
ENDBRANCH   9  23
BRANCH   7  25
ATOM     25  O   UNL     1     -25.005  81.774  82.035  1.00  0.00    -0.508 OA
ATOM     26  H   UNL     1     -24.120  82.020  81.604  1.00  0.00     0.293 HD
ENDBRANCH   7  25
TORSDOF 6
ENDMDL
