MODEL 1
REMARK VINA RESULT:    -7.436      0.000      0.000
REMARK INTER + INTRA:          -9.931
REMARK INTER:                  -9.392
REMARK INTRA:                  -0.540
REMARK UNBOUND:                -0.540
REMARK SMILES Oc1cc(O)cc(CCc2ccccc2O)c1
REMARK SMILES IDX 9 1 10 2 12 3 13 4 11 5 14 6 15 7 16 8 8 10 7 11 6 12 17 13
REMARK SMILES IDX 4 14 2 15 3 16 5 17 1 19
REMARK H PARENT 16 9 5 18 1 20
REMARK Flexibility Score: inf
ROOT
ATOM      1  C   UNL     1     -33.353  42.913  40.250  1.00  0.00     0.044 C 
ENDROOT
BRANCH   1   2
ATOM      2  C   UNL     1     -34.293  41.731  40.209  1.00  0.00    -0.006 A 
ATOM      3  C   UNL     1     -36.541  40.856  40.545  1.00  0.00     0.001 A 
ATOM      4  C   UNL     1     -36.104  39.579  40.194  1.00  0.00     0.004 A 
ATOM      5  C   UNL     1     -35.642  41.925  40.556  1.00  0.00     0.007 A 
ATOM      6  C   UNL     1     -34.764  39.365  39.861  1.00  0.00     0.046 A 
ATOM      7  C   UNL     1     -33.850  40.426  39.873  1.00  0.00     0.118 A 
BRANCH   7   8
ATOM      8  O   UNL     1     -32.519  40.146  39.553  1.00  0.00    -0.508 OA
ATOM      9  H   UNL     1     -31.730  40.560  40.030  1.00  0.00     0.293 HD
ENDBRANCH   7   8
ENDBRANCH   1   2
BRANCH   1  10
ATOM     10  C   UNL     1     -34.131  44.228  40.134  1.00  0.00     0.040 C 
BRANCH  10  11
ATOM     11  C   UNL     1     -33.758  44.952  38.868  1.00  0.00    -0.040 A 
ATOM     12  C   UNL     1     -34.756  45.481  38.035  1.00  0.00     0.050 A 
ATOM     13  C   UNL     1     -32.411  45.053  38.483  1.00  0.00     0.050 A 
ATOM     14  C   UNL     1     -34.412  46.125  36.840  1.00  0.00     0.119 A 
ATOM     15  C   UNL     1     -32.065  45.698  37.287  1.00  0.00     0.119 A 
ATOM     16  C   UNL     1     -33.065  46.234  36.471  1.00  0.00     0.092 A 
BRANCH  14  17
ATOM     17  O   UNL     1     -35.416  46.649  36.029  1.00  0.00    -0.508 OA
ATOM     18  H   UNL     1     -35.838  47.549  36.225  1.00  0.00     0.293 HD
ENDBRANCH  14  17
BRANCH  15  19
ATOM     19  O   UNL     1     -30.730  45.807  36.901  1.00  0.00    -0.508 OA
ATOM     20  H   UNL     1     -30.271  45.075  36.373  1.00  0.00     0.293 HD
ENDBRANCH  15  19
ENDBRANCH  10  11
ENDBRANCH   1  10
TORSDOF 6
ENDMDL
MODEL 2
REMARK VINA RESULT:    -7.379      2.433      3.562
REMARK INTER + INTRA:          -9.860
REMARK INTER:                  -9.376
REMARK INTRA:                  -0.484
REMARK UNBOUND:                -0.540
REMARK SMILES Oc1cc(O)cc(CCc2ccccc2O)c1
REMARK SMILES IDX 9 1 10 2 12 3 13 4 11 5 14 6 15 7 16 8 8 10 7 11 6 12 17 13
REMARK SMILES IDX 4 14 2 15 3 16 5 17 1 19
REMARK H PARENT 16 9 5 18 1 20
REMARK Flexibility Score: inf
ROOT
ATOM      1  C   UNL     1     -35.103  43.228  40.626  1.00  0.00     0.044 C 
ENDROOT
BRANCH   1   2
ATOM      2  C   UNL     1     -34.528  42.604  41.875  1.00  0.00    -0.006 A 
ATOM      3  C   UNL     1     -32.778  41.259  42.905  1.00  0.00     0.001 A 
ATOM      4  C   UNL     1     -33.404  41.381  44.145  1.00  0.00     0.004 A 
ATOM      5  C   UNL     1     -33.336  41.863  41.776  1.00  0.00     0.007 A 
ATOM      6  C   UNL     1     -34.596  42.101  44.258  1.00  0.00     0.046 A 
ATOM      7  C   UNL     1     -35.170  42.708  43.135  1.00  0.00     0.118 A 
BRANCH   7   8
ATOM      8  O   UNL     1     -36.375  43.395  43.307  1.00  0.00    -0.508 OA
ATOM      9  H   UNL     1     -37.271  42.937  43.408  1.00  0.00     0.293 HD
ENDBRANCH   7   8
ENDBRANCH   1   2
BRANCH   1  10
ATOM     10  C   UNL     1     -34.754  44.718  40.552  1.00  0.00     0.040 C 
BRANCH  10  11
ATOM     11  C   UNL     1     -34.186  45.061  39.201  1.00  0.00    -0.040 A 
ATOM     12  C   UNL     1     -32.844  44.776  38.903  1.00  0.00     0.050 A 
ATOM     13  C   UNL     1     -34.981  45.721  38.248  1.00  0.00     0.050 A 
ATOM     14  C   UNL     1     -32.307  45.125  37.659  1.00  0.00     0.119 A 
ATOM     15  C   UNL     1     -34.444  46.070  37.002  1.00  0.00     0.119 A 
ATOM     16  C   UNL     1     -33.110  45.769  36.709  1.00  0.00     0.092 A 
BRANCH  14  17
ATOM     17  O   UNL     1     -30.975  44.827  37.379  1.00  0.00    -0.508 OA
ATOM     18  H   UNL     1     -30.216  45.360  37.788  1.00  0.00     0.293 HD
ENDBRANCH  14  17
BRANCH  15  19
ATOM     19  O   UNL     1     -35.227  46.719  36.049  1.00  0.00    -0.508 OA
ATOM     20  H   UNL     1     -35.306  46.369  35.102  1.00  0.00     0.293 HD
ENDBRANCH  15  19
ENDBRANCH  10  11
ENDBRANCH   1  10
TORSDOF 6
ENDMDL
MODEL 3
REMARK VINA RESULT:    -7.377      1.801      2.943
REMARK INTER + INTRA:          -9.857
REMARK INTER:                  -9.334
REMARK INTRA:                  -0.523
REMARK UNBOUND:                -0.540
REMARK SMILES Oc1cc(O)cc(CCc2ccccc2O)c1
REMARK SMILES IDX 9 1 10 2 12 3 13 4 11 5 14 6 15 7 16 8 8 10 7 11 6 12 17 13
REMARK SMILES IDX 4 14 2 15 3 16 5 17 1 19
REMARK H PARENT 16 9 5 18 1 20
REMARK Flexibility Score: inf
ROOT
ATOM      1  C   UNL     1     -35.166  43.270  40.559  1.00  0.00     0.044 C 
ENDROOT
BRANCH   1   2
ATOM      2  C   UNL     1     -34.407  42.504  41.616  1.00  0.00    -0.006 A 
ATOM      3  C   UNL     1     -34.142  41.919  43.965  1.00  0.00     0.001 A 
ATOM      4  C   UNL     1     -33.030  41.138  43.652  1.00  0.00     0.004 A 
ATOM      5  C   UNL     1     -34.825  42.601  42.955  1.00  0.00     0.007 A 
ATOM      6  C   UNL     1     -32.592  41.043  42.330  1.00  0.00     0.046 A 
ATOM      7  C   UNL     1     -33.263  41.724  41.307  1.00  0.00     0.118 A 
BRANCH   7   8
ATOM      8  O   UNL     1     -32.764  41.609  40.007  1.00  0.00    -0.508 OA
ATOM      9  H   UNL     1     -33.340  41.668  39.179  1.00  0.00     0.293 HD
ENDBRANCH   7   8
ENDBRANCH   1   2
BRANCH   1  10
ATOM     10  C   UNL     1     -34.711  44.733  40.517  1.00  0.00     0.040 C 
BRANCH  10  11
ATOM     11  C   UNL     1     -34.149  45.072  39.162  1.00  0.00    -0.040 A 
ATOM     12  C   UNL     1     -32.806  44.793  38.863  1.00  0.00     0.050 A 
ATOM     13  C   UNL     1     -34.949  45.721  38.208  1.00  0.00     0.050 A 
ATOM     14  C   UNL     1     -32.273  45.137  37.616  1.00  0.00     0.119 A 
ATOM     15  C   UNL     1     -34.417  46.066  36.958  1.00  0.00     0.119 A 
ATOM     16  C   UNL     1     -33.083  45.771  36.663  1.00  0.00     0.092 A 
BRANCH  14  17
ATOM     17  O   UNL     1     -30.940  44.846  37.334  1.00  0.00    -0.508 OA
ATOM     18  H   UNL     1     -30.379  45.451  36.746  1.00  0.00     0.293 HD
ENDBRANCH  14  17
BRANCH  15  19
ATOM     19  O   UNL     1     -35.206  46.706  36.003  1.00  0.00    -0.508 OA
ATOM     20  H   UNL     1     -35.342  46.313  35.079  1.00  0.00     0.293 HD
ENDBRANCH  15  19
ENDBRANCH  10  11
ENDBRANCH   1  10
TORSDOF 6
ENDMDL
MODEL 4
REMARK VINA RESULT:    -7.370      2.414      2.936
REMARK INTER + INTRA:          -9.849
REMARK INTER:                  -9.338
REMARK INTRA:                  -0.511
REMARK UNBOUND:                -0.540
REMARK SMILES Oc1cc(O)cc(CCc2ccccc2O)c1
REMARK SMILES IDX 9 1 10 2 12 3 13 4 11 5 14 6 15 7 16 8 8 10 7 11 6 12 17 13
REMARK SMILES IDX 4 14 2 15 3 16 5 17 1 19
REMARK H PARENT 16 9 5 18 1 20
REMARK Flexibility Score: inf
ROOT
ATOM      1  C   UNL     1     -35.140  43.178  40.609  1.00  0.00     0.044 C 
ENDROOT
BRANCH   1   2
ATOM      2  C   UNL     1     -34.501  42.567  41.834  1.00  0.00    -0.006 A 
ATOM      3  C   UNL     1     -32.659  41.300  42.799  1.00  0.00     0.001 A 
ATOM      4  C   UNL     1     -33.259  41.370  44.056  1.00  0.00     0.004 A 
ATOM      5  C   UNL     1     -33.276  41.891  41.694  1.00  0.00     0.007 A 
ATOM      6  C   UNL     1     -34.484  42.024  44.210  1.00  0.00     0.046 A 
ATOM      7  C   UNL     1     -35.117  42.617  43.111  1.00  0.00     0.118 A 
BRANCH   7   8
ATOM      8  O   UNL     1     -36.351  43.237  43.323  1.00  0.00    -0.508 OA
ATOM      9  H   UNL     1     -36.870  43.713  42.598  1.00  0.00     0.293 HD
ENDBRANCH   7   8
ENDBRANCH   1   2
BRANCH   1  10
ATOM     10  C   UNL     1     -34.873  44.686  40.553  1.00  0.00     0.040 C 
BRANCH  10  11
ATOM     11  C   UNL     1     -34.241  45.062  39.240  1.00  0.00    -0.040 A 
ATOM     12  C   UNL     1     -34.997  45.709  38.250  1.00  0.00     0.050 A 
ATOM     13  C   UNL     1     -32.906  44.716  38.975  1.00  0.00     0.050 A 
ATOM     14  C   UNL     1     -34.420  46.029  37.016  1.00  0.00     0.119 A 
ATOM     15  C   UNL     1     -32.326  45.037  37.740  1.00  0.00     0.119 A 
ATOM     16  C   UNL     1     -33.082  45.694  36.765  1.00  0.00     0.092 A 
BRANCH  14  17
ATOM     17  O   UNL     1     -35.183  46.678  36.048  1.00  0.00    -0.508 OA
ATOM     18  H   UNL     1     -34.771  47.349  35.411  1.00  0.00     0.293 HD
ENDBRANCH  14  17
BRANCH  15  19
ATOM     19  O   UNL     1     -31.000  44.702  37.470  1.00  0.00    -0.508 OA
ATOM     20  H   UNL     1     -30.230  45.217  37.881  1.00  0.00     0.293 HD
ENDBRANCH  15  19
ENDBRANCH  10  11
ENDBRANCH   1  10
TORSDOF 6
ENDMDL
MODEL 5
REMARK VINA RESULT:    -7.312      0.365      2.054
REMARK INTER + INTRA:          -9.775
REMARK INTER:                  -9.235
REMARK INTRA:                  -0.540
REMARK UNBOUND:                -0.540
REMARK SMILES Oc1cc(O)cc(CCc2ccccc2O)c1
REMARK SMILES IDX 9 1 10 2 12 3 13 4 11 5 14 6 15 7 16 8 8 10 7 11 6 12 17 13
REMARK SMILES IDX 4 14 2 15 3 16 5 17 1 19
REMARK H PARENT 16 9 5 18 1 20
REMARK Flexibility Score: inf
ROOT
ATOM      1  C   UNL     1     -33.707  42.827  40.533  1.00  0.00     0.044 C 
ENDROOT
BRANCH   1   2
ATOM      2  C   UNL     1     -34.577  41.613  40.311  1.00  0.00    -0.006 A 
ATOM      3  C   UNL     1     -36.773  40.574  40.490  1.00  0.00     0.001 A 
ATOM      4  C   UNL     1     -36.262  39.388  39.964  1.00  0.00     0.004 A 
ATOM      5  C   UNL     1     -35.936  41.679  40.666  1.00  0.00     0.007 A 
ATOM      6  C   UNL     1     -34.911  39.300  39.620  1.00  0.00     0.046 A 
ATOM      7  C   UNL     1     -34.059  40.397  39.795  1.00  0.00     0.118 A 
BRANCH   7   8
ATOM      8  O   UNL     1     -32.713  40.241  39.454  1.00  0.00    -0.508 OA
ATOM      9  H   UNL     1     -32.126  39.503  39.817  1.00  0.00     0.293 HD
ENDBRANCH   7   8
ENDBRANCH   1   2
BRANCH   1  10
ATOM     10  C   UNL     1     -34.482  44.114  40.229  1.00  0.00     0.040 C 
BRANCH  10  11
ATOM     11  C   UNL     1     -33.993  44.735  38.948  1.00  0.00    -0.040 A 
ATOM     12  C   UNL     1     -32.638  44.649  38.593  1.00  0.00     0.050 A 
ATOM     13  C   UNL     1     -34.879  45.455  38.129  1.00  0.00     0.050 A 
ATOM     14  C   UNL     1     -32.175  45.255  37.419  1.00  0.00     0.119 A 
ATOM     15  C   UNL     1     -34.417  46.061  36.953  1.00  0.00     0.119 A 
ATOM     16  C   UNL     1     -33.068  45.958  36.599  1.00  0.00     0.092 A 
BRANCH  14  17
ATOM     17  O   UNL     1     -30.828  45.153  37.078  1.00  0.00    -0.508 OA
ATOM     18  H   UNL     1     -30.480  45.492  36.189  1.00  0.00     0.293 HD
ENDBRANCH  14  17
BRANCH  15  19
ATOM     19  O   UNL     1     -35.290  46.772  36.131  1.00  0.00    -0.508 OA
ATOM     20  H   UNL     1     -35.570  46.417  35.225  1.00  0.00     0.293 HD
ENDBRANCH  15  19
ENDBRANCH  10  11
ENDBRANCH   1  10
TORSDOF 6
ENDMDL
MODEL 6
REMARK VINA RESULT:    -7.276      1.883      2.358
REMARK INTER + INTRA:          -9.730
REMARK INTER:                  -9.216
REMARK INTRA:                  -0.514
REMARK UNBOUND:                -0.540
REMARK SMILES Oc1cc(O)cc(CCc2ccccc2O)c1
REMARK SMILES IDX 9 1 10 2 12 3 13 4 11 5 14 6 15 7 16 8 8 10 7 11 6 12 17 13
REMARK SMILES IDX 4 14 2 15 3 16 5 17 1 19
REMARK H PARENT 16 9 5 18 1 20
REMARK Flexibility Score: inf
ROOT
ATOM      1  C   UNL     1     -34.258  42.610  40.189  1.00  0.00     0.044 C 
ENDROOT
BRANCH   1   2
ATOM      2  C   UNL     1     -33.556  42.139  41.441  1.00  0.00    -0.006 A 
ATOM      3  C   UNL     1     -33.661  41.685  43.831  1.00  0.00     0.001 A 
ATOM      4  C   UNL     1     -32.319  41.308  43.825  1.00  0.00     0.004 A 
ATOM      5  C   UNL     1     -34.277  42.102  42.648  1.00  0.00     0.007 A 
ATOM      6  C   UNL     1     -31.585  41.354  42.638  1.00  0.00     0.046 A 
ATOM      7  C   UNL     1     -32.186  41.774  41.445  1.00  0.00     0.118 A 
BRANCH   7   8
ATOM      8  O   UNL     1     -31.394  41.821  40.295  1.00  0.00    -0.508 OA
ATOM      9  H   UNL     1     -31.105  42.681  39.849  1.00  0.00     0.293 HD
ENDBRANCH   7   8
ENDBRANCH   1   2
BRANCH   1  10
ATOM     10  C   UNL     1     -34.500  44.123  40.239  1.00  0.00     0.040 C 
BRANCH  10  11
ATOM     11  C   UNL     1     -33.984  44.781  38.988  1.00  0.00    -0.040 A 
ATOM     12  C   UNL     1     -34.862  45.472  38.137  1.00  0.00     0.050 A 
ATOM     13  C   UNL     1     -32.631  44.660  38.633  1.00  0.00     0.050 A 
ATOM     14  C   UNL     1     -34.389  46.056  36.957  1.00  0.00     0.119 A 
ATOM     15  C   UNL     1     -32.156  45.245  37.451  1.00  0.00     0.119 A 
ATOM     16  C   UNL     1     -33.034  45.944  36.618  1.00  0.00     0.092 A 
BRANCH  14  17
ATOM     17  O   UNL     1     -35.274  46.744  36.129  1.00  0.00    -0.508 OA
ATOM     18  H   UNL     1     -36.211  46.979  36.434  1.00  0.00     0.293 HD
ENDBRANCH  14  17
BRANCH  15  19
ATOM     19  O   UNL     1     -30.813  45.134  37.094  1.00  0.00    -0.508 OA
ATOM     20  H   UNL     1     -30.314  45.904  36.665  1.00  0.00     0.293 HD
ENDBRANCH  15  19
ENDBRANCH  10  11
ENDBRANCH   1  10
TORSDOF 6
ENDMDL
MODEL 7
REMARK VINA RESULT:    -7.149      1.787      2.193
REMARK INTER + INTRA:          -9.569
REMARK INTER:                  -9.170
REMARK INTRA:                  -0.399
REMARK UNBOUND:                -0.540
REMARK SMILES Oc1cc(O)cc(CCc2ccccc2O)c1
REMARK SMILES IDX 9 1 10 2 12 3 13 4 11 5 14 6 15 7 16 8 8 10 7 11 6 12 17 13
REMARK SMILES IDX 4 14 2 15 3 16 5 17 1 19
REMARK H PARENT 16 9 5 18 1 20
REMARK Flexibility Score: inf
ROOT
ATOM      1  C   UNL     1     -34.405  43.114  40.824  1.00  0.00     0.044 C 
ENDROOT
BRANCH   1   2
ATOM      2  C   UNL     1     -35.425  42.420  41.695  1.00  0.00    -0.006 A 
ATOM      3  C   UNL     1     -36.342  42.049  43.921  1.00  0.00     0.001 A 
ATOM      4  C   UNL     1     -37.267  41.146  43.397  1.00  0.00     0.004 A 
ATOM      5  C   UNL     1     -35.424  42.680  43.078  1.00  0.00     0.007 A 
ATOM      6  C   UNL     1     -37.272  40.865  42.029  1.00  0.00     0.046 A 
ATOM      7  C   UNL     1     -36.355  41.486  41.171  1.00  0.00     0.118 A 
BRANCH   7   8
ATOM      8  O   UNL     1     -36.394  41.147  39.816  1.00  0.00    -0.508 OA
ATOM      9  H   UNL     1     -37.110  41.469  39.179  1.00  0.00     0.293 HD
ENDBRANCH   7   8
ENDBRANCH   1   2
BRANCH   1  10
ATOM     10  C   UNL     1     -34.855  44.542  40.494  1.00  0.00     0.040 C 
BRANCH  10  11
ATOM     11  C   UNL     1     -34.240  45.002  39.199  1.00  0.00    -0.040 A 
ATOM     12  C   UNL     1     -35.020  45.677  38.246  1.00  0.00     0.050 A 
ATOM     13  C   UNL     1     -32.897  44.708  38.911  1.00  0.00     0.050 A 
ATOM     14  C   UNL     1     -34.458  46.076  37.028  1.00  0.00     0.119 A 
ATOM     15  C   UNL     1     -32.333  45.108  37.692  1.00  0.00     0.119 A 
ATOM     16  C   UNL     1     -33.113  45.793  36.755  1.00  0.00     0.092 A 
BRANCH  14  17
ATOM     17  O   UNL     1     -35.244  46.751  36.097  1.00  0.00    -0.508 OA
ATOM     18  H   UNL     1     -36.087  46.337  35.718  1.00  0.00     0.293 HD
ENDBRANCH  14  17
BRANCH  15  19
ATOM     19  O   UNL     1     -30.999  44.825  37.401  1.00  0.00    -0.508 OA
ATOM     20  H   UNL     1     -30.337  44.589  38.129  1.00  0.00     0.293 HD
ENDBRANCH  15  19
ENDBRANCH  10  11
ENDBRANCH   1  10
TORSDOF 6
ENDMDL
MODEL 8
REMARK VINA RESULT:    -7.100      1.807      2.997
REMARK INTER + INTRA:          -9.507
REMARK INTER:                  -9.121
REMARK INTRA:                  -0.386
REMARK UNBOUND:                -0.540
REMARK SMILES Oc1cc(O)cc(CCc2ccccc2O)c1
REMARK SMILES IDX 9 1 10 2 12 3 13 4 11 5 14 6 15 7 16 8 8 10 7 11 6 12 17 13
REMARK SMILES IDX 4 14 2 15 3 16 5 17 1 19
REMARK H PARENT 16 9 5 18 1 20
REMARK Flexibility Score: inf
ROOT
ATOM      1  C   UNL     1     -34.253  42.942  40.683  1.00  0.00     0.044 C 
ENDROOT
BRANCH   1   2
ATOM      2  C   UNL     1     -35.226  42.346  41.673  1.00  0.00    -0.006 A 
ATOM      3  C   UNL     1     -35.883  42.021  43.996  1.00  0.00     0.001 A 
ATOM      4  C   UNL     1     -36.968  41.245  43.587  1.00  0.00     0.004 A 
ATOM      5  C   UNL     1     -35.015  42.566  43.047  1.00  0.00     0.007 A 
ATOM      6  C   UNL     1     -37.182  41.004  42.228  1.00  0.00     0.046 A 
ATOM      7  C   UNL     1     -36.318  41.539  41.265  1.00  0.00     0.118 A 
BRANCH   7   8
ATOM      8  O   UNL     1     -36.571  41.244  39.923  1.00  0.00    -0.508 OA
ATOM      9  H   UNL     1     -35.901  41.393  39.181  1.00  0.00     0.293 HD
ENDBRANCH   7   8
ENDBRANCH   1   2
BRANCH   1  10
ATOM     10  C   UNL     1     -34.525  44.438  40.489  1.00  0.00     0.040 C 
BRANCH  10  11
ATOM     11  C   UNL     1     -34.015  44.897  39.149  1.00  0.00    -0.040 A 
ATOM     12  C   UNL     1     -32.669  44.704  38.800  1.00  0.00     0.050 A 
ATOM     13  C   UNL     1     -34.869  45.574  38.263  1.00  0.00     0.050 A 
ATOM     14  C   UNL     1     -32.186  45.160  37.568  1.00  0.00     0.119 A 
ATOM     15  C   UNL     1     -34.387  46.030  37.028  1.00  0.00     0.119 A 
ATOM     16  C   UNL     1     -33.048  45.820  36.683  1.00  0.00     0.092 A 
BRANCH  14  17
ATOM     17  O   UNL     1     -30.849  44.953  37.236  1.00  0.00    -0.508 OA
ATOM     18  H   UNL     1     -30.365  45.560  36.585  1.00  0.00     0.293 HD
ENDBRANCH  14  17
BRANCH  15  19
ATOM     19  O   UNL     1     -35.229  46.697  36.140  1.00  0.00    -0.508 OA
ATOM     20  H   UNL     1     -35.892  47.393  36.461  1.00  0.00     0.293 HD
ENDBRANCH  15  19
ENDBRANCH  10  11
ENDBRANCH   1  10
TORSDOF 6
ENDMDL
MODEL 9
REMARK VINA RESULT:    -6.955      9.177     12.956
REMARK INTER + INTRA:          -9.324
REMARK INTER:                  -8.818
REMARK INTRA:                  -0.506
REMARK UNBOUND:                -0.540
REMARK SMILES Oc1cc(O)cc(CCc2ccccc2O)c1
REMARK SMILES IDX 9 1 10 2 12 3 13 4 11 5 14 6 15 7 16 8 8 10 7 11 6 12 17 13
REMARK SMILES IDX 4 14 2 15 3 16 5 17 1 19
REMARK H PARENT 16 9 5 18 1 20
REMARK Flexibility Score: inf
ROOT
ATOM      1  C   UNL     1     -38.524  38.756  46.771  1.00  0.00     0.044 C 
ENDROOT
BRANCH   1   2
ATOM      2  C   UNL     1     -37.857  38.113  45.579  1.00  0.00    -0.006 A 
ATOM      3  C   UNL     1     -37.401  38.151  43.187  1.00  0.00     0.001 A 
ATOM      4  C   UNL     1     -36.675  36.966  43.299  1.00  0.00     0.004 A 
ATOM      5  C   UNL     1     -37.991  38.721  44.318  1.00  0.00     0.007 A 
ATOM      6  C   UNL     1     -36.545  36.341  44.541  1.00  0.00     0.046 A 
ATOM      7  C   UNL     1     -37.134  36.896  45.683  1.00  0.00     0.118 A 
BRANCH   7   8
ATOM      8  O   UNL     1     -36.988  36.213  46.893  1.00  0.00    -0.508 OA
ATOM      9  H   UNL     1     -37.747  36.056  47.542  1.00  0.00     0.293 HD
ENDBRANCH   7   8
ENDBRANCH   1   2
BRANCH   1  10
ATOM     10  C   UNL     1     -40.020  38.424  46.801  1.00  0.00     0.040 C 
BRANCH  10  11
ATOM     11  C   UNL     1     -40.386  37.753  48.097  1.00  0.00    -0.040 A 
ATOM     12  C   UNL     1     -40.042  36.410  48.321  1.00  0.00     0.050 A 
ATOM     13  C   UNL     1     -41.125  38.449  49.068  1.00  0.00     0.050 A 
ATOM     14  C   UNL     1     -40.411  35.776  49.513  1.00  0.00     0.119 A 
ATOM     15  C   UNL     1     -41.495  37.815  50.262  1.00  0.00     0.119 A 
ATOM     16  C   UNL     1     -41.135  36.482  50.483  1.00  0.00     0.092 A 
BRANCH  14  17
ATOM     17  O   UNL     1     -40.055  34.445  49.721  1.00  0.00    -0.508 OA
ATOM     18  H   UNL     1     -40.136  33.755  48.984  1.00  0.00     0.293 HD
ENDBRANCH  14  17
BRANCH  15  19
ATOM     19  O   UNL     1     -42.223  38.500  51.233  1.00  0.00    -0.508 OA
ATOM     20  H   UNL     1     -42.437  38.079  52.129  1.00  0.00     0.293 HD
ENDBRANCH  15  19
ENDBRANCH  10  11
ENDBRANCH   1  10
TORSDOF 6
ENDMDL
