MODEL 1
REMARK VINA RESULT:    -3.449      0.000      0.000
REMARK INTER + INTRA:          -4.429
REMARK INTER:                  -4.861
REMARK INTRA:                   0.432
REMARK UNBOUND:                 0.432
REMARK SMILES CC1=CCC(=C(C)C)C(=O)CC(C)=CCC1
REMARK SMILES IDX 12 1 14 2 13 3 15 4 16 5 2 6 1 7 3 8 11 10 9 11 10 12 5 13
REMARK SMILES IDX 6 14 7 15 8 16 4 17
REMARK H PARENT
REMARK Flexibility Score: 60.00
ROOT
ATOM      1  C   UNL     1       7.302 -33.259  15.900  1.00  0.00    -0.070 C 
ATOM      2  C   UNL     1       7.661 -33.459  14.612  1.00  0.00    -0.027 C 
ATOM      3  C   UNL     1       5.933 -33.724  16.333  1.00  0.00     0.039 C 
ENDROOT
BRANCH   2   4
ATOM      4  C   UNL     1       8.943 -32.982  13.968  1.00  0.00     0.032 C 
BRANCH   4   5
ATOM      5  C   UNL     1       8.752 -31.979  12.811  1.00  0.00     0.034 C 
BRANCH   5   6
ATOM      6  C   UNL     1       7.854 -30.811  13.175  1.00  0.00    -0.077 C 
ATOM      7  C   UNL     1       6.608 -30.601  12.352  1.00  0.00     0.039 C 
ATOM      8  C   UNL     1       8.133 -29.905  14.145  1.00  0.00    -0.023 CG0
ATOM      9  G   UNL     1       9.308 -29.924  15.103  1.00  0.00     0.000 G0
ENDBRANCH   5   6
ENDBRANCH   4   5
ENDBRANCH   2   4
BRANCH   1  10
ATOM     10  C   UNL     1       8.166 -32.515  16.898  1.00  0.00     0.111 C 
BRANCH  10  11
ATOM     11  C   UNL     1       7.852 -31.042  16.915  1.00  0.00     0.163 C 
ATOM     12  O   UNL     1       6.672 -30.690  17.188  1.00  0.00    -0.294 OA
BRANCH  11  13
ATOM     13  C   UNL     1       8.864 -30.002  16.564  1.00  0.00    -0.002 C 
ATOM     14  C   UNL     1       9.304 -29.109  17.501  1.00  0.00    -0.069 C 
ATOM     15  C   UNL     1      10.205 -27.949  17.140  1.00  0.00     0.039 C 
ATOM     16  C   UNL     1       8.906 -29.239  18.955  1.00  0.00     0.039 C 
BRANCH  13  17
ATOM     17  C   UNL     1       9.303 -29.923  15.111  1.00  0.00     0.066 CG0
ATOM     18  G   UNL     1       8.128 -29.919  14.153  1.00  0.00     0.000 G0
ENDBRANCH  13  17
ENDBRANCH  11  13
ENDBRANCH  10  11
ENDBRANCH   1  10
TORSDOF 0
ENDMDL
MODEL 2
REMARK VINA RESULT:    -3.441      1.463      4.001
REMARK INTER + INTRA:          -4.418
REMARK INTER:                  -4.641
REMARK INTRA:                   0.224
REMARK UNBOUND:                 0.432
REMARK SMILES CC1=CCC(=C(C)C)C(=O)CC(C)=CCC1
REMARK SMILES IDX 12 1 14 2 13 3 15 4 16 5 2 6 1 7 3 8 11 10 9 11 10 12 5 13
REMARK SMILES IDX 6 14 7 15 8 16 4 17
REMARK H PARENT
REMARK Flexibility Score: 60.00
ROOT
ATOM      1  C   UNL     1       8.707 -29.654  17.018  1.00  0.00    -0.070 C 
ATOM      2  C   UNL     1       9.405 -29.016  16.052  1.00  0.00    -0.027 C 
ATOM      3  C   UNL     1       8.504 -28.940  18.331  1.00  0.00     0.039 C 
ENDROOT
BRANCH   2   4
ATOM      4  C   UNL     1       9.793 -29.600  14.711  1.00  0.00     0.032 C 
BRANCH   4   5
ATOM      5  C   UNL     1       8.703 -29.505  13.624  1.00  0.00     0.034 C 
BRANCH   5   6
ATOM      6  C   UNL     1       8.493 -30.808  12.874  1.00  0.00    -0.077 C 
ATOM      7  C   UNL     1       9.562 -31.239  11.902  1.00  0.00     0.039 C 
ATOM      8  C   UNL     1       7.377 -31.573  12.969  1.00  0.00    -0.023 CG0
ATOM      9  G   UNL     1       6.190 -31.349  13.885  1.00  0.00     0.000 G0
ENDBRANCH   5   6
ENDBRANCH   4   5
ENDBRANCH   2   4
BRANCH   1  10
ATOM     10  C   UNL     1       8.201 -31.075  16.877  1.00  0.00     0.111 C 
BRANCH  10  11
ATOM     11  C   UNL     1       6.778 -31.112  16.382  1.00  0.00     0.163 C 
ATOM     12  O   UNL     1       5.922 -30.409  16.984  1.00  0.00    -0.294 OA
BRANCH  11  13
ATOM     13  C   UNL     1       6.344 -31.990  15.255  1.00  0.00    -0.002 C 
ATOM     14  C   UNL     1       6.189 -33.336  15.437  1.00  0.00    -0.069 C 
ATOM     15  C   UNL     1       5.904 -34.272  14.283  1.00  0.00     0.039 C 
ATOM     16  C   UNL     1       6.297 -33.959  16.811  1.00  0.00     0.039 C 
BRANCH  13  17
ATOM     17  C   UNL     1       6.176 -31.339  13.892  1.00  0.00     0.066 CG0
ATOM     18  G   UNL     1       7.375 -31.569  12.993  1.00  0.00     0.000 G0
ENDBRANCH  13  17
ENDBRANCH  11  13
ENDBRANCH  10  11
ENDBRANCH   1  10
TORSDOF 0
ENDMDL
MODEL 3
REMARK VINA RESULT:    -3.335      1.685      2.391
REMARK INTER + INTRA:          -4.268
REMARK INTER:                  -4.930
REMARK INTRA:                   0.662
REMARK UNBOUND:                 0.432
REMARK SMILES CC1=CCC(=C(C)C)C(=O)CC(C)=CCC1
REMARK SMILES IDX 12 1 14 2 13 3 15 4 16 5 2 6 1 7 3 8 11 10 9 11 10 12 5 13
REMARK SMILES IDX 6 14 7 15 8 16 4 17
REMARK H PARENT
REMARK Flexibility Score: 60.00
ROOT
ATOM      1  C   UNL     1       6.486 -31.415  13.691  1.00  0.00    -0.070 C 
ATOM      2  C   UNL     1       7.104 -30.920  12.596  1.00  0.00    -0.027 C 
ATOM      3  C   UNL     1       5.875 -32.791  13.596  1.00  0.00     0.039 C 
ENDROOT
BRANCH   2   4
ATOM      4  C   UNL     1       7.690 -29.532  12.464  1.00  0.00     0.032 C 
BRANCH   4   5
ATOM      5  C   UNL     1       9.205 -29.493  12.174  1.00  0.00     0.034 C 
BRANCH   5   6
ATOM      6  C   UNL     1      10.016 -30.361  13.119  1.00  0.00    -0.077 C 
ATOM      7  C   UNL     1      10.856 -31.459  12.517  1.00  0.00     0.039 C 
ATOM      8  C   UNL     1       9.982 -30.258  14.471  1.00  0.00    -0.023 CG0
ATOM      9  G   UNL     1       9.231 -29.227  15.291  1.00  0.00     0.000 G0
ENDBRANCH   5   6
ENDBRANCH   4   5
ENDBRANCH   2   4
BRANCH   1  10
ATOM     10  C   UNL     1       6.301 -30.624  14.970  1.00  0.00     0.111 C 
BRANCH  10  11
ATOM     11  C   UNL     1       7.377 -30.936  15.977  1.00  0.00     0.163 C 
ATOM     12  O   UNL     1       7.375 -32.077  16.514  1.00  0.00    -0.294 OA
BRANCH  11  13
ATOM     13  C   UNL     1       8.396 -29.930  16.400  1.00  0.00    -0.002 C 
ATOM     14  C   UNL     1       8.523 -29.573  17.714  1.00  0.00    -0.069 C 
ATOM     15  C   UNL     1       9.432 -28.447  18.153  1.00  0.00     0.039 C 
ATOM     16  C   UNL     1       7.754 -30.292  18.799  1.00  0.00     0.039 C 
BRANCH  13  17
ATOM     17  C   UNL     1       9.207 -29.260  15.304  1.00  0.00     0.066 CG0
ATOM     18  G   UNL     1       9.996 -30.257  14.479  1.00  0.00     0.000 G0
ENDBRANCH  13  17
ENDBRANCH  11  13
ENDBRANCH  10  11
ENDBRANCH   1  10
TORSDOF 0
ENDMDL
MODEL 4
REMARK VINA RESULT:    -3.312      2.048      4.712
REMARK INTER + INTRA:          -4.235
REMARK INTER:                  -4.562
REMARK INTRA:                   0.327
REMARK UNBOUND:                 0.432
REMARK SMILES CC1=CCC(=C(C)C)C(=O)CC(C)=CCC1
REMARK SMILES IDX 12 1 14 2 13 3 15 4 16 5 2 6 1 7 3 8 11 10 9 11 10 12 5 13
REMARK SMILES IDX 6 14 7 15 8 16 4 17
REMARK H PARENT
REMARK Flexibility Score: 60.00
ROOT
ATOM      1  C   UNL     1       8.564 -29.514  15.838  1.00  0.00    -0.070 C 
ATOM      2  C   UNL     1       8.064 -29.935  17.021  1.00  0.00    -0.027 C 
ATOM      3  C   UNL     1       9.968 -28.964  15.820  1.00  0.00     0.039 C 
ENDROOT
BRANCH   2   4
ATOM      4  C   UNL     1       6.653 -30.425  17.259  1.00  0.00     0.032 C 
BRANCH   4   5
ATOM      5  C   UNL     1       6.185 -31.542  16.302  1.00  0.00     0.034 C 
BRANCH   5   6
ATOM      6  C   UNL     1       7.106 -32.748  16.298  1.00  0.00    -0.077 C 
ATOM      7  C   UNL     1       7.325 -33.469  17.605  1.00  0.00     0.039 C 
ATOM      8  C   UNL     1       7.799 -33.178  15.214  1.00  0.00    -0.023 CG0
ATOM      9  G   UNL     1       7.725 -32.625  13.804  1.00  0.00     0.000 G0
ENDBRANCH   5   6
ENDBRANCH   4   5
ENDBRANCH   2   4
BRANCH   1  10
ATOM     10  C   UNL     1       7.756 -29.486  14.556  1.00  0.00     0.111 C 
BRANCH  10  11
ATOM     11  C   UNL     1       8.471 -30.188  13.432  1.00  0.00     0.163 C 
ATOM     12  O   UNL     1       8.716 -29.532  12.383  1.00  0.00    -0.294 OA
BRANCH  11  13
ATOM     13  C   UNL     1       8.840 -31.633  13.495  1.00  0.00    -0.002 C 
ATOM     14  C   UNL     1      10.114 -32.043  13.216  1.00  0.00    -0.069 C 
ATOM     15  C   UNL     1      10.481 -33.507  13.117  1.00  0.00     0.039 C 
ATOM     16  C   UNL     1      11.227 -31.043  12.990  1.00  0.00     0.039 C 
BRANCH  13  17
ATOM     17  C   UNL     1       7.724 -32.623  13.786  1.00  0.00     0.066 CG0
ATOM     18  G   UNL     1       7.784 -33.159  15.203  1.00  0.00     0.000 G0
ENDBRANCH  13  17
ENDBRANCH  11  13
ENDBRANCH  10  11
ENDBRANCH   1  10
TORSDOF 0
ENDMDL
MODEL 5
REMARK VINA RESULT:    -3.221      1.964      3.958
REMARK INTER + INTRA:          -4.108
REMARK INTER:                  -4.746
REMARK INTRA:                   0.638
REMARK UNBOUND:                 0.432
REMARK SMILES CC1=CCC(=C(C)C)C(=O)CC(C)=CCC1
REMARK SMILES IDX 12 1 14 2 13 3 15 4 16 5 2 6 1 7 3 8 11 10 9 11 10 12 5 13
REMARK SMILES IDX 6 14 7 15 8 16 4 17
REMARK H PARENT
REMARK Flexibility Score: 60.00
ROOT
ATOM      1  C   UNL     1       7.555 -30.304  17.079  1.00  0.00    -0.070 C 
ATOM      2  C   UNL     1       6.917 -31.461  17.363  1.00  0.00    -0.027 C 
ATOM      3  C   UNL     1       8.074 -29.482  18.232  1.00  0.00     0.039 C 
ENDROOT
BRANCH   2   4
ATOM      4  C   UNL     1       6.247 -32.370  16.357  1.00  0.00     0.032 C 
BRANCH   4   5
ATOM      5  C   UNL     1       7.061 -33.623  15.973  1.00  0.00     0.034 C 
BRANCH   5   6
ATOM      6  C   UNL     1       7.417 -33.676  14.499  1.00  0.00    -0.077 C 
ATOM      7  C   UNL     1       6.498 -34.444  13.582  1.00  0.00     0.039 C 
ATOM      8  C   UNL     1       8.541 -33.138  13.964  1.00  0.00    -0.023 CG0
ATOM      9  G   UNL     1       9.591 -32.314  14.683  1.00  0.00     0.000 G0
ENDBRANCH   5   6
ENDBRANCH   4   5
ENDBRANCH   2   4
BRANCH   1  10
ATOM     10  C   UNL     1       7.693 -29.754  15.674  1.00  0.00     0.111 C 
BRANCH  10  11
ATOM     11  C   UNL     1       9.117 -29.822  15.187  1.00  0.00     0.163 C 
ATOM     12  O   UNL     1       9.923 -28.938  15.586  1.00  0.00    -0.294 OA
BRANCH  11  13
ATOM     13  C   UNL     1       9.583 -30.852  14.212  1.00  0.00    -0.002 C 
ATOM     14  C   UNL     1       9.906 -30.505  12.930  1.00  0.00    -0.069 C 
ATOM     15  C   UNL     1      10.228 -31.543  11.877  1.00  0.00     0.039 C 
ATOM     16  C   UNL     1       9.955 -29.056  12.498  1.00  0.00     0.039 C 
BRANCH  13  17
ATOM     17  C   UNL     1       9.589 -32.298  14.679  1.00  0.00     0.066 CG0
ATOM     18  G   UNL     1       8.551 -33.140  13.962  1.00  0.00     0.000 G0
ENDBRANCH  13  17
ENDBRANCH  11  13
ENDBRANCH  10  11
ENDBRANCH   1  10
TORSDOF 0
ENDMDL
MODEL 6
REMARK VINA RESULT:    -3.075      1.908      3.387
REMARK INTER + INTRA:          -3.901
REMARK INTER:                  -4.789
REMARK INTRA:                   0.888
REMARK UNBOUND:                 0.432
REMARK SMILES CC1=CCC(=C(C)C)C(=O)CC(C)=CCC1
REMARK SMILES IDX 12 1 14 2 13 3 15 4 16 5 2 6 1 7 3 8 11 10 9 11 10 12 5 13
REMARK SMILES IDX 6 14 7 15 8 16 4 17
REMARK H PARENT
REMARK Flexibility Score: 60.00
ROOT
ATOM      1  C   UNL     1       9.225 -30.270  13.100  1.00  0.00    -0.070 C 
ATOM      2  C   UNL     1       8.420 -30.929  12.237  1.00  0.00    -0.027 C 
ATOM      3  C   UNL     1       9.973 -29.065  12.587  1.00  0.00     0.039 C 
ENDROOT
BRANCH   2   4
ATOM      4  C   UNL     1       7.666 -32.207  12.533  1.00  0.00     0.032 C 
BRANCH   4   5
ATOM      5  C   UNL     1       6.313 -32.010  13.247  1.00  0.00     0.034 C 
BRANCH   5   6
ATOM      6  C   UNL     1       6.328 -32.470  14.694  1.00  0.00    -0.077 C 
ATOM      7  C   UNL     1       6.152 -33.943  14.964  1.00  0.00     0.039 C 
ATOM      8  C   UNL     1       6.420 -31.637  15.760  1.00  0.00    -0.023 CG0
ATOM      9  G   UNL     1       6.620 -30.134  15.731  1.00  0.00     0.000 G0
ENDBRANCH   5   6
ENDBRANCH   4   5
ENDBRANCH   2   4
BRANCH   1  10
ATOM     10  C   UNL     1       9.479 -30.734  14.520  1.00  0.00     0.111 C 
BRANCH  10  11
ATOM     11  C   UNL     1       9.150 -29.659  15.523  1.00  0.00     0.163 C 
ATOM     12  O   UNL     1       9.965 -28.707  15.662  1.00  0.00    -0.294 OA
BRANCH  11  13
ATOM     13  C   UNL     1       7.937 -29.716  16.391  1.00  0.00    -0.002 C 
ATOM     14  C   UNL     1       8.027 -29.486  17.735  1.00  0.00    -0.069 C 
ATOM     15  C   UNL     1       6.850 -29.691  18.663  1.00  0.00     0.039 C 
ATOM     16  C   UNL     1       9.319 -29.014  18.365  1.00  0.00     0.039 C 
BRANCH  13  17
ATOM     17  C   UNL     1       6.631 -30.131  15.733  1.00  0.00     0.066 CG0
ATOM     18  G   UNL     1       6.420 -31.632  15.765  1.00  0.00     0.000 G0
ENDBRANCH  13  17
ENDBRANCH  11  13
ENDBRANCH  10  11
ENDBRANCH   1  10
TORSDOF 0
ENDMDL
MODEL 7
REMARK VINA RESULT:    -3.018      1.816      3.591
REMARK INTER + INTRA:          -3.821
REMARK INTER:                  -4.504
REMARK INTRA:                   0.683
REMARK UNBOUND:                 0.432
REMARK SMILES CC1=CCC(=C(C)C)C(=O)CC(C)=CCC1
REMARK SMILES IDX 12 1 14 2 13 3 15 4 16 5 2 6 1 7 3 8 11 10 9 11 10 12 5 13
REMARK SMILES IDX 6 14 7 15 8 16 4 17
REMARK H PARENT
REMARK Flexibility Score: 60.00
ROOT
ATOM      1  C   UNL     1       8.969 -32.584  13.496  1.00  0.00    -0.070 C 
ATOM      2  C   UNL     1       8.636 -33.633  14.281  1.00  0.00    -0.027 C 
ATOM      3  C   UNL     1      10.435 -32.321  13.254  1.00  0.00     0.039 C 
ENDROOT
BRANCH   2   4
ATOM      4  C   UNL     1       7.234 -33.999  14.717  1.00  0.00     0.032 C 
BRANCH   4   5
ATOM      5  C   UNL     1       6.461 -32.870  15.427  1.00  0.00     0.034 C 
BRANCH   5   6
ATOM      6  C   UNL     1       7.236 -32.244  16.572  1.00  0.00    -0.077 C 
ATOM      7  C   UNL     1       7.604 -33.128  17.737  1.00  0.00     0.039 C 
ATOM      8  C   UNL     1       7.558 -30.928  16.649  1.00  0.00    -0.023 CG0
ATOM      9  G   UNL     1       7.308 -29.864  15.599  1.00  0.00     0.000 G0
ENDBRANCH   5   6
ENDBRANCH   4   5
ENDBRANCH   2   4
BRANCH   1  10
ATOM     10  C   UNL     1       7.953 -31.614  12.928  1.00  0.00     0.111 C 
BRANCH  10  11
ATOM     11  C   UNL     1       8.312 -30.185  13.241  1.00  0.00     0.163 C 
ATOM     12  O   UNL     1       8.530 -29.404  12.275  1.00  0.00    -0.294 OA
BRANCH  11  13
ATOM     13  C   UNL     1       8.478 -29.687  14.638  1.00  0.00    -0.002 C 
ATOM     14  C   UNL     1       9.672 -29.173  15.061  1.00  0.00    -0.069 C 
ATOM     15  C   UNL     1       9.918 -28.807  16.508  1.00  0.00     0.039 C 
ATOM     16  C   UNL     1      10.813 -28.945  14.094  1.00  0.00     0.039 C 
BRANCH  13  17
ATOM     17  C   UNL     1       7.300 -29.865  15.583  1.00  0.00     0.066 CG0
ATOM     18  G   UNL     1       7.554 -30.937  16.625  1.00  0.00     0.000 G0
ENDBRANCH  13  17
ENDBRANCH  11  13
ENDBRANCH  10  11
ENDBRANCH   1  10
TORSDOF 0
ENDMDL
MODEL 8
REMARK VINA RESULT:    -3.005      1.724      3.632
REMARK INTER + INTRA:          -3.803
REMARK INTER:                  -4.470
REMARK INTRA:                   0.667
REMARK UNBOUND:                 0.432
REMARK SMILES CC1=CCC(=C(C)C)C(=O)CC(C)=CCC1
REMARK SMILES IDX 12 1 14 2 13 3 15 4 16 5 2 6 1 7 3 8 11 10 9 11 10 12 5 13
REMARK SMILES IDX 6 14 7 15 8 16 4 17
REMARK H PARENT
REMARK Flexibility Score: 60.00
ROOT
ATOM      1  C   UNL     1       9.171 -29.519  14.868  1.00  0.00    -0.070 C 
ATOM      2  C   UNL     1      10.110 -30.009  14.029  1.00  0.00    -0.027 C 
ATOM      3  C   UNL     1       9.618 -29.041  16.227  1.00  0.00     0.039 C 
ENDROOT
BRANCH   2   4
ATOM      4  C   UNL     1       9.849 -30.620  12.670  1.00  0.00     0.032 C 
BRANCH   4   5
ATOM      5  C   UNL     1       8.933 -31.862  12.684  1.00  0.00     0.034 C 
BRANCH   5   6
ATOM      6  C   UNL     1       9.280 -32.847  13.786  1.00  0.00    -0.077 C 
ATOM      7  C   UNL     1      10.619 -33.537  13.714  1.00  0.00     0.039 C 
ATOM      8  C   UNL     1       8.439 -33.199  14.790  1.00  0.00    -0.023 CG0
ATOM      9  G   UNL     1       7.062 -32.629  15.071  1.00  0.00     0.000 G0
ENDBRANCH   5   6
ENDBRANCH   4   5
ENDBRANCH   2   4
BRANCH   1  10
ATOM     10  C   UNL     1       7.690 -29.512  14.545  1.00  0.00     0.111 C 
BRANCH  10  11
ATOM     11  C   UNL     1       6.876 -30.122  15.656  1.00  0.00     0.163 C 
ATOM     12  O   UNL     1       6.026 -29.394  16.237  1.00  0.00    -0.294 OA
BRANCH  11  13
ATOM     13  C   UNL     1       7.084 -31.523  16.127  1.00  0.00    -0.002 C 
ATOM     14  C   UNL     1       7.361 -31.787  17.439  1.00  0.00    -0.069 C 
ATOM     15  C   UNL     1       7.731 -33.173  17.916  1.00  0.00     0.039 C 
ATOM     16  C   UNL     1       7.313 -30.695  18.485  1.00  0.00     0.039 C 
BRANCH  13  17
ATOM     17  C   UNL     1       7.068 -32.619  15.074  1.00  0.00     0.066 CG0
ATOM     18  G   UNL     1       8.447 -33.193  14.817  1.00  0.00     0.000 G0
ENDBRANCH  13  17
ENDBRANCH  11  13
ENDBRANCH  10  11
ENDBRANCH   1  10
TORSDOF 0
ENDMDL
MODEL 9
REMARK VINA RESULT:    -2.938      1.710      3.786
REMARK INTER + INTRA:          -3.709
REMARK INTER:                  -5.133
REMARK INTRA:                   1.424
REMARK UNBOUND:                 0.432
REMARK SMILES CC1=CCC(=C(C)C)C(=O)CC(C)=CCC1
REMARK SMILES IDX 12 1 14 2 13 3 15 4 16 5 2 6 1 7 3 8 11 10 9 11 10 12 5 13
REMARK SMILES IDX 6 14 7 15 8 16 4 17
REMARK H PARENT
REMARK Flexibility Score: 60.00
ROOT
ATOM      1  C   UNL     1       6.891 -32.983  16.167  1.00  0.00    -0.070 C 
ATOM      2  C   UNL     1       6.034 -31.975  16.444  1.00  0.00    -0.027 C 
ATOM      3  C   UNL     1       6.409 -34.397  16.376  1.00  0.00     0.039 C 
ENDROOT
BRANCH   2   4
ATOM      4  C   UNL     1       6.359 -30.499  16.391  1.00  0.00     0.032 C 
BRANCH   4   5
ATOM      5  C   UNL     1       6.927 -29.914  17.701  1.00  0.00     0.034 C 
BRANCH   5   6
ATOM      6  C   UNL     1       8.373 -29.469  17.578  1.00  0.00    -0.077 C 
ATOM      7  C   UNL     1       9.129 -29.180  18.851  1.00  0.00     0.039 C 
ATOM      8  C   UNL     1       9.008 -29.248  16.400  1.00  0.00    -0.023 CG0
ATOM      9  G   UNL     1       8.458 -29.485  15.007  1.00  0.00     0.000 G0
ENDBRANCH   5   6
ENDBRANCH   4   5
ENDBRANCH   2   4
BRANCH   1  10
ATOM     10  C   UNL     1       8.329 -32.759  15.746  1.00  0.00     0.111 C 
BRANCH  10  11
ATOM     11  C   UNL     1       8.417 -32.007  14.444  1.00  0.00     0.163 C 
ATOM     12  O   UNL     1       7.918 -32.541  13.416  1.00  0.00    -0.294 OA
BRANCH  11  13
ATOM     13  C   UNL     1       9.120 -30.696  14.321  1.00  0.00    -0.002 C 
ATOM     14  C   UNL     1      10.335 -30.609  13.701  1.00  0.00    -0.069 C 
ATOM     15  C   UNL     1      11.143 -29.331  13.698  1.00  0.00     0.039 C 
ATOM     16  C   UNL     1      10.935 -31.798  12.983  1.00  0.00     0.039 C 
BRANCH  13  17
ATOM     17  C   UNL     1       8.474 -29.495  14.993  1.00  0.00     0.066 CG0
ATOM     18  G   UNL     1       9.016 -29.255  16.388  1.00  0.00     0.000 G0
ENDBRANCH  13  17
ENDBRANCH  11  13
ENDBRANCH  10  11
ENDBRANCH   1  10
TORSDOF 0
ENDMDL
