MODEL 1
REMARK VINA RESULT:    -3.920      0.000      0.000
REMARK INTER + INTRA:         -16.034
REMARK INTER:                 -10.221
REMARK INTRA:                  -5.813
REMARK UNBOUND:                -5.813
REMARK SMILES CCCCCCCCCCCCCCCCCCCCCCCCCCCCCO
REMARK SMILES IDX 16 1 15 2 14 3 13 4 12 5 11 6 10 7 9 8 8 9 7 10 6 11 5 12
REMARK SMILES IDX 4 13 3 14 2 15 1 16 17 17 18 18 19 19 20 20 21 21 22 22
REMARK SMILES IDX 23 23 24 24 25 25 26 26 27 27 28 28 29 29 30 30
REMARK H PARENT 30 31
REMARK Flexibility Score: inf
ROOT
ATOM      1  C   UNL     1     180.554 177.539 183.723  1.00  0.00     0.000 C 
ENDROOT
BRANCH   1   2
ATOM      2  C   UNL     1     180.881 178.255 185.041  1.00  0.00     0.000 C 
BRANCH   2   3
ATOM      3  C   UNL     1     179.973 179.470 185.310  1.00  0.00     0.000 C 
BRANCH   3   4
ATOM      4  C   UNL     1     179.001 179.831 184.170  1.00  0.00     0.000 C 
BRANCH   4   5
ATOM      5  C   UNL     1     179.488 181.014 183.317  1.00  0.00     0.000 C 
BRANCH   5   6
ATOM      6  C   UNL     1     179.712 180.635 181.842  1.00  0.00     0.000 C 
BRANCH   6   7
ATOM      7  C   UNL     1     181.076 181.046 181.259  1.00  0.00     0.000 C 
BRANCH   7   8
ATOM      8  C   UNL     1     180.963 182.120 180.168  1.00  0.00    -0.000 C 
BRANCH   8   9
ATOM      9  C   UNL     1     182.325 182.782 179.907  1.00  0.00    -0.000 C 
BRANCH   9  10
ATOM     10  C   UNL     1     183.021 183.255 181.196  1.00  0.00    -0.000 C 
BRANCH  10  11
ATOM     11  C   UNL     1     182.594 184.649 181.693  1.00  0.00    -0.000 C 
BRANCH  11  12
ATOM     12  C   UNL     1     182.265 184.729 183.196  1.00  0.00    -0.000 C 
BRANCH  12  13
ATOM     13  C   UNL     1     180.815 184.318 183.536  1.00  0.00    -0.000 C 
BRANCH  13  14
ATOM     14  C   UNL     1     179.830 184.664 182.406  1.00  0.00    -0.000 C 
BRANCH  14  15
ATOM     15  C   UNL     1     178.386 184.254 182.735  1.00  0.00    -0.003 C 
ATOM     16  C   UNL     1     178.013 184.517 184.194  1.00  0.00     0.004 C 
ENDBRANCH  14  15
ENDBRANCH  13  14
ENDBRANCH  12  13
ENDBRANCH  11  12
ENDBRANCH  10  11
ENDBRANCH   9  10
ENDBRANCH   8   9
ENDBRANCH   7   8
ENDBRANCH   6   7
ENDBRANCH   5   6
ENDBRANCH   4   5
ENDBRANCH   3   4
ENDBRANCH   2   3
ENDBRANCH   1   2
BRANCH   1  17
ATOM     17  C   UNL     1     181.457 176.312 183.523  1.00  0.00     0.000 C 
BRANCH  17  18
ATOM     18  C   UNL     1     181.906 176.129 182.060  1.00  0.00     0.000 C 
BRANCH  18  19
ATOM     19  C   UNL     1     182.003 177.428 181.239  1.00  0.00     0.000 C 
BRANCH  19  20
ATOM     20  C   UNL     1     183.453 177.882 181.002  1.00  0.00     0.000 C 
BRANCH  20  21
ATOM     21  C   UNL     1     183.880 179.017 181.947  1.00  0.00     0.000 C 
BRANCH  21  22
ATOM     22  C   UNL     1     184.432 178.503 183.287  1.00  0.00     0.000 C 
BRANCH  22  23
ATOM     23  C   UNL     1     184.159 179.509 184.412  1.00  0.00     0.000 C 
BRANCH  23  24
ATOM     24  C   UNL     1     183.467 180.767 183.871  1.00  0.00     0.000 C 
BRANCH  24  25
ATOM     25  C   UNL     1     182.799 181.606 184.974  1.00  0.00     0.000 C 
BRANCH  25  26
ATOM     26  C   UNL     1     183.804 182.302 185.916  1.00  0.00     0.000 C 
BRANCH  26  27
ATOM     27  C   UNL     1     183.404 182.165 187.396  1.00  0.00     0.002 C 
BRANCH  27  28
ATOM     28  C   UNL     1     182.532 180.926 187.662  1.00  0.00     0.028 C 
BRANCH  28  29
ATOM     29  C   UNL     1     183.035 180.063 188.824  1.00  0.00     0.156 C 
BRANCH  29  30
ATOM     30  O   UNL     1     184.158 180.657 189.417  1.00  0.00    -0.396 OA
ATOM     31  H   UNL     1     184.409 181.417 188.830  1.00  0.00     0.210 HD
ENDBRANCH  29  30
ENDBRANCH  28  29
ENDBRANCH  27  28
ENDBRANCH  26  27
ENDBRANCH  25  26
ENDBRANCH  24  25
ENDBRANCH  23  24
ENDBRANCH  22  23
ENDBRANCH  21  22
ENDBRANCH  20  21
ENDBRANCH  19  20
ENDBRANCH  18  19
ENDBRANCH  17  18
ENDBRANCH   1  17
TORSDOF 28
ENDMDL
MODEL 2
REMARK VINA RESULT:    -3.884      1.867      5.880
REMARK INTER + INTRA:         -15.942
REMARK INTER:                 -10.635
REMARK INTRA:                  -5.307
REMARK UNBOUND:                -5.813
REMARK SMILES CCCCCCCCCCCCCCCCCCCCCCCCCCCCCO
REMARK SMILES IDX 16 1 15 2 14 3 13 4 12 5 11 6 10 7 9 8 8 9 7 10 6 11 5 12
REMARK SMILES IDX 4 13 3 14 2 15 1 16 17 17 18 18 19 19 20 20 21 21 22 22
REMARK SMILES IDX 23 23 24 24 25 25 26 26 27 27 28 28 29 29 30 30
REMARK H PARENT 30 31
REMARK Flexibility Score: inf
ROOT
ATOM      1  C   UNL     1     184.004 175.832 181.619  1.00  0.00     0.000 C 
ENDROOT
BRANCH   1   2
ATOM      2  C   UNL     1     184.669 177.019 182.332  1.00  0.00     0.000 C 
BRANCH   2   3
ATOM      3  C   UNL     1     184.580 178.331 181.529  1.00  0.00     0.000 C 
BRANCH   3   4
ATOM      4  C   UNL     1     184.035 179.544 182.307  1.00  0.00     0.000 C 
BRANCH   4   5
ATOM      5  C   UNL     1     183.984 179.310 183.826  1.00  0.00     0.000 C 
BRANCH   5   6
ATOM      6  C   UNL     1     184.019 180.619 184.634  1.00  0.00     0.000 C 
BRANCH   6   7
ATOM      7  C   UNL     1     182.953 181.659 184.245  1.00  0.00     0.000 C 
BRANCH   7   8
ATOM      8  C   UNL     1     182.289 182.321 185.461  1.00  0.00    -0.000 C 
BRANCH   8   9
ATOM      9  C   UNL     1     181.290 181.366 186.129  1.00  0.00    -0.000 C 
BRANCH   9  10
ATOM     10  C   UNL     1     181.578 181.141 187.625  1.00  0.00    -0.000 C 
BRANCH  10  11
ATOM     11  C   UNL     1     182.465 179.922 187.941  1.00  0.00    -0.000 C 
BRANCH  11  12
ATOM     12  C   UNL     1     183.650 180.208 188.883  1.00  0.00    -0.000 C 
BRANCH  12  13
ATOM     13  C   UNL     1     185.030 179.934 188.245  1.00  0.00    -0.000 C 
BRANCH  13  14
ATOM     14  C   UNL     1     185.786 181.231 187.910  1.00  0.00    -0.000 C 
BRANCH  14  15
ATOM     15  C   UNL     1     185.095 182.481 188.475  1.00  0.00    -0.003 C 
ATOM     16  C   UNL     1     185.003 183.618 187.457  1.00  0.00     0.004 C 
ENDBRANCH  14  15
ENDBRANCH  13  14
ENDBRANCH  12  13
ENDBRANCH  11  12
ENDBRANCH  10  11
ENDBRANCH   9  10
ENDBRANCH   8   9
ENDBRANCH   7   8
ENDBRANCH   6   7
ENDBRANCH   5   6
ENDBRANCH   4   5
ENDBRANCH   3   4
ENDBRANCH   2   3
ENDBRANCH   1   2
BRANCH   1  17
ATOM     17  C   UNL     1     182.473 175.942 181.677  1.00  0.00     0.000 C 
BRANCH  17  18
ATOM     18  C   UNL     1     181.886 175.458 183.018  1.00  0.00     0.000 C 
BRANCH  18  19
ATOM     19  C   UNL     1     181.256 176.560 183.890  1.00  0.00     0.000 C 
BRANCH  19  20
ATOM     20  C   UNL     1     180.864 177.811 183.085  1.00  0.00     0.000 C 
BRANCH  20  21
ATOM     21  C   UNL     1     180.080 178.833 183.925  1.00  0.00     0.000 C 
BRANCH  21  22
ATOM     22  C   UNL     1     179.704 180.094 183.131  1.00  0.00     0.000 C 
BRANCH  22  23
ATOM     23  C   UNL     1     180.441 180.134 181.787  1.00  0.00     0.000 C 
BRANCH  23  24
ATOM     24  C   UNL     1     180.097 181.410 181.006  1.00  0.00     0.000 C 
BRANCH  24  25
ATOM     25  C   UNL     1     181.167 182.505 181.147  1.00  0.00     0.000 C 
BRANCH  25  26
ATOM     26  C   UNL     1     180.585 183.903 181.447  1.00  0.00     0.000 C 
BRANCH  26  27
ATOM     27  C   UNL     1     179.283 183.829 182.263  1.00  0.00     0.002 C 
BRANCH  27  28
ATOM     28  C   UNL     1     179.466 184.294 183.717  1.00  0.00     0.028 C 
BRANCH  28  29
ATOM     29  C   UNL     1     178.221 184.087 184.587  1.00  0.00     0.156 C 
BRANCH  29  30
ATOM     30  O   UNL     1     178.531 183.281 185.691  1.00  0.00    -0.396 OA
ATOM     31  H   UNL     1     179.503 183.089 185.627  1.00  0.00     0.210 HD
ENDBRANCH  29  30
ENDBRANCH  28  29
ENDBRANCH  27  28
ENDBRANCH  26  27
ENDBRANCH  25  26
ENDBRANCH  24  25
ENDBRANCH  23  24
ENDBRANCH  22  23
ENDBRANCH  21  22
ENDBRANCH  20  21
ENDBRANCH  19  20
ENDBRANCH  18  19
ENDBRANCH  17  18
ENDBRANCH   1  17
TORSDOF 28
ENDMDL
MODEL 3
REMARK VINA RESULT:    -3.846      3.243      6.733
REMARK INTER + INTRA:         -15.842
REMARK INTER:                 -10.878
REMARK INTRA:                  -4.963
REMARK UNBOUND:                -5.813
REMARK SMILES CCCCCCCCCCCCCCCCCCCCCCCCCCCCCO
REMARK SMILES IDX 16 1 15 2 14 3 13 4 12 5 11 6 10 7 9 8 8 9 7 10 6 11 5 12
REMARK SMILES IDX 4 13 3 14 2 15 1 16 17 17 18 18 19 19 20 20 21 21 22 22
REMARK SMILES IDX 23 23 24 24 25 25 26 26 27 27 28 28 29 29 30 30
REMARK H PARENT 30 31
REMARK Flexibility Score: inf
ROOT
ATOM      1  C   UNL     1     181.161 182.047 180.372  1.00  0.00     0.000 C 
ENDROOT
BRANCH   1   2
ATOM      2  C   UNL     1     181.880 183.026 181.310  1.00  0.00     0.000 C 
BRANCH   2   3
ATOM      3  C   UNL     1     183.084 182.394 182.035  1.00  0.00     0.000 C 
BRANCH   3   4
ATOM      4  C   UNL     1     183.503 183.088 183.345  1.00  0.00     0.000 C 
BRANCH   4   5
ATOM      5  C   UNL     1     183.828 182.095 184.473  1.00  0.00     0.000 C 
BRANCH   5   6
ATOM      6  C   UNL     1     184.019 180.655 183.965  1.00  0.00     0.000 C 
BRANCH   6   7
ATOM      7  C   UNL     1     183.795 179.553 185.016  1.00  0.00     0.000 C 
BRANCH   7   8
ATOM      8  C   UNL     1     183.480 180.110 186.412  1.00  0.00    -0.000 C 
BRANCH   8   9
ATOM      9  C   UNL     1     182.014 179.850 186.788  1.00  0.00    -0.000 C 
BRANCH   9  10
ATOM     10  C   UNL     1     181.204 181.144 186.987  1.00  0.00    -0.000 C 
BRANCH  10  11
ATOM     11  C   UNL     1     179.937 181.259 186.118  1.00  0.00    -0.000 C 
BRANCH  11  12
ATOM     12  C   UNL     1     180.182 181.732 184.673  1.00  0.00    -0.000 C 
BRANCH  12  13
ATOM     13  C   UNL     1     179.977 183.250 184.473  1.00  0.00    -0.000 C 
BRANCH  13  14
ATOM     14  C   UNL     1     178.628 183.735 185.030  1.00  0.00    -0.000 C 
BRANCH  14  15
ATOM     15  C   UNL     1     177.772 184.445 183.969  1.00  0.00    -0.003 C 
ATOM     16  C   UNL     1     178.035 183.930 182.554  1.00  0.00     0.004 C 
ENDBRANCH  14  15
ENDBRANCH  13  14
ENDBRANCH  12  13
ENDBRANCH  11  12
ENDBRANCH  10  11
ENDBRANCH   9  10
ENDBRANCH   8   9
ENDBRANCH   7   8
ENDBRANCH   6   7
ENDBRANCH   5   6
ENDBRANCH   4   5
ENDBRANCH   3   4
ENDBRANCH   2   3
ENDBRANCH   1   2
BRANCH   1  17
ATOM     17  C   UNL     1     180.153 181.182 181.145  1.00  0.00     0.000 C 
BRANCH  17  18
ATOM     18  C   UNL     1     180.503 179.682 181.118  1.00  0.00     0.000 C 
BRANCH  18  19
ATOM     19  C   UNL     1     181.247 179.162 182.362  1.00  0.00     0.000 C 
BRANCH  19  20
ATOM     20  C   UNL     1     180.301 178.578 183.425  1.00  0.00     0.000 C 
BRANCH  20  21
ATOM     21  C   UNL     1     180.926 177.400 184.190  1.00  0.00     0.000 C 
BRANCH  21  22
ATOM     22  C   UNL     1     182.035 176.693 183.394  1.00  0.00     0.000 C 
BRANCH  22  23
ATOM     23  C   UNL     1     181.643 175.243 183.081  1.00  0.00     0.000 C 
BRANCH  23  24
ATOM     24  C   UNL     1     181.559 175.011 181.566  1.00  0.00     0.000 C 
BRANCH  24  25
ATOM     25  C   UNL     1     182.318 176.073 180.753  1.00  0.00     0.000 C 
BRANCH  25  26
ATOM     26  C   UNL     1     181.585 176.509 179.467  1.00  0.00     0.000 C 
BRANCH  26  27
ATOM     27  C   UNL     1     181.707 175.463 178.345  1.00  0.00     0.002 C 
BRANCH  27  28
ATOM     28  C   UNL     1     180.360 175.158 177.669  1.00  0.00     0.028 C 
BRANCH  28  29
ATOM     29  C   UNL     1     180.163 175.892 176.338  1.00  0.00     0.156 C 
BRANCH  29  30
ATOM     30  O   UNL     1     179.228 176.925 176.489  1.00  0.00    -0.396 OA
ATOM     31  H   UNL     1     178.397 176.611 176.045  1.00  0.00     0.210 HD
ENDBRANCH  29  30
ENDBRANCH  28  29
ENDBRANCH  27  28
ENDBRANCH  26  27
ENDBRANCH  25  26
ENDBRANCH  24  25
ENDBRANCH  23  24
ENDBRANCH  22  23
ENDBRANCH  21  22
ENDBRANCH  20  21
ENDBRANCH  19  20
ENDBRANCH  18  19
ENDBRANCH  17  18
ENDBRANCH   1  17
TORSDOF 28
ENDMDL
MODEL 4
REMARK VINA RESULT:    -3.810      2.502      4.988
REMARK INTER + INTRA:         -15.747
REMARK INTER:                 -10.530
REMARK INTRA:                  -5.218
REMARK UNBOUND:                -5.813
REMARK SMILES CCCCCCCCCCCCCCCCCCCCCCCCCCCCCO
REMARK SMILES IDX 16 1 15 2 14 3 13 4 12 5 11 6 10 7 9 8 8 9 7 10 6 11 5 12
REMARK SMILES IDX 4 13 3 14 2 15 1 16 17 17 18 18 19 19 20 20 21 21 22 22
REMARK SMILES IDX 23 23 24 24 25 25 26 26 27 27 28 28 29 29 30 30
REMARK H PARENT 30 31
REMARK Flexibility Score: inf
ROOT
ATOM      1  C   UNL     1     181.209 179.968 185.800  1.00  0.00     0.000 C 
ENDROOT
BRANCH   1   2
ATOM      2  C   UNL     1     179.937 179.245 185.337  1.00  0.00     0.000 C 
BRANCH   2   3
ATOM      3  C   UNL     1     180.105 178.535 183.980  1.00  0.00     0.000 C 
BRANCH   3   4
ATOM      4  C   UNL     1     180.881 177.205 184.024  1.00  0.00     0.000 C 
BRANCH   4   5
ATOM      5  C   UNL     1     181.787 176.996 182.800  1.00  0.00     0.000 C 
BRANCH   5   6
ATOM      6  C   UNL     1     181.927 178.264 181.938  1.00  0.00     0.000 C 
BRANCH   6   7
ATOM      7  C   UNL     1     183.101 179.186 182.313  1.00  0.00     0.000 C 
BRANCH   7   8
ATOM      8  C   UNL     1     182.733 180.676 182.264  1.00  0.00    -0.000 C 
BRANCH   8   9
ATOM      9  C   UNL     1     182.749 181.198 180.820  1.00  0.00    -0.000 C 
BRANCH   9  10
ATOM     10  C   UNL     1     181.420 181.853 180.402  1.00  0.00    -0.000 C 
BRANCH  10  11
ATOM     11  C   UNL     1     180.206 181.475 181.270  1.00  0.00    -0.000 C 
BRANCH  11  12
ATOM     12  C   UNL     1     179.601 182.637 182.081  1.00  0.00    -0.000 C 
BRANCH  12  13
ATOM     13  C   UNL     1     178.872 182.184 183.365  1.00  0.00    -0.000 C 
BRANCH  13  14
ATOM     14  C   UNL     1     179.012 183.205 184.507  1.00  0.00    -0.000 C 
BRANCH  14  15
ATOM     15  C   UNL     1     178.629 184.629 184.077  1.00  0.00    -0.003 C 
ATOM     16  C   UNL     1     177.135 184.780 183.788  1.00  0.00     0.004 C 
ENDBRANCH  14  15
ENDBRANCH  13  14
ENDBRANCH  12  13
ENDBRANCH  11  12
ENDBRANCH  10  11
ENDBRANCH   9  10
ENDBRANCH   8   9
ENDBRANCH   7   8
ENDBRANCH   6   7
ENDBRANCH   5   6
ENDBRANCH   4   5
ENDBRANCH   3   4
ENDBRANCH   2   3
ENDBRANCH   1   2
BRANCH   1  17
ATOM     17  C   UNL     1     180.892 180.991 186.902  1.00  0.00     0.000 C 
BRANCH  17  18
ATOM     18  C   UNL     1     182.002 181.091 187.966  1.00  0.00     0.000 C 
BRANCH  18  19
ATOM     19  C   UNL     1     183.006 179.924 187.975  1.00  0.00     0.000 C 
BRANCH  19  20
ATOM     20  C   UNL     1     184.449 180.372 187.686  1.00  0.00     0.000 C 
BRANCH  20  21
ATOM     21  C   UNL     1     184.601 181.022 186.301  1.00  0.00     0.000 C 
BRANCH  21  22
ATOM     22  C   UNL     1     185.234 182.421 186.365  1.00  0.00     0.000 C 
BRANCH  22  23
ATOM     23  C   UNL     1     184.641 183.339 185.289  1.00  0.00     0.000 C 
BRANCH  23  24
ATOM     24  C   UNL     1     183.126 183.128 185.158  1.00  0.00     0.000 C 
BRANCH  24  25
ATOM     25  C   UNL     1     182.529 183.817 183.919  1.00  0.00     0.000 C 
BRANCH  25  26
ATOM     26  C   UNL     1     183.582 184.210 182.862  1.00  0.00     0.000 C 
BRANCH  26  27
ATOM     27  C   UNL     1     183.303 185.594 182.249  1.00  0.00     0.002 C 
BRANCH  27  28
ATOM     28  C   UNL     1     181.804 185.940 182.226  1.00  0.00     0.028 C 
BRANCH  28  29
ATOM     29  C   UNL     1     181.179 185.856 180.829  1.00  0.00     0.156 C 
BRANCH  29  30
ATOM     30  O   UNL     1     180.279 186.914 180.638  1.00  0.00    -0.396 OA
ATOM     31  H   UNL     1     180.825 187.691 180.349  1.00  0.00     0.210 HD
ENDBRANCH  29  30
ENDBRANCH  28  29
ENDBRANCH  27  28
ENDBRANCH  26  27
ENDBRANCH  25  26
ENDBRANCH  24  25
ENDBRANCH  23  24
ENDBRANCH  22  23
ENDBRANCH  21  22
ENDBRANCH  20  21
ENDBRANCH  19  20
ENDBRANCH  18  19
ENDBRANCH  17  18
ENDBRANCH   1  17
TORSDOF 28
ENDMDL
MODEL 5
REMARK VINA RESULT:    -3.804      2.968      5.748
REMARK INTER + INTRA:         -15.732
REMARK INTER:                 -11.337
REMARK INTRA:                  -4.395
REMARK UNBOUND:                -5.813
REMARK SMILES CCCCCCCCCCCCCCCCCCCCCCCCCCCCCO
REMARK SMILES IDX 16 1 15 2 14 3 13 4 12 5 11 6 10 7 9 8 8 9 7 10 6 11 5 12
REMARK SMILES IDX 4 13 3 14 2 15 1 16 17 17 18 18 19 19 20 20 21 21 22 22
REMARK SMILES IDX 23 23 24 24 25 25 26 26 27 27 28 28 29 29 30 30
REMARK H PARENT 30 31
REMARK Flexibility Score: inf
ROOT
ATOM      1  C   UNL     1     183.649 179.923 183.504  1.00  0.00     0.000 C 
ENDROOT
BRANCH   1   2
ATOM      2  C   UNL     1     182.840 181.228 183.460  1.00  0.00     0.000 C 
BRANCH   2   3
ATOM      3  C   UNL     1     182.424 181.633 182.034  1.00  0.00     0.000 C 
BRANCH   3   4
ATOM      4  C   UNL     1     181.556 180.605 181.283  1.00  0.00     0.000 C 
BRANCH   4   5
ATOM      5  C   UNL     1     180.133 181.112 181.000  1.00  0.00     0.000 C 
BRANCH   5   6
ATOM      6  C   UNL     1     179.229 181.081 182.244  1.00  0.00     0.000 C 
BRANCH   6   7
ATOM      7  C   UNL     1     178.568 182.423 182.608  1.00  0.00     0.000 C 
BRANCH   7   8
ATOM      8  C   UNL     1     179.174 183.071 183.861  1.00  0.00    -0.000 C 
BRANCH   8   9
ATOM      9  C   UNL     1     180.101 184.235 183.483  1.00  0.00    -0.000 C 
BRANCH   9  10
ATOM     10  C   UNL     1     179.721 184.897 182.146  1.00  0.00    -0.000 C 
BRANCH  10  11
ATOM     11  C   UNL     1     180.876 185.033 181.135  1.00  0.00    -0.000 C 
BRANCH  11  12
ATOM     12  C   UNL     1     181.236 186.480 180.751  1.00  0.00    -0.000 C 
BRANCH  12  13
ATOM     13  C   UNL     1     180.815 187.525 181.808  1.00  0.00    -0.000 C 
BRANCH  13  14
ATOM     14  C   UNL     1     181.025 188.968 181.319  1.00  0.00    -0.000 C 
BRANCH  14  15
ATOM     15  C   UNL     1     181.919 189.788 182.262  1.00  0.00    -0.003 C 
ATOM     16  C   UNL     1     183.030 188.953 182.900  1.00  0.00     0.004 C 
ENDBRANCH  14  15
ENDBRANCH  13  14
ENDBRANCH  12  13
ENDBRANCH  11  12
ENDBRANCH  10  11
ENDBRANCH   9  10
ENDBRANCH   8   9
ENDBRANCH   7   8
ENDBRANCH   6   7
ENDBRANCH   5   6
ENDBRANCH   4   5
ENDBRANCH   3   4
ENDBRANCH   2   3
ENDBRANCH   1   2
BRANCH   1  17
ATOM     17  C   UNL     1     183.886 179.470 184.952  1.00  0.00     0.000 C 
BRANCH  17  18
ATOM     18  C   UNL     1     183.513 180.548 185.988  1.00  0.00     0.000 C 
BRANCH  18  19
ATOM     19  C   UNL     1     182.499 180.102 187.058  1.00  0.00     0.000 C 
BRANCH  19  20
ATOM     20  C   UNL     1     181.239 180.983 187.095  1.00  0.00     0.000 C 
BRANCH  20  21
ATOM     21  C   UNL     1     180.244 180.640 185.974  1.00  0.00     0.000 C 
BRANCH  21  22
ATOM     22  C   UNL     1     180.042 179.126 185.798  1.00  0.00     0.000 C 
BRANCH  22  23
ATOM     23  C   UNL     1     180.268 178.710 184.339  1.00  0.00     0.000 C 
BRANCH  23  24
ATOM     24  C   UNL     1     180.952 177.339 184.257  1.00  0.00     0.000 C 
BRANCH  24  25
ATOM     25  C   UNL     1     181.324 176.940 182.819  1.00  0.00     0.000 C 
BRANCH  25  26
ATOM     26  C   UNL     1     182.780 176.448 182.670  1.00  0.00     0.000 C 
BRANCH  26  27
ATOM     27  C   UNL     1     182.854 174.982 182.210  1.00  0.00     0.002 C 
BRANCH  27  28
ATOM     28  C   UNL     1     181.468 174.325 182.098  1.00  0.00     0.028 C 
BRANCH  28  29
ATOM     29  C   UNL     1     181.421 173.164 181.098  1.00  0.00     0.156 C 
BRANCH  29  30
ATOM     30  O   UNL     1     182.508 172.302 181.306  1.00  0.00    -0.396 OA
ATOM     31  H   UNL     1     182.749 171.944 180.413  1.00  0.00     0.210 HD
ENDBRANCH  29  30
ENDBRANCH  28  29
ENDBRANCH  27  28
ENDBRANCH  26  27
ENDBRANCH  25  26
ENDBRANCH  24  25
ENDBRANCH  23  24
ENDBRANCH  22  23
ENDBRANCH  21  22
ENDBRANCH  20  21
ENDBRANCH  19  20
ENDBRANCH  18  19
ENDBRANCH  17  18
ENDBRANCH   1  17
TORSDOF 28
ENDMDL
MODEL 6
REMARK VINA RESULT:    -3.755      2.739      7.184
REMARK INTER + INTRA:         -15.603
REMARK INTER:                 -11.169
REMARK INTRA:                  -4.434
REMARK UNBOUND:                -5.813
REMARK SMILES CCCCCCCCCCCCCCCCCCCCCCCCCCCCCO
REMARK SMILES IDX 16 1 15 2 14 3 13 4 12 5 11 6 10 7 9 8 8 9 7 10 6 11 5 12
REMARK SMILES IDX 4 13 3 14 2 15 1 16 17 17 18 18 19 19 20 20 21 21 22 22
REMARK SMILES IDX 23 23 24 24 25 25 26 26 27 27 28 28 29 29 30 30
REMARK H PARENT 30 31
REMARK Flexibility Score: inf
ROOT
ATOM      1  C   UNL     1     180.115 181.218 186.261  1.00  0.00     0.000 C 
ENDROOT
BRANCH   1   2
ATOM      2  C   UNL     1     179.696 179.867 185.663  1.00  0.00     0.000 C 
BRANCH   2   3
ATOM      3  C   UNL     1     179.571 179.899 184.128  1.00  0.00     0.000 C 
BRANCH   3   4
ATOM      4  C   UNL     1     180.433 178.868 183.374  1.00  0.00     0.000 C 
BRANCH   4   5
ATOM      5  C   UNL     1     180.629 177.561 184.159  1.00  0.00     0.000 C 
BRANCH   5   6
ATOM      6  C   UNL     1     181.638 176.609 183.492  1.00  0.00     0.000 C 
BRANCH   6   7
ATOM      7  C   UNL     1     182.909 177.281 182.943  1.00  0.00     0.000 C 
BRANCH   7   8
ATOM      8  C   UNL     1     183.011 177.216 181.412  1.00  0.00    -0.000 C 
BRANCH   8   9
ATOM      9  C   UNL     1     184.297 176.499 180.978  1.00  0.00    -0.000 C 
BRANCH   9  10
ATOM     10  C   UNL     1     184.834 175.527 182.044  1.00  0.00    -0.000 C 
BRANCH  10  11
ATOM     11  C   UNL     1     184.489 174.044 181.806  1.00  0.00    -0.000 C 
BRANCH  11  12
ATOM     12  C   UNL     1     183.367 173.488 182.703  1.00  0.00    -0.000 C 
BRANCH  12  13
ATOM     13  C   UNL     1     182.014 173.327 181.975  1.00  0.00    -0.000 C 
BRANCH  13  14
ATOM     14  C   UNL     1     182.122 173.625 180.469  1.00  0.00    -0.000 C 
BRANCH  14  15
ATOM     15  C   UNL     1     181.744 172.417 179.599  1.00  0.00    -0.003 C 
ATOM     16  C   UNL     1     181.580 171.130 180.409  1.00  0.00     0.004 C 
ENDBRANCH  14  15
ENDBRANCH  13  14
ENDBRANCH  12  13
ENDBRANCH  11  12
ENDBRANCH  10  11
ENDBRANCH   9  10
ENDBRANCH   8   9
ENDBRANCH   7   8
ENDBRANCH   6   7
ENDBRANCH   5   6
ENDBRANCH   4   5
ENDBRANCH   3   4
ENDBRANCH   2   3
ENDBRANCH   1   2
BRANCH   1  17
ATOM     17  C   UNL     1     181.376 181.071 187.125  1.00  0.00     0.000 C 
BRANCH  17  18
ATOM     18  C   UNL     1     182.178 179.794 186.805  1.00  0.00     0.000 C 
BRANCH  18  19
ATOM     19  C   UNL     1     183.565 180.034 186.179  1.00  0.00     0.000 C 
BRANCH  19  20
ATOM     20  C   UNL     1     183.501 180.298 184.665  1.00  0.00     0.000 C 
BRANCH  20  21
ATOM     21  C   UNL     1     184.263 181.569 184.254  1.00  0.00     0.000 C 
BRANCH  21  22
ATOM     22  C   UNL     1     184.633 182.457 185.453  1.00  0.00     0.000 C 
BRANCH  22  23
ATOM     23  C   UNL     1     183.632 183.608 185.609  1.00  0.00     0.000 C 
BRANCH  23  24
ATOM     24  C   UNL     1     183.068 184.037 184.248  1.00  0.00     0.000 C 
BRANCH  24  25
ATOM     25  C   UNL     1     181.533 183.958 184.183  1.00  0.00     0.000 C 
BRANCH  25  26
ATOM     26  C   UNL     1     181.008 183.025 183.071  1.00  0.00     0.000 C 
BRANCH  26  27
ATOM     27  C   UNL     1     179.830 183.646 182.299  1.00  0.00     0.002 C 
BRANCH  27  28
ATOM     28  C   UNL     1     178.489 183.486 183.034  1.00  0.00     0.028 C 
BRANCH  28  29
ATOM     29  C   UNL     1     178.328 184.435 184.226  1.00  0.00     0.156 C 
BRANCH  29  30
ATOM     30  O   UNL     1     177.561 185.549 183.857  1.00  0.00    -0.396 OA
ATOM     31  H   UNL     1     177.586 186.169 184.632  1.00  0.00     0.210 HD
ENDBRANCH  29  30
ENDBRANCH  28  29
ENDBRANCH  27  28
ENDBRANCH  26  27
ENDBRANCH  25  26
ENDBRANCH  24  25
ENDBRANCH  23  24
ENDBRANCH  22  23
ENDBRANCH  21  22
ENDBRANCH  20  21
ENDBRANCH  19  20
ENDBRANCH  18  19
ENDBRANCH  17  18
ENDBRANCH   1  17
TORSDOF 28
ENDMDL
MODEL 7
REMARK VINA RESULT:    -3.745      3.285      6.963
REMARK INTER + INTRA:         -15.578
REMARK INTER:                 -10.885
REMARK INTRA:                  -4.693
REMARK UNBOUND:                -5.813
REMARK SMILES CCCCCCCCCCCCCCCCCCCCCCCCCCCCCO
REMARK SMILES IDX 16 1 15 2 14 3 13 4 12 5 11 6 10 7 9 8 8 9 7 10 6 11 5 12
REMARK SMILES IDX 4 13 3 14 2 15 1 16 17 17 18 18 19 19 20 20 21 21 22 22
REMARK SMILES IDX 23 23 24 24 25 25 26 26 27 27 28 28 29 29 30 30
REMARK H PARENT 30 31
REMARK Flexibility Score: inf
ROOT
ATOM      1  C   UNL     1     184.309 180.656 184.128  1.00  0.00     0.000 C 
ENDROOT
BRANCH   1   2
ATOM      2  C   UNL     1     184.432 181.080 185.599  1.00  0.00     0.000 C 
BRANCH   2   3
ATOM      3  C   UNL     1     184.443 179.886 186.573  1.00  0.00     0.000 C 
BRANCH   3   4
ATOM      4  C   UNL     1     183.302 179.869 187.607  1.00  0.00     0.000 C 
BRANCH   4   5
ATOM      5  C   UNL     1     182.671 181.253 187.829  1.00  0.00     0.000 C 
BRANCH   5   6
ATOM      6  C   UNL     1     181.171 181.288 187.485  1.00  0.00     0.000 C 
BRANCH   6   7
ATOM      7  C   UNL     1     180.845 181.364 185.982  1.00  0.00     0.000 C 
BRANCH   7   8
ATOM      8  C   UNL     1     179.714 180.412 185.564  1.00  0.00    -0.000 C 
BRANCH   8   9
ATOM      9  C   UNL     1     180.170 178.949 185.650  1.00  0.00    -0.000 C 
BRANCH   9  10
ATOM     10  C   UNL     1     181.344 178.627 184.707  1.00  0.00    -0.000 C 
BRANCH  10  11
ATOM     11  C   UNL     1     181.013 177.644 183.567  1.00  0.00    -0.000 C 
BRANCH  11  12
ATOM     12  C   UNL     1     181.202 178.210 182.147  1.00  0.00    -0.000 C 
BRANCH  12  13
ATOM     13  C   UNL     1     181.242 179.753 182.095  1.00  0.00    -0.000 C 
BRANCH  13  14
ATOM     14  C   UNL     1     179.869 180.362 181.761  1.00  0.00    -0.000 C 
BRANCH  14  15
ATOM     15  C   UNL     1     179.836 181.886 181.955  1.00  0.00    -0.003 C 
ATOM     16  C   UNL     1     178.546 182.371 182.618  1.00  0.00     0.004 C 
ENDBRANCH  14  15
ENDBRANCH  13  14
ENDBRANCH  12  13
ENDBRANCH  11  12
ENDBRANCH  10  11
ENDBRANCH   9  10
ENDBRANCH   8   9
ENDBRANCH   7   8
ENDBRANCH   6   7
ENDBRANCH   5   6
ENDBRANCH   4   5
ENDBRANCH   3   4
ENDBRANCH   2   3
ENDBRANCH   1   2
BRANCH   1  17
ATOM     17  C   UNL     1     185.010 179.311 183.882  1.00  0.00     0.000 C 
BRANCH  17  18
ATOM     18  C   UNL     1     184.642 178.681 182.524  1.00  0.00     0.000 C 
BRANCH  18  19
ATOM     19  C   UNL     1     185.242 177.286 182.268  1.00  0.00     0.000 C 
BRANCH  19  20
ATOM     20  C   UNL     1     184.173 176.187 182.143  1.00  0.00     0.000 C 
BRANCH  20  21
ATOM     21  C   UNL     1     184.765 174.772 182.243  1.00  0.00     0.000 C 
BRANCH  21  22
ATOM     22  C   UNL     1     183.721 173.715 182.639  1.00  0.00     0.000 C 
BRANCH  22  23
ATOM     23  C   UNL     1     182.364 174.369 182.928  1.00  0.00     0.000 C 
BRANCH  23  24
ATOM     24  C   UNL     1     181.342 174.024 181.837  1.00  0.00     0.000 C 
BRANCH  24  25
ATOM     25  C   UNL     1     181.663 172.708 181.109  1.00  0.00     0.000 C 
BRANCH  25  26
ATOM     26  C   UNL     1     181.916 172.882 179.596  1.00  0.00     0.000 C 
BRANCH  26  27
ATOM     27  C   UNL     1     182.023 174.363 179.192  1.00  0.00     0.002 C 
BRANCH  27  28
ATOM     28  C   UNL     1     180.948 174.778 178.173  1.00  0.00     0.028 C 
BRANCH  28  29
ATOM     29  C   UNL     1     180.701 176.290 178.127  1.00  0.00     0.156 C 
BRANCH  29  30
ATOM     30  O   UNL     1     179.799 176.602 177.099  1.00  0.00    -0.396 OA
ATOM     31  H   UNL     1     180.333 176.621 176.262  1.00  0.00     0.210 HD
ENDBRANCH  29  30
ENDBRANCH  28  29
ENDBRANCH  27  28
ENDBRANCH  26  27
ENDBRANCH  25  26
ENDBRANCH  24  25
ENDBRANCH  23  24
ENDBRANCH  22  23
ENDBRANCH  21  22
ENDBRANCH  20  21
ENDBRANCH  19  20
ENDBRANCH  18  19
ENDBRANCH  17  18
ENDBRANCH   1  17
TORSDOF 28
ENDMDL
MODEL 8
REMARK VINA RESULT:    -3.715      2.347      5.328
REMARK INTER + INTRA:         -15.499
REMARK INTER:                  -9.726
REMARK INTRA:                  -5.773
REMARK UNBOUND:                -5.813
REMARK SMILES CCCCCCCCCCCCCCCCCCCCCCCCCCCCCO
REMARK SMILES IDX 16 1 15 2 14 3 13 4 12 5 11 6 10 7 9 8 8 9 7 10 6 11 5 12
REMARK SMILES IDX 4 13 3 14 2 15 1 16 17 17 18 18 19 19 20 20 21 21 22 22
REMARK SMILES IDX 23 23 24 24 25 25 26 26 27 27 28 28 29 29 30 30
REMARK H PARENT 30 31
REMARK Flexibility Score: inf
ROOT
ATOM      1  C   UNL     1     180.616 181.184 186.233  1.00  0.00     0.000 C 
ENDROOT
BRANCH   1   2
ATOM      2  C   UNL     1     179.785 179.910 186.024  1.00  0.00     0.000 C 
BRANCH   2   3
ATOM      3  C   UNL     1     179.397 179.676 184.552  1.00  0.00     0.000 C 
BRANCH   3   4
ATOM      4  C   UNL     1     180.393 178.835 183.733  1.00  0.00     0.000 C 
BRANCH   4   5
ATOM      5  C   UNL     1     180.743 177.496 184.403  1.00  0.00     0.000 C 
BRANCH   5   6
ATOM      6  C   UNL     1     181.426 176.507 183.442  1.00  0.00     0.000 C 
BRANCH   6   7
ATOM      7  C   UNL     1     182.760 176.990 182.844  1.00  0.00     0.000 C 
BRANCH   7   8
ATOM      8  C   UNL     1     182.892 176.683 181.345  1.00  0.00    -0.000 C 
BRANCH   8   9
ATOM      9  C   UNL     1     181.981 177.599 180.515  1.00  0.00    -0.000 C 
BRANCH   9  10
ATOM     10  C   UNL     1     182.165 179.092 180.845  1.00  0.00    -0.000 C 
BRANCH  10  11
ATOM     11  C   UNL     1     183.490 179.708 180.357  1.00  0.00    -0.000 C 
BRANCH  11  12
ATOM     12  C   UNL     1     183.383 181.158 179.851  1.00  0.00    -0.000 C 
BRANCH  12  13
ATOM     13  C   UNL     1     184.750 181.857 179.677  1.00  0.00    -0.000 C 
BRANCH  13  14
ATOM     14  C   UNL     1     184.885 183.105 180.565  1.00  0.00    -0.000 C 
BRANCH  14  15
ATOM     15  C   UNL     1     184.766 184.413 179.769  1.00  0.00    -0.003 C 
ATOM     16  C   UNL     1     183.740 185.379 180.363  1.00  0.00     0.004 C 
ENDBRANCH  14  15
ENDBRANCH  13  14
ENDBRANCH  12  13
ENDBRANCH  11  12
ENDBRANCH  10  11
ENDBRANCH   9  10
ENDBRANCH   8   9
ENDBRANCH   7   8
ENDBRANCH   6   7
ENDBRANCH   5   6
ENDBRANCH   4   5
ENDBRANCH   3   4
ENDBRANCH   2   3
ENDBRANCH   1   2
BRANCH   1  17
ATOM     17  C   UNL     1     181.570 181.031 187.427  1.00  0.00     0.000 C 
BRANCH  17  18
ATOM     18  C   UNL     1     182.597 179.898 187.234  1.00  0.00     0.000 C 
BRANCH  18  19
ATOM     19  C   UNL     1     183.808 180.258 186.354  1.00  0.00     0.000 C 
BRANCH  19  20
ATOM     20  C   UNL     1     183.812 179.515 185.007  1.00  0.00     0.000 C 
BRANCH  20  21
ATOM     21  C   UNL     1     184.311 180.394 183.849  1.00  0.00     0.000 C 
BRANCH  21  22
ATOM     22  C   UNL     1     183.731 181.817 183.885  1.00  0.00     0.000 C 
BRANCH  22  23
ATOM     23  C   UNL     1     182.332 181.853 183.257  1.00  0.00     0.000 C 
BRANCH  23  24
ATOM     24  C   UNL     1     181.953 183.279 182.838  1.00  0.00     0.000 C 
BRANCH  24  25
ATOM     25  C   UNL     1     180.866 183.316 181.750  1.00  0.00     0.000 C 
BRANCH  25  26
ATOM     26  C   UNL     1     179.738 182.286 181.967  1.00  0.00     0.000 C 
BRANCH  26  27
ATOM     27  C   UNL     1     178.463 182.933 182.538  1.00  0.00     0.002 C 
BRANCH  27  28
ATOM     28  C   UNL     1     178.570 183.224 184.044  1.00  0.00     0.028 C 
BRANCH  28  29
ATOM     29  C   UNL     1     178.528 184.719 184.381  1.00  0.00     0.156 C 
BRANCH  29  30
ATOM     30  O   UNL     1     177.466 185.338 183.707  1.00  0.00    -0.396 OA
ATOM     31  H   UNL     1     177.148 184.681 183.034  1.00  0.00     0.210 HD
ENDBRANCH  29  30
ENDBRANCH  28  29
ENDBRANCH  27  28
ENDBRANCH  26  27
ENDBRANCH  25  26
ENDBRANCH  24  25
ENDBRANCH  23  24
ENDBRANCH  22  23
ENDBRANCH  21  22
ENDBRANCH  20  21
ENDBRANCH  19  20
ENDBRANCH  18  19
ENDBRANCH  17  18
ENDBRANCH   1  17
TORSDOF 28
ENDMDL
MODEL 9
REMARK VINA RESULT:    -3.685      2.038      5.944
REMARK INTER + INTRA:         -15.422
REMARK INTER:                  -9.784
REMARK INTRA:                  -5.639
REMARK UNBOUND:                -5.813
REMARK SMILES CCCCCCCCCCCCCCCCCCCCCCCCCCCCCO
REMARK SMILES IDX 16 1 15 2 14 3 13 4 12 5 11 6 10 7 9 8 8 9 7 10 6 11 5 12
REMARK SMILES IDX 4 13 3 14 2 15 1 16 17 17 18 18 19 19 20 20 21 21 22 22
REMARK SMILES IDX 23 23 24 24 25 25 26 26 27 27 28 28 29 29 30 30
REMARK H PARENT 30 31
REMARK Flexibility Score: inf
ROOT
ATOM      1  C   UNL     1     180.648 180.103 186.183  1.00  0.00     0.000 C 
ENDROOT
BRANCH   1   2
ATOM      2  C   UNL     1     180.861 181.384 187.002  1.00  0.00     0.000 C 
BRANCH   2   3
ATOM      3  C   UNL     1     181.723 181.160 188.259  1.00  0.00     0.000 C 
BRANCH   3   4
ATOM      4  C   UNL     1     182.740 180.007 188.164  1.00  0.00     0.000 C 
BRANCH   4   5
ATOM      5  C   UNL     1     184.008 180.254 188.999  1.00  0.00     0.000 C 
BRANCH   5   6
ATOM      6  C   UNL     1     185.276 180.378 188.136  1.00  0.00     0.000 C 
BRANCH   6   7
ATOM      7  C   UNL     1     186.161 181.599 188.442  1.00  0.00     0.000 C 
BRANCH   7   8
ATOM      8  C   UNL     1     185.390 182.927 188.396  1.00  0.00    -0.000 C 
BRANCH   8   9
ATOM      9  C   UNL     1     186.011 183.886 187.371  1.00  0.00    -0.000 C 
BRANCH   9  10
ATOM     10  C   UNL     1     185.188 183.999 186.075  1.00  0.00    -0.000 C 
BRANCH  10  11
ATOM     11  C   UNL     1     183.906 183.145 186.041  1.00  0.00    -0.000 C 
BRANCH  11  12
ATOM     12  C   UNL     1     183.176 183.125 184.686  1.00  0.00    -0.000 C 
BRANCH  12  13
ATOM     13  C   UNL     1     183.289 181.776 183.941  1.00  0.00    -0.000 C 
BRANCH  13  14
ATOM     14  C   UNL     1     183.935 180.682 184.808  1.00  0.00    -0.000 C 
BRANCH  14  15
ATOM     15  C   UNL     1     185.196 180.086 184.164  1.00  0.00    -0.003 C 
ATOM     16  C   UNL     1     186.477 180.803 184.592  1.00  0.00     0.004 C 
ENDBRANCH  14  15
ENDBRANCH  13  14
ENDBRANCH  12  13
ENDBRANCH  11  12
ENDBRANCH  10  11
ENDBRANCH   9  10
ENDBRANCH   8   9
ENDBRANCH   7   8
ENDBRANCH   6   7
ENDBRANCH   5   6
ENDBRANCH   4   5
ENDBRANCH   3   4
ENDBRANCH   2   3
ENDBRANCH   1   2
BRANCH   1  17
ATOM     17  C   UNL     1     179.880 180.400 184.886  1.00  0.00     0.000 C 
BRANCH  17  18
ATOM     18  C   UNL     1     179.582 179.133 184.061  1.00  0.00     0.000 C 
BRANCH  18  19
ATOM     19  C   UNL     1     180.662 178.038 184.132  1.00  0.00     0.000 C 
BRANCH  19  20
ATOM     20  C   UNL     1     181.837 178.291 183.172  1.00  0.00     0.000 C 
BRANCH  20  21
ATOM     21  C   UNL     1     181.379 178.493 181.718  1.00  0.00     0.000 C 
BRANCH  21  22
ATOM     22  C   UNL     1     181.785 179.862 181.149  1.00  0.00     0.000 C 
BRANCH  22  23
ATOM     23  C   UNL     1     180.599 180.834 181.165  1.00  0.00     0.000 C 
BRANCH  23  24
ATOM     24  C   UNL     1     180.857 182.034 180.244  1.00  0.00     0.000 C 
BRANCH  24  25
ATOM     25  C   UNL     1     181.494 183.226 180.977  1.00  0.00     0.000 C 
BRANCH  25  26
ATOM     26  C   UNL     1     180.466 184.242 181.518  1.00  0.00     0.000 C 
BRANCH  26  27
ATOM     27  C   UNL     1     180.177 184.035 183.016  1.00  0.00     0.002 C 
BRANCH  27  28
ATOM     28  C   UNL     1     178.714 183.647 183.289  1.00  0.00     0.028 C 
BRANCH  28  29
ATOM     29  C   UNL     1     178.107 184.364 184.499  1.00  0.00     0.156 C 
BRANCH  29  30
ATOM     30  O   UNL     1     178.630 183.835 185.688  1.00  0.00    -0.396 OA
ATOM     31  H   UNL     1     178.815 182.877 185.503  1.00  0.00     0.210 HD
ENDBRANCH  29  30
ENDBRANCH  28  29
ENDBRANCH  27  28
ENDBRANCH  26  27
ENDBRANCH  25  26
ENDBRANCH  24  25
ENDBRANCH  23  24
ENDBRANCH  22  23
ENDBRANCH  21  22
ENDBRANCH  20  21
ENDBRANCH  19  20
ENDBRANCH  18  19
ENDBRANCH  17  18
ENDBRANCH   1  17
TORSDOF 28
ENDMDL
