MODEL 1
REMARK VINA RESULT:    -2.199      0.000      0.000
REMARK INTER + INTRA:          -2.199
REMARK INTER:                  -2.199
REMARK INTRA:                   0.000
REMARK UNBOUND:                 0.000
REMARK SMILES CC(=O)[O-]
REMARK SMILES IDX 1 1 2 2 3 3 4 4
REMARK H PARENT
REMARK Flexibility Score: inf
ROOT
ATOM      1  C   UNL     1     -47.513 -22.752  46.630  1.00  0.00     0.063 C 
ATOM      2  C   UNL     1     -48.911 -22.815  46.117  1.00  0.00     0.038 C 
ATOM      3  O   UNL     1     -49.276 -23.779  45.394  1.00  0.00    -0.550 OA
ATOM      4  O   UNL     1     -49.830 -21.839  46.478  1.00  0.00    -0.550 OA
ENDROOT
TORSDOF 0
ENDMDL
MODEL 2
REMARK VINA RESULT:    -2.173      0.095      1.619
REMARK INTER + INTRA:          -2.173
REMARK INTER:                  -2.173
REMARK INTRA:                   0.000
REMARK UNBOUND:                 0.000
REMARK SMILES CC(=O)[O-]
REMARK SMILES IDX 1 1 2 2 3 3 4 4
REMARK H PARENT
REMARK Flexibility Score: inf
ROOT
ATOM      1  C   UNL     1     -47.530 -22.775  46.611  1.00  0.00     0.063 C 
ATOM      2  C   UNL     1     -48.945 -22.819  46.142  1.00  0.00     0.038 C 
ATOM      3  O   UNL     1     -49.739 -21.889  46.440  1.00  0.00    -0.550 OA
ATOM      4  O   UNL     1     -49.377 -23.860  45.330  1.00  0.00    -0.550 OA
ENDROOT
TORSDOF 0
ENDMDL
MODEL 3
REMARK VINA RESULT:    -2.126     17.355     17.947
REMARK INTER + INTRA:          -2.126
REMARK INTER:                  -2.126
REMARK INTRA:                   0.000
REMARK UNBOUND:                 0.000
REMARK SMILES CC(=O)[O-]
REMARK SMILES IDX 1 1 2 2 3 3 4 4
REMARK H PARENT
REMARK Flexibility Score: inf
ROOT
ATOM      1  C   UNL     1     -41.241 -35.790  36.063  1.00  0.00     0.063 C 
ATOM      2  C   UNL     1     -40.098 -35.326  36.900  1.00  0.00     0.038 C 
ATOM      3  O   UNL     1     -39.006 -35.951  36.882  1.00  0.00    -0.550 OA
ATOM      4  O   UNL     1     -40.217 -34.170  37.661  1.00  0.00    -0.550 OA
ENDROOT
TORSDOF 0
ENDMDL
MODEL 4
REMARK VINA RESULT:    -2.125      1.410      1.758
REMARK INTER + INTRA:          -2.125
REMARK INTER:                  -2.125
REMARK INTRA:                   0.000
REMARK UNBOUND:                 0.000
REMARK SMILES CC(=O)[O-]
REMARK SMILES IDX 1 1 2 2 3 3 4 4
REMARK H PARENT
REMARK Flexibility Score: inf
ROOT
ATOM      1  C   UNL     1     -49.450 -23.476  45.490  1.00  0.00     0.063 C 
ATOM      2  C   UNL     1     -48.574 -22.702  46.415  1.00  0.00     0.038 C 
ATOM      3  O   UNL     1     -47.378 -23.052  46.594  1.00  0.00    -0.550 OA
ATOM      4  O   UNL     1     -49.058 -21.561  47.041  1.00  0.00    -0.550 OA
ENDROOT
TORSDOF 0
ENDMDL
MODEL 5
REMARK VINA RESULT:    -2.098     16.642     17.202
REMARK INTER + INTRA:          -2.098
REMARK INTER:                  -2.098
REMARK INTRA:                   0.000
REMARK UNBOUND:                 0.000
REMARK SMILES CC(=O)[O-]
REMARK SMILES IDX 1 1 2 2 3 3 4 4
REMARK H PARENT
REMARK Flexibility Score: inf
ROOT
ATOM      1  C   UNL     1     -44.923 -37.823  36.626  1.00  0.00     0.063 C 
ATOM      2  C   UNL     1     -44.588 -36.371  36.675  1.00  0.00     0.038 C 
ATOM      3  O   UNL     1     -43.397 -35.991  36.528  1.00  0.00    -0.550 OA
ATOM      4  O   UNL     1     -45.597 -35.429  36.828  1.00  0.00    -0.550 OA
ENDROOT
TORSDOF 0
ENDMDL
MODEL 6
REMARK VINA RESULT:    -2.091     16.648     17.153
REMARK INTER + INTRA:          -2.091
REMARK INTER:                  -2.091
REMARK INTRA:                   0.000
REMARK UNBOUND:                 0.000
REMARK SMILES CC(=O)[O-]
REMARK SMILES IDX 1 1 2 2 3 3 4 4
REMARK H PARENT
REMARK Flexibility Score: inf
ROOT
ATOM      1  C   UNL     1     -44.993 -37.937  36.600  1.00  0.00     0.063 C 
ATOM      2  C   UNL     1     -45.969 -36.947  37.138  1.00  0.00     0.038 C 
ATOM      3  O   UNL     1     -45.791 -35.716  36.949  1.00  0.00    -0.550 OA
ATOM      4  O   UNL     1     -47.108 -37.384  37.803  1.00  0.00    -0.550 OA
ENDROOT
TORSDOF 0
ENDMDL
MODEL 7
REMARK VINA RESULT:    -2.083     16.644     17.236
REMARK INTER + INTRA:          -2.083
REMARK INTER:                  -2.083
REMARK INTRA:                   0.000
REMARK UNBOUND:                 0.000
REMARK SMILES CC(=O)[O-]
REMARK SMILES IDX 1 1 2 2 3 3 4 4
REMARK H PARENT
REMARK Flexibility Score: inf
ROOT
ATOM      1  C   UNL     1     -44.935 -37.840  36.608  1.00  0.00     0.063 C 
ATOM      2  C   UNL     1     -44.665 -36.375  36.676  1.00  0.00     0.038 C 
ATOM      3  O   UNL     1     -45.613 -35.565  36.848  1.00  0.00    -0.550 OA
ATOM      4  O   UNL     1     -43.361 -35.903  36.603  1.00  0.00    -0.550 OA
ENDROOT
TORSDOF 0
ENDMDL
MODEL 8
REMARK VINA RESULT:    -2.010     16.772     17.361
REMARK INTER + INTRA:          -2.010
REMARK INTER:                  -2.010
REMARK INTRA:                   0.000
REMARK UNBOUND:                 0.000
REMARK SMILES CC(=O)[O-]
REMARK SMILES IDX 1 1 2 2 3 3 4 4
REMARK H PARENT
REMARK Flexibility Score: inf
ROOT
ATOM      1  C   UNL     1     -45.027 -35.741  36.836  1.00  0.00     0.063 C 
ATOM      2  C   UNL     1     -45.535 -37.138  36.947  1.00  0.00     0.038 C 
ATOM      3  O   UNL     1     -44.853 -38.097  36.501  1.00  0.00    -0.550 OA
ATOM      4  O   UNL     1     -46.740 -37.392  37.590  1.00  0.00    -0.550 OA
ENDROOT
TORSDOF 0
ENDMDL
MODEL 9
REMARK VINA RESULT:    -1.825     15.924     16.528
REMARK INTER + INTRA:          -1.825
REMARK INTER:                  -1.825
REMARK INTRA:                   0.000
REMARK UNBOUND:                 0.000
REMARK SMILES CC(=O)[O-]
REMARK SMILES IDX 1 1 2 2 3 3 4 4
REMARK H PARENT
REMARK Flexibility Score: inf
ROOT
ATOM      1  C   UNL     1     -45.250 -34.430  36.825  1.00  0.00     0.063 C 
ATOM      2  C   UNL     1     -44.206 -35.492  36.878  1.00  0.00     0.038 C 
ATOM      3  O   UNL     1     -43.081 -35.249  37.388  1.00  0.00    -0.550 OA
ATOM      4  O   UNL     1     -44.489 -36.770  36.412  1.00  0.00    -0.550 OA
ENDROOT
TORSDOF 0
ENDMDL
