MODEL 1
REMARK VINA RESULT:    -3.157      0.000      0.000
REMARK INTER + INTRA:          -6.029
REMARK INTER:                  -5.003
REMARK INTRA:                  -1.027
REMARK UNBOUND:                -1.027
REMARK SMILES CCCCCCCCCCCC(=O)[O-]
REMARK SMILES IDX 7 1 8 2 9 3 10 4 11 5 12 6 13 7 14 8 6 9 5 10 4 11 3 12 2 13
REMARK SMILES IDX 1 14
REMARK H PARENT
REMARK Flexibility Score: inf
ROOT
ATOM      1  C   UNL     1      48.079  32.169  87.011  1.00  0.00     0.000 C 
ENDROOT
BRANCH   1   2
ATOM      2  C   UNL     1      48.367  33.584  87.552  1.00  0.00     0.000 C 
BRANCH   2   3
ATOM      3  C   UNL     1      48.977  34.562  86.532  1.00  0.00     0.000 C 
BRANCH   3   4
ATOM      4  C   UNL     1      50.102  35.421  87.129  1.00  0.00     0.006 C 
BRANCH   4   5
ATOM      5  C   UNL     1      51.244  34.542  87.647  1.00  0.00     0.053 C 
BRANCH   5   6
ATOM      6  C   UNL     1      52.566  35.091  87.210  1.00  0.00     0.041 C 
ATOM      7  O   UNL     1      53.385  35.525  88.062  1.00  0.00    -0.550 OA
ATOM      8  O   UNL     1      52.874  35.168  85.858  1.00  0.00    -0.550 OA
ENDBRANCH   5   6
ENDBRANCH   4   5
ENDBRANCH   3   4
ENDBRANCH   2   3
ENDBRANCH   1   2
BRANCH   1   9
ATOM      9  C   UNL     1      47.334  31.237  87.983  1.00  0.00     0.000 C 
BRANCH   9  10
ATOM     10  C   UNL     1      46.920  31.940  89.284  1.00  0.00    -0.000 C 
BRANCH  10  11
ATOM     11  C   UNL     1      47.142  31.028  90.497  1.00  0.00    -0.000 C 
BRANCH  11  12
ATOM     12  C   UNL     1      48.479  30.281  90.386  1.00  0.00    -0.000 C 
BRANCH  12  13
ATOM     13  C   UNL     1      49.656  31.089  90.953  1.00  0.00    -0.003 C 
ATOM     14  C   UNL     1      50.654  31.515  89.877  1.00  0.00     0.004 C 
ENDBRANCH  12  13
ENDBRANCH  11  12
ENDBRANCH  10  11
ENDBRANCH   9  10
ENDBRANCH   1   9
TORSDOF 10
ENDMDL
MODEL 2
REMARK VINA RESULT:    -3.156     17.261     18.621
REMARK INTER + INTRA:          -6.028
REMARK INTER:                  -5.633
REMARK INTRA:                  -0.395
REMARK UNBOUND:                -1.027
REMARK SMILES CCCCCCCCCCCC(=O)[O-]
REMARK SMILES IDX 7 1 8 2 9 3 10 4 11 5 12 6 13 7 14 8 6 9 5 10 4 11 3 12 2 13
REMARK SMILES IDX 1 14
REMARK H PARENT
REMARK Flexibility Score: inf
ROOT
ATOM      1  C   UNL     1      41.531  20.893  78.119  1.00  0.00     0.000 C 
ENDROOT
BRANCH   1   2
ATOM      2  C   UNL     1      42.626  20.219  78.971  1.00  0.00     0.000 C 
BRANCH   2   3
ATOM      3  C   UNL     1      44.049  20.765  78.757  1.00  0.00     0.000 C 
BRANCH   3   4
ATOM      4  C   UNL     1      44.747  20.149  77.536  1.00  0.00     0.006 C 
BRANCH   4   5
ATOM      5  C   UNL     1      45.430  18.829  77.905  1.00  0.00     0.053 C 
BRANCH   5   6
ATOM      6  C   UNL     1      45.803  18.069  76.671  1.00  0.00     0.041 C 
ATOM      7  O   UNL     1      45.841  16.810  76.689  1.00  0.00    -0.550 OA
ATOM      8  O   UNL     1      46.157  18.752  75.515  1.00  0.00    -0.550 OA
ENDBRANCH   5   6
ENDBRANCH   4   5
ENDBRANCH   3   4
ENDBRANCH   2   3
ENDBRANCH   1   2
BRANCH   1   9
ATOM      9  C   UNL     1      40.147  20.983  78.788  1.00  0.00     0.000 C 
BRANCH   9  10
ATOM     10  C   UNL     1      40.009  20.053  80.001  1.00  0.00    -0.000 C 
BRANCH  10  11
ATOM     11  C   UNL     1      39.056  18.891  79.698  1.00  0.00    -0.000 C 
BRANCH  11  12
ATOM     12  C   UNL     1      37.663  19.152  80.291  1.00  0.00    -0.000 C 
BRANCH  12  13
ATOM     13  C   UNL     1      37.588  20.481  81.058  1.00  0.00    -0.003 C 
ATOM     14  C   UNL     1      37.023  20.319  82.469  1.00  0.00     0.004 C 
ENDBRANCH  12  13
ENDBRANCH  11  12
ENDBRANCH  10  11
ENDBRANCH   9  10
ENDBRANCH   1   9
TORSDOF 10
ENDMDL
MODEL 3
REMARK VINA RESULT:    -3.151      4.616      6.998
REMARK INTER + INTRA:          -6.020
REMARK INTER:                  -5.412
REMARK INTRA:                  -0.608
REMARK UNBOUND:                -1.027
REMARK SMILES CCCCCCCCCCCC(=O)[O-]
REMARK SMILES IDX 7 1 8 2 9 3 10 4 11 5 12 6 13 7 14 8 6 9 5 10 4 11 3 12 2 13
REMARK SMILES IDX 1 14
REMARK H PARENT
REMARK Flexibility Score: inf
ROOT
ATOM      1  C   UNL     1      47.960  31.956  87.253  1.00  0.00     0.000 C 
ENDROOT
BRANCH   1   2
ATOM      2  C   UNL     1      47.590  32.209  88.729  1.00  0.00     0.000 C 
BRANCH   2   3
ATOM      3  C   UNL     1      46.283  31.546  89.199  1.00  0.00     0.000 C 
BRANCH   3   4
ATOM      4  C   UNL     1      46.102  31.601  90.723  1.00  0.00     0.006 C 
BRANCH   4   5
ATOM      5  C   UNL     1      45.284  30.404  91.219  1.00  0.00     0.053 C 
BRANCH   5   6
ATOM      6  C   UNL     1      44.147  30.866  92.075  1.00  0.00     0.041 C 
ATOM      7  O   UNL     1      44.298  31.840  92.859  1.00  0.00    -0.550 OA
ATOM      8  O   UNL     1      42.935  30.188  92.045  1.00  0.00    -0.550 OA
ENDBRANCH   5   6
ENDBRANCH   4   5
ENDBRANCH   3   4
ENDBRANCH   2   3
ENDBRANCH   1   2
BRANCH   1   9
ATOM      9  C   UNL     1      48.750  33.089  86.574  1.00  0.00     0.000 C 
BRANCH   9  10
ATOM     10  C   UNL     1      48.516  34.456  87.232  1.00  0.00    -0.000 C 
BRANCH  10  11
ATOM     11  C   UNL     1      49.806  35.287  87.248  1.00  0.00    -0.000 C 
BRANCH  11  12
ATOM     12  C   UNL     1      51.007  34.430  87.676  1.00  0.00    -0.000 C 
BRANCH  12  13
ATOM     13  C   UNL     1      52.258  34.699  86.825  1.00  0.00    -0.003 C 
ATOM     14  C   UNL     1      51.998  34.548  85.327  1.00  0.00     0.004 C 
ENDBRANCH  12  13
ENDBRANCH  11  12
ENDBRANCH  10  11
ENDBRANCH   9  10
ENDBRANCH   1   9
TORSDOF 10
ENDMDL
MODEL 4
REMARK VINA RESULT:    -3.140     17.232     18.993
REMARK INTER + INTRA:          -6.003
REMARK INTER:                  -5.365
REMARK INTRA:                  -0.638
REMARK UNBOUND:                -1.027
REMARK SMILES CCCCCCCCCCCC(=O)[O-]
REMARK SMILES IDX 7 1 8 2 9 3 10 4 11 5 12 6 13 7 14 8 6 9 5 10 4 11 3 12 2 13
REMARK SMILES IDX 1 14
REMARK H PARENT
REMARK Flexibility Score: inf
ROOT
ATOM      1  C   UNL     1      43.055  21.582  78.996  1.00  0.00     0.000 C 
ENDROOT
BRANCH   1   2
ATOM      2  C   UNL     1      42.158  21.284  77.778  1.00  0.00     0.000 C 
BRANCH   2   3
ATOM      3  C   UNL     1      40.693  20.947  78.112  1.00  0.00     0.000 C 
BRANCH   3   4
ATOM      4  C   UNL     1      40.556  20.049  79.350  1.00  0.00     0.006 C 
BRANCH   4   5
ATOM      5  C   UNL     1      39.336  20.451  80.184  1.00  0.00     0.053 C 
BRANCH   5   6
ATOM      6  C   UNL     1      38.442  19.272  80.408  1.00  0.00     0.041 C 
ATOM      7  O   UNL     1      38.539  18.255  79.673  1.00  0.00    -0.550 OA
ATOM      8  O   UNL     1      37.466  19.317  81.396  1.00  0.00    -0.550 OA
ENDBRANCH   5   6
ENDBRANCH   4   5
ENDBRANCH   3   4
ENDBRANCH   2   3
ENDBRANCH   1   2
BRANCH   1   9
ATOM      9  C   UNL     1      44.475  20.992  78.922  1.00  0.00     0.000 C 
BRANCH   9  10
ATOM     10  C   UNL     1      44.518  19.632  78.211  1.00  0.00    -0.000 C 
BRANCH  10  11
ATOM     11  C   UNL     1      45.934  19.316  77.714  1.00  0.00    -0.000 C 
BRANCH  11  12
ATOM     12  C   UNL     1      45.892  18.459  76.440  1.00  0.00    -0.000 C 
BRANCH  12  13
ATOM     13  C   UNL     1      46.233  19.263  75.176  1.00  0.00    -0.003 C 
ATOM     14  C   UNL     1      47.142  20.458  75.461  1.00  0.00     0.004 C 
ENDBRANCH  12  13
ENDBRANCH  11  12
ENDBRANCH  10  11
ENDBRANCH   9  10
ENDBRANCH   1   9
TORSDOF 10
ENDMDL
MODEL 5
REMARK VINA RESULT:    -3.111     17.261     18.974
REMARK INTER + INTRA:          -5.957
REMARK INTER:                  -4.587
REMARK INTRA:                  -1.370
REMARK UNBOUND:                -1.027
REMARK SMILES CCCCCCCCCCCC(=O)[O-]
REMARK SMILES IDX 7 1 8 2 9 3 10 4 11 5 12 6 13 7 14 8 6 9 5 10 4 11 3 12 2 13
REMARK SMILES IDX 1 14
REMARK H PARENT
REMARK Flexibility Score: inf
ROOT
ATOM      1  C   UNL     1      44.116  21.142  75.513  1.00  0.00     0.000 C 
ENDROOT
BRANCH   1   2
ATOM      2  C   UNL     1      44.529  21.876  76.804  1.00  0.00     0.000 C 
BRANCH   2   3
ATOM      3  C   UNL     1      45.373  21.046  77.787  1.00  0.00     0.000 C 
BRANCH   3   4
ATOM      4  C   UNL     1      44.992  19.558  77.791  1.00  0.00     0.006 C 
BRANCH   4   5
ATOM      5  C   UNL     1      46.238  18.674  77.687  1.00  0.00     0.053 C 
BRANCH   5   6
ATOM      6  C   UNL     1      46.029  17.591  76.676  1.00  0.00     0.041 C 
ATOM      7  O   UNL     1      45.951  16.388  77.041  1.00  0.00    -0.550 OA
ATOM      8  O   UNL     1      45.970  17.905  75.324  1.00  0.00    -0.550 OA
ENDBRANCH   5   6
ENDBRANCH   4   5
ENDBRANCH   3   4
ENDBRANCH   2   3
ENDBRANCH   1   2
BRANCH   1   9
ATOM      9  C   UNL     1      44.579  21.809  74.205  1.00  0.00     0.000 C 
BRANCH   9  10
ATOM     10  C   UNL     1      45.431  20.879  73.330  1.00  0.00    -0.000 C 
BRANCH  10  11
ATOM     11  C   UNL     1      46.903  21.310  73.340  1.00  0.00    -0.000 C 
BRANCH  11  12
ATOM     12  C   UNL     1      47.688  20.563  74.429  1.00  0.00    -0.000 C 
BRANCH  12  13
ATOM     13  C   UNL     1      48.639  21.485  75.209  1.00  0.00    -0.003 C 
ATOM     14  C   UNL     1      47.971  22.787  75.650  1.00  0.00     0.004 C 
ENDBRANCH  12  13
ENDBRANCH  11  12
ENDBRANCH  10  11
ENDBRANCH   9  10
ENDBRANCH   1   9
TORSDOF 10
ENDMDL
MODEL 6
REMARK VINA RESULT:    -3.104      3.266      5.543
REMARK INTER + INTRA:          -5.944
REMARK INTER:                  -4.677
REMARK INTRA:                  -1.267
REMARK UNBOUND:                -1.027
REMARK SMILES CCCCCCCCCCCC(=O)[O-]
REMARK SMILES IDX 7 1 8 2 9 3 10 4 11 5 12 6 13 7 14 8 6 9 5 10 4 11 3 12 2 13
REMARK SMILES IDX 1 14
REMARK H PARENT
REMARK Flexibility Score: inf
ROOT
ATOM      1  C   UNL     1      49.002  34.775  86.570  1.00  0.00     0.000 C 
ENDROOT
BRANCH   1   2
ATOM      2  C   UNL     1      48.320  33.745  87.493  1.00  0.00     0.000 C 
BRANCH   2   3
ATOM      3  C   UNL     1      48.270  32.308  86.944  1.00  0.00     0.000 C 
BRANCH   3   4
ATOM      4  C   UNL     1      47.933  31.269  88.023  1.00  0.00     0.006 C 
BRANCH   4   5
ATOM      5  C   UNL     1      46.882  31.812  88.996  1.00  0.00     0.053 C 
BRANCH   5   6
ATOM      6  C   UNL     1      47.120  31.281  90.374  1.00  0.00     0.041 C 
ATOM      7  O   UNL     1      48.291  31.197  90.828  1.00  0.00    -0.550 OA
ATOM      8  O   UNL     1      46.051  30.832  91.140  1.00  0.00    -0.550 OA
ENDBRANCH   5   6
ENDBRANCH   4   5
ENDBRANCH   3   4
ENDBRANCH   2   3
ENDBRANCH   1   2
BRANCH   1   9
ATOM      9  C   UNL     1      49.811  35.866  87.294  1.00  0.00     0.000 C 
BRANCH   9  10
ATOM     10  C   UNL     1      51.297  35.511  87.438  1.00  0.00    -0.000 C 
BRANCH  10  11
ATOM     11  C   UNL     1      51.723  34.488  86.377  1.00  0.00    -0.000 C 
BRANCH  11  12
ATOM     12  C   UNL     1      52.246  33.201  87.033  1.00  0.00    -0.000 C 
BRANCH  12  13
ATOM     13  C   UNL     1      52.226  33.269  88.568  1.00  0.00    -0.003 C 
ATOM     14  C   UNL     1      51.319  32.211  89.195  1.00  0.00     0.004 C 
ENDBRANCH  12  13
ENDBRANCH  11  12
ENDBRANCH  10  11
ENDBRANCH   9  10
ENDBRANCH   1   9
TORSDOF 10
ENDMDL
MODEL 7
REMARK VINA RESULT:    -3.097     16.691     18.051
REMARK INTER + INTRA:          -5.935
REMARK INTER:                  -4.589
REMARK INTRA:                  -1.346
REMARK UNBOUND:                -1.027
REMARK SMILES CCCCCCCCCCCC(=O)[O-]
REMARK SMILES IDX 7 1 8 2 9 3 10 4 11 5 12 6 13 7 14 8 6 9 5 10 4 11 3 12 2 13
REMARK SMILES IDX 1 14
REMARK H PARENT
REMARK Flexibility Score: inf
ROOT
ATOM      1  C   UNL     1      43.391  22.637  77.637  1.00  0.00     0.000 C 
ENDROOT
BRANCH   1   2
ATOM      2  C   UNL     1      44.777  22.027  77.927  1.00  0.00     0.000 C 
BRANCH   2   3
ATOM      3  C   UNL     1      44.760  20.723  78.744  1.00  0.00     0.000 C 
BRANCH   3   4
ATOM      4  C   UNL     1      44.909  19.470  77.869  1.00  0.00     0.006 C 
BRANCH   4   5
ATOM      5  C   UNL     1      45.620  19.802  76.554  1.00  0.00     0.053 C 
BRANCH   5   6
ATOM      6  C   UNL     1      45.971  18.549  75.816  1.00  0.00     0.041 C 
ATOM      7  O   UNL     1      46.279  18.596  74.596  1.00  0.00    -0.550 OA
ATOM      8  O   UNL     1      45.908  17.321  76.463  1.00  0.00    -0.550 OA
ENDBRANCH   5   6
ENDBRANCH   4   5
ENDBRANCH   3   4
ENDBRANCH   2   3
ENDBRANCH   1   2
BRANCH   1   9
ATOM      9  C   UNL     1      42.721  22.150  76.340  1.00  0.00     0.000 C 
BRANCH   9  10
ATOM     10  C   UNL     1      41.305  21.604  76.568  1.00  0.00    -0.000 C 
BRANCH  10  11
ATOM     11  C   UNL     1      40.890  21.749  78.037  1.00  0.00    -0.000 C 
BRANCH  11  12
ATOM     12  C   UNL     1      40.577  20.379  78.659  1.00  0.00    -0.000 C 
BRANCH  12  13
ATOM     13  C   UNL     1      41.260  20.178  80.020  1.00  0.00    -0.003 C 
ATOM     14  C   UNL     1      41.738  21.489  80.642  1.00  0.00     0.004 C 
ENDBRANCH  12  13
ENDBRANCH  11  12
ENDBRANCH  10  11
ENDBRANCH   9  10
ENDBRANCH   1   9
TORSDOF 10
ENDMDL
MODEL 8
REMARK VINA RESULT:    -3.093      3.638      5.600
REMARK INTER + INTRA:          -5.927
REMARK INTER:                  -4.643
REMARK INTRA:                  -1.285
REMARK UNBOUND:                -1.027
REMARK SMILES CCCCCCCCCCCC(=O)[O-]
REMARK SMILES IDX 7 1 8 2 9 3 10 4 11 5 12 6 13 7 14 8 6 9 5 10 4 11 3 12 2 13
REMARK SMILES IDX 1 14
REMARK H PARENT
REMARK Flexibility Score: inf
ROOT
ATOM      1  C   UNL     1      53.824  32.626  86.216  1.00  0.00     0.000 C 
ENDROOT
BRANCH   1   2
ATOM      2  C   UNL     1      53.418  32.836  84.743  1.00  0.00     0.000 C 
BRANCH   2   3
ATOM      3  C   UNL     1      53.228  34.304  84.320  1.00  0.00     0.000 C 
BRANCH   3   4
ATOM      4  C   UNL     1      52.052  34.497  83.351  1.00  0.00     0.006 C 
BRANCH   4   5
ATOM      5  C   UNL     1      50.735  34.055  83.994  1.00  0.00     0.053 C 
BRANCH   5   6
ATOM      6  C   UNL     1      49.570  34.629  83.250  1.00  0.00     0.041 C 
ATOM      7  O   UNL     1      48.512  34.930  83.863  1.00  0.00    -0.550 OA
ATOM      8  O   UNL     1      49.635  34.784  81.871  1.00  0.00    -0.550 OA
ENDBRANCH   5   6
ENDBRANCH   4   5
ENDBRANCH   3   4
ENDBRANCH   2   3
ENDBRANCH   1   2
BRANCH   1   9
ATOM      9  C   UNL     1      53.878  33.907  87.068  1.00  0.00     0.000 C 
BRANCH   9  10
ATOM     10  C   UNL     1      52.909  33.873  88.258  1.00  0.00    -0.000 C 
BRANCH  10  11
ATOM     11  C   UNL     1      51.455  33.997  87.786  1.00  0.00    -0.000 C 
BRANCH  11  12
ATOM     12  C   UNL     1      51.129  35.442  87.379  1.00  0.00    -0.000 C 
BRANCH  12  13
ATOM     13  C   UNL     1      49.618  35.698  87.270  1.00  0.00    -0.003 C 
ATOM     14  C   UNL     1      48.797  34.409  87.284  1.00  0.00     0.004 C 
ENDBRANCH  12  13
ENDBRANCH  11  12
ENDBRANCH  10  11
ENDBRANCH   9  10
ENDBRANCH   1   9
TORSDOF 10
ENDMDL
MODEL 9
REMARK VINA RESULT:    -3.091     16.079     17.812
REMARK INTER + INTRA:          -5.924
REMARK INTER:                  -4.673
REMARK INTRA:                  -1.251
REMARK UNBOUND:                -1.027
REMARK SMILES CCCCCCCCCCCC(=O)[O-]
REMARK SMILES IDX 7 1 8 2 9 3 10 4 11 5 12 6 13 7 14 8 6 9 5 10 4 11 3 12 2 13
REMARK SMILES IDX 1 14
REMARK H PARENT
REMARK Flexibility Score: inf
ROOT
ATOM      1  C   UNL     1      49.313  20.808  79.744  1.00  0.00     0.000 C 
ENDROOT
BRANCH   1   2
ATOM      2  C   UNL     1      48.162  20.057  79.044  1.00  0.00     0.000 C 
BRANCH   2   3
ATOM      3  C   UNL     1      46.996  20.942  78.570  1.00  0.00     0.000 C 
BRANCH   3   4
ATOM      4  C   UNL     1      46.104  20.247  77.530  1.00  0.00     0.006 C 
BRANCH   4   5
ATOM      5  C   UNL     1      45.875  18.779  77.901  1.00  0.00     0.053 C 
BRANCH   5   6
ATOM      6  C   UNL     1      45.891  17.920  76.675  1.00  0.00     0.041 C 
ATOM      7  O   UNL     1      45.805  16.668  76.777  1.00  0.00    -0.550 OA
ATOM      8  O   UNL     1      46.053  18.500  75.423  1.00  0.00    -0.550 OA
ENDBRANCH   5   6
ENDBRANCH   4   5
ENDBRANCH   3   4
ENDBRANCH   2   3
ENDBRANCH   1   2
BRANCH   1   9
ATOM      9  C   UNL     1      50.681  20.702  79.047  1.00  0.00     0.000 C 
BRANCH   9  10
ATOM     10  C   UNL     1      51.043  21.962  78.247  1.00  0.00    -0.000 C 
BRANCH  10  11
ATOM     11  C   UNL     1      50.488  21.885  76.820  1.00  0.00    -0.000 C 
BRANCH  11  12
ATOM     12  C   UNL     1      49.401  22.946  76.594  1.00  0.00    -0.000 C 
BRANCH  12  13
ATOM     13  C   UNL     1      48.464  22.593  75.428  1.00  0.00    -0.003 C 
ATOM     14  C   UNL     1      48.587  21.133  74.992  1.00  0.00     0.004 C 
ENDBRANCH  12  13
ENDBRANCH  11  12
ENDBRANCH  10  11
ENDBRANCH   9  10
ENDBRANCH   1   9
TORSDOF 10
ENDMDL
