MODEL 1
REMARK VINA RESULT:    -4.332      0.000      0.000
REMARK INTER + INTRA:          -5.796
REMARK INTER:                  -5.598
REMARK INTRA:                  -0.197
REMARK UNBOUND:                -0.197
REMARK SMILES CCCCCCC(=O)[O-]
REMARK SMILES IDX 5 1 6 2 7 3 8 4 9 5 4 6 3 7 2 8 1 9
REMARK H PARENT
REMARK Flexibility Score: inf
ROOT
ATOM      1  C   UNL     1      40.553  40.686  16.456  1.00  0.00     0.006 C 
ENDROOT
BRANCH   1   2
ATOM      2  C   UNL     1      41.822  40.692  17.318  1.00  0.00     0.053 C 
BRANCH   2   3
ATOM      3  C   UNL     1      41.506  40.901  18.768  1.00  0.00     0.041 C 
ATOM      4  O   UNL     1      41.285  42.059  19.209  1.00  0.00    -0.550 OA
ATOM      5  O   UNL     1      41.490  39.818  19.638  1.00  0.00    -0.550 OA
ENDBRANCH   2   3
ENDBRANCH   1   2
BRANCH   1   6
ATOM      6  C   UNL     1      40.861  40.419  14.972  1.00  0.00     0.000 C 
BRANCH   6   7
ATOM      7  C   UNL     1      42.107  39.542  14.776  1.00  0.00    -0.000 C 
BRANCH   7   8
ATOM      8  C   UNL     1      41.877  38.408  13.765  1.00  0.00    -0.003 C 
ATOM      9  C   UNL     1      40.414  38.337  13.342  1.00  0.00     0.004 C 
ENDBRANCH   7   8
ENDBRANCH   6   7
ENDBRANCH   1   6
TORSDOF 5
ENDMDL
MODEL 2
REMARK VINA RESULT:    -4.330      0.150      1.088
REMARK INTER + INTRA:          -5.793
REMARK INTER:                  -5.594
REMARK INTRA:                  -0.199
REMARK UNBOUND:                -0.197
REMARK SMILES CCCCCCC(=O)[O-]
REMARK SMILES IDX 5 1 6 2 7 3 8 4 9 5 4 6 3 7 2 8 1 9
REMARK H PARENT
REMARK Flexibility Score: inf
ROOT
ATOM      1  C   UNL     1      40.612  40.692  16.486  1.00  0.00     0.006 C 
ENDROOT
BRANCH   1   2
ATOM      2  C   UNL     1      41.876  40.701  17.356  1.00  0.00     0.053 C 
BRANCH   2   3
ATOM      3  C   UNL     1      41.548  40.863  18.809  1.00  0.00     0.041 C 
ATOM      4  O   UNL     1      41.448  39.853  19.554  1.00  0.00    -0.550 OA
ATOM      5  O   UNL     1      41.321  42.130  19.332  1.00  0.00    -0.550 OA
ENDBRANCH   2   3
ENDBRANCH   1   2
BRANCH   1   6
ATOM      6  C   UNL     1      40.921  40.359  15.017  1.00  0.00     0.000 C 
BRANCH   6   7
ATOM      7  C   UNL     1      42.223  39.560  14.853  1.00  0.00    -0.000 C 
BRANCH   7   8
ATOM      8  C   UNL     1      42.100  38.435  13.814  1.00  0.00    -0.003 C 
ATOM      9  C   UNL     1      40.644  38.209  13.420  1.00  0.00     0.004 C 
ENDBRANCH   7   8
ENDBRANCH   6   7
ENDBRANCH   1   6
TORSDOF 5
ENDMDL
MODEL 3
REMARK VINA RESULT:    -4.242      3.413      5.312
REMARK INTER + INTRA:          -5.679
REMARK INTER:                  -5.602
REMARK INTRA:                  -0.077
REMARK UNBOUND:                -0.197
REMARK SMILES CCCCCCC(=O)[O-]
REMARK SMILES IDX 5 1 6 2 7 3 8 4 9 5 4 6 3 7 2 8 1 9
REMARK H PARENT
REMARK Flexibility Score: inf
ROOT
ATOM      1  C   UNL     1      40.988  40.266  15.002  1.00  0.00     0.006 C 
ENDROOT
BRANCH   1   2
ATOM      2  C   UNL     1      41.598  39.117  14.190  1.00  0.00     0.053 C 
BRANCH   2   3
ATOM      3  C   UNL     1      40.551  38.351  13.440  1.00  0.00     0.041 C 
ATOM      4  O   UNL     1      40.576  37.092  13.423  1.00  0.00    -0.550 OA
ATOM      5  O   UNL     1      39.568  39.029  12.732  1.00  0.00    -0.550 OA
ENDBRANCH   2   3
ENDBRANCH   1   2
BRANCH   1   6
ATOM      6  C   UNL     1      41.812  40.590  16.260  1.00  0.00     0.000 C 
BRANCH   6   7
ATOM      7  C   UNL     1      40.961  40.597  17.539  1.00  0.00    -0.000 C 
BRANCH   7   8
ATOM      8  C   UNL     1      41.716  41.169  18.748  1.00  0.00    -0.003 C 
ATOM      9  C   UNL     1      41.867  40.122  19.847  1.00  0.00     0.004 C 
ENDBRANCH   7   8
ENDBRANCH   6   7
ENDBRANCH   1   6
TORSDOF 5
ENDMDL
MODEL 4
REMARK VINA RESULT:    -4.176      2.775      4.840
REMARK INTER + INTRA:          -5.594
REMARK INTER:                  -5.382
REMARK INTRA:                  -0.212
REMARK UNBOUND:                -0.197
REMARK SMILES CCCCCCC(=O)[O-]
REMARK SMILES IDX 5 1 6 2 7 3 8 4 9 5 4 6 3 7 2 8 1 9
REMARK H PARENT
REMARK Flexibility Score: inf
ROOT
ATOM      1  C   UNL     1      40.639  40.700  17.000  1.00  0.00     0.006 C 
ENDROOT
BRANCH   1   2
ATOM      2  C   UNL     1      40.865  41.074  15.530  1.00  0.00     0.053 C 
BRANCH   2   3
ATOM      3  C   UNL     1      41.265  42.510  15.379  1.00  0.00     0.041 C 
ATOM      4  O   UNL     1      42.227  42.826  14.631  1.00  0.00    -0.550 OA
ATOM      5  O   UNL     1      40.595  43.496  16.091  1.00  0.00    -0.550 OA
ENDBRANCH   2   3
ENDBRANCH   1   2
BRANCH   1   6
ATOM      6  C   UNL     1      41.955  40.639  17.793  1.00  0.00     0.000 C 
BRANCH   6   7
ATOM      7  C   UNL     1      41.738  40.279  19.272  1.00  0.00    -0.000 C 
BRANCH   7   8
ATOM      8  C   UNL     1      42.099  41.432  20.219  1.00  0.00    -0.003 C 
ATOM      9  C   UNL     1      42.987  42.459  19.523  1.00  0.00     0.004 C 
ENDBRANCH   7   8
ENDBRANCH   6   7
ENDBRANCH   1   6
TORSDOF 5
ENDMDL
MODEL 5
REMARK VINA RESULT:    -4.170      1.340      2.140
REMARK INTER + INTRA:          -5.587
REMARK INTER:                  -5.452
REMARK INTRA:                  -0.134
REMARK UNBOUND:                -0.197
REMARK SMILES CCCCCCC(=O)[O-]
REMARK SMILES IDX 5 1 6 2 7 3 8 4 9 5 4 6 3 7 2 8 1 9
REMARK H PARENT
REMARK Flexibility Score: inf
ROOT
ATOM      1  C   UNL     1      40.762  40.720  15.276  1.00  0.00     0.006 C 
ENDROOT
BRANCH   1   2
ATOM      2  C   UNL     1      40.948  40.675  16.798  1.00  0.00     0.053 C 
BRANCH   2   3
ATOM      3  C   UNL     1      40.840  42.038  17.411  1.00  0.00     0.041 C 
ATOM      4  O   UNL     1      40.952  42.185  18.656  1.00  0.00    -0.550 OA
ATOM      5  O   UNL     1      40.581  43.141  16.608  1.00  0.00    -0.550 OA
ENDBRANCH   2   3
ENDBRANCH   1   2
BRANCH   1   6
ATOM      6  C   UNL     1      41.382  39.497  14.579  1.00  0.00     0.000 C 
BRANCH   6   7
ATOM      7  C   UNL     1      40.413  38.825  13.593  1.00  0.00    -0.000 C 
BRANCH   7   8
ATOM      8  C   UNL     1      40.687  37.323  13.428  1.00  0.00    -0.003 C 
ATOM      9  C   UNL     1      42.165  37.007  13.636  1.00  0.00     0.004 C 
ENDBRANCH   7   8
ENDBRANCH   6   7
ENDBRANCH   1   6
TORSDOF 5
ENDMDL
MODEL 6
REMARK VINA RESULT:    -4.161     10.542     11.221
REMARK INTER + INTRA:          -5.575
REMARK INTER:                  -5.428
REMARK INTRA:                  -0.147
REMARK UNBOUND:                -0.197
REMARK SMILES CCCCCCC(=O)[O-]
REMARK SMILES IDX 5 1 6 2 7 3 8 4 9 5 4 6 3 7 2 8 1 9
REMARK H PARENT
REMARK Flexibility Score: inf
ROOT
ATOM      1  C   UNL     1      37.414  31.227  13.536  1.00  0.00     0.006 C 
ENDROOT
BRANCH   1   2
ATOM      2  C   UNL     1      36.161  31.810  14.202  1.00  0.00     0.053 C 
BRANCH   2   3
ATOM      3  C   UNL     1      34.913  31.430  13.464  1.00  0.00     0.041 C 
ATOM      4  O   UNL     1      34.168  32.320  12.976  1.00  0.00    -0.550 OA
ATOM      5  O   UNL     1      34.557  30.093  13.345  1.00  0.00    -0.550 OA
ENDBRANCH   2   3
ENDBRANCH   1   2
BRANCH   1   6
ATOM      6  C   UNL     1      38.307  30.473  14.536  1.00  0.00     0.000 C 
BRANCH   6   7
ATOM      7  C   UNL     1      39.091  29.326  13.880  1.00  0.00    -0.000 C 
BRANCH   7   8
ATOM      8  C   UNL     1      40.557  29.277  14.336  1.00  0.00    -0.003 C 
ATOM      9  C   UNL     1      40.788  30.180  15.544  1.00  0.00     0.004 C 
ENDBRANCH   7   8
ENDBRANCH   6   7
ENDBRANCH   1   6
TORSDOF 5
ENDMDL
MODEL 7
REMARK VINA RESULT:    -4.123      2.876      4.846
REMARK INTER + INTRA:          -5.525
REMARK INTER:                  -5.357
REMARK INTRA:                  -0.168
REMARK UNBOUND:                -0.197
REMARK SMILES CCCCCCC(=O)[O-]
REMARK SMILES IDX 5 1 6 2 7 3 8 4 9 5 4 6 3 7 2 8 1 9
REMARK H PARENT
REMARK Flexibility Score: inf
ROOT
ATOM      1  C   UNL     1      40.995  41.162  15.411  1.00  0.00     0.006 C 
ENDROOT
BRANCH   1   2
ATOM      2  C   UNL     1      40.761  39.872  14.614  1.00  0.00     0.053 C 
BRANCH   2   3
ATOM      3  C   UNL     1      42.051  39.195  14.264  1.00  0.00     0.041 C 
ATOM      4  O   UNL     1      43.145  39.662  14.677  1.00  0.00    -0.550 OA
ATOM      5  O   UNL     1      42.046  38.067  13.454  1.00  0.00    -0.550 OA
ENDBRANCH   2   3
ENDBRANCH   1   2
BRANCH   1   6
ATOM      6  C   UNL     1      40.574  41.020  16.883  1.00  0.00     0.000 C 
BRANCH   6   7
ATOM      7  C   UNL     1      41.742  40.616  17.796  1.00  0.00    -0.000 C 
BRANCH   7   8
ATOM      8  C   UNL     1      41.613  41.194  19.212  1.00  0.00    -0.003 C 
ATOM      9  C   UNL     1      42.028  40.170  20.264  1.00  0.00     0.004 C 
ENDBRANCH   7   8
ENDBRANCH   6   7
ENDBRANCH   1   6
TORSDOF 5
ENDMDL
MODEL 8
REMARK VINA RESULT:    -4.019     10.018     10.881
REMARK INTER + INTRA:          -5.392
REMARK INTER:                  -5.226
REMARK INTRA:                  -0.166
REMARK UNBOUND:                -0.197
REMARK SMILES CCCCCCC(=O)[O-]
REMARK SMILES IDX 5 1 6 2 7 3 8 4 9 5 4 6 3 7 2 8 1 9
REMARK H PARENT
REMARK Flexibility Score: inf
ROOT
ATOM      1  C   UNL     1      38.121  29.932  14.330  1.00  0.00     0.006 C 
ENDROOT
BRANCH   1   2
ATOM      2  C   UNL     1      39.462  29.474  13.742  1.00  0.00     0.053 C 
BRANCH   2   3
ATOM      3  C   UNL     1      40.614  29.862  14.620  1.00  0.00     0.041 C 
ATOM      4  O   UNL     1      41.792  29.572  14.286  1.00  0.00    -0.550 OA
ATOM      5  O   UNL     1      40.380  30.514  15.824  1.00  0.00    -0.550 OA
ENDBRANCH   2   3
ENDBRANCH   1   2
BRANCH   1   6
ATOM      6  C   UNL     1      37.548  31.151  13.586  1.00  0.00     0.000 C 
BRANCH   6   7
ATOM      7  C   UNL     1      36.445  31.864  14.383  1.00  0.00    -0.000 C 
BRANCH   7   8
ATOM      8  C   UNL     1      35.109  31.913  13.629  1.00  0.00    -0.003 C 
ATOM      9  C   UNL     1      34.634  30.512  13.259  1.00  0.00     0.004 C 
ENDBRANCH   7   8
ENDBRANCH   6   7
ENDBRANCH   1   6
TORSDOF 5
ENDMDL
MODEL 9
REMARK VINA RESULT:    -3.997      1.246      2.043
REMARK INTER + INTRA:          -5.362
REMARK INTER:                  -5.183
REMARK INTRA:                  -0.179
REMARK UNBOUND:                -0.197
REMARK SMILES CCCCCCC(=O)[O-]
REMARK SMILES IDX 5 1 6 2 7 3 8 4 9 5 4 6 3 7 2 8 1 9
REMARK H PARENT
REMARK Flexibility Score: inf
ROOT
ATOM      1  C   UNL     1      41.636  40.665  17.691  1.00  0.00     0.006 C 
ENDROOT
BRANCH   1   2
ATOM      2  C   UNL     1      41.710  41.894  18.606  1.00  0.00     0.053 C 
BRANCH   2   3
ATOM      3  C   UNL     1      41.756  41.505  20.053  1.00  0.00     0.041 C 
ATOM      4  O   UNL     1      42.128  40.350  20.389  1.00  0.00    -0.550 OA
ATOM      5  O   UNL     1      41.354  42.409  21.028  1.00  0.00    -0.550 OA
ENDBRANCH   2   3
ENDBRANCH   1   2
BRANCH   1   6
ATOM      6  C   UNL     1      40.571  40.823  16.592  1.00  0.00     0.000 C 
BRANCH   6   7
ATOM      7  C   UNL     1      41.095  40.434  15.201  1.00  0.00    -0.000 C 
BRANCH   7   8
ATOM      8  C   UNL     1      42.528  39.883  15.242  1.00  0.00    -0.003 C 
ATOM      9  C   UNL     1      42.739  38.821  14.168  1.00  0.00     0.004 C 
ENDBRANCH   7   8
ENDBRANCH   6   7
ENDBRANCH   1   6
TORSDOF 5
ENDMDL
