MODEL 1
REMARK VINA RESULT:    -4.247      0.000      0.000
REMARK INTER + INTRA:          -5.110
REMARK INTER:                  -4.992
REMARK INTRA:                  -0.118
REMARK UNBOUND:                -0.118
REMARK SMILES O=C([O-])CCC(=O)[O-]
REMARK SMILES IDX 4 1 2 2 1 3 3 4 5 5 6 6 7 7 8 8
REMARK H PARENT
REMARK Flexibility Score: inf
ROOT
ATOM      1  C   UNL     1      84.418  62.238   7.000  1.00  0.00     0.059 C 
ENDROOT
BRANCH   1   2
ATOM      2  C   UNL     1      85.235  62.011   8.235  1.00  0.00     0.042 C 
ATOM      3  O   UNL     1      84.926  62.584   9.314  1.00  0.00    -0.550 OA
ATOM      4  O   UNL     1      86.315  61.138   8.205  1.00  0.00    -0.550 OA
ENDBRANCH   1   2
BRANCH   1   5
ATOM      5  C   UNL     1      83.320  61.179   6.847  1.00  0.00     0.059 C 
BRANCH   5   6
ATOM      6  C   UNL     1      81.971  61.729   7.200  1.00  0.00     0.042 C 
ATOM      7  O   UNL     1      81.073  61.815   6.322  1.00  0.00    -0.550 OA
ATOM      8  O   UNL     1      81.694  62.109   8.507  1.00  0.00    -0.550 OA
ENDBRANCH   5   6
ENDBRANCH   1   5
TORSDOF 3
ENDMDL
MODEL 2
REMARK VINA RESULT:    -4.236      0.099      3.780
REMARK INTER + INTRA:          -5.098
REMARK INTER:                  -4.989
REMARK INTRA:                  -0.109
REMARK UNBOUND:                -0.118
REMARK SMILES O=C([O-])CCC(=O)[O-]
REMARK SMILES IDX 4 1 2 2 1 3 3 4 5 5 6 6 7 7 8 8
REMARK H PARENT
REMARK Flexibility Score: inf
ROOT
ATOM      1  C   UNL     1      83.364  61.169   6.824  1.00  0.00     0.059 C 
ENDROOT
BRANCH   1   2
ATOM      2  C   UNL     1      82.012  61.710   7.179  1.00  0.00     0.042 C 
ATOM      3  O   UNL     1      81.775  62.102   8.353  1.00  0.00    -0.550 OA
ATOM      4  O   UNL     1      81.027  61.816   6.206  1.00  0.00    -0.550 OA
ENDBRANCH   1   2
BRANCH   1   5
ATOM      5  C   UNL     1      84.459  62.227   7.001  1.00  0.00     0.059 C 
BRANCH   5   6
ATOM      6  C   UNL     1      85.266  61.983   8.240  1.00  0.00     0.042 C 
ATOM      7  O   UNL     1      86.256  61.205   8.209  1.00  0.00    -0.550 OA
ATOM      8  O   UNL     1      84.950  62.647   9.419  1.00  0.00    -0.550 OA
ENDBRANCH   5   6
ENDBRANCH   1   5
TORSDOF 3
ENDMDL
MODEL 3
REMARK VINA RESULT:    -4.234      0.093      1.148
REMARK INTER + INTRA:          -5.095
REMARK INTER:                  -4.979
REMARK INTRA:                  -0.116
REMARK UNBOUND:                -0.118
REMARK SMILES O=C([O-])CCC(=O)[O-]
REMARK SMILES IDX 4 1 2 2 1 3 3 4 5 5 6 6 7 7 8 8
REMARK H PARENT
REMARK Flexibility Score: inf
ROOT
ATOM      1  C   UNL     1      84.421  62.224   6.989  1.00  0.00     0.059 C 
ENDROOT
BRANCH   1   2
ATOM      2  C   UNL     1      85.249  61.985   8.215  1.00  0.00     0.042 C 
ATOM      3  O   UNL     1      84.957  62.557   9.298  1.00  0.00    -0.550 OA
ATOM      4  O   UNL     1      86.319  61.101   8.170  1.00  0.00    -0.550 OA
ENDBRANCH   1   2
BRANCH   1   5
ATOM      5  C   UNL     1      83.342  61.149   6.818  1.00  0.00     0.059 C 
BRANCH   5   6
ATOM      6  C   UNL     1      81.982  61.672   7.170  1.00  0.00     0.042 C 
ATOM      7  O   UNL     1      81.722  62.013   8.354  1.00  0.00    -0.550 OA
ATOM      8  O   UNL     1      81.016  61.821   6.184  1.00  0.00    -0.550 OA
ENDBRANCH   5   6
ENDBRANCH   1   5
TORSDOF 3
ENDMDL
MODEL 4
REMARK VINA RESULT:    -4.223      0.124      3.914
REMARK INTER + INTRA:          -5.082
REMARK INTER:                  -4.968
REMARK INTRA:                  -0.115
REMARK UNBOUND:                -0.118
REMARK SMILES O=C([O-])CCC(=O)[O-]
REMARK SMILES IDX 4 1 2 2 1 3 3 4 5 5 6 6 7 7 8 8
REMARK H PARENT
REMARK Flexibility Score: inf
ROOT
ATOM      1  C   UNL     1      83.355  61.108   6.830  1.00  0.00     0.059 C 
ENDROOT
BRANCH   1   2
ATOM      2  C   UNL     1      81.997  61.626   7.194  1.00  0.00     0.042 C 
ATOM      3  O   UNL     1      81.052  61.565   6.364  1.00  0.00    -0.550 OA
ATOM      4  O   UNL     1      81.766  62.140   8.463  1.00  0.00    -0.550 OA
ENDBRANCH   1   2
BRANCH   1   5
ATOM      5  C   UNL     1      84.431  62.191   6.978  1.00  0.00     0.059 C 
BRANCH   5   6
ATOM      6  C   UNL     1      85.281  61.961   8.190  1.00  0.00     0.042 C 
ATOM      7  O   UNL     1      85.021  62.557   9.268  1.00  0.00    -0.550 OA
ATOM      8  O   UNL     1      86.336  61.059   8.140  1.00  0.00    -0.550 OA
ENDBRANCH   5   6
ENDBRANCH   1   5
TORSDOF 3
ENDMDL
MODEL 5
REMARK VINA RESULT:    -3.713      2.532      4.075
REMARK INTER + INTRA:          -4.482
REMARK INTER:                  -4.448
REMARK INTRA:                  -0.035
REMARK UNBOUND:                -0.118
REMARK SMILES O=C([O-])CCC(=O)[O-]
REMARK SMILES IDX 4 1 2 2 1 3 3 4 5 5 6 6 7 7 8 8
REMARK H PARENT
REMARK Flexibility Score: inf
ROOT
ATOM      1  C   UNL     1      83.424  62.609  10.244  1.00  0.00     0.059 C 
ENDROOT
BRANCH   1   2
ATOM      2  C   UNL     1      82.079  62.783  10.880  1.00  0.00     0.042 C 
ATOM      3  O   UNL     1      81.950  63.509  11.901  1.00  0.00    -0.550 OA
ATOM      4  O   UNL     1      80.962  62.175  10.322  1.00  0.00    -0.550 OA
ENDBRANCH   1   2
BRANCH   1   5
ATOM      5  C   UNL     1      83.305  62.278   8.752  1.00  0.00     0.059 C 
BRANCH   5   6
ATOM      6  C   UNL     1      84.652  62.159   8.104  1.00  0.00     0.042 C 
ATOM      7  O   UNL     1      85.671  61.916   8.802  1.00  0.00    -0.550 OA
ATOM      8  O   UNL     1      84.774  62.276   6.725  1.00  0.00    -0.550 OA
ENDBRANCH   5   6
ENDBRANCH   1   5
TORSDOF 3
ENDMDL
MODEL 6
REMARK VINA RESULT:    -3.634      1.687      2.207
REMARK INTER + INTRA:          -4.390
REMARK INTER:                  -4.272
REMARK INTRA:                  -0.118
REMARK UNBOUND:                -0.118
REMARK SMILES O=C([O-])CCC(=O)[O-]
REMARK SMILES IDX 4 1 2 2 1 3 3 4 5 5 6 6 7 7 8 8
REMARK H PARENT
REMARK Flexibility Score: inf
ROOT
ATOM      1  C   UNL     1      82.801  60.907   6.787  1.00  0.00     0.059 C 
ENDROOT
BRANCH   1   2
ATOM      2  C   UNL     1      83.764  61.981   7.192  1.00  0.00     0.042 C 
ATOM      3  O   UNL     1      84.501  62.529   6.330  1.00  0.00    -0.550 OA
ATOM      4  O   UNL     1      83.819  62.405   8.513  1.00  0.00    -0.550 OA
ENDBRANCH   1   2
BRANCH   1   5
ATOM      5  C   UNL     1      81.404  61.474   6.511  1.00  0.00     0.059 C 
BRANCH   5   6
ATOM      6  C   UNL     1      80.426  61.074   7.573  1.00  0.00     0.042 C 
ATOM      7  O   UNL     1      79.435  60.353   7.283  1.00  0.00    -0.550 OA
ATOM      8  O   UNL     1      80.631  61.463   8.891  1.00  0.00    -0.550 OA
ENDBRANCH   5   6
ENDBRANCH   1   5
TORSDOF 3
ENDMDL
MODEL 7
REMARK VINA RESULT:    -3.577      1.671      4.421
REMARK INTER + INTRA:          -4.322
REMARK INTER:                  -4.289
REMARK INTRA:                  -0.033
REMARK UNBOUND:                -0.118
REMARK SMILES O=C([O-])CCC(=O)[O-]
REMARK SMILES IDX 4 1 2 2 1 3 3 4 5 5 6 6 7 7 8 8
REMARK H PARENT
REMARK Flexibility Score: inf
ROOT
ATOM      1  C   UNL     1      81.306  61.360   7.150  1.00  0.00     0.059 C 
ENDROOT
BRANCH   1   2
ATOM      2  C   UNL     1      80.367  61.418   5.983  1.00  0.00     0.042 C 
ATOM      3  O   UNL     1      80.195  60.402   5.258  1.00  0.00    -0.550 OA
ATOM      4  O   UNL     1      79.654  62.580   5.721  1.00  0.00    -0.550 OA
ENDBRANCH   1   2
BRANCH   1   5
ATOM      5  C   UNL     1      82.731  61.003   6.711  1.00  0.00     0.059 C 
BRANCH   5   6
ATOM      6  C   UNL     1      83.733  61.980   7.245  1.00  0.00     0.042 C 
ATOM      7  O   UNL     1      84.615  62.461   6.485  1.00  0.00    -0.550 OA
ATOM      8  O   UNL     1      83.669  62.390   8.570  1.00  0.00    -0.550 OA
ENDBRANCH   5   6
ENDBRANCH   1   5
TORSDOF 3
ENDMDL
MODEL 8
REMARK VINA RESULT:    -3.566      1.709      2.412
REMARK INTER + INTRA:          -4.309
REMARK INTER:                  -4.278
REMARK INTRA:                  -0.031
REMARK UNBOUND:                -0.118
REMARK SMILES O=C([O-])CCC(=O)[O-]
REMARK SMILES IDX 4 1 2 2 1 3 3 4 5 5 6 6 7 7 8 8
REMARK H PARENT
REMARK Flexibility Score: inf
ROOT
ATOM      1  C   UNL     1      82.604  61.105   6.712  1.00  0.00     0.059 C 
ENDROOT
BRANCH   1   2
ATOM      2  C   UNL     1      83.638  61.961   7.377  1.00  0.00     0.042 C 
ATOM      3  O   UNL     1      83.464  62.364   8.558  1.00  0.00    -0.550 OA
ATOM      4  O   UNL     1      84.812  62.282   6.707  1.00  0.00    -0.550 OA
ENDBRANCH   1   2
BRANCH   1   5
ATOM      5  C   UNL     1      81.187  61.635   6.960  1.00  0.00     0.059 C 
BRANCH   5   6
ATOM      6  C   UNL     1      80.342  61.547   5.726  1.00  0.00     0.042 C 
ATOM      7  O   UNL     1      79.901  62.594   5.184  1.00  0.00    -0.550 OA
ATOM      8  O   UNL     1      80.074  60.310   5.153  1.00  0.00    -0.550 OA
ENDBRANCH   5   6
ENDBRANCH   1   5
TORSDOF 3
ENDMDL
MODEL 9
REMARK VINA RESULT:    -3.546      4.393      6.083
REMARK INTER + INTRA:          -4.286
REMARK INTER:                  -4.169
REMARK INTRA:                  -0.117
REMARK UNBOUND:                -0.118
REMARK SMILES O=C([O-])CCC(=O)[O-]
REMARK SMILES IDX 4 1 2 2 1 3 3 4 5 5 6 6 7 7 8 8
REMARK H PARENT
REMARK Flexibility Score: inf
ROOT
ATOM      1  C   UNL     1      80.380  61.873  12.259  1.00  0.00     0.059 C 
ENDROOT
BRANCH   1   2
ATOM      2  C   UNL     1      78.901  62.101  12.184  1.00  0.00     0.042 C 
ATOM      3  O   UNL     1      78.190  61.991  13.219  1.00  0.00    -0.550 OA
ATOM      4  O   UNL     1      78.314  62.474  10.982  1.00  0.00    -0.550 OA
ENDBRANCH   1   2
BRANCH   1   5
ATOM      5  C   UNL     1      81.165  63.064  11.698  1.00  0.00     0.059 C 
BRANCH   5   6
ATOM      6  C   UNL     1      82.016  62.664  10.531  1.00  0.00     0.042 C 
ATOM      7  O   UNL     1      81.480  62.292   9.454  1.00  0.00    -0.550 OA
ATOM      8  O   UNL     1      83.400  62.739  10.621  1.00  0.00    -0.550 OA
ENDBRANCH   5   6
ENDBRANCH   1   5
TORSDOF 3
ENDMDL
