MODEL 1
REMARK VINA RESULT:    -7.433      0.000      0.000
REMARK INTER + INTRA:         -11.136
REMARK INTER:                 -10.041
REMARK INTRA:                  -1.095
REMARK UNBOUND:                -1.095
REMARK SMILES O=c1c(-c2ccc(O)cc2)coc2c([C@@H]3O[C@@H](CO)[C@H](O)[C@H](O)[C@H]3O)c(O)ccc12
REMARK SMILES IDX 3 1 11 2 12 3 13 4 30 5 2 6 1 7 29 8 28 9 26 10 14 11 4 12
REMARK SMILES IDX 5 13 6 14 7 15 10 16 9 17 8 18 15 20 24 21 16 22 22 23 17 24
REMARK SMILES IDX 20 25 25 26 23 28 18 30 19 31 21 33 27 35
REMARK H PARENT 8 19 25 27 23 29 19 32 21 34 27 36
REMARK Flexibility Score: inf
ROOT
ATOM      1  C   UNL     1     178.420 180.861 174.711  1.00  0.00     0.065 A 
ATOM      2  C   UNL     1     179.195 181.612 173.807  1.00  0.00     0.208 A 
ATOM      3  O   UNL     1     178.651 182.167 172.727  1.00  0.00    -0.463 OA
ATOM      4  C   UNL     1     177.364 182.026 172.412  1.00  0.00     0.147 A 
ATOM      5  C   UNL     1     176.567 181.123 173.161  1.00  0.00     0.066 A 
ATOM      6  C   UNL     1     177.107 180.537 174.324  1.00  0.00     0.200 A 
ATOM      7  O   UNL     1     176.400 179.749 175.034  1.00  0.00    -0.288 OA
ATOM      8  C   UNL     1     175.256 180.857 172.753  1.00  0.00     0.020 A 
ATOM      9  C   UNL     1     174.696 181.570 171.702  1.00  0.00     0.047 A 
ATOM     10  C   UNL     1     175.404 182.606 171.082  1.00  0.00     0.125 A 
ATOM     11  C   UNL     1     176.780 182.841 171.396  1.00  0.00     0.069 A 
ENDROOT
BRANCH   1  12
ATOM     12  C   UNL     1     178.918 180.599 176.090  1.00  0.00    -0.011 A 
ATOM     13  C   UNL     1     179.731 179.488 176.368  1.00  0.00     0.013 A 
ATOM     14  C   UNL     1     180.402 179.393 177.595  1.00  0.00     0.047 A 
ATOM     15  C   UNL     1     180.258 180.394 178.553  1.00  0.00     0.115 A 
ATOM     16  C   UNL     1     178.725 181.577 177.096  1.00  0.00     0.013 A 
ATOM     17  C   UNL     1     179.347 181.441 178.334  1.00  0.00     0.047 A 
BRANCH  15  18
ATOM     18  O   UNL     1     181.064 180.394 179.709  1.00  0.00    -0.508 OA
ATOM     19  H   UNL     1     182.067 180.230 179.649  1.00  0.00     0.293 HD
ENDBRANCH  15  18
ENDBRANCH   1  12
BRANCH  11  20
ATOM     20  C   UNL     1     177.652 183.977 170.809  1.00  0.00     0.188 C 
ATOM     21  C   UNL     1     177.957 183.893 169.277  1.00  0.00     0.179 C 
ATOM     22  O   UNL     1     176.999 185.201 171.133  1.00  0.00    -0.362 OA
ATOM     23  C   UNL     1     178.623 185.167 168.725  1.00  0.00     0.177 C 
ATOM     24  C   UNL     1     177.739 186.356 170.784  1.00  0.00     0.176 C 
ATOM     25  C   UNL     1     177.928 186.442 169.255  1.00  0.00     0.177 C 
BRANCH  21  26
ATOM     26  O   UNL     1     178.813 182.805 169.037  1.00  0.00    -0.387 OA
ATOM     27  H   UNL     1     178.533 182.370 168.194  1.00  0.00     0.211 HD
ENDBRANCH  21  26
BRANCH  23  28
ATOM     28  O   UNL     1     178.570 185.115 167.307  1.00  0.00    -0.387 OA
ATOM     29  H   UNL     1     177.644 185.342 167.021  1.00  0.00     0.211 HD
ENDBRANCH  23  28
BRANCH  24  30
ATOM     30  C   UNL     1     179.041 186.518 171.606  1.00  0.00     0.191 C 
BRANCH  30  31
ATOM     31  O   UNL     1     179.494 187.845 171.523  1.00  0.00    -0.394 OA
ATOM     32  H   UNL     1     179.886 187.961 170.622  1.00  0.00     0.210 HD
ENDBRANCH  30  31
ENDBRANCH  24  30
BRANCH  25  33
ATOM     33  O   UNL     1     176.674 186.576 168.630  1.00  0.00    -0.388 OA
ATOM     34  H   UNL     1     176.853 186.796 167.666  1.00  0.00     0.211 HD
ENDBRANCH  25  33
ENDBRANCH  11  20
BRANCH  10  35
ATOM     35  O   UNL     1     174.674 183.442 170.248  1.00  0.00    -0.507 OA
ATOM     36  H   UNL     1     174.914 184.419 170.114  1.00  0.00     0.293 HD
ENDBRANCH  10  35
TORSDOF 9
ENDMDL
MODEL 2
REMARK VINA RESULT:    -7.377      6.259      8.849
REMARK INTER + INTRA:         -11.059
REMARK INTER:                  -9.919
REMARK INTRA:                  -1.140
REMARK UNBOUND:                -1.095
REMARK SMILES O=c1c(-c2ccc(O)cc2)coc2c([C@@H]3O[C@@H](CO)[C@H](O)[C@H](O)[C@H]3O)c(O)ccc12
REMARK SMILES IDX 3 1 11 2 12 3 13 4 30 5 2 6 1 7 29 8 28 9 26 10 14 11 4 12
REMARK SMILES IDX 5 13 6 14 7 15 10 16 9 17 8 18 15 20 24 21 16 22 22 23 17 24
REMARK SMILES IDX 20 25 25 26 23 28 18 30 19 31 21 33 27 35
REMARK H PARENT 8 19 25 27 23 29 19 32 21 34 27 36
REMARK Flexibility Score: inf
ROOT
ATOM      1  C   UNL     1     182.164 179.923 174.778  1.00  0.00     0.065 A 
ATOM      2  C   UNL     1     181.392 179.118 173.919  1.00  0.00     0.208 A 
ATOM      3  O   UNL     1     181.929 178.543 172.845  1.00  0.00    -0.463 OA
ATOM      4  C   UNL     1     183.204 178.710 172.497  1.00  0.00     0.147 A 
ATOM      5  C   UNL     1     183.990 179.661 173.197  1.00  0.00     0.066 A 
ATOM      6  C   UNL     1     183.458 180.271 174.351  1.00  0.00     0.200 A 
ATOM      7  O   UNL     1     184.156 181.103 175.018  1.00  0.00    -0.288 OA
ATOM      8  C   UNL     1     185.283 179.951 172.750  1.00  0.00     0.020 A 
ATOM      9  C   UNL     1     185.841 179.219 171.711  1.00  0.00     0.047 A 
ATOM     10  C   UNL     1     185.151 178.142 171.143  1.00  0.00     0.125 A 
ATOM     11  C   UNL     1     183.790 177.878 171.496  1.00  0.00     0.069 A 
ENDROOT
BRANCH   1  12
ATOM     12  C   UNL     1     181.689 180.217 176.159  1.00  0.00    -0.011 A 
ATOM     13  C   UNL     1     180.905 181.351 176.429  1.00  0.00     0.013 A 
ATOM     14  C   UNL     1     180.251 181.481 177.662  1.00  0.00     0.047 A 
ATOM     15  C   UNL     1     180.382 180.491 178.633  1.00  0.00     0.115 A 
ATOM     16  C   UNL     1     181.870 179.250 177.178  1.00  0.00     0.013 A 
ATOM     17  C   UNL     1     181.266 179.420 178.420  1.00  0.00     0.047 A 
BRANCH  15  18
ATOM     18  O   UNL     1     179.590 180.529 179.798  1.00  0.00    -0.508 OA
ATOM     19  H   UNL     1     179.586 181.346 180.403  1.00  0.00     0.293 HD
ENDBRANCH  15  18
ENDBRANCH   1  12
BRANCH  11  20
ATOM     20  C   UNL     1     182.939 176.698 170.968  1.00  0.00     0.188 C 
ATOM     21  C   UNL     1     182.503 176.777 169.468  1.00  0.00     0.179 C 
ATOM     22  O   UNL     1     183.688 175.511 171.219  1.00  0.00    -0.362 OA
ATOM     23  C   UNL     1     181.869 175.471 168.955  1.00  0.00     0.177 C 
ATOM     24  C   UNL     1     182.990 174.318 170.917  1.00  0.00     0.176 C 
ATOM     25  C   UNL     1     182.679 174.234 169.407  1.00  0.00     0.177 C 
BRANCH  21  26
ATOM     26  O   UNL     1     181.568 177.814 169.315  1.00  0.00    -0.387 OA
ATOM     27  H   UNL     1     180.660 177.422 169.355  1.00  0.00     0.211 HD
ENDBRANCH  21  26
BRANCH  23  28
ATOM     28  O   UNL     1     181.799 175.539 167.538  1.00  0.00    -0.387 OA
ATOM     29  H   UNL     1     181.287 176.355 167.291  1.00  0.00     0.211 HD
ENDBRANCH  23  28
BRANCH  24  30
ATOM     30  C   UNL     1     181.773 174.071 171.842  1.00  0.00     0.191 C 
BRANCH  30  31
ATOM     31  O   UNL     1     181.117 172.890 171.460  1.00  0.00    -0.394 OA
ATOM     32  H   UNL     1     180.344 172.778 172.066  1.00  0.00     0.210 HD
ENDBRANCH  30  31
ENDBRANCH  24  30
BRANCH  25  33
ATOM     33  O   UNL     1     183.882 174.181 168.679  1.00  0.00    -0.388 OA
ATOM     34  H   UNL     1     183.713 173.591 167.884  1.00  0.00     0.211 HD
ENDBRANCH  25  33
ENDBRANCH  11  20
BRANCH  10  35
ATOM     35  O   UNL     1     185.887 177.299 170.321  1.00  0.00    -0.507 OA
ATOM     36  H   UNL     1     186.901 177.321 170.288  1.00  0.00     0.293 HD
ENDBRANCH  10  35
TORSDOF 9
ENDMDL
MODEL 3
REMARK VINA RESULT:    -6.885      4.788      7.444
REMARK INTER + INTRA:         -10.395
REMARK INTER:                  -9.564
REMARK INTRA:                  -0.831
REMARK UNBOUND:                -1.095
REMARK SMILES O=c1c(-c2ccc(O)cc2)coc2c([C@@H]3O[C@@H](CO)[C@H](O)[C@H](O)[C@H]3O)c(O)ccc12
REMARK SMILES IDX 3 1 11 2 12 3 13 4 30 5 2 6 1 7 29 8 28 9 26 10 14 11 4 12
REMARK SMILES IDX 5 13 6 14 7 15 10 16 9 17 8 18 15 20 24 21 16 22 22 23 17 24
REMARK SMILES IDX 20 25 25 26 23 28 18 30 19 31 21 33 27 35
REMARK H PARENT 8 19 25 27 23 29 19 32 21 34 27 36
REMARK Flexibility Score: inf
ROOT
ATOM      1  C   UNL     1     177.958 179.470 174.757  1.00  0.00     0.065 A 
ATOM      2  C   UNL     1     177.793 178.077 174.635  1.00  0.00     0.208 A 
ATOM      3  O   UNL     1     177.297 177.536 173.524  1.00  0.00    -0.463 OA
ATOM      4  C   UNL     1     176.901 178.264 172.480  1.00  0.00     0.147 A 
ATOM      5  C   UNL     1     176.850 179.676 172.604  1.00  0.00     0.066 A 
ATOM      6  C   UNL     1     177.388 180.280 173.759  1.00  0.00     0.200 A 
ATOM      7  O   UNL     1     177.386 181.549 173.880  1.00  0.00    -0.288 OA
ATOM      8  C   UNL     1     176.300 180.441 171.571  1.00  0.00     0.020 A 
ATOM      9  C   UNL     1     175.929 179.836 170.378  1.00  0.00     0.047 A 
ATOM     10  C   UNL     1     176.159 178.471 170.166  1.00  0.00     0.125 A 
ATOM     11  C   UNL     1     176.621 177.633 171.231  1.00  0.00     0.069 A 
ENDROOT
BRANCH   1  12
ATOM     12  C   UNL     1     178.868 180.029 175.795  1.00  0.00    -0.011 A 
ATOM     13  C   UNL     1     178.484 181.133 176.576  1.00  0.00     0.013 A 
ATOM     14  C   UNL     1     179.225 181.485 177.713  1.00  0.00     0.047 A 
ATOM     15  C   UNL     1     180.353 180.751 178.071  1.00  0.00     0.115 A 
ATOM     16  C   UNL     1     180.054 179.332 176.130  1.00  0.00     0.013 A 
ATOM     17  C   UNL     1     180.816 179.729 177.225  1.00  0.00     0.047 A 
BRANCH  15  18
ATOM     18  O   UNL     1     180.995 180.989 179.303  1.00  0.00    -0.508 OA
ATOM     19  H   UNL     1     181.571 180.273 179.740  1.00  0.00     0.293 HD
ENDBRANCH  15  18
ENDBRANCH   1  12
BRANCH  11  20
ATOM     20  C   UNL     1     176.949 176.126 171.108  1.00  0.00     0.188 C 
ATOM     21  C   UNL     1     175.777 175.136 171.413  1.00  0.00     0.179 C 
ATOM     22  O   UNL     1     177.456 175.925 169.791  1.00  0.00    -0.362 OA
ATOM     23  C   UNL     1     176.108 173.678 171.044  1.00  0.00     0.177 C 
ATOM     24  C   UNL     1     177.935 174.615 169.554  1.00  0.00     0.176 C 
ATOM     25  C   UNL     1     176.788 173.587 169.659  1.00  0.00     0.177 C 
BRANCH  21  26
ATOM     26  O   UNL     1     175.475 175.189 172.784  1.00  0.00    -0.387 OA
ATOM     27  H   UNL     1     175.730 176.083 173.123  1.00  0.00     0.211 HD
ENDBRANCH  21  26
BRANCH  23  28
ATOM     28  O   UNL     1     174.901 172.931 171.064  1.00  0.00    -0.387 OA
ATOM     29  H   UNL     1     174.177 173.500 170.685  1.00  0.00     0.211 HD
ENDBRANCH  23  28
BRANCH  24  30
ATOM     30  C   UNL     1     179.194 174.266 170.385  1.00  0.00     0.191 C 
BRANCH  30  31
ATOM     31  O   UNL     1     179.375 172.873 170.411  1.00  0.00    -0.394 OA
ATOM     32  H   UNL     1     179.234 172.546 169.488  1.00  0.00     0.210 HD
ENDBRANCH  30  31
ENDBRANCH  24  30
BRANCH  25  33
ATOM     33  O   UNL     1     175.831 173.842 168.659  1.00  0.00    -0.388 OA
ATOM     34  H   UNL     1     176.180 173.429 167.812  1.00  0.00     0.211 HD
ENDBRANCH  25  33
ENDBRANCH  11  20
BRANCH  10  35
ATOM     35  O   UNL     1     176.024 178.016 168.862  1.00  0.00    -0.507 OA
ATOM     36  H   UNL     1     176.240 178.596 168.058  1.00  0.00     0.293 HD
ENDBRANCH  10  35
TORSDOF 9
ENDMDL
MODEL 4
REMARK VINA RESULT:    -6.868      4.643      6.170
REMARK INTER + INTRA:         -10.373
REMARK INTER:                  -9.468
REMARK INTRA:                  -0.905
REMARK UNBOUND:                -1.095
REMARK SMILES O=c1c(-c2ccc(O)cc2)coc2c([C@@H]3O[C@@H](CO)[C@H](O)[C@H](O)[C@H]3O)c(O)ccc12
REMARK SMILES IDX 3 1 11 2 12 3 13 4 30 5 2 6 1 7 29 8 28 9 26 10 14 11 4 12
REMARK SMILES IDX 5 13 6 14 7 15 10 16 9 17 8 18 15 20 24 21 16 22 22 23 17 24
REMARK SMILES IDX 20 25 25 26 23 28 18 30 19 31 21 33 27 35
REMARK H PARENT 8 19 25 27 23 29 19 32 21 34 27 36
REMARK Flexibility Score: inf
ROOT
ATOM      1  C   UNL     1     182.727 181.257 174.696  1.00  0.00     0.065 A 
ATOM      2  C   UNL     1     182.905 182.649 174.580  1.00  0.00     0.208 A 
ATOM      3  O   UNL     1     183.394 183.191 173.467  1.00  0.00    -0.463 OA
ATOM      4  C   UNL     1     183.773 182.466 172.416  1.00  0.00     0.147 A 
ATOM      5  C   UNL     1     183.811 181.053 172.531  1.00  0.00     0.066 A 
ATOM      6  C   UNL     1     183.280 180.447 173.688  1.00  0.00     0.200 A 
ATOM      7  O   UNL     1     183.271 179.178 173.802  1.00  0.00    -0.288 OA
ATOM      8  C   UNL     1     184.344 180.289 171.488  1.00  0.00     0.020 A 
ATOM      9  C   UNL     1     184.709 180.897 170.296  1.00  0.00     0.047 A 
ATOM     10  C   UNL     1     184.490 182.265 170.093  1.00  0.00     0.125 A 
ATOM     11  C   UNL     1     184.047 183.101 171.167  1.00  0.00     0.069 A 
ENDROOT
BRANCH   1  12
ATOM     12  C   UNL     1     181.823 180.701 175.741  1.00  0.00    -0.011 A 
ATOM     13  C   UNL     1     182.243 179.656 176.581  1.00  0.00     0.013 A 
ATOM     14  C   UNL     1     181.494 179.320 177.718  1.00  0.00     0.047 A 
ATOM     15  C   UNL     1     180.322 180.010 178.016  1.00  0.00     0.115 A 
ATOM     16  C   UNL     1     180.595 181.351 176.016  1.00  0.00     0.013 A 
ATOM     17  C   UNL     1     179.829 180.967 177.113  1.00  0.00     0.047 A 
BRANCH  15  18
ATOM     18  O   UNL     1     179.665 179.798 179.244  1.00  0.00    -0.508 OA
ATOM     19  H   UNL     1     180.190 179.607 180.094  1.00  0.00     0.293 HD
ENDBRANCH  15  18
ENDBRANCH   1  12
BRANCH  11  20
ATOM     20  C   UNL     1     183.732 184.612 171.056  1.00  0.00     0.188 C 
ATOM     21  C   UNL     1     184.930 185.588 171.299  1.00  0.00     0.179 C 
ATOM     22  O   UNL     1     183.162 184.816 169.765  1.00  0.00    -0.362 OA
ATOM     23  C   UNL     1     184.600 187.049 170.942  1.00  0.00     0.177 C 
ATOM     24  C   UNL     1     182.689 186.132 169.548  1.00  0.00     0.176 C 
ATOM     25  C   UNL     1     183.852 187.145 169.592  1.00  0.00     0.177 C 
BRANCH  21  26
ATOM     26  O   UNL     1     185.300 185.534 172.653  1.00  0.00    -0.387 OA
ATOM     27  H   UNL     1     185.085 186.406 173.068  1.00  0.00     0.211 HD
ENDBRANCH  21  26
BRANCH  23  28
ATOM     28  O   UNL     1     185.816 187.780 170.899  1.00  0.00    -0.387 OA
ATOM     29  H   UNL     1     186.006 188.122 171.814  1.00  0.00     0.211 HD
ENDBRANCH  23  28
BRANCH  24  30
ATOM     30  C   UNL     1     181.478 186.499 170.440  1.00  0.00     0.191 C 
BRANCH  30  31
ATOM     31  O   UNL     1     181.314 187.894 170.468  1.00  0.00    -0.394 OA
ATOM     32  H   UNL     1     180.780 188.107 171.273  1.00  0.00     0.210 HD
ENDBRANCH  30  31
ENDBRANCH  24  30
BRANCH  25  33
ATOM     33  O   UNL     1     184.755 186.875 168.546  1.00  0.00    -0.388 OA
ATOM     34  H   UNL     1     185.220 186.017 168.780  1.00  0.00     0.211 HD
ENDBRANCH  25  33
ENDBRANCH  11  20
BRANCH  10  35
ATOM     35  O   UNL     1     184.616 182.726 168.790  1.00  0.00    -0.507 OA
ATOM     36  H   UNL     1     185.149 182.227 168.086  1.00  0.00     0.293 HD
ENDBRANCH  10  35
TORSDOF 9
ENDMDL
MODEL 5
REMARK VINA RESULT:    -6.623      6.081      8.337
REMARK INTER + INTRA:         -10.041
REMARK INTER:                  -9.786
REMARK INTRA:                  -0.255
REMARK UNBOUND:                -1.095
REMARK SMILES O=c1c(-c2ccc(O)cc2)coc2c([C@@H]3O[C@@H](CO)[C@H](O)[C@H](O)[C@H]3O)c(O)ccc12
REMARK SMILES IDX 3 1 11 2 12 3 13 4 30 5 2 6 1 7 29 8 28 9 26 10 14 11 4 12
REMARK SMILES IDX 5 13 6 14 7 15 10 16 9 17 8 18 15 20 24 21 16 22 22 23 17 24
REMARK SMILES IDX 20 25 25 26 23 28 18 30 19 31 21 33 27 35
REMARK H PARENT 8 19 25 27 23 29 19 32 21 34 27 36
REMARK Flexibility Score: inf
ROOT
ATOM      1  C   UNL     1     182.106 179.893 174.763  1.00  0.00     0.065 A 
ATOM      2  C   UNL     1     181.227 179.240 173.878  1.00  0.00     0.208 A 
ATOM      3  O   UNL     1     181.672 178.658 172.767  1.00  0.00    -0.463 OA
ATOM      4  C   UNL     1     182.953 178.681 172.402  1.00  0.00     0.147 A 
ATOM      5  C   UNL     1     183.863 179.486 173.134  1.00  0.00     0.066 A 
ATOM      6  C   UNL     1     183.428 180.097 174.328  1.00  0.00     0.200 A 
ATOM      7  O   UNL     1     184.236 180.796 175.022  1.00  0.00    -0.288 OA
ATOM      8  C   UNL     1     185.176 179.633 172.677  1.00  0.00     0.020 A 
ATOM      9  C   UNL     1     185.623 178.893 171.592  1.00  0.00     0.047 A 
ATOM     10  C   UNL     1     184.794 177.944 170.983  1.00  0.00     0.125 A 
ATOM     11  C   UNL     1     183.414 177.836 171.349  1.00  0.00     0.069 A 
ENDROOT
BRANCH   1  12
ATOM     12  C   UNL     1     181.691 180.171 176.165  1.00  0.00    -0.011 A 
ATOM     13  C   UNL     1     180.900 181.290 176.478  1.00  0.00     0.013 A 
ATOM     14  C   UNL     1     180.302 181.401 177.741  1.00  0.00     0.047 A 
ATOM     15  C   UNL     1     180.496 180.409 178.699  1.00  0.00     0.115 A 
ATOM     16  C   UNL     1     181.936 179.202 177.169  1.00  0.00     0.013 A 
ATOM     17  C   UNL     1     181.388 179.355 178.439  1.00  0.00     0.047 A 
BRANCH  15  18
ATOM     18  O   UNL     1     179.758 180.426 179.900  1.00  0.00    -0.508 OA
ATOM     19  H   UNL     1     178.928 181.005 179.997  1.00  0.00     0.293 HD
ENDBRANCH  15  18
ENDBRANCH   1  12
BRANCH  11  20
ATOM     20  C   UNL     1     182.413 176.803 170.778  1.00  0.00     0.188 C 
ATOM     21  C   UNL     1     182.456 175.374 171.414  1.00  0.00     0.179 C 
ATOM     22  O   UNL     1     181.116 177.379 170.905  1.00  0.00    -0.362 OA
ATOM     23  C   UNL     1     181.285 174.480 170.966  1.00  0.00     0.177 C 
ATOM     24  C   UNL     1     180.088 176.615 170.303  1.00  0.00     0.176 C 
ATOM     25  C   UNL     1     179.944 175.247 171.001  1.00  0.00     0.177 C 
BRANCH  21  26
ATOM     26  O   UNL     1     183.659 174.745 171.053  1.00  0.00    -0.387 OA
ATOM     27  H   UNL     1     184.409 175.326 171.333  1.00  0.00     0.211 HD
ENDBRANCH  21  26
BRANCH  23  28
ATOM     28  O   UNL     1     181.242 173.346 171.820  1.00  0.00    -0.387 OA
ATOM     29  H   UNL     1     180.430 173.418 172.391  1.00  0.00     0.211 HD
ENDBRANCH  23  28
BRANCH  24  30
ATOM     30  C   UNL     1     180.204 176.545 168.760  1.00  0.00     0.191 C 
BRANCH  30  31
ATOM     31  O   UNL     1     180.225 177.844 168.225  1.00  0.00    -0.394 OA
ATOM     32  H   UNL     1     179.499 177.894 167.556  1.00  0.00     0.210 HD
ENDBRANCH  30  31
ENDBRANCH  24  30
BRANCH  25  33
ATOM     33  O   UNL     1     179.558 175.437 172.341  1.00  0.00    -0.388 OA
ATOM     34  H   UNL     1     179.848 174.619 172.845  1.00  0.00     0.211 HD
ENDBRANCH  25  33
ENDBRANCH  11  20
BRANCH  10  35
ATOM     35  O   UNL     1     185.405 177.059 170.105  1.00  0.00    -0.507 OA
ATOM     36  H   UNL     1     185.252 176.057 170.149  1.00  0.00     0.293 HD
ENDBRANCH  10  35
TORSDOF 9
ENDMDL
MODEL 6
REMARK VINA RESULT:    -6.616      1.235      2.340
REMARK INTER + INTRA:         -10.032
REMARK INTER:                  -9.883
REMARK INTRA:                  -0.149
REMARK UNBOUND:                -1.095
REMARK SMILES O=c1c(-c2ccc(O)cc2)coc2c([C@@H]3O[C@@H](CO)[C@H](O)[C@H](O)[C@H]3O)c(O)ccc12
REMARK SMILES IDX 3 1 11 2 12 3 13 4 30 5 2 6 1 7 29 8 28 9 26 10 14 11 4 12
REMARK SMILES IDX 5 13 6 14 7 15 10 16 9 17 8 18 15 20 24 21 16 22 22 23 17 24
REMARK SMILES IDX 20 25 25 26 23 28 18 30 19 31 21 33 27 35
REMARK H PARENT 8 19 25 27 23 29 19 32 21 34 27 36
REMARK Flexibility Score: inf
ROOT
ATOM      1  C   UNL     1     178.621 180.821 174.770  1.00  0.00     0.065 A 
ATOM      2  C   UNL     1     179.498 181.496 173.900  1.00  0.00     0.208 A 
ATOM      3  O   UNL     1     179.056 182.075 172.786  1.00  0.00    -0.463 OA
ATOM      4  C   UNL     1     177.780 182.031 172.406  1.00  0.00     0.147 A 
ATOM      5  C   UNL     1     176.876 181.205 173.123  1.00  0.00     0.066 A 
ATOM      6  C   UNL     1     177.308 180.596 174.318  1.00  0.00     0.200 A 
ATOM      7  O   UNL     1     176.505 179.877 174.999  1.00  0.00    -0.288 OA
ATOM      8  C   UNL     1     175.571 181.036 172.649  1.00  0.00     0.020 A 
ATOM      9  C   UNL     1     175.124 181.775 171.563  1.00  0.00     0.047 A 
ATOM     10  C   UNL     1     175.943 182.743 170.969  1.00  0.00     0.125 A 
ATOM     11  C   UNL     1     177.315 182.874 171.352  1.00  0.00     0.069 A 
ENDROOT
BRANCH   1  12
ATOM     12  C   UNL     1     179.025 180.542 176.176  1.00  0.00    -0.011 A 
ATOM     13  C   UNL     1     179.790 179.409 176.498  1.00  0.00     0.013 A 
ATOM     14  C   UNL     1     180.381 179.293 177.765  1.00  0.00     0.047 A 
ATOM     15  C   UNL     1     180.204 180.294 178.716  1.00  0.00     0.115 A 
ATOM     16  C   UNL     1     178.796 181.521 177.173  1.00  0.00     0.013 A 
ATOM     17  C   UNL     1     179.336 181.365 178.446  1.00  0.00     0.047 A 
BRANCH  15  18
ATOM     18  O   UNL     1     180.936 180.268 179.920  1.00  0.00    -0.508 OA
ATOM     19  H   UNL     1     180.706 180.896 180.687  1.00  0.00     0.293 HD
ENDBRANCH  15  18
ENDBRANCH   1  12
BRANCH  11  20
ATOM     20  C   UNL     1     178.304 183.929 170.800  1.00  0.00     0.188 C 
ATOM     21  C   UNL     1     178.166 185.375 171.378  1.00  0.00     0.179 C 
ATOM     22  O   UNL     1     179.614 183.414 171.020  1.00  0.00    -0.362 OA
ATOM     23  C   UNL     1     179.323 186.303 170.963  1.00  0.00     0.177 C 
ATOM     24  C   UNL     1     180.643 184.200 170.447  1.00  0.00     0.176 C 
ATOM     25  C   UNL     1     180.691 185.597 171.101  1.00  0.00     0.177 C 
BRANCH  21  26
ATOM     26  O   UNL     1     176.960 185.939 170.927  1.00  0.00    -0.387 OA
ATOM     27  H   UNL     1     176.325 185.959 171.686  1.00  0.00     0.211 HD
ENDBRANCH  21  26
BRANCH  23  28
ATOM     28  O   UNL     1     179.270 187.467 171.775  1.00  0.00    -0.387 OA
ATOM     29  H   UNL     1     178.413 187.938 171.588  1.00  0.00     0.211 HD
ENDBRANCH  23  28
BRANCH  24  30
ATOM     30  C   UNL     1     180.612 184.211 168.899  1.00  0.00     0.191 C 
BRANCH  30  31
ATOM     31  O   UNL     1     181.460 185.221 168.414  1.00  0.00    -0.394 OA
ATOM     32  H   UNL     1     180.924 186.051 168.370  1.00  0.00     0.210 HD
ENDBRANCH  30  31
ENDBRANCH  24  30
BRANCH  25  33
ATOM     33  O   UNL     1     181.007 185.471 172.466  1.00  0.00    -0.388 OA
ATOM     34  H   UNL     1     180.818 186.361 172.891  1.00  0.00     0.211 HD
ENDBRANCH  25  33
ENDBRANCH  11  20
BRANCH  10  35
ATOM     35  O   UNL     1     175.326 183.621 170.089  1.00  0.00    -0.507 OA
ATOM     36  H   UNL     1     175.779 183.951 169.243  1.00  0.00     0.293 HD
ENDBRANCH  10  35
TORSDOF 9
ENDMDL
MODEL 7
REMARK VINA RESULT:    -6.545      3.174      4.028
REMARK INTER + INTRA:          -9.935
REMARK INTER:                  -8.806
REMARK INTRA:                  -1.129
REMARK UNBOUND:                -1.095
REMARK SMILES O=c1c(-c2ccc(O)cc2)coc2c([C@@H]3O[C@@H](CO)[C@H](O)[C@H](O)[C@H]3O)c(O)ccc12
REMARK SMILES IDX 3 1 11 2 12 3 13 4 30 5 2 6 1 7 29 8 28 9 26 10 14 11 4 12
REMARK SMILES IDX 5 13 6 14 7 15 10 16 9 17 8 18 15 20 24 21 16 22 22 23 17 24
REMARK SMILES IDX 20 25 25 26 23 28 18 30 19 31 21 33 27 35
REMARK H PARENT 8 19 25 27 23 29 19 32 21 34 27 36
REMARK Flexibility Score: inf
ROOT
ATOM      1  C   UNL     1     179.876 181.638 175.106  1.00  0.00     0.065 A 
ATOM      2  C   UNL     1     181.030 181.598 174.301  1.00  0.00     0.208 A 
ATOM      3  O   UNL     1     181.168 182.405 173.251  1.00  0.00    -0.463 OA
ATOM      4  C   UNL     1     180.226 183.271 172.877  1.00  0.00     0.147 A 
ATOM      5  C   UNL     1     178.960 183.230 173.515  1.00  0.00     0.066 A 
ATOM      6  C   UNL     1     178.789 182.402 174.643  1.00  0.00     0.200 A 
ATOM      7  O   UNL     1     177.672 182.374 175.255  1.00  0.00    -0.288 OA
ATOM      8  C   UNL     1     177.920 184.032 173.035  1.00  0.00     0.020 A 
ATOM      9  C   UNL     1     178.160 184.957 172.029  1.00  0.00     0.047 A 
ATOM     10  C   UNL     1     179.452 185.149 171.527  1.00  0.00     0.125 A 
ATOM     11  C   UNL     1     180.523 184.280 171.913  1.00  0.00     0.069 A 
ENDROOT
BRANCH   1  12
ATOM     12  C   UNL     1     179.895 181.054 176.476  1.00  0.00    -0.011 A 
ATOM     13  C   UNL     1     179.967 179.665 176.669  1.00  0.00     0.013 A 
ATOM     14  C   UNL     1     180.246 179.142 177.941  1.00  0.00     0.047 A 
ATOM     15  C   UNL     1     180.443 179.996 179.023  1.00  0.00     0.115 A 
ATOM     16  C   UNL     1     180.030 181.911 177.596  1.00  0.00     0.013 A 
ATOM     17  C   UNL     1     180.245 181.378 178.863  1.00  0.00     0.047 A 
BRANCH  15  18
ATOM     18  O   UNL     1     180.897 179.488 180.256  1.00  0.00    -0.508 OA
ATOM     19  H   UNL     1     181.140 180.112 181.022  1.00  0.00     0.293 HD
ENDBRANCH  15  18
ENDBRANCH   1  12
BRANCH  11  20
ATOM     20  C   UNL     1     181.996 184.417 171.459  1.00  0.00     0.188 C 
ATOM     21  C   UNL     1     182.375 183.710 170.116  1.00  0.00     0.179 C 
ATOM     22  O   UNL     1     182.276 185.813 171.396  1.00  0.00    -0.362 OA
ATOM     23  C   UNL     1     183.782 184.084 169.614  1.00  0.00     0.177 C 
ATOM     24  C   UNL     1     183.631 186.116 171.125  1.00  0.00     0.176 C 
ATOM     25  C   UNL     1     184.035 185.604 169.726  1.00  0.00     0.177 C 
BRANCH  21  26
ATOM     26  O   UNL     1     182.324 182.317 170.300  1.00  0.00    -0.387 OA
ATOM     27  H   UNL     1     183.219 181.946 170.100  1.00  0.00     0.211 HD
ENDBRANCH  21  26
BRANCH  23  28
ATOM     28  O   UNL     1     183.901 183.649 168.267  1.00  0.00    -0.387 OA
ATOM     29  H   UNL     1     184.507 184.278 167.790  1.00  0.00     0.211 HD
ENDBRANCH  23  28
BRANCH  24  30
ATOM     30  C   UNL     1     184.590 185.699 172.268  1.00  0.00     0.191 C 
BRANCH  30  31
ATOM     31  O   UNL     1     184.018 186.022 173.509  1.00  0.00    -0.394 OA
ATOM     32  H   UNL     1     183.083 185.701 173.490  1.00  0.00     0.210 HD
ENDBRANCH  30  31
ENDBRANCH  24  30
BRANCH  25  33
ATOM     33  O   UNL     1     183.280 186.270 168.742  1.00  0.00    -0.388 OA
ATOM     34  H   UNL     1     183.275 187.243 168.991  1.00  0.00     0.211 HD
ENDBRANCH  25  33
ENDBRANCH  11  20
BRANCH  10  35
ATOM     35  O   UNL     1     179.651 186.275 170.740  1.00  0.00    -0.507 OA
ATOM     36  H   UNL     1     178.881 186.821 170.369  1.00  0.00     0.293 HD
ENDBRANCH  10  35
TORSDOF 9
ENDMDL
MODEL 8
REMARK VINA RESULT:    -6.534      5.532      7.683
REMARK INTER + INTRA:          -9.921
REMARK INTER:                  -8.850
REMARK INTRA:                  -1.071
REMARK UNBOUND:                -1.095
REMARK SMILES O=c1c(-c2ccc(O)cc2)coc2c([C@@H]3O[C@@H](CO)[C@H](O)[C@H](O)[C@H]3O)c(O)ccc12
REMARK SMILES IDX 3 1 11 2 12 3 13 4 30 5 2 6 1 7 29 8 28 9 26 10 14 11 4 12
REMARK SMILES IDX 5 13 6 14 7 15 10 16 9 17 8 18 15 20 24 21 16 22 22 23 17 24
REMARK SMILES IDX 20 25 25 26 23 28 18 30 19 31 21 33 27 35
REMARK H PARENT 8 19 25 27 23 29 19 32 21 34 27 36
REMARK Flexibility Score: inf
ROOT
ATOM      1  C   UNL     1     180.823 179.096 175.117  1.00  0.00     0.065 A 
ATOM      2  C   UNL     1     179.680 179.136 174.297  1.00  0.00     0.208 A 
ATOM      3  O   UNL     1     179.543 178.307 173.263  1.00  0.00    -0.463 OA
ATOM      4  C   UNL     1     180.476 177.420 172.920  1.00  0.00     0.147 A 
ATOM      5  C   UNL     1     181.734 177.456 173.572  1.00  0.00     0.066 A 
ATOM      6  C   UNL     1     181.904 178.307 174.684  1.00  0.00     0.200 A 
ATOM      7  O   UNL     1     183.014 178.332 175.309  1.00  0.00    -0.288 OA
ATOM      8  C   UNL     1     182.769 176.629 173.123  1.00  0.00     0.020 A 
ATOM      9  C   UNL     1     182.527 175.686 172.135  1.00  0.00     0.047 A 
ATOM     10  C   UNL     1     181.238 175.502 171.621  1.00  0.00     0.125 A 
ATOM     11  C   UNL     1     180.175 176.394 171.974  1.00  0.00     0.069 A 
ENDROOT
BRANCH   1  12
ATOM     12  C   UNL     1     180.796 179.711 176.473  1.00  0.00    -0.011 A 
ATOM     13  C   UNL     1     180.641 181.098 176.636  1.00  0.00     0.013 A 
ATOM     14  C   UNL     1     180.356 181.632 177.901  1.00  0.00     0.047 A 
ATOM     15  C   UNL     1     180.236 180.794 179.006  1.00  0.00     0.115 A 
ATOM     16  C   UNL     1     180.738 178.875 177.615  1.00  0.00     0.013 A 
ATOM     17  C   UNL     1     180.516 179.424 178.874  1.00  0.00     0.047 A 
BRANCH  15  18
ATOM     18  O   UNL     1     179.777 181.302 180.238  1.00  0.00    -0.508 OA
ATOM     19  H   UNL     1     178.852 181.068 180.590  1.00  0.00     0.293 HD
ENDBRANCH  15  18
ENDBRANCH   1  12
BRANCH  11  20
ATOM     20  C   UNL     1     178.706 176.268 171.506  1.00  0.00     0.188 C 
ATOM     21  C   UNL     1     178.339 177.005 170.176  1.00  0.00     0.179 C 
ATOM     22  O   UNL     1     178.426 174.874 171.410  1.00  0.00    -0.362 OA
ATOM     23  C   UNL     1     176.936 176.644 169.653  1.00  0.00     0.177 C 
ATOM     24  C   UNL     1     177.073 174.579 171.120  1.00  0.00     0.176 C 
ATOM     25  C   UNL     1     176.680 175.122 169.730  1.00  0.00     0.177 C 
BRANCH  21  26
ATOM     26  O   UNL     1     178.390 178.393 170.390  1.00  0.00    -0.387 OA
ATOM     27  H   UNL     1     177.516 178.779 170.130  1.00  0.00     0.211 HD
ENDBRANCH  21  26
BRANCH  23  28
ATOM     28  O   UNL     1     176.829 177.108 168.316  1.00  0.00    -0.387 OA
ATOM     29  H   UNL     1     177.720 177.449 168.032  1.00  0.00     0.211 HD
ENDBRANCH  23  28
BRANCH  24  30
ATOM     30  C   UNL     1     176.105 174.972 172.264  1.00  0.00     0.191 C 
BRANCH  30  31
ATOM     31  O   UNL     1     176.689 174.671 173.505  1.00  0.00    -0.394 OA
ATOM     32  H   UNL     1     177.471 175.267 173.609  1.00  0.00     0.210 HD
ENDBRANCH  30  31
ENDBRANCH  24  30
BRANCH  25  33
ATOM     33  O   UNL     1     177.443 174.477 168.738  1.00  0.00    -0.388 OA
ATOM     34  H   UNL     1     177.465 173.502 168.978  1.00  0.00     0.211 HD
ENDBRANCH  25  33
ENDBRANCH  11  20
BRANCH  10  35
ATOM     35  O   UNL     1     181.032 174.361 170.857  1.00  0.00    -0.507 OA
ATOM     36  H   UNL     1     181.788 173.887 170.374  1.00  0.00     0.293 HD
ENDBRANCH  10  35
TORSDOF 9
ENDMDL
MODEL 9
REMARK VINA RESULT:    -6.466      5.544      8.738
REMARK INTER + INTRA:          -9.829
REMARK INTER:                  -8.743
REMARK INTRA:                  -1.086
REMARK UNBOUND:                -1.095
REMARK SMILES O=c1c(-c2ccc(O)cc2)coc2c([C@@H]3O[C@@H](CO)[C@H](O)[C@H](O)[C@H]3O)c(O)ccc12
REMARK SMILES IDX 3 1 11 2 12 3 13 4 30 5 2 6 1 7 29 8 28 9 26 10 14 11 4 12
REMARK SMILES IDX 5 13 6 14 7 15 10 16 9 17 8 18 15 20 24 21 16 22 22 23 17 24
REMARK SMILES IDX 20 25 25 26 23 28 18 30 19 31 21 33 27 35
REMARK H PARENT 8 19 25 27 23 29 19 32 21 34 27 36
REMARK Flexibility Score: inf
ROOT
ATOM      1  C   UNL     1     182.438 180.920 173.918  1.00  0.00     0.065 A 
ATOM      2  C   UNL     1     182.976 179.961 173.039  1.00  0.00     0.208 A 
ATOM      3  O   UNL     1     182.510 178.714 173.009  1.00  0.00    -0.463 OA
ATOM      4  C   UNL     1     181.541 178.285 173.817  1.00  0.00     0.147 A 
ATOM      5  C   UNL     1     181.089 179.132 174.861  1.00  0.00     0.066 A 
ATOM      6  C   UNL     1     181.547 180.465 174.906  1.00  0.00     0.200 A 
ATOM      7  O   UNL     1     181.129 181.256 175.814  1.00  0.00    -0.288 OA
ATOM      8  C   UNL     1     180.178 178.642 175.802  1.00  0.00     0.020 A 
ATOM      9  C   UNL     1     179.620 177.382 175.640  1.00  0.00     0.047 A 
ATOM     10  C   UNL     1     179.904 176.613 174.506  1.00  0.00     0.125 A 
ATOM     11  C   UNL     1     180.908 177.029 173.573  1.00  0.00     0.069 A 
ENDROOT
BRANCH   1  12
ATOM     12  C   UNL     1     182.661 182.371 173.672  1.00  0.00    -0.011 A 
ATOM     13  C   UNL     1     183.755 183.043 174.245  1.00  0.00     0.013 A 
ATOM     14  C   UNL     1     184.102 184.329 173.805  1.00  0.00     0.047 A 
ATOM     15  C   UNL     1     183.360 184.953 172.806  1.00  0.00     0.115 A 
ATOM     16  C   UNL     1     181.873 183.043 172.706  1.00  0.00     0.013 A 
ATOM     17  C   UNL     1     182.191 184.342 172.322  1.00  0.00     0.047 A 
BRANCH  15  18
ATOM     18  O   UNL     1     183.808 186.163 172.239  1.00  0.00    -0.508 OA
ATOM     19  H   UNL     1     184.619 186.186 171.625  1.00  0.00     0.293 HD
ENDBRANCH  15  18
ENDBRANCH   1  12
BRANCH  11  20
ATOM     20  C   UNL     1     181.281 176.288 172.267  1.00  0.00     0.188 C 
ATOM     21  C   UNL     1     182.553 175.380 172.327  1.00  0.00     0.179 C 
ATOM     22  O   UNL     1     180.134 175.534 171.885  1.00  0.00    -0.362 OA
ATOM     23  C   UNL     1     182.724 174.499 171.075  1.00  0.00     0.177 C 
ATOM     24  C   UNL     1     180.259 174.896 170.627  1.00  0.00     0.176 C 
ATOM     25  C   UNL     1     181.388 173.844 170.659  1.00  0.00     0.177 C 
BRANCH  21  26
ATOM     26  O   UNL     1     183.692 176.192 172.458  1.00  0.00    -0.387 OA
ATOM     27  H   UNL     1     184.266 175.809 173.166  1.00  0.00     0.211 HD
ENDBRANCH  21  26
BRANCH  23  28
ATOM     28  O   UNL     1     183.705 173.512 171.359  1.00  0.00    -0.387 OA
ATOM     29  H   UNL     1     184.229 173.347 170.529  1.00  0.00     0.211 HD
ENDBRANCH  23  28
BRANCH  24  30
ATOM     30  C   UNL     1     180.336 175.892 169.444  1.00  0.00     0.191 C 
BRANCH  30  31
ATOM     31  O   UNL     1     179.119 176.582 169.324  1.00  0.00    -0.394 OA
ATOM     32  H   UNL     1     179.265 177.318 168.680  1.00  0.00     0.210 HD
ENDBRANCH  30  31
ENDBRANCH  24  30
BRANCH  25  33
ATOM     33  O   UNL     1     181.065 172.831 171.582  1.00  0.00    -0.388 OA
ATOM     34  H   UNL     1     181.218 173.215 172.497  1.00  0.00     0.211 HD
ENDBRANCH  25  33
ENDBRANCH  11  20
BRANCH  10  35
ATOM     35  O   UNL     1     179.094 175.508 174.287  1.00  0.00    -0.507 OA
ATOM     36  H   UNL     1     178.641 175.334 173.395  1.00  0.00     0.293 HD
ENDBRANCH  10  35
TORSDOF 9
ENDMDL
