MODEL 1
REMARK VINA RESULT:    -7.672      0.000      0.000
REMARK INTER + INTRA:         -11.767
REMARK INTER:                 -11.036
REMARK INTRA:                  -0.731
REMARK UNBOUND:                -0.731
REMARK SMILES O=c1c(O[C@H]2O[C@@H](CO)[C@@H](O)[C@H](O)[C@H]2O)c(-c2ccc(O)cc2)oc2cc(O)cc(O)c12
REMARK SMILES IDX 4 1 3 2 16 3 24 4 2 5 25 6 1 7 32 8 26 9 30 10 27 11 29 12
REMARK SMILES IDX 17 13 18 14 19 15 20 16 23 17 22 18 21 19 31 21 28 23 5 25
REMARK SMILES IDX 14 26 6 27 12 28 7 29 10 30 15 31 13 33 8 35 9 36 11 38
REMARK H PARENT 21 20 31 22 28 24 15 32 13 34 9 37 11 39
REMARK Flexibility Score: inf
ROOT
ATOM      1  O   UNL     1     -37.408   5.336  82.176  1.00  0.00    -0.454 OA
ENDROOT
BRANCH   1   2
ATOM      2  C   UNL     1     -38.192   4.829  81.122  1.00  0.00     0.214 A 
ATOM      3  C   UNL     1     -37.645   4.807  79.824  1.00  0.00     0.180 A 
ATOM      4  O   UNL     1     -38.372   4.377  78.797  1.00  0.00    -0.452 OA
ATOM      5  C   UNL     1     -39.512   4.357  81.300  1.00  0.00     0.239 A 
ATOM      6  C   UNL     1     -39.615   3.933  78.921  1.00  0.00     0.146 A 
ATOM      7  O   UNL     1     -40.025   4.333  82.450  1.00  0.00    -0.285 OA
ATOM      8  C   UNL     1     -40.245   3.900  80.185  1.00  0.00     0.111 A 
ATOM      9  C   UNL     1     -40.296   3.496  77.781  1.00  0.00     0.094 A 
ATOM     10  C   UNL     1     -41.574   3.413  80.279  1.00  0.00     0.134 A 
ATOM     11  C   UNL     1     -41.603   3.020  77.877  1.00  0.00     0.123 A 
ATOM     12  C   UNL     1     -42.239   2.979  79.123  1.00  0.00     0.093 A 
BRANCH   3  13
ATOM     13  C   UNL     1     -36.278   5.303  79.544  1.00  0.00     0.021 A 
ATOM     14  C   UNL     1     -36.096   6.634  79.138  1.00  0.00     0.016 A 
ATOM     15  C   UNL     1     -34.813   7.122  78.867  1.00  0.00     0.047 A 
ATOM     16  C   UNL     1     -33.700   6.280  78.986  1.00  0.00     0.115 A 
ATOM     17  C   UNL     1     -35.160   4.457  79.639  1.00  0.00     0.016 A 
ATOM     18  C   UNL     1     -33.878   4.947  79.370  1.00  0.00     0.047 A 
BRANCH  16  19
ATOM     19  O   UNL     1     -32.417   6.754  78.723  1.00  0.00    -0.508 OA
ATOM     20  H   UNL     1     -31.611   6.140  78.745  1.00  0.00     0.293 HD
ENDBRANCH  16  19
ENDBRANCH   3  13
BRANCH  10  21
ATOM     21  O   UNL     1     -42.235   3.361  81.507  1.00  0.00    -0.507 OA
ATOM     22  H   UNL     1     -42.605   4.195  81.949  1.00  0.00     0.293 HD
ENDBRANCH  10  21
BRANCH  11  23
ATOM     23  O   UNL     1     -42.265   2.588  76.729  1.00  0.00    -0.508 OA
ATOM     24  H   UNL     1     -43.270   2.669  76.634  1.00  0.00     0.293 HD
ENDBRANCH  11  23
ENDBRANCH   1   2
BRANCH   1  25
ATOM     25  C   UNL     1     -37.710   5.244  83.571  1.00  0.00     0.339 C 
ATOM     26  C   UNL     1     -37.284   6.536  84.293  1.00  0.00     0.214 C 
ATOM     27  O   UNL     1     -37.147   4.078  84.163  1.00  0.00    -0.332 OA
ATOM     28  C   UNL     1     -35.760   6.640  84.345  1.00  0.00     0.180 C 
ATOM     29  C   UNL     1     -35.728   4.099  84.276  1.00  0.00     0.179 C 
ATOM     30  C   UNL     1     -35.195   5.366  84.988  1.00  0.00     0.177 C 
BRANCH  26  31
ATOM     31  O   UNL     1     -37.804   7.658  83.625  1.00  0.00    -0.384 OA
ATOM     32  H   UNL     1     -37.036   8.122  83.204  1.00  0.00     0.211 HD
ENDBRANCH  26  31
BRANCH  28  33
ATOM     33  O   UNL     1     -35.403   7.764  85.110  1.00  0.00    -0.387 OA
ATOM     34  H   UNL     1     -36.243   8.253  85.315  1.00  0.00     0.211 HD
ENDBRANCH  28  33
BRANCH  29  35
ATOM     35  C   UNL     1     -35.020   3.782  82.939  1.00  0.00     0.191 C 
BRANCH  35  36
ATOM     36  O   UNL     1     -33.714   3.325  83.164  1.00  0.00    -0.394 OA
ATOM     37  H   UNL     1     -33.415   3.730  84.020  1.00  0.00     0.210 HD
ENDBRANCH  35  36
ENDBRANCH  29  35
BRANCH  30  38
ATOM     38  O   UNL     1     -33.789   5.382  84.956  1.00  0.00    -0.387 OA
ATOM     39  H   UNL     1     -33.480   5.592  85.875  1.00  0.00     0.211 HD
ENDBRANCH  30  38
ENDBRANCH   1  25
TORSDOF 11
ENDMDL
MODEL 2
REMARK VINA RESULT:    -7.085      2.206      6.497
REMARK INTER + INTRA:         -10.923
REMARK INTER:                  -9.703
REMARK INTRA:                  -1.220
REMARK UNBOUND:                -0.731
REMARK SMILES O=c1c(O[C@H]2O[C@@H](CO)[C@@H](O)[C@H](O)[C@H]2O)c(-c2ccc(O)cc2)oc2cc(O)cc(O)c12
REMARK SMILES IDX 4 1 3 2 16 3 24 4 2 5 25 6 1 7 32 8 26 9 30 10 27 11 29 12
REMARK SMILES IDX 17 13 18 14 19 15 20 16 23 17 22 18 21 19 31 21 28 23 5 25
REMARK SMILES IDX 14 26 6 27 12 28 7 29 10 30 15 31 13 33 8 35 9 36 11 38
REMARK H PARENT 21 20 31 22 28 24 15 32 13 34 9 37 11 39
REMARK Flexibility Score: inf
ROOT
ATOM      1  O   UNL     1     -37.618   4.129  82.385  1.00  0.00    -0.454 OA
ENDROOT
BRANCH   1   2
ATOM      2  C   UNL     1     -36.740   5.078  81.829  1.00  0.00     0.214 A 
ATOM      3  C   UNL     1     -36.867   5.395  80.462  1.00  0.00     0.180 A 
ATOM      4  O   UNL     1     -36.026   6.253  79.892  1.00  0.00    -0.452 OA
ATOM      5  C   UNL     1     -35.723   5.718  82.573  1.00  0.00     0.239 A 
ATOM      6  C   UNL     1     -35.055   6.869  80.553  1.00  0.00     0.146 A 
ATOM      7  O   UNL     1     -35.598   5.484  83.804  1.00  0.00    -0.285 OA
ATOM      8  C   UNL     1     -34.859   6.630  81.932  1.00  0.00     0.111 A 
ATOM      9  C   UNL     1     -34.226   7.760  79.865  1.00  0.00     0.094 A 
ATOM     10  C   UNL     1     -33.814   7.310  82.606  1.00  0.00     0.134 A 
ATOM     11  C   UNL     1     -33.197   8.426  80.532  1.00  0.00     0.123 A 
ATOM     12  C   UNL     1     -32.993   8.201  81.898  1.00  0.00     0.093 A 
BRANCH   3  13
ATOM     13  C   UNL     1     -37.890   4.757  79.604  1.00  0.00     0.021 A 
ATOM     14  C   UNL     1     -37.723   3.420  79.207  1.00  0.00     0.016 A 
ATOM     15  C   UNL     1     -38.677   2.798  78.395  1.00  0.00     0.047 A 
ATOM     16  C   UNL     1     -39.802   3.510  77.960  1.00  0.00     0.115 A 
ATOM     17  C   UNL     1     -39.009   5.472  79.144  1.00  0.00     0.016 A 
ATOM     18  C   UNL     1     -39.963   4.848  78.334  1.00  0.00     0.047 A 
BRANCH  16  19
ATOM     19  O   UNL     1     -40.761   2.902  77.154  1.00  0.00    -0.508 OA
ATOM     20  H   UNL     1     -41.086   3.337  76.298  1.00  0.00     0.293 HD
ENDBRANCH  16  19
ENDBRANCH   3  13
BRANCH  10  21
ATOM     21  O   UNL     1     -33.584   7.107  83.967  1.00  0.00    -0.507 OA
ATOM     22  H   UNL     1     -33.478   7.882  84.612  1.00  0.00     0.293 HD
ENDBRANCH  10  21
BRANCH  11  23
ATOM     23  O   UNL     1     -32.382   9.311  79.829  1.00  0.00    -0.508 OA
ATOM     24  H   UNL     1     -32.378  10.303  80.032  1.00  0.00     0.293 HD
ENDBRANCH  11  23
ENDBRANCH   1   2
BRANCH   1  25
ATOM     25  C   UNL     1     -38.126   4.131  83.723  1.00  0.00     0.339 C 
ATOM     26  C   UNL     1     -37.749   2.820  84.436  1.00  0.00     0.214 C 
ATOM     27  O   UNL     1     -39.524   4.391  83.762  1.00  0.00    -0.332 OA
ATOM     28  C   UNL     1     -38.531   1.647  83.844  1.00  0.00     0.180 C 
ATOM     29  C   UNL     1     -40.336   3.338  83.252  1.00  0.00     0.179 C 
ATOM     30  C   UNL     1     -40.031   1.968  83.905  1.00  0.00     0.177 C 
BRANCH  26  31
ATOM     31  O   UNL     1     -36.372   2.574  84.303  1.00  0.00    -0.384 OA
ATOM     32  H   UNL     1     -36.015   3.267  83.688  1.00  0.00     0.211 HD
ENDBRANCH  26  31
BRANCH  28  33
ATOM     33  O   UNL     1     -38.256   0.489  84.592  1.00  0.00    -0.387 OA
ATOM     34  H   UNL     1     -38.583   0.656  85.514  1.00  0.00     0.211 HD
ENDBRANCH  28  33
BRANCH  29  35
ATOM     35  C   UNL     1     -40.368   3.305  81.707  1.00  0.00     0.191 C 
BRANCH  35  36
ATOM     36  O   UNL     1     -41.625   2.891  81.244  1.00  0.00    -0.394 OA
ATOM     37  H   UNL     1     -42.294   3.235  81.893  1.00  0.00     0.210 HD
ENDBRANCH  35  36
ENDBRANCH  29  35
BRANCH  30  38
ATOM     38  O   UNL     1     -40.775   0.955  83.274  1.00  0.00    -0.387 OA
ATOM     39  H   UNL     1     -40.341   0.092  83.498  1.00  0.00     0.211 HD
ENDBRANCH  30  38
ENDBRANCH   1  25
TORSDOF 11
ENDMDL
MODEL 3
REMARK VINA RESULT:    -6.955      2.771      5.528
REMARK INTER + INTRA:         -10.736
REMARK INTER:                  -9.168
REMARK INTRA:                  -1.568
REMARK UNBOUND:                -0.731
REMARK SMILES O=c1c(O[C@H]2O[C@@H](CO)[C@@H](O)[C@H](O)[C@H]2O)c(-c2ccc(O)cc2)oc2cc(O)cc(O)c12
REMARK SMILES IDX 4 1 3 2 16 3 24 4 2 5 25 6 1 7 32 8 26 9 30 10 27 11 29 12
REMARK SMILES IDX 17 13 18 14 19 15 20 16 23 17 22 18 21 19 31 21 28 23 5 25
REMARK SMILES IDX 14 26 6 27 12 28 7 29 10 30 15 31 13 33 8 35 9 36 11 38
REMARK H PARENT 21 20 31 22 28 24 15 32 13 34 9 37 11 39
REMARK Flexibility Score: inf
ROOT
ATOM      1  O   UNL     1     -36.378   6.121  79.749  1.00  0.00    -0.454 OA
ENDROOT
BRANCH   1   2
ATOM      2  C   UNL     1     -37.427   5.386  80.333  1.00  0.00     0.214 A 
ATOM      3  C   UNL     1     -38.739   5.590  79.861  1.00  0.00     0.180 A 
ATOM      4  O   UNL     1     -39.760   4.947  80.419  1.00  0.00    -0.452 OA
ATOM      5  C   UNL     1     -37.231   4.464  81.386  1.00  0.00     0.239 A 
ATOM      6  C   UNL     1     -39.619   4.081  81.413  1.00  0.00     0.146 A 
ATOM      7  O   UNL     1     -36.070   4.233  81.815  1.00  0.00    -0.285 OA
ATOM      8  C   UNL     1     -38.341   3.795  81.943  1.00  0.00     0.111 A 
ATOM      9  C   UNL     1     -40.755   3.450  81.928  1.00  0.00     0.094 A 
ATOM     10  C   UNL     1     -38.228   2.859  83.002  1.00  0.00     0.134 A 
ATOM     11  C   UNL     1     -40.640   2.531  82.971  1.00  0.00     0.123 A 
ATOM     12  C   UNL     1     -39.381   2.236  83.505  1.00  0.00     0.093 A 
BRANCH   3  13
ATOM     13  C   UNL     1     -39.037   6.553  78.776  1.00  0.00     0.021 A 
ATOM     14  C   UNL     1     -39.596   7.801  79.094  1.00  0.00     0.016 A 
ATOM     15  C   UNL     1     -39.887   8.724  78.085  1.00  0.00     0.047 A 
ATOM     16  C   UNL     1     -39.636   8.404  76.745  1.00  0.00     0.115 A 
ATOM     17  C   UNL     1     -38.810   6.229  77.428  1.00  0.00     0.016 A 
ATOM     18  C   UNL     1     -39.100   7.154  76.419  1.00  0.00     0.047 A 
BRANCH  16  19
ATOM     19  O   UNL     1     -39.918   9.316  75.730  1.00  0.00    -0.508 OA
ATOM     20  H   UNL     1     -40.857   9.668  75.581  1.00  0.00     0.293 HD
ENDBRANCH  16  19
ENDBRANCH   3  13
BRANCH  10  21
ATOM     21  O   UNL     1     -36.987   2.546  83.556  1.00  0.00    -0.507 OA
ATOM     22  H   UNL     1     -36.155   2.457  82.984  1.00  0.00     0.293 HD
ENDBRANCH  10  21
BRANCH  11  23
ATOM     23  O   UNL     1     -41.784   1.912  83.472  1.00  0.00    -0.508 OA
ATOM     24  H   UNL     1     -41.753   0.980  83.868  1.00  0.00     0.293 HD
ENDBRANCH  11  23
ENDBRANCH   1   2
BRANCH   1  25
ATOM     25  C   UNL     1     -35.529   5.678  78.687  1.00  0.00     0.339 C 
ATOM     26  C   UNL     1     -34.059   5.679  79.146  1.00  0.00     0.214 C 
ATOM     27  O   UNL     1     -35.728   6.432  77.496  1.00  0.00    -0.332 OA
ATOM     28  C   UNL     1     -33.557   7.112  79.325  1.00  0.00     0.180 C 
ATOM     29  C   UNL     1     -35.265   7.777  77.562  1.00  0.00     0.179 C 
ATOM     30  C   UNL     1     -33.790   7.888  78.021  1.00  0.00     0.177 C 
BRANCH  26  31
ATOM     31  O   UNL     1     -33.931   4.987  80.362  1.00  0.00    -0.384 OA
ATOM     32  H   UNL     1     -33.463   5.595  80.991  1.00  0.00     0.211 HD
ENDBRANCH  26  31
BRANCH  28  33
ATOM     33  O   UNL     1     -32.185   7.082  79.628  1.00  0.00    -0.387 OA
ATOM     34  H   UNL     1     -31.697   7.154  78.766  1.00  0.00     0.211 HD
ENDBRANCH  28  33
BRANCH  29  35
ATOM     35  C   UNL     1     -36.235   8.703  78.330  1.00  0.00     0.191 C 
BRANCH  35  36
ATOM     36  O   UNL     1     -36.417   9.911  77.644  1.00  0.00    -0.394 OA
ATOM     37  H   UNL     1     -36.618  10.600  78.330  1.00  0.00     0.210 HD
ENDBRANCH  35  36
ENDBRANCH  29  35
BRANCH  30  38
ATOM     38  O   UNL     1     -33.436   9.238  78.184  1.00  0.00    -0.387 OA
ATOM     39  H   UNL     1     -32.797   9.282  78.942  1.00  0.00     0.211 HD
ENDBRANCH  30  38
ENDBRANCH   1  25
TORSDOF 11
ENDMDL
MODEL 4
REMARK VINA RESULT:    -6.935      2.861      5.357
REMARK INTER + INTRA:         -10.706
REMARK INTER:                  -9.259
REMARK INTRA:                  -1.448
REMARK UNBOUND:                -0.731
REMARK SMILES O=c1c(O[C@H]2O[C@@H](CO)[C@@H](O)[C@H](O)[C@H]2O)c(-c2ccc(O)cc2)oc2cc(O)cc(O)c12
REMARK SMILES IDX 4 1 3 2 16 3 24 4 2 5 25 6 1 7 32 8 26 9 30 10 27 11 29 12
REMARK SMILES IDX 17 13 18 14 19 15 20 16 23 17 22 18 21 19 31 21 28 23 5 25
REMARK SMILES IDX 14 26 6 27 12 28 7 29 10 30 15 31 13 33 8 35 9 36 11 38
REMARK H PARENT 21 20 31 22 28 24 15 32 13 34 9 37 11 39
REMARK Flexibility Score: inf
ROOT
ATOM      1  O   UNL     1     -38.590   6.309  79.459  1.00  0.00    -0.454 OA
ENDROOT
BRANCH   1   2
ATOM      2  C   UNL     1     -38.582   5.278  80.417  1.00  0.00     0.214 A 
ATOM      3  C   UNL     1     -37.341   4.795  80.878  1.00  0.00     0.180 A 
ATOM      4  O   UNL     1     -37.294   3.792  81.749  1.00  0.00    -0.452 OA
ATOM      5  C   UNL     1     -39.761   4.689  80.928  1.00  0.00     0.239 A 
ATOM      6  C   UNL     1     -38.376   3.208  82.246  1.00  0.00     0.146 A 
ATOM      7  O   UNL     1     -40.889   5.113  80.563  1.00  0.00    -0.285 OA
ATOM      8  C   UNL     1     -39.666   3.634  81.859  1.00  0.00     0.111 A 
ATOM      9  C   UNL     1     -38.222   2.164  83.163  1.00  0.00     0.094 A 
ATOM     10  C   UNL     1     -40.800   2.989  82.416  1.00  0.00     0.134 A 
ATOM     11  C   UNL     1     -39.340   1.531  83.708  1.00  0.00     0.123 A 
ATOM     12  C   UNL     1     -40.624   1.944  83.335  1.00  0.00     0.093 A 
BRANCH   3  13
ATOM     13  C   UNL     1     -36.058   5.340  80.380  1.00  0.00     0.021 A 
ATOM     14  C   UNL     1     -35.389   4.685  79.332  1.00  0.00     0.016 A 
ATOM     15  C   UNL     1     -34.175   5.182  78.848  1.00  0.00     0.047 A 
ATOM     16  C   UNL     1     -33.609   6.331  79.416  1.00  0.00     0.115 A 
ATOM     17  C   UNL     1     -35.472   6.478  80.960  1.00  0.00     0.016 A 
ATOM     18  C   UNL     1     -34.258   6.974  80.473  1.00  0.00     0.047 A 
BRANCH  16  19
ATOM     19  O   UNL     1     -32.401   6.838  78.940  1.00  0.00    -0.508 OA
ATOM     20  H   UNL     1     -32.357   7.393  78.093  1.00  0.00     0.293 HD
ENDBRANCH  16  19
ENDBRANCH   3  13
BRANCH  10  21
ATOM     21  O   UNL     1     -42.092   3.376  82.063  1.00  0.00    -0.507 OA
ATOM     22  H   UNL     1     -42.480   4.268  82.352  1.00  0.00     0.293 HD
ENDBRANCH  10  21
BRANCH  11  23
ATOM     23  O   UNL     1     -39.166   0.493  84.620  1.00  0.00    -0.508 OA
ATOM     24  H   UNL     1     -39.766  -0.323  84.616  1.00  0.00     0.293 HD
ENDBRANCH  11  23
ENDBRANCH   1   2
BRANCH   1  25
ATOM     25  C   UNL     1     -38.667   7.711  79.730  1.00  0.00     0.339 C 
ATOM     26  C   UNL     1     -39.943   8.305  79.105  1.00  0.00     0.214 C 
ATOM     27  O   UNL     1     -37.489   8.398  79.320  1.00  0.00    -0.332 OA
ATOM     28  C   UNL     1     -39.833   8.322  77.581  1.00  0.00     0.180 C 
ATOM     29  C   UNL     1     -37.316   8.486  77.909  1.00  0.00     0.179 C 
ATOM     30  C   UNL     1     -38.552   9.070  77.183  1.00  0.00     0.177 C 
BRANCH  26  31
ATOM     31  O   UNL     1     -41.064   7.546  79.481  1.00  0.00    -0.384 OA
ATOM     32  H   UNL     1     -41.608   7.412  78.662  1.00  0.00     0.211 HD
ENDBRANCH  26  31
BRANCH  28  33
ATOM     33  O   UNL     1     -40.957   8.975  77.047  1.00  0.00    -0.387 OA
ATOM     34  H   UNL     1     -41.577   9.147  77.803  1.00  0.00     0.211 HD
ENDBRANCH  28  33
BRANCH  29  35
ATOM     35  C   UNL     1     -36.785   7.172  77.292  1.00  0.00     0.191 C 
BRANCH  35  36
ATOM     36  O   UNL     1     -37.803   6.500  76.601  1.00  0.00    -0.394 OA
ATOM     37  H   UNL     1     -38.506   6.286  77.269  1.00  0.00     0.210 HD
ENDBRANCH  35  36
ENDBRANCH  29  35
BRANCH  30  38
ATOM     38  O   UNL     1     -38.365   9.014  75.790  1.00  0.00    -0.387 OA
ATOM     39  H   UNL     1     -38.279   9.949  75.470  1.00  0.00     0.211 HD
ENDBRANCH  30  38
ENDBRANCH   1  25
TORSDOF 11
ENDMDL
MODEL 5
REMARK VINA RESULT:    -6.753      1.948      6.066
REMARK INTER + INTRA:         -10.445
REMARK INTER:                  -9.205
REMARK INTRA:                  -1.240
REMARK UNBOUND:                -0.731
REMARK SMILES O=c1c(O[C@H]2O[C@@H](CO)[C@@H](O)[C@H](O)[C@H]2O)c(-c2ccc(O)cc2)oc2cc(O)cc(O)c12
REMARK SMILES IDX 4 1 3 2 16 3 24 4 2 5 25 6 1 7 32 8 26 9 30 10 27 11 29 12
REMARK SMILES IDX 17 13 18 14 19 15 20 16 23 17 22 18 21 19 31 21 28 23 5 25
REMARK SMILES IDX 14 26 6 27 12 28 7 29 10 30 15 31 13 33 8 35 9 36 11 38
REMARK H PARENT 21 20 31 22 28 24 15 32 13 34 9 37 11 39
REMARK Flexibility Score: inf
ROOT
ATOM      1  O   UNL     1     -37.320   4.977  81.509  1.00  0.00    -0.454 OA
ENDROOT
BRANCH   1   2
ATOM      2  C   UNL     1     -36.793   5.818  80.510  1.00  0.00     0.214 A 
ATOM      3  C   UNL     1     -37.294   5.703  79.198  1.00  0.00     0.180 A 
ATOM      4  O   UNL     1     -36.789   6.449  78.221  1.00  0.00    -0.452 OA
ATOM      5  C   UNL     1     -35.770   6.760  80.756  1.00  0.00     0.239 A 
ATOM      6  C   UNL     1     -35.824   7.339  78.408  1.00  0.00     0.146 A 
ATOM      7  O   UNL     1     -35.317   6.913  81.921  1.00  0.00    -0.285 OA
ATOM      8  C   UNL     1     -35.269   7.539  79.692  1.00  0.00     0.111 A 
ATOM      9  C   UNL     1     -35.364   8.080  77.316  1.00  0.00     0.094 A 
ATOM     10  C   UNL     1     -34.242   8.503  79.855  1.00  0.00     0.134 A 
ATOM     11  C   UNL     1     -34.353   9.027  77.480  1.00  0.00     0.123 A 
ATOM     12  C   UNL     1     -33.795   9.238  78.746  1.00  0.00     0.093 A 
BRANCH   3  13
ATOM     13  C   UNL     1     -38.351   4.727  78.849  1.00  0.00     0.021 A 
ATOM     14  C   UNL     1     -39.684   5.157  78.752  1.00  0.00     0.016 A 
ATOM     15  C   UNL     1     -40.698   4.251  78.425  1.00  0.00     0.047 A 
ATOM     16  C   UNL     1     -40.392   2.902  78.203  1.00  0.00     0.115 A 
ATOM     17  C   UNL     1     -38.054   3.368  78.648  1.00  0.00     0.016 A 
ATOM     18  C   UNL     1     -39.069   2.464  78.319  1.00  0.00     0.047 A 
BRANCH  16  19
ATOM     19  O   UNL     1     -41.392   1.991  77.873  1.00  0.00    -0.508 OA
ATOM     20  H   UNL     1     -41.788   1.366  78.567  1.00  0.00     0.293 HD
ENDBRANCH  16  19
ENDBRANCH   3  13
BRANCH  10  21
ATOM     21  O   UNL     1     -33.666   8.735  81.104  1.00  0.00    -0.507 OA
ATOM     22  H   UNL     1     -32.785   9.228  81.201  1.00  0.00     0.293 HD
ENDBRANCH  10  21
BRANCH  11  23
ATOM     23  O   UNL     1     -33.907   9.756  76.379  1.00  0.00    -0.508 OA
ATOM     24  H   UNL     1     -33.494  10.675  76.483  1.00  0.00     0.293 HD
ENDBRANCH  11  23
ENDBRANCH   1   2
BRANCH   1  25
ATOM     25  C   UNL     1     -37.509   5.318  82.885  1.00  0.00     0.339 C 
ATOM     26  C   UNL     1     -36.664   4.395  83.783  1.00  0.00     0.214 C 
ATOM     27  O   UNL     1     -38.885   5.323  83.250  1.00  0.00    -0.332 OA
ATOM     28  C   UNL     1     -37.229   2.975  83.769  1.00  0.00     0.180 C 
ATOM     29  C   UNL     1     -39.490   4.034  83.288  1.00  0.00     0.179 C 
ATOM     30  C   UNL     1     -38.711   3.025  84.166  1.00  0.00     0.177 C 
BRANCH  26  31
ATOM     31  O   UNL     1     -35.333   4.370  83.334  1.00  0.00    -0.384 OA
ATOM     32  H   UNL     1     -35.023   3.431  83.408  1.00  0.00     0.211 HD
ENDBRANCH  26  31
BRANCH  28  33
ATOM     33  O   UNL     1     -36.511   2.188  84.686  1.00  0.00    -0.387 OA
ATOM     34  H   UNL     1     -35.907   2.799  85.181  1.00  0.00     0.211 HD
ENDBRANCH  28  33
BRANCH  29  35
ATOM     35  C   UNL     1     -39.847   3.502  81.881  1.00  0.00     0.191 C 
BRANCH  35  36
ATOM     36  O   UNL     1     -41.000   2.706  81.929  1.00  0.00    -0.394 OA
ATOM     37  H   UNL     1     -41.304   2.702  82.874  1.00  0.00     0.210 HD
ENDBRANCH  35  36
ENDBRANCH  29  35
BRANCH  30  38
ATOM     38  O   UNL     1     -39.290   1.747  84.062  1.00  0.00    -0.387 OA
ATOM     39  H   UNL     1     -38.558   1.087  84.168  1.00  0.00     0.211 HD
ENDBRANCH  30  38
ENDBRANCH   1  25
TORSDOF 11
ENDMDL
MODEL 6
REMARK VINA RESULT:    -6.636      2.848      5.600
REMARK INTER + INTRA:         -10.277
REMARK INTER:                  -9.078
REMARK INTRA:                  -1.199
REMARK UNBOUND:                -0.731
REMARK SMILES O=c1c(O[C@H]2O[C@@H](CO)[C@@H](O)[C@H](O)[C@H]2O)c(-c2ccc(O)cc2)oc2cc(O)cc(O)c12
REMARK SMILES IDX 4 1 3 2 16 3 24 4 2 5 25 6 1 7 32 8 26 9 30 10 27 11 29 12
REMARK SMILES IDX 17 13 18 14 19 15 20 16 23 17 22 18 21 19 31 21 28 23 5 25
REMARK SMILES IDX 14 26 6 27 12 28 7 29 10 30 15 31 13 33 8 35 9 36 11 38
REMARK H PARENT 21 20 31 22 28 24 15 32 13 34 9 37 11 39
REMARK Flexibility Score: inf
ROOT
ATOM      1  O   UNL     1     -38.112   6.321  79.345  1.00  0.00    -0.454 OA
ENDROOT
BRANCH   1   2
ATOM      2  C   UNL     1     -38.196   5.321  80.333  1.00  0.00     0.214 A 
ATOM      3  C   UNL     1     -37.010   4.897  80.965  1.00  0.00     0.180 A 
ATOM      4  O   UNL     1     -37.045   3.924  81.870  1.00  0.00    -0.452 OA
ATOM      5  C   UNL     1     -39.412   4.709  80.710  1.00  0.00     0.239 A 
ATOM      6  C   UNL     1     -38.164   3.319  82.246  1.00  0.00     0.146 A 
ATOM      7  O   UNL     1     -40.496   5.081  80.189  1.00  0.00    -0.285 OA
ATOM      8  C   UNL     1     -39.406   3.687  81.682  1.00  0.00     0.111 A 
ATOM      9  C   UNL     1     -38.097   2.310  83.212  1.00  0.00     0.094 A 
ATOM     10  C   UNL     1     -40.581   3.021  82.112  1.00  0.00     0.134 A 
ATOM     11  C   UNL     1     -39.256   1.656  83.631  1.00  0.00     0.123 A 
ATOM     12  C   UNL     1     -40.493   2.011  83.083  1.00  0.00     0.093 A 
BRANCH   3  13
ATOM     13  C   UNL     1     -35.691   5.471  80.616  1.00  0.00     0.021 A 
ATOM     14  C   UNL     1     -34.768   4.694  79.897  1.00  0.00     0.016 A 
ATOM     15  C   UNL     1     -33.516   5.216  79.558  1.00  0.00     0.047 A 
ATOM     16  C   UNL     1     -33.166   6.515  79.948  1.00  0.00     0.115 A 
ATOM     17  C   UNL     1     -35.324   6.764  81.024  1.00  0.00     0.016 A 
ATOM     18  C   UNL     1     -34.072   7.285  80.683  1.00  0.00     0.047 A 
BRANCH  16  19
ATOM     19  O   UNL     1     -31.923   7.047  79.614  1.00  0.00    -0.508 OA
ATOM     20  H   UNL     1     -31.412   7.641  80.258  1.00  0.00     0.293 HD
ENDBRANCH  16  19
ENDBRANCH   3  13
BRANCH  10  21
ATOM     21  O   UNL     1     -41.829   3.351  81.584  1.00  0.00    -0.507 OA
ATOM     22  H   UNL     1     -42.088   4.312  81.388  1.00  0.00     0.293 HD
ENDBRANCH  10  21
BRANCH  11  23
ATOM     23  O   UNL     1     -39.169   0.653  84.595  1.00  0.00    -0.508 OA
ATOM     24  H   UNL     1     -38.506   0.707  85.358  1.00  0.00     0.293 HD
ENDBRANCH  11  23
ENDBRANCH   1   2
BRANCH   1  25
ATOM     25  C   UNL     1     -38.257   6.128  77.935  1.00  0.00     0.339 C 
ATOM     26  C   UNL     1     -37.192   6.938  77.175  1.00  0.00     0.214 C 
ATOM     27  O   UNL     1     -39.579   6.413  77.491  1.00  0.00    -0.332 OA
ATOM     28  C   UNL     1     -37.484   8.435  77.282  1.00  0.00     0.180 C 
ATOM     29  C   UNL     1     -39.932   7.793  77.532  1.00  0.00     0.179 C 
ATOM     30  C   UNL     1     -38.916   8.699  76.795  1.00  0.00     0.177 C 
BRANCH  26  31
ATOM     31  O   UNL     1     -35.916   6.675  77.702  1.00  0.00    -0.384 OA
ATOM     32  H   UNL     1     -35.861   7.151  78.570  1.00  0.00     0.211 HD
ENDBRANCH  26  31
BRANCH  28  33
ATOM     33  O   UNL     1     -36.566   9.138  76.482  1.00  0.00    -0.387 OA
ATOM     34  H   UNL     1     -35.660   8.819  76.731  1.00  0.00     0.211 HD
ENDBRANCH  28  33
BRANCH  29  35
ATOM     35  C   UNL     1     -40.287   8.275  78.957  1.00  0.00     0.191 C 
BRANCH  35  36
ATOM     36  O   UNL     1     -41.367   7.545  79.473  1.00  0.00    -0.394 OA
ATOM     37  H   UNL     1     -42.127   7.682  78.848  1.00  0.00     0.210 HD
ENDBRANCH  35  36
ENDBRANCH  29  35
BRANCH  30  38
ATOM     38  O   UNL     1     -39.254  10.051  76.977  1.00  0.00    -0.387 OA
ATOM     39  H   UNL     1     -39.935  10.087  77.697  1.00  0.00     0.211 HD
ENDBRANCH  30  38
ENDBRANCH   1  25
TORSDOF 11
ENDMDL
MODEL 7
REMARK VINA RESULT:    -6.591      2.717      4.959
REMARK INTER + INTRA:         -10.213
REMARK INTER:                  -8.983
REMARK INTRA:                  -1.230
REMARK UNBOUND:                -0.731
REMARK SMILES O=c1c(O[C@H]2O[C@@H](CO)[C@@H](O)[C@H](O)[C@H]2O)c(-c2ccc(O)cc2)oc2cc(O)cc(O)c12
REMARK SMILES IDX 4 1 3 2 16 3 24 4 2 5 25 6 1 7 32 8 26 9 30 10 27 11 29 12
REMARK SMILES IDX 17 13 18 14 19 15 20 16 23 17 22 18 21 19 31 21 28 23 5 25
REMARK SMILES IDX 14 26 6 27 12 28 7 29 10 30 15 31 13 33 8 35 9 36 11 38
REMARK H PARENT 21 20 31 22 28 24 15 32 13 34 9 37 11 39
REMARK Flexibility Score: inf
ROOT
ATOM      1  O   UNL     1     -36.654   6.244  79.828  1.00  0.00    -0.454 OA
ENDROOT
BRANCH   1   2
ATOM      2  C   UNL     1     -37.701   5.503  80.409  1.00  0.00     0.214 A 
ATOM      3  C   UNL     1     -38.999   5.638  79.877  1.00  0.00     0.180 A 
ATOM      4  O   UNL     1     -40.019   4.988  80.427  1.00  0.00    -0.452 OA
ATOM      5  C   UNL     1     -37.516   4.640  81.512  1.00  0.00     0.239 A 
ATOM      6  C   UNL     1     -39.889   4.175  81.467  1.00  0.00     0.146 A 
ATOM      7  O   UNL     1     -36.366   4.470  81.996  1.00  0.00    -0.285 OA
ATOM      8  C   UNL     1     -38.625   3.961  82.059  1.00  0.00     0.111 A 
ATOM      9  C   UNL     1     -41.024   3.531  81.970  1.00  0.00     0.094 A 
ATOM     10  C   UNL     1     -38.524   3.081  83.166  1.00  0.00     0.134 A 
ATOM     11  C   UNL     1     -40.921   2.668  83.060  1.00  0.00     0.123 A 
ATOM     12  C   UNL     1     -39.674   2.444  83.656  1.00  0.00     0.093 A 
BRANCH   3  13
ATOM     13  C   UNL     1     -39.285   6.536  78.735  1.00  0.00     0.021 A 
ATOM     14  C   UNL     1     -40.092   7.669  78.933  1.00  0.00     0.016 A 
ATOM     15  C   UNL     1     -40.376   8.529  77.867  1.00  0.00     0.047 A 
ATOM     16  C   UNL     1     -39.868   8.259  76.590  1.00  0.00     0.115 A 
ATOM     17  C   UNL     1     -38.799   6.259  77.446  1.00  0.00     0.016 A 
ATOM     18  C   UNL     1     -39.083   7.122  76.382  1.00  0.00     0.047 A 
BRANCH  16  19
ATOM     19  O   UNL     1     -40.141   9.110  75.522  1.00  0.00    -0.508 OA
ATOM     20  H   UNL     1     -40.582   8.771  74.674  1.00  0.00     0.293 HD
ENDBRANCH  16  19
ENDBRANCH   3  13
BRANCH  10  21
ATOM     21  O   UNL     1     -37.296   2.838  83.782  1.00  0.00    -0.507 OA
ATOM     22  H   UNL     1     -36.883   3.501  84.428  1.00  0.00     0.293 HD
ENDBRANCH  10  21
BRANCH  11  23
ATOM     23  O   UNL     1     -42.063   2.035  83.547  1.00  0.00    -0.508 OA
ATOM     24  H   UNL     1     -42.766   2.540  84.073  1.00  0.00     0.293 HD
ENDBRANCH  11  23
ENDBRANCH   1   2
BRANCH   1  25
ATOM     25  C   UNL     1     -36.010   7.385  80.403  1.00  0.00     0.339 C 
ATOM     26  C   UNL     1     -35.660   8.407  79.305  1.00  0.00     0.214 C 
ATOM     27  O   UNL     1     -34.880   7.020  81.188  1.00  0.00    -0.332 OA
ATOM     28  C   UNL     1     -34.537   7.872  78.417  1.00  0.00     0.180 C 
ATOM     29  C   UNL     1     -33.772   6.533  80.438  1.00  0.00     0.179 C 
ATOM     30  C   UNL     1     -33.341   7.491  79.301  1.00  0.00     0.177 C 
BRANCH  26  31
ATOM     31  O   UNL     1     -36.791   8.674  78.515  1.00  0.00    -0.384 OA
ATOM     32  H   UNL     1     -36.981   7.849  77.999  1.00  0.00     0.211 HD
ENDBRANCH  26  31
BRANCH  28  33
ATOM     33  O   UNL     1     -34.161   8.871  77.503  1.00  0.00    -0.387 OA
ATOM     34  H   UNL     1     -34.986   9.364  77.256  1.00  0.00     0.211 HD
ENDBRANCH  28  33
BRANCH  29  35
ATOM     35  C   UNL     1     -33.955   5.065  79.990  1.00  0.00     0.191 C 
BRANCH  35  36
ATOM     36  O   UNL     1     -33.732   4.187  81.059  1.00  0.00    -0.394 OA
ATOM     37  H   UNL     1     -33.970   3.279  80.736  1.00  0.00     0.210 HD
ENDBRANCH  35  36
ENDBRANCH  29  35
BRANCH  30  38
ATOM     38  O   UNL     1     -32.329   6.897  78.527  1.00  0.00    -0.387 OA
ATOM     39  H   UNL     1     -31.672   7.609  78.311  1.00  0.00     0.211 HD
ENDBRANCH  30  38
ENDBRANCH   1  25
TORSDOF 11
ENDMDL
MODEL 8
REMARK VINA RESULT:    -6.536      2.305      6.712
REMARK INTER + INTRA:         -10.133
REMARK INTER:                  -8.698
REMARK INTRA:                  -1.435
REMARK UNBOUND:                -0.731
REMARK SMILES O=c1c(O[C@H]2O[C@@H](CO)[C@@H](O)[C@H](O)[C@H]2O)c(-c2ccc(O)cc2)oc2cc(O)cc(O)c12
REMARK SMILES IDX 4 1 3 2 16 3 24 4 2 5 25 6 1 7 32 8 26 9 30 10 27 11 29 12
REMARK SMILES IDX 17 13 18 14 19 15 20 16 23 17 22 18 21 19 31 21 28 23 5 25
REMARK SMILES IDX 14 26 6 27 12 28 7 29 10 30 15 31 13 33 8 35 9 36 11 38
REMARK H PARENT 21 20 31 22 28 24 15 32 13 34 9 37 11 39
REMARK Flexibility Score: inf
ROOT
ATOM      1  O   UNL     1     -38.423   5.174  81.210  1.00  0.00    -0.454 OA
ENDROOT
BRANCH   1   2
ATOM      2  C   UNL     1     -37.192   5.803  81.474  1.00  0.00     0.214 A 
ATOM      3  C   UNL     1     -36.664   6.684  80.510  1.00  0.00     0.180 A 
ATOM      4  O   UNL     1     -35.483   7.262  80.705  1.00  0.00    -0.452 OA
ATOM      5  C   UNL     1     -36.449   5.580  82.655  1.00  0.00     0.239 A 
ATOM      6  C   UNL     1     -34.751   7.073  81.796  1.00  0.00     0.146 A 
ATOM      7  O   UNL     1     -36.901   4.822  83.553  1.00  0.00    -0.285 OA
ATOM      8  C   UNL     1     -35.204   6.220  82.827  1.00  0.00     0.111 A 
ATOM      9  C   UNL     1     -33.523   7.732  81.911  1.00  0.00     0.094 A 
ATOM     10  C   UNL     1     -34.397   6.047  83.980  1.00  0.00     0.134 A 
ATOM     11  C   UNL     1     -32.732   7.557  83.046  1.00  0.00     0.123 A 
ATOM     12  C   UNL     1     -33.168   6.718  84.077  1.00  0.00     0.093 A 
BRANCH   3  13
ATOM     13  C   UNL     1     -37.366   6.959  79.236  1.00  0.00     0.021 A 
ATOM     14  C   UNL     1     -36.786   6.548  78.025  1.00  0.00     0.016 A 
ATOM     15  C   UNL     1     -37.431   6.799  76.810  1.00  0.00     0.047 A 
ATOM     16  C   UNL     1     -38.657   7.477  76.791  1.00  0.00     0.115 A 
ATOM     17  C   UNL     1     -38.584   7.659  79.208  1.00  0.00     0.016 A 
ATOM     18  C   UNL     1     -39.229   7.908  77.992  1.00  0.00     0.047 A 
BRANCH  16  19
ATOM     19  O   UNL     1     -39.312   7.730  75.588  1.00  0.00    -0.508 OA
ATOM     20  H   UNL     1     -40.271   7.438  75.436  1.00  0.00     0.293 HD
ENDBRANCH  16  19
ENDBRANCH   3  13
BRANCH  10  21
ATOM     21  O   UNL     1     -34.804   5.216  85.024  1.00  0.00    -0.507 OA
ATOM     22  H   UNL     1     -35.209   4.303  84.852  1.00  0.00     0.293 HD
ENDBRANCH  10  21
BRANCH  11  23
ATOM     23  O   UNL     1     -31.511   8.222  83.143  1.00  0.00    -0.508 OA
ATOM     24  H   UNL     1     -30.668   7.846  82.727  1.00  0.00     0.293 HD
ENDBRANCH  11  23
ENDBRANCH   1   2
BRANCH   1  25
ATOM     25  C   UNL     1     -38.628   3.772  81.012  1.00  0.00     0.339 C 
ATOM     26  C   UNL     1     -39.542   3.534  79.796  1.00  0.00     0.214 C 
ATOM     27  O   UNL     1     -39.110   3.133  82.189  1.00  0.00    -0.332 OA
ATOM     28  C   UNL     1     -40.970   3.984  80.107  1.00  0.00     0.180 C 
ATOM     29  C   UNL     1     -40.447   3.474  82.543  1.00  0.00     0.179 C 
ATOM     30  C   UNL     1     -41.450   3.273  81.380  1.00  0.00     0.177 C 
BRANCH  26  31
ATOM     31  O   UNL     1     -39.063   4.246  78.684  1.00  0.00    -0.384 OA
ATOM     32  H   UNL     1     -39.642   4.003  77.916  1.00  0.00     0.211 HD
ENDBRANCH  26  31
BRANCH  28  33
ATOM     33  O   UNL     1     -41.802   3.646  79.025  1.00  0.00    -0.387 OA
ATOM     34  H   UNL     1     -41.367   2.890  78.551  1.00  0.00     0.211 HD
ENDBRANCH  28  33
BRANCH  29  35
ATOM     35  C   UNL     1     -40.548   4.854  83.230  1.00  0.00     0.191 C 
BRANCH  35  36
ATOM     36  O   UNL     1     -39.543   5.003  84.196  1.00  0.00    -0.394 OA
ATOM     37  H   UNL     1     -39.855   5.704  84.825  1.00  0.00     0.210 HD
ENDBRANCH  35  36
ENDBRANCH  29  35
BRANCH  30  38
ATOM     38  O   UNL     1     -42.722   3.741  81.754  1.00  0.00    -0.387 OA
ATOM     39  H   UNL     1     -42.594   4.636  82.163  1.00  0.00     0.211 HD
ENDBRANCH  30  38
ENDBRANCH   1  25
TORSDOF 11
ENDMDL
MODEL 9
REMARK VINA RESULT:    -6.450      2.029      6.561
REMARK INTER + INTRA:         -10.009
REMARK INTER:                  -9.184
REMARK INTRA:                  -0.824
REMARK UNBOUND:                -0.731
REMARK SMILES O=c1c(O[C@H]2O[C@@H](CO)[C@@H](O)[C@H](O)[C@H]2O)c(-c2ccc(O)cc2)oc2cc(O)cc(O)c12
REMARK SMILES IDX 4 1 3 2 16 3 24 4 2 5 25 6 1 7 32 8 26 9 30 10 27 11 29 12
REMARK SMILES IDX 17 13 18 14 19 15 20 16 23 17 22 18 21 19 31 21 28 23 5 25
REMARK SMILES IDX 14 26 6 27 12 28 7 29 10 30 15 31 13 33 8 35 9 36 11 38
REMARK H PARENT 21 20 31 22 28 24 15 32 13 34 9 37 11 39
REMARK Flexibility Score: inf
ROOT
ATOM      1  O   UNL     1     -38.439   4.625  80.156  1.00  0.00    -0.454 OA
ENDROOT
BRANCH   1   2
ATOM      2  C   UNL     1     -37.314   5.022  80.903  1.00  0.00     0.214 A 
ATOM      3  C   UNL     1     -36.595   6.160  80.486  1.00  0.00     0.180 A 
ATOM      4  O   UNL     1     -35.501   6.538  81.141  1.00  0.00    -0.452 OA
ATOM      5  C   UNL     1     -36.859   4.323  82.044  1.00  0.00     0.239 A 
ATOM      6  C   UNL     1     -35.037   5.906  82.210  1.00  0.00     0.146 A 
ATOM      7  O   UNL     1     -37.492   3.319  82.465  1.00  0.00    -0.285 OA
ATOM      8  C   UNL     1     -35.699   4.765  82.715  1.00  0.00     0.111 A 
ATOM      9  C   UNL     1     -33.882   6.387  82.833  1.00  0.00     0.094 A 
ATOM     10  C   UNL     1     -35.177   4.118  83.864  1.00  0.00     0.134 A 
ATOM     11  C   UNL     1     -33.370   5.746  83.962  1.00  0.00     0.123 A 
ATOM     12  C   UNL     1     -34.016   4.617  84.475  1.00  0.00     0.093 A 
BRANCH   3  13
ATOM     13  C   UNL     1     -36.989   6.938  79.290  1.00  0.00     0.021 A 
ATOM     14  C   UNL     1     -36.791   6.389  78.013  1.00  0.00     0.016 A 
ATOM     15  C   UNL     1     -37.156   7.108  76.870  1.00  0.00     0.047 A 
ATOM     16  C   UNL     1     -37.709   8.389  76.991  1.00  0.00     0.115 A 
ATOM     17  C   UNL     1     -37.523   8.233  79.403  1.00  0.00     0.016 A 
ATOM     18  C   UNL     1     -37.889   8.950  78.259  1.00  0.00     0.047 A 
BRANCH  16  19
ATOM     19  O   UNL     1     -38.079   9.114  75.861  1.00  0.00    -0.508 OA
ATOM     20  H   UNL     1     -38.012  10.126  75.835  1.00  0.00     0.293 HD
ENDBRANCH  16  19
ENDBRANCH   3  13
BRANCH  10  21
ATOM     21  O   UNL     1     -35.797   2.989  84.398  1.00  0.00    -0.507 OA
ATOM     22  H   UNL     1     -36.530   3.063  85.095  1.00  0.00     0.293 HD
ENDBRANCH  10  21
BRANCH  11  23
ATOM     23  O   UNL     1     -32.217   6.240  84.570  1.00  0.00    -0.508 OA
ATOM     24  H   UNL     1     -31.701   7.018  84.176  1.00  0.00     0.293 HD
ENDBRANCH  11  23
ENDBRANCH   1   2
BRANCH   1  25
ATOM     25  C   UNL     1     -39.674   5.339  80.048  1.00  0.00     0.339 C 
ATOM     26  C   UNL     1     -40.652   4.880  81.145  1.00  0.00     0.214 C 
ATOM     27  O   UNL     1     -40.233   5.240  78.743  1.00  0.00    -0.332 OA
ATOM     28  C   UNL     1     -41.130   3.454  80.871  1.00  0.00     0.180 C 
ATOM     29  C   UNL     1     -40.730   3.947  78.408  1.00  0.00     0.179 C 
ATOM     30  C   UNL     1     -41.724   3.392  79.457  1.00  0.00     0.177 C 
BRANCH  26  31
ATOM     31  O   UNL     1     -40.025   4.926  82.402  1.00  0.00    -0.384 OA
ATOM     32  H   UNL     1     -40.385   5.722  82.872  1.00  0.00     0.211 HD
ENDBRANCH  26  31
BRANCH  28  33
ATOM     33  O   UNL     1     -42.108   3.109  81.820  1.00  0.00    -0.387 OA
ATOM     34  H   UNL     1     -41.813   3.485  82.689  1.00  0.00     0.211 HD
ENDBRANCH  28  33
BRANCH  29  35
ATOM     35  C   UNL     1     -39.607   2.960  78.020  1.00  0.00     0.191 C 
BRANCH  35  36
ATOM     36  O   UNL     1     -39.175   2.233  79.138  1.00  0.00    -0.394 OA
ATOM     37  H   UNL     1     -39.916   1.618  79.381  1.00  0.00     0.210 HD
ENDBRANCH  35  36
ENDBRANCH  29  35
BRANCH  30  38
ATOM     38  O   UNL     1     -42.079   2.070  79.132  1.00  0.00    -0.387 OA
ATOM     39  H   UNL     1     -41.768   1.494  79.877  1.00  0.00     0.211 HD
ENDBRANCH  30  38
ENDBRANCH   1  25
TORSDOF 11
ENDMDL
