MODEL 1
REMARK VINA RESULT:    -3.060      0.000      0.000
REMARK INTER + INTRA:         -10.477
REMARK INTER:                  -6.638
REMARK INTRA:                  -3.840
REMARK UNBOUND:                -3.840
REMARK SMILES CCCCCCCCCCCCCCCCCCCCCC(=O)[O-]
REMARK SMILES IDX 12 1 11 2 10 3 9 4 8 5 7 6 6 7 5 8 4 9 3 10 2 11 1 12 13 13
REMARK SMILES IDX 14 14 15 15 16 16 17 17 18 18 19 19 20 20 21 21 22 22 23 23
REMARK SMILES IDX 24 24
REMARK H PARENT
REMARK Flexibility Score: inf
ROOT
ATOM      1  C   UNL     1       8.886   4.696  35.579  1.00  0.00     0.000 C 
ENDROOT
BRANCH   1   2
ATOM      2  C   UNL     1       9.351   6.166  35.633  1.00  0.00     0.000 C 
BRANCH   2   3
ATOM      3  C   UNL     1      10.549   6.469  34.717  1.00  0.00     0.000 C 
BRANCH   3   4
ATOM      4  C   UNL     1      10.415   7.814  33.983  1.00  0.00    -0.000 C 
BRANCH   4   5
ATOM      5  C   UNL     1      10.671   7.689  32.473  1.00  0.00    -0.000 C 
BRANCH   5   6
ATOM      6  C   UNL     1       9.681   6.738  31.784  1.00  0.00    -0.000 C 
BRANCH   6   7
ATOM      7  C   UNL     1      10.411   5.543  31.159  1.00  0.00    -0.000 C 
BRANCH   7   8
ATOM      8  C   UNL     1      11.932   5.671  31.339  1.00  0.00    -0.000 C 
BRANCH   8   9
ATOM      9  C   UNL     1      12.518   4.539  32.209  1.00  0.00    -0.000 C 
BRANCH   9  10
ATOM     10  C   UNL     1      13.415   5.040  33.358  1.00  0.00    -0.000 C 
BRANCH  10  11
ATOM     11  C   UNL     1      13.820   3.960  34.376  1.00  0.00    -0.003 C 
ATOM     12  C   UNL     1      12.990   4.014  35.659  1.00  0.00     0.004 C 
ENDBRANCH  10  11
ENDBRANCH   9  10
ENDBRANCH   8   9
ENDBRANCH   7   8
ENDBRANCH   6   7
ENDBRANCH   5   6
ENDBRANCH   4   5
ENDBRANCH   3   4
ENDBRANCH   2   3
ENDBRANCH   1   2
BRANCH   1  13
ATOM     13  C   UNL     1       9.371   3.981  34.304  1.00  0.00     0.000 C 
BRANCH  13  14
ATOM     14  C   UNL     1       9.795   2.527  34.568  1.00  0.00     0.000 C 
BRANCH  14  15
ATOM     15  C   UNL     1       9.340   1.566  33.456  1.00  0.00     0.000 C 
BRANCH  15  16
ATOM     16  C   UNL     1      10.105   1.804  32.137  1.00  0.00     0.000 C 
BRANCH  16  17
ATOM     17  C   UNL     1       9.184   1.999  30.919  1.00  0.00     0.000 C 
BRANCH  17  18
ATOM     18  C   UNL     1       9.961   2.234  29.615  1.00  0.00     0.000 C 
BRANCH  18  19
ATOM     19  C   UNL     1      11.422   1.791  29.757  1.00  0.00     0.000 C 
BRANCH  19  20
ATOM     20  C   UNL     1      12.256   2.254  28.554  1.00  0.00     0.006 C 
BRANCH  20  21
ATOM     21  C   UNL     1      12.042   3.739  28.236  1.00  0.00     0.053 C 
BRANCH  21  22
ATOM     22  C   UNL     1      13.326   4.419  27.870  1.00  0.00     0.041 C 
ATOM     23  O   UNL     1      14.244   3.775  27.297  1.00  0.00    -0.550 OA
ATOM     24  O   UNL     1      13.522   5.755  28.193  1.00  0.00    -0.550 OA
ENDBRANCH  21  22
ENDBRANCH  20  21
ENDBRANCH  19  20
ENDBRANCH  18  19
ENDBRANCH  17  18
ENDBRANCH  16  17
ENDBRANCH  15  16
ENDBRANCH  14  15
ENDBRANCH  13  14
ENDBRANCH   1  13
TORSDOF 20
ENDMDL
MODEL 2
REMARK VINA RESULT:    -3.026      1.970      3.722
REMARK INTER + INTRA:         -10.403
REMARK INTER:                  -6.346
REMARK INTRA:                  -4.057
REMARK UNBOUND:                -3.840
REMARK SMILES CCCCCCCCCCCCCCCCCCCCCC(=O)[O-]
REMARK SMILES IDX 12 1 11 2 10 3 9 4 8 5 7 6 6 7 5 8 4 9 3 10 2 11 1 12 13 13
REMARK SMILES IDX 14 14 15 15 16 16 17 17 18 18 19 19 20 20 21 21 22 22 23 23
REMARK SMILES IDX 24 24
REMARK H PARENT
REMARK Flexibility Score: inf
ROOT
ATOM      1  C   UNL     1      10.744   4.515  29.195  1.00  0.00     0.000 C 
ENDROOT
BRANCH   1   2
ATOM      2  C   UNL     1      11.230   5.836  29.828  1.00  0.00     0.000 C 
BRANCH   2   3
ATOM      3  C   UNL     1      10.131   6.904  29.949  1.00  0.00     0.000 C 
BRANCH   3   4
ATOM      4  C   UNL     1       9.858   7.318  31.405  1.00  0.00    -0.000 C 
BRANCH   4   5
ATOM      5  C   UNL     1      11.085   7.133  32.310  1.00  0.00    -0.000 C 
BRANCH   5   6
ATOM      6  C   UNL     1      10.736   6.464  33.649  1.00  0.00    -0.000 C 
BRANCH   6   7
ATOM      7  C   UNL     1      10.009   5.133  33.423  1.00  0.00    -0.000 C 
BRANCH   7   8
ATOM      8  C   UNL     1      10.219   4.182  34.612  1.00  0.00    -0.000 C 
BRANCH   8   9
ATOM      9  C   UNL     1      10.387   4.940  35.947  1.00  0.00    -0.000 C 
BRANCH   9  10
ATOM     10  C   UNL     1      11.625   4.506  36.756  1.00  0.00    -0.000 C 
BRANCH  10  11
ATOM     11  C   UNL     1      12.506   3.450  36.067  1.00  0.00    -0.003 C 
ATOM     12  C   UNL     1      13.866   4.000  35.637  1.00  0.00     0.004 C 
ENDBRANCH  10  11
ENDBRANCH   9  10
ENDBRANCH   8   9
ENDBRANCH   7   8
ENDBRANCH   6   7
ENDBRANCH   5   6
ENDBRANCH   4   5
ENDBRANCH   3   4
ENDBRANCH   2   3
ENDBRANCH   1   2
BRANCH   1  13
ATOM     13  C   UNL     1       9.553   3.910  29.960  1.00  0.00     0.000 C 
BRANCH  13  14
ATOM     14  C   UNL     1       9.571   2.373  29.959  1.00  0.00     0.000 C 
BRANCH  14  15
ATOM     15  C   UNL     1       9.369   1.777  31.363  1.00  0.00     0.000 C 
BRANCH  15  16
ATOM     16  C   UNL     1      10.712   1.451  32.052  1.00  0.00     0.000 C 
BRANCH  16  17
ATOM     17  C   UNL     1      11.844   1.116  31.066  1.00  0.00     0.000 C 
BRANCH  17  18
ATOM     18  C   UNL     1      13.089   1.992  31.266  1.00  0.00     0.000 C 
BRANCH  18  19
ATOM     19  C   UNL     1      12.769   3.213  32.138  1.00  0.00     0.000 C 
BRANCH  19  20
ATOM     20  C   UNL     1      13.784   4.339  31.901  1.00  0.00     0.006 C 
BRANCH  20  21
ATOM     21  C   UNL     1      14.481   4.215  30.540  1.00  0.00     0.053 C 
BRANCH  21  22
ATOM     22  C   UNL     1      15.939   4.551  30.631  1.00  0.00     0.041 C 
ATOM     23  O   UNL     1      16.623   4.148  31.608  1.00  0.00    -0.550 OA
ATOM     24  O   UNL     1      16.533   5.339  29.654  1.00  0.00    -0.550 OA
ENDBRANCH  21  22
ENDBRANCH  20  21
ENDBRANCH  19  20
ENDBRANCH  18  19
ENDBRANCH  17  18
ENDBRANCH  16  17
ENDBRANCH  15  16
ENDBRANCH  14  15
ENDBRANCH  13  14
ENDBRANCH   1  13
TORSDOF 20
ENDMDL
MODEL 3
REMARK VINA RESULT:    -2.967      2.142      5.441
REMARK INTER + INTRA:         -10.277
REMARK INTER:                  -6.545
REMARK INTRA:                  -3.732
REMARK UNBOUND:                -3.840
REMARK SMILES CCCCCCCCCCCCCCCCCCCCCC(=O)[O-]
REMARK SMILES IDX 12 1 11 2 10 3 9 4 8 5 7 6 6 7 5 8 4 9 3 10 2 11 1 12 13 13
REMARK SMILES IDX 14 14 15 15 16 16 17 17 18 18 19 19 20 20 21 21 22 22 23 23
REMARK SMILES IDX 24 24
REMARK H PARENT
REMARK Flexibility Score: inf
ROOT
ATOM      1  C   UNL     1      11.365   1.620  30.413  1.00  0.00     0.000 C 
ENDROOT
BRANCH   1   2
ATOM      2  C   UNL     1      11.563   1.141  28.959  1.00  0.00     0.000 C 
BRANCH   2   3
ATOM      3  C   UNL     1      12.549   2.003  28.154  1.00  0.00     0.000 C 
BRANCH   3   4
ATOM      4  C   UNL     1      12.134   3.481  28.085  1.00  0.00    -0.000 C 
BRANCH   4   5
ATOM      5  C   UNL     1      13.319   4.414  27.790  1.00  0.00    -0.000 C 
BRANCH   5   6
ATOM      6  C   UNL     1      13.482   5.515  28.850  1.00  0.00    -0.000 C 
BRANCH   6   7
ATOM      7  C   UNL     1      12.741   5.148  30.141  1.00  0.00    -0.000 C 
BRANCH   7   8
ATOM      8  C   UNL     1      13.730   4.884  31.288  1.00  0.00    -0.000 C 
BRANCH   8   9
ATOM      9  C   UNL     1      14.250   3.430  31.291  1.00  0.00    -0.000 C 
BRANCH   9  10
ATOM     10  C   UNL     1      15.787   3.321  31.258  1.00  0.00    -0.000 C 
BRANCH  10  11
ATOM     11  C   UNL     1      16.415   3.509  29.867  1.00  0.00    -0.003 C 
ATOM     12  C   UNL     1      17.097   4.868  29.702  1.00  0.00     0.004 C 
ENDBRANCH  10  11
ENDBRANCH   9  10
ENDBRANCH   8   9
ENDBRANCH   7   8
ENDBRANCH   6   7
ENDBRANCH   5   6
ENDBRANCH   4   5
ENDBRANCH   3   4
ENDBRANCH   2   3
ENDBRANCH   1   2
BRANCH   1  13
ATOM     13  C   UNL     1       9.887   1.911  30.731  1.00  0.00     0.000 C 
BRANCH  13  14
ATOM     14  C   UNL     1       9.656   3.359  31.193  1.00  0.00     0.000 C 
BRANCH  14  15
ATOM     15  C   UNL     1      10.392   3.687  32.503  1.00  0.00     0.000 C 
BRANCH  15  16
ATOM     16  C   UNL     1       9.419   3.835  33.692  1.00  0.00     0.000 C 
BRANCH  16  17
ATOM     17  C   UNL     1       9.435   5.236  34.329  1.00  0.00     0.000 C 
BRANCH  17  18
ATOM     18  C   UNL     1      10.793   5.939  34.194  1.00  0.00     0.000 C 
BRANCH  18  19
ATOM     19  C   UNL     1      10.622   7.372  33.677  1.00  0.00     0.000 C 
BRANCH  19  20
ATOM     20  C   UNL     1      10.823   7.436  32.156  1.00  0.00     0.006 C 
BRANCH  20  21
ATOM     21  C   UNL     1       9.494   7.370  31.392  1.00  0.00     0.053 C 
BRANCH  21  22
ATOM     22  C   UNL     1       9.708   7.314  29.910  1.00  0.00     0.041 C 
ATOM     23  O   UNL     1       9.417   6.272  29.266  1.00  0.00    -0.550 OA
ATOM     24  O   UNL     1      10.261   8.401  29.246  1.00  0.00    -0.550 OA
ENDBRANCH  21  22
ENDBRANCH  20  21
ENDBRANCH  19  20
ENDBRANCH  18  19
ENDBRANCH  17  18
ENDBRANCH  16  17
ENDBRANCH  15  16
ENDBRANCH  14  15
ENDBRANCH  13  14
ENDBRANCH   1  13
TORSDOF 20
ENDMDL
MODEL 4
REMARK VINA RESULT:    -2.947     10.533     13.899
REMARK INTER + INTRA:         -10.232
REMARK INTER:                  -8.750
REMARK INTRA:                  -1.482
REMARK UNBOUND:                -3.840
REMARK SMILES CCCCCCCCCCCCCCCCCCCCCC(=O)[O-]
REMARK SMILES IDX 12 1 11 2 10 3 9 4 8 5 7 6 6 7 5 8 4 9 3 10 2 11 1 12 13 13
REMARK SMILES IDX 14 14 15 15 16 16 17 17 18 18 19 19 20 20 21 21 22 22 23 23
REMARK SMILES IDX 24 24
REMARK H PARENT
REMARK Flexibility Score: inf
ROOT
ATOM      1  C   UNL     1      22.423   2.045  29.367  1.00  0.00     0.000 C 
ENDROOT
BRANCH   1   2
ATOM      2  C   UNL     1      21.631   3.276  28.878  1.00  0.00     0.000 C 
BRANCH   2   3
ATOM      3  C   UNL     1      22.418   4.171  27.907  1.00  0.00     0.000 C 
BRANCH   3   4
ATOM      4  C   UNL     1      23.471   3.395  27.099  1.00  0.00    -0.000 C 
BRANCH   4   5
ATOM      5  C   UNL     1      23.909   4.144  25.830  1.00  0.00    -0.000 C 
BRANCH   5   6
ATOM      6  C   UNL     1      23.061   5.397  25.562  1.00  0.00    -0.000 C 
BRANCH   6   7
ATOM      7  C   UNL     1      23.905   6.670  25.703  1.00  0.00    -0.000 C 
BRANCH   7   8
ATOM      8  C   UNL     1      23.641   7.360  27.051  1.00  0.00    -0.000 C 
BRANCH   8   9
ATOM      9  C   UNL     1      24.353   8.725  27.161  1.00  0.00    -0.000 C 
BRANCH   9  10
ATOM     10  C   UNL     1      25.553   8.723  28.129  1.00  0.00    -0.000 C 
BRANCH  10  11
ATOM     11  C   UNL     1      26.460   7.485  28.026  1.00  0.00    -0.003 C 
ATOM     12  C   UNL     1      27.278   7.454  26.735  1.00  0.00     0.004 C 
ENDBRANCH  10  11
ENDBRANCH   9  10
ENDBRANCH   8   9
ENDBRANCH   7   8
ENDBRANCH   6   7
ENDBRANCH   5   6
ENDBRANCH   4   5
ENDBRANCH   3   4
ENDBRANCH   2   3
ENDBRANCH   1   2
BRANCH   1  13
ATOM     13  C   UNL     1      22.540   2.003  30.902  1.00  0.00     0.000 C 
BRANCH  13  14
ATOM     14  C   UNL     1      21.636   3.038  31.591  1.00  0.00     0.000 C 
BRANCH  14  15
ATOM     15  C   UNL     1      22.436   4.140  32.306  1.00  0.00     0.000 C 
BRANCH  15  16
ATOM     16  C   UNL     1      21.945   5.553  31.925  1.00  0.00     0.000 C 
BRANCH  16  17
ATOM     17  C   UNL     1      21.856   6.517  33.121  1.00  0.00     0.000 C 
BRANCH  17  18
ATOM     18  C   UNL     1      20.537   6.387  33.897  1.00  0.00     0.000 C 
BRANCH  18  19
ATOM     19  C   UNL     1      20.315   7.597  34.812  1.00  0.00     0.000 C 
BRANCH  19  20
ATOM     20  C   UNL     1      21.638   8.062  35.438  1.00  0.00     0.006 C 
BRANCH  20  21
ATOM     21  C   UNL     1      21.647   7.898  36.964  1.00  0.00     0.053 C 
BRANCH  21  22
ATOM     22  C   UNL     1      21.664   9.223  37.664  1.00  0.00     0.041 C 
ATOM     23  O   UNL     1      22.759   9.800  37.901  1.00  0.00    -0.550 OA
ATOM     24  O   UNL     1      20.475   9.804  38.083  1.00  0.00    -0.550 OA
ENDBRANCH  21  22
ENDBRANCH  20  21
ENDBRANCH  19  20
ENDBRANCH  18  19
ENDBRANCH  17  18
ENDBRANCH  16  17
ENDBRANCH  15  16
ENDBRANCH  14  15
ENDBRANCH  13  14
ENDBRANCH   1  13
TORSDOF 20
ENDMDL
MODEL 5
REMARK VINA RESULT:    -2.935      2.482      5.028
REMARK INTER + INTRA:         -10.206
REMARK INTER:                  -6.209
REMARK INTRA:                  -3.996
REMARK UNBOUND:                -3.840
REMARK SMILES CCCCCCCCCCCCCCCCCCCCCC(=O)[O-]
REMARK SMILES IDX 12 1 11 2 10 3 9 4 8 5 7 6 6 7 5 8 4 9 3 10 2 11 1 12 13 13
REMARK SMILES IDX 14 14 15 15 16 16 17 17 18 18 19 19 20 20 21 21 22 22 23 23
REMARK SMILES IDX 24 24
REMARK H PARENT
REMARK Flexibility Score: inf
ROOT
ATOM      1  C   UNL     1      12.127   2.043  30.844  1.00  0.00     0.000 C 
ENDROOT
BRANCH   1   2
ATOM      2  C   UNL     1      11.554   3.457  30.614  1.00  0.00     0.000 C 
BRANCH   2   3
ATOM      3  C   UNL     1      10.304   3.478  29.719  1.00  0.00     0.000 C 
BRANCH   3   4
ATOM      4  C   UNL     1       9.931   4.892  29.245  1.00  0.00    -0.000 C 
BRANCH   4   5
ATOM      5  C   UNL     1      10.869   5.970  29.812  1.00  0.00    -0.000 C 
BRANCH   5   6
ATOM      6  C   UNL     1      10.143   7.293  30.099  1.00  0.00    -0.000 C 
BRANCH   6   7
ATOM      7  C   UNL     1       9.515   7.282  31.499  1.00  0.00    -0.000 C 
BRANCH   7   8
ATOM      8  C   UNL     1      10.484   7.861  32.541  1.00  0.00    -0.000 C 
BRANCH   8   9
ATOM      9  C   UNL     1      10.548   7.003  33.823  1.00  0.00    -0.000 C 
BRANCH   9  10
ATOM     10  C   UNL     1      11.220   5.631  33.619  1.00  0.00    -0.000 C 
BRANCH  10  11
ATOM     11  C   UNL     1      12.713   5.695  33.253  1.00  0.00    -0.003 C 
ATOM     12  C   UNL     1      13.553   4.663  34.005  1.00  0.00     0.004 C 
ENDBRANCH  10  11
ENDBRANCH   9  10
ENDBRANCH   8   9
ENDBRANCH   7   8
ENDBRANCH   6   7
ENDBRANCH   5   6
ENDBRANCH   4   5
ENDBRANCH   3   4
ENDBRANCH   2   3
ENDBRANCH   1   2
BRANCH   1  13
ATOM     13  C   UNL     1      12.062   1.177  29.573  1.00  0.00     0.000 C 
BRANCH  13  14
ATOM     14  C   UNL     1      13.363   1.228  28.757  1.00  0.00     0.000 C 
BRANCH  14  15
ATOM     15  C   UNL     1      13.185   1.933  27.401  1.00  0.00     0.000 C 
BRANCH  15  16
ATOM     16  C   UNL     1      14.102   3.167  27.266  1.00  0.00     0.000 C 
BRANCH  16  17
ATOM     17  C   UNL     1      13.373   4.504  27.490  1.00  0.00     0.000 C 
BRANCH  17  18
ATOM     18  C   UNL     1      14.149   5.462  28.404  1.00  0.00     0.000 C 
BRANCH  18  19
ATOM     19  C   UNL     1      15.299   4.736  29.112  1.00  0.00     0.000 C 
BRANCH  19  20
ATOM     20  C   UNL     1      15.018   4.595  30.615  1.00  0.00     0.006 C 
BRANCH  20  21
ATOM     21  C   UNL     1      15.804   3.438  31.246  1.00  0.00     0.053 C 
BRANCH  21  22
ATOM     22  C   UNL     1      17.037   3.922  31.946  1.00  0.00     0.041 C 
ATOM     23  O   UNL     1      18.076   4.189  31.287  1.00  0.00    -0.550 OA
ATOM     24  O   UNL     1      17.049   4.046  33.329  1.00  0.00    -0.550 OA
ENDBRANCH  21  22
ENDBRANCH  20  21
ENDBRANCH  19  20
ENDBRANCH  18  19
ENDBRANCH  17  18
ENDBRANCH  16  17
ENDBRANCH  15  16
ENDBRANCH  14  15
ENDBRANCH  13  14
ENDBRANCH   1  13
TORSDOF 20
ENDMDL
MODEL 6
REMARK VINA RESULT:    -2.886      2.148      4.576
REMARK INTER + INTRA:         -10.099
REMARK INTER:                  -6.224
REMARK INTRA:                  -3.875
REMARK UNBOUND:                -3.840
REMARK SMILES CCCCCCCCCCCCCCCCCCCCCC(=O)[O-]
REMARK SMILES IDX 12 1 11 2 10 3 9 4 8 5 7 6 6 7 5 8 4 9 3 10 2 11 1 12 13 13
REMARK SMILES IDX 14 14 15 15 16 16 17 17 18 18 19 19 20 20 21 21 22 22 23 23
REMARK SMILES IDX 24 24
REMARK H PARENT
REMARK Flexibility Score: inf
ROOT
ATOM      1  C   UNL     1      13.057   4.919  31.899  1.00  0.00     0.000 C 
ENDROOT
BRANCH   1   2
ATOM      2  C   UNL     1      12.597   5.532  33.239  1.00  0.00     0.000 C 
BRANCH   2   3
ATOM      3  C   UNL     1      11.521   6.620  33.083  1.00  0.00     0.000 C 
BRANCH   3   4
ATOM      4  C   UNL     1      10.092   6.075  33.242  1.00  0.00    -0.000 C 
BRANCH   4   5
ATOM      5  C   UNL     1       9.304   6.096  31.923  1.00  0.00    -0.000 C 
BRANCH   5   6
ATOM      6  C   UNL     1       9.756   7.224  30.983  1.00  0.00    -0.000 C 
BRANCH   6   7
ATOM      7  C   UNL     1      10.174   6.666  29.617  1.00  0.00    -0.000 C 
BRANCH   7   8
ATOM      8  C   UNL     1       9.720   5.207  29.455  1.00  0.00    -0.000 C 
BRANCH   8   9
ATOM      9  C   UNL     1      10.890   4.264  29.101  1.00  0.00    -0.000 C 
BRANCH   9  10
ATOM     10  C   UNL     1      10.711   2.828  29.632  1.00  0.00    -0.000 C 
BRANCH  10  11
ATOM     11  C   UNL     1       9.512   2.636  30.577  1.00  0.00    -0.003 C 
ATOM     12  C   UNL     1       9.932   2.396  32.027  1.00  0.00     0.004 C 
ENDBRANCH  10  11
ENDBRANCH   9  10
ENDBRANCH   8   9
ENDBRANCH   7   8
ENDBRANCH   6   7
ENDBRANCH   5   6
ENDBRANCH   4   5
ENDBRANCH   3   4
ENDBRANCH   2   3
ENDBRANCH   1   2
BRANCH   1  13
ATOM     13  C   UNL     1      13.539   3.466  32.062  1.00  0.00     0.000 C 
BRANCH  13  14
ATOM     14  C   UNL     1      14.501   3.293  33.248  1.00  0.00     0.000 C 
BRANCH  14  15
ATOM     15  C   UNL     1      15.904   3.854  32.960  1.00  0.00     0.000 C 
BRANCH  15  16
ATOM     16  C   UNL     1      16.743   2.896  32.088  1.00  0.00     0.000 C 
BRANCH  16  17
ATOM     17  C   UNL     1      17.576   3.614  31.012  1.00  0.00     0.000 C 
BRANCH  17  18
ATOM     18  C   UNL     1      16.818   3.790  29.688  1.00  0.00     0.000 C 
BRANCH  18  19
ATOM     19  C   UNL     1      16.236   5.204  29.571  1.00  0.00     0.000 C 
BRANCH  19  20
ATOM     20  C   UNL     1      14.903   5.189  28.810  1.00  0.00     0.006 C 
BRANCH  20  21
ATOM     21  C   UNL     1      14.472   3.768  28.424  1.00  0.00     0.053 C 
BRANCH  21  22
ATOM     22  C   UNL     1      14.287   3.627  26.944  1.00  0.00     0.041 C 
ATOM     23  O   UNL     1      15.214   3.160  26.231  1.00  0.00    -0.550 OA
ATOM     24  O   UNL     1      13.104   4.044  26.348  1.00  0.00    -0.550 OA
ENDBRANCH  21  22
ENDBRANCH  20  21
ENDBRANCH  19  20
ENDBRANCH  18  19
ENDBRANCH  17  18
ENDBRANCH  16  17
ENDBRANCH  15  16
ENDBRANCH  14  15
ENDBRANCH  13  14
ENDBRANCH   1  13
TORSDOF 20
ENDMDL
MODEL 7
REMARK VINA RESULT:    -2.872      2.562      5.637
REMARK INTER + INTRA:         -10.071
REMARK INTER:                  -5.940
REMARK INTRA:                  -4.131
REMARK UNBOUND:                -3.840
REMARK SMILES CCCCCCCCCCCCCCCCCCCCCC(=O)[O-]
REMARK SMILES IDX 12 1 11 2 10 3 9 4 8 5 7 6 6 7 5 8 4 9 3 10 2 11 1 12 13 13
REMARK SMILES IDX 14 14 15 15 16 16 17 17 18 18 19 19 20 20 21 21 22 22 23 23
REMARK SMILES IDX 24 24
REMARK H PARENT
REMARK Flexibility Score: inf
ROOT
ATOM      1  C   UNL     1      10.323   6.351  33.852  1.00  0.00     0.000 C 
ENDROOT
BRANCH   1   2
ATOM      2  C   UNL     1       9.227   5.282  33.656  1.00  0.00     0.000 C 
BRANCH   2   3
ATOM      3  C   UNL     1       9.773   3.846  33.580  1.00  0.00     0.000 C 
BRANCH   3   4
ATOM      4  C   UNL     1       8.915   2.926  32.697  1.00  0.00    -0.000 C 
BRANCH   4   5
ATOM      5  C   UNL     1       9.761   2.080  31.731  1.00  0.00    -0.000 C 
BRANCH   5   6
ATOM      6  C   UNL     1       9.169   2.035  30.314  1.00  0.00    -0.000 C 
BRANCH   6   7
ATOM      7  C   UNL     1      10.280   1.947  29.259  1.00  0.00    -0.000 C 
BRANCH   7   8
ATOM      8  C   UNL     1      11.603   1.486  29.889  1.00  0.00    -0.000 C 
BRANCH   8   9
ATOM      9  C   UNL     1      12.826   1.861  29.025  1.00  0.00    -0.000 C 
BRANCH   9  10
ATOM     10  C   UNL     1      12.458   2.532  27.687  1.00  0.00    -0.000 C 
BRANCH  10  11
ATOM     11  C   UNL     1      13.330   3.743  27.314  1.00  0.00    -0.003 C 
ATOM     12  C   UNL     1      14.696   3.725  28.000  1.00  0.00     0.004 C 
ENDBRANCH  10  11
ENDBRANCH   9  10
ENDBRANCH   8   9
ENDBRANCH   7   8
ENDBRANCH   6   7
ENDBRANCH   5   6
ENDBRANCH   4   5
ENDBRANCH   3   4
ENDBRANCH   2   3
ENDBRANCH   1   2
BRANCH   1  13
ATOM     13  C   UNL     1      10.305   7.410  32.734  1.00  0.00     0.000 C 
BRANCH  13  14
ATOM     14  C   UNL     1       9.545   6.938  31.485  1.00  0.00     0.000 C 
BRANCH  14  15
ATOM     15  C   UNL     1      10.474   6.685  30.286  1.00  0.00     0.000 C 
BRANCH  15  16
ATOM     16  C   UNL     1      11.072   5.263  30.306  1.00  0.00     0.000 C 
BRANCH  16  17
ATOM     17  C   UNL     1      12.576   5.232  30.634  1.00  0.00     0.000 C 
BRANCH  17  18
ATOM     18  C   UNL     1      12.907   4.332  31.833  1.00  0.00     0.000 C 
BRANCH  18  19
ATOM     19  C   UNL     1      13.360   5.166  33.038  1.00  0.00     0.000 C 
BRANCH  19  20
ATOM     20  C   UNL     1      14.045   4.284  34.091  1.00  0.00     0.006 C 
BRANCH  20  21
ATOM     21  C   UNL     1      13.134   4.002  35.293  1.00  0.00     0.053 C 
BRANCH  21  22
ATOM     22  C   UNL     1      12.694   2.571  35.331  1.00  0.00     0.041 C 
ATOM     23  O   UNL     1      12.980   1.794  34.382  1.00  0.00    -0.550 OA
ATOM     24  O   UNL     1      11.937   2.104  36.398  1.00  0.00    -0.550 OA
ENDBRANCH  21  22
ENDBRANCH  20  21
ENDBRANCH  19  20
ENDBRANCH  18  19
ENDBRANCH  17  18
ENDBRANCH  16  17
ENDBRANCH  15  16
ENDBRANCH  14  15
ENDBRANCH  13  14
ENDBRANCH   1  13
TORSDOF 20
ENDMDL
MODEL 8
REMARK VINA RESULT:    -2.858      2.560      5.075
REMARK INTER + INTRA:         -10.038
REMARK INTER:                  -5.465
REMARK INTRA:                  -4.573
REMARK UNBOUND:                -3.840
REMARK SMILES CCCCCCCCCCCCCCCCCCCCCC(=O)[O-]
REMARK SMILES IDX 12 1 11 2 10 3 9 4 8 5 7 6 6 7 5 8 4 9 3 10 2 11 1 12 13 13
REMARK SMILES IDX 14 14 15 15 16 16 17 17 18 18 19 19 20 20 21 21 22 22 23 23
REMARK SMILES IDX 24 24
REMARK H PARENT
REMARK Flexibility Score: inf
ROOT
ATOM      1  C   UNL     1      10.310   2.102  34.018  1.00  0.00     0.000 C 
ENDROOT
BRANCH   1   2
ATOM      2  C   UNL     1      10.102   1.232  32.760  1.00  0.00     0.000 C 
BRANCH   2   3
ATOM      3  C   UNL     1      11.144   1.484  31.657  1.00  0.00     0.000 C 
BRANCH   3   4
ATOM      4  C   UNL     1      10.517   1.989  30.347  1.00  0.00    -0.000 C 
BRANCH   4   5
ATOM      5  C   UNL     1       9.625   3.222  30.558  1.00  0.00    -0.000 C 
BRANCH   5   6
ATOM      6  C   UNL     1      10.037   4.407  29.670  1.00  0.00    -0.000 C 
BRANCH   6   7
ATOM      7  C   UNL     1      11.326   4.093  28.900  1.00  0.00    -0.000 C 
BRANCH   7   8
ATOM      8  C   UNL     1      12.350   5.230  29.053  1.00  0.00    -0.000 C 
BRANCH   8   9
ATOM      9  C   UNL     1      13.805   4.713  29.050  1.00  0.00    -0.000 C 
BRANCH   9  10
ATOM     10  C   UNL     1      13.919   3.182  29.193  1.00  0.00    -0.000 C 
BRANCH  10  11
ATOM     11  C   UNL     1      14.501   2.703  30.534  1.00  0.00    -0.003 C 
ATOM     12  C   UNL     1      15.607   3.617  31.061  1.00  0.00     0.004 C 
ENDBRANCH  10  11
ENDBRANCH   9  10
ENDBRANCH   8   9
ENDBRANCH   7   8
ENDBRANCH   6   7
ENDBRANCH   5   6
ENDBRANCH   4   5
ENDBRANCH   3   4
ENDBRANCH   2   3
ENDBRANCH   1   2
BRANCH   1  13
ATOM     13  C   UNL     1       9.003   2.766  34.486  1.00  0.00     0.000 C 
BRANCH  13  14
ATOM     14  C   UNL     1       8.929   4.254  34.109  1.00  0.00     0.000 C 
BRANCH  14  15
ATOM     15  C   UNL     1       9.665   5.158  35.113  1.00  0.00     0.000 C 
BRANCH  15  16
ATOM     16  C   UNL     1      10.263   6.409  34.435  1.00  0.00     0.000 C 
BRANCH  16  17
ATOM     17  C   UNL     1      10.444   6.258  32.914  1.00  0.00     0.000 C 
BRANCH  17  18
ATOM     18  C   UNL     1      11.919   6.191  32.492  1.00  0.00     0.000 C 
BRANCH  18  19
ATOM     19  C   UNL     1      12.521   4.817  32.812  1.00  0.00     0.000 C 
BRANCH  19  20
ATOM     20  C   UNL     1      13.616   4.933  33.883  1.00  0.00     0.006 C 
BRANCH  20  21
ATOM     21  C   UNL     1      13.507   3.830  34.944  1.00  0.00     0.053 C 
BRANCH  21  22
ATOM     22  C   UNL     1      14.403   2.670  34.632  1.00  0.00     0.041 C 
ATOM     23  O   UNL     1      15.598   2.667  35.030  1.00  0.00    -0.550 OA
ATOM     24  O   UNL     1      13.928   1.609  33.872  1.00  0.00    -0.550 OA
ENDBRANCH  21  22
ENDBRANCH  20  21
ENDBRANCH  19  20
ENDBRANCH  18  19
ENDBRANCH  17  18
ENDBRANCH  16  17
ENDBRANCH  15  16
ENDBRANCH  14  15
ENDBRANCH  13  14
ENDBRANCH   1  13
TORSDOF 20
ENDMDL
MODEL 9
REMARK VINA RESULT:    -2.798      2.041      3.871
REMARK INTER + INTRA:          -9.908
REMARK INTER:                  -5.864
REMARK INTRA:                  -4.044
REMARK UNBOUND:                -3.840
REMARK SMILES CCCCCCCCCCCCCCCCCCCCCC(=O)[O-]
REMARK SMILES IDX 12 1 11 2 10 3 9 4 8 5 7 6 6 7 5 8 4 9 3 10 2 11 1 12 13 13
REMARK SMILES IDX 14 14 15 15 16 16 17 17 18 18 19 19 20 20 21 21 22 22 23 23
REMARK SMILES IDX 24 24
REMARK H PARENT
REMARK Flexibility Score: inf
ROOT
ATOM      1  C   UNL     1       9.532   5.589  35.903  1.00  0.00     0.000 C 
ENDROOT
BRANCH   1   2
ATOM      2  C   UNL     1       8.961   4.849  34.675  1.00  0.00     0.000 C 
BRANCH   2   3
ATOM      3  C   UNL     1       9.434   5.429  33.331  1.00  0.00     0.000 C 
BRANCH   3   4
ATOM      4  C   UNL     1      10.373   6.635  33.497  1.00  0.00    -0.000 C 
BRANCH   4   5
ATOM      5  C   UNL     1      10.765   7.267  32.152  1.00  0.00    -0.000 C 
BRANCH   5   6
ATOM      6  C   UNL     1       9.558   7.477  31.225  1.00  0.00    -0.000 C 
BRANCH   6   7
ATOM      7  C   UNL     1       9.731   6.699  29.914  1.00  0.00    -0.000 C 
BRANCH   7   8
ATOM      8  C   UNL     1      11.129   6.065  29.830  1.00  0.00    -0.000 C 
BRANCH   8   9
ATOM      9  C   UNL     1      11.074   4.578  29.415  1.00  0.00    -0.000 C 
BRANCH   9  10
ATOM     10  C   UNL     1       9.706   3.914  29.667  1.00  0.00    -0.000 C 
BRANCH  10  11
ATOM     11  C   UNL     1       9.764   2.615  30.489  1.00  0.00    -0.003 C 
ATOM     12  C   UNL     1      10.865   1.664  30.020  1.00  0.00     0.004 C 
ENDBRANCH  10  11
ENDBRANCH   9  10
ENDBRANCH   8   9
ENDBRANCH   7   8
ENDBRANCH   6   7
ENDBRANCH   5   6
ENDBRANCH   4   5
ENDBRANCH   3   4
ENDBRANCH   2   3
ENDBRANCH   1   2
BRANCH   1  13
ATOM     13  C   UNL     1      10.135   4.618  36.935  1.00  0.00     0.000 C 
BRANCH  13  14
ATOM     14  C   UNL     1      11.601   4.944  37.265  1.00  0.00     0.000 C 
BRANCH  14  15
ATOM     15  C   UNL     1      12.585   3.927  36.662  1.00  0.00     0.000 C 
BRANCH  15  16
ATOM     16  C   UNL     1      12.874   4.214  35.174  1.00  0.00     0.000 C 
BRANCH  16  17
ATOM     17  C   UNL     1      12.274   3.169  34.217  1.00  0.00     0.000 C 
BRANCH  17  18
ATOM     18  C   UNL     1      12.501   3.513  32.738  1.00  0.00     0.000 C 
BRANCH  18  19
ATOM     19  C   UNL     1      13.390   4.754  32.592  1.00  0.00     0.000 C 
BRANCH  19  20
ATOM     20  C   UNL     1      14.490   4.522  31.545  1.00  0.00     0.006 C 
BRANCH  20  21
ATOM     21  C   UNL     1      14.237   3.261  30.709  1.00  0.00     0.053 C 
BRANCH  21  22
ATOM     22  C   UNL     1      15.411   2.331  30.739  1.00  0.00     0.041 C 
ATOM     23  O   UNL     1      15.443   1.376  31.560  1.00  0.00    -0.550 OA
ATOM     24  O   UNL     1      16.486   2.539  29.883  1.00  0.00    -0.550 OA
ENDBRANCH  21  22
ENDBRANCH  20  21
ENDBRANCH  19  20
ENDBRANCH  18  19
ENDBRANCH  17  18
ENDBRANCH  16  17
ENDBRANCH  15  16
ENDBRANCH  14  15
ENDBRANCH  13  14
ENDBRANCH   1  13
TORSDOF 20
ENDMDL
