MODEL 1
REMARK VINA RESULT:    -5.770      0.000      0.000
REMARK INTER + INTRA:          -8.242
REMARK INTER:                  -7.794
REMARK INTRA:                  -0.447
REMARK UNBOUND:                -0.447
REMARK SMILES COc1ccc(-c2cc(=O)c3c(OC)c(OC)c(OC)cc3o2)cc1OC
REMARK SMILES IDX 7 1 8 2 9 3 10 4 11 5 12 6 15 7 18 8 21 9 22 10 23 11 6 12
REMARK SMILES IDX 3 13 25 14 4 15 24 16 5 17 2 18 1 19 26 20 27 21 13 22 14 23
REMARK SMILES IDX 19 24 20 25 16 26 17 27
REMARK H PARENT
REMARK Flexibility Score: inf
ROOT
ATOM      1  C   UNL     1      12.001  37.116  15.440  1.00  0.00     0.138 A 
ATOM      2  C   UNL     1      12.380  35.772  15.571  1.00  0.00     0.100 A 
ATOM      3  C   UNL     1      12.828  35.303  16.806  1.00  0.00     0.197 A 
ATOM      4  O   UNL     1      13.164  34.092  16.904  1.00  0.00    -0.289 OA
ATOM      5  C   UNL     1      12.903  36.186  17.909  1.00  0.00     0.111 A 
ATOM      6  C   UNL     1      13.352  35.786  19.194  1.00  0.00     0.179 A 
ATOM      7  C   UNL     1      13.399  36.740  20.252  1.00  0.00     0.204 A 
ATOM      8  C   UNL     1      12.999  38.081  20.005  1.00  0.00     0.168 A 
ATOM      9  C   UNL     1      12.562  38.448  18.724  1.00  0.00     0.098 A 
ATOM     10  C   UNL     1      12.512  37.523  17.690  1.00  0.00     0.146 A 
ATOM     11  O   UNL     1      12.089  37.922  16.495  1.00  0.00    -0.456 OA
ENDROOT
BRANCH   1  12
ATOM     12  C   UNL     1      11.518  37.677  14.151  1.00  0.00     0.021 A 
ATOM     13  C   UNL     1      10.582  38.684  11.683  1.00  0.00     0.160 A 
ATOM     14  C   UNL     1      10.112  37.451  12.160  1.00  0.00     0.161 A 
ATOM     15  C   UNL     1      11.527  39.402  12.437  1.00  0.00     0.051 A 
ATOM     16  C   UNL     1      10.584  36.952  13.390  1.00  0.00     0.062 A 
ATOM     17  C   UNL     1      11.993  38.902  13.654  1.00  0.00     0.016 A 
BRANCH  13  18
ATOM     18  O   UNL     1      10.089  39.157  10.457  1.00  0.00    -0.493 OA
ATOM     19  C   UNL     1       8.825  39.789  10.286  1.00  0.00     0.278 C 
ENDBRANCH  13  18
BRANCH  14  20
ATOM     20  O   UNL     1       9.174  36.752  11.382  1.00  0.00    -0.493 OA
ATOM     21  C   UNL     1       9.507  35.791  10.385  1.00  0.00     0.278 C 
ENDBRANCH  14  20
ENDBRANCH   1  12
BRANCH   6  22
ATOM     22  O   UNL     1      13.741  34.440  19.362  1.00  0.00    -0.492 OA
ATOM     23  C   UNL     1      15.049  33.936  19.610  1.00  0.00     0.278 C 
ENDBRANCH   6  22
BRANCH   8  24
ATOM     24  O   UNL     1      13.036  39.029  21.041  1.00  0.00    -0.493 OA
ATOM     25  C   UNL     1      14.149  39.862  21.354  1.00  0.00     0.278 C 
ENDBRANCH   8  24
BRANCH   7  26
ATOM     26  O   UNL     1      13.844  36.312  21.517  1.00  0.00    -0.490 OA
ATOM     27  C   UNL     1      13.048  35.905  22.625  1.00  0.00     0.278 C 
ENDBRANCH   7  26
TORSDOF 6
ENDMDL
MODEL 2
REMARK VINA RESULT:    -5.696      1.866      8.504
REMARK INTER + INTRA:          -8.142
REMARK INTER:                  -7.608
REMARK INTRA:                  -0.534
REMARK UNBOUND:                -0.447
REMARK SMILES COc1ccc(-c2cc(=O)c3c(OC)c(OC)c(OC)cc3o2)cc1OC
REMARK SMILES IDX 7 1 8 2 9 3 10 4 11 5 12 6 15 7 18 8 21 9 22 10 23 11 6 12
REMARK SMILES IDX 3 13 25 14 4 15 24 16 5 17 2 18 1 19 26 20 27 21 13 22 14 23
REMARK SMILES IDX 19 24 20 25 16 26 17 27
REMARK H PARENT
REMARK Flexibility Score: inf
ROOT
ATOM      1  C   UNL     1      12.109  38.221  15.593  1.00  0.00     0.138 A 
ATOM      2  C   UNL     1      12.100  39.221  14.610  1.00  0.00     0.100 A 
ATOM      3  C   UNL     1      11.559  38.943  13.354  1.00  0.00     0.197 A 
ATOM      4  O   UNL     1      11.560  39.855  12.483  1.00  0.00    -0.289 OA
ATOM      5  C   UNL     1      11.031  37.659  13.084  1.00  0.00     0.111 A 
ATOM      6  C   UNL     1      10.468  37.299  11.832  1.00  0.00     0.179 A 
ATOM      7  C   UNL     1       9.960  35.981  11.641  1.00  0.00     0.204 A 
ATOM      8  C   UNL     1      10.028  35.043  12.706  1.00  0.00     0.168 A 
ATOM      9  C   UNL     1      10.593  35.426  13.932  1.00  0.00     0.098 A 
ATOM     10  C   UNL     1      11.087  36.709  14.124  1.00  0.00     0.146 A 
ATOM     11  O   UNL     1      11.611  37.022  15.305  1.00  0.00    -0.456 OA
ENDROOT
BRANCH   1  12
ATOM     12  C   UNL     1      12.674  38.453  16.948  1.00  0.00     0.021 A 
ATOM     13  C   UNL     1      13.691  38.878  19.549  1.00  0.00     0.160 A 
ATOM     14  C   UNL     1      12.560  38.068  19.363  1.00  0.00     0.161 A 
ATOM     15  C   UNL     1      14.301  39.482  18.435  1.00  0.00     0.051 A 
ATOM     16  C   UNL     1      12.056  37.862  18.064  1.00  0.00     0.062 A 
ATOM     17  C   UNL     1      13.796  39.275  17.151  1.00  0.00     0.016 A 
BRANCH  13  18
ATOM     18  O   UNL     1      14.173  39.061  20.855  1.00  0.00    -0.493 OA
ATOM     19  C   UNL     1      13.955  40.229  21.639  1.00  0.00     0.278 C 
ENDBRANCH  13  18
BRANCH  14  20
ATOM     20  O   UNL     1      11.967  37.485  20.495  1.00  0.00    -0.493 OA
ATOM     21  C   UNL     1      12.129  36.124  20.881  1.00  0.00     0.278 C 
ENDBRANCH  14  20
ENDBRANCH   1  12
BRANCH   6  22
ATOM     22  O   UNL     1      10.443  38.282  10.819  1.00  0.00    -0.492 OA
ATOM     23  C   UNL     1       9.351  39.114  10.442  1.00  0.00     0.278 C 
ENDBRANCH   6  22
BRANCH   8  24
ATOM     24  O   UNL     1       9.526  33.743  12.531  1.00  0.00    -0.493 OA
ATOM     25  C   UNL     1      10.298  32.607  12.149  1.00  0.00     0.278 C 
ENDBRANCH   8  24
BRANCH   7  26
ATOM     26  O   UNL     1       9.403  35.656  10.390  1.00  0.00    -0.490 OA
ATOM     27  C   UNL     1      10.054  35.044   9.282  1.00  0.00     0.278 C 
ENDBRANCH   7  26
TORSDOF 6
ENDMDL
MODEL 3
REMARK VINA RESULT:    -5.659     10.482     12.929
REMARK INTER + INTRA:          -8.092
REMARK INTER:                  -7.598
REMARK INTRA:                  -0.493
REMARK UNBOUND:                -0.447
REMARK SMILES COc1ccc(-c2cc(=O)c3c(OC)c(OC)c(OC)cc3o2)cc1OC
REMARK SMILES IDX 7 1 8 2 9 3 10 4 11 5 12 6 15 7 18 8 21 9 22 10 23 11 6 12
REMARK SMILES IDX 3 13 25 14 4 15 24 16 5 17 2 18 1 19 26 20 27 21 13 22 14 23
REMARK SMILES IDX 19 24 20 25 16 26 17 27
REMARK H PARENT
REMARK Flexibility Score: inf
ROOT
ATOM      1  C   UNL     1      19.693  39.958  24.114  1.00  0.00     0.138 A 
ATOM      2  C   UNL     1      19.513  38.568  24.157  1.00  0.00     0.100 A 
ATOM      3  C   UNL     1      20.110  37.769  23.181  1.00  0.00     0.197 A 
ATOM      4  O   UNL     1      19.936  36.521  23.236  1.00  0.00    -0.289 OA
ATOM      5  C   UNL     1      20.883  38.366  22.157  1.00  0.00     0.111 A 
ATOM      6  C   UNL     1      21.516  37.623  21.128  1.00  0.00     0.179 A 
ATOM      7  C   UNL     1      22.275  38.304  20.132  1.00  0.00     0.204 A 
ATOM      8  C   UNL     1      22.384  39.720  20.180  1.00  0.00     0.168 A 
ATOM      9  C   UNL     1      21.744  40.429  21.208  1.00  0.00     0.098 A 
ATOM     10  C   UNL     1      21.006  39.771  22.182  1.00  0.00     0.146 A 
ATOM     11  O   UNL     1      20.420  40.489  23.134  1.00  0.00    -0.456 OA
ENDROOT
BRANCH   1  12
ATOM     12  C   UNL     1      19.082  40.863  25.122  1.00  0.00     0.021 A 
ATOM     13  C   UNL     1      17.864  42.575  27.011  1.00  0.00     0.160 A 
ATOM     14  C   UNL     1      17.087  41.642  26.308  1.00  0.00     0.161 A 
ATOM     15  C   UNL     1      19.245  42.656  26.757  1.00  0.00     0.051 A 
ATOM     16  C   UNL     1      17.699  40.793  25.365  1.00  0.00     0.062 A 
ATOM     17  C   UNL     1      19.846  41.814  25.821  1.00  0.00     0.016 A 
BRANCH  13  18
ATOM     18  O   UNL     1      17.227  43.404  27.947  1.00  0.00    -0.493 OA
ATOM     19  C   UNL     1      17.861  43.961  29.094  1.00  0.00     0.278 C 
ENDBRANCH  13  18
BRANCH  14  20
ATOM     20  O   UNL     1      15.709  41.589  26.576  1.00  0.00    -0.493 OA
ATOM     21  C   UNL     1      14.696  42.058  25.692  1.00  0.00     0.278 C 
ENDBRANCH  14  20
ENDBRANCH   1  12
BRANCH   6  22
ATOM     22  O   UNL     1      21.356  36.220  21.141  1.00  0.00    -0.492 OA
ATOM     23  C   UNL     1      20.665  35.415  20.193  1.00  0.00     0.278 C 
ENDBRANCH   6  22
BRANCH   8  24
ATOM     24  O   UNL     1      23.134  40.401  19.208  1.00  0.00    -0.493 OA
ATOM     25  C   UNL     1      22.731  40.610  17.857  1.00  0.00     0.278 C 
ENDBRANCH   8  24
BRANCH   7  26
ATOM     26  O   UNL     1      22.896  37.538  19.127  1.00  0.00    -0.490 OA
ATOM     27  C   UNL     1      24.179  36.922  19.175  1.00  0.00     0.278 C 
ENDBRANCH   7  26
TORSDOF 6
ENDMDL
MODEL 4
REMARK VINA RESULT:    -5.651      1.602      3.513
REMARK INTER + INTRA:          -8.081
REMARK INTER:                  -7.535
REMARK INTRA:                  -0.546
REMARK UNBOUND:                -0.447
REMARK SMILES COc1ccc(-c2cc(=O)c3c(OC)c(OC)c(OC)cc3o2)cc1OC
REMARK SMILES IDX 7 1 8 2 9 3 10 4 11 5 12 6 15 7 18 8 21 9 22 10 23 11 6 12
REMARK SMILES IDX 3 13 25 14 4 15 24 16 5 17 2 18 1 19 26 20 27 21 13 22 14 23
REMARK SMILES IDX 19 24 20 25 16 26 17 27
REMARK H PARENT
REMARK Flexibility Score: inf
ROOT
ATOM      1  C   UNL     1      12.021  37.937  15.590  1.00  0.00     0.138 A 
ATOM      2  C   UNL     1      12.477  39.264  15.601  1.00  0.00     0.100 A 
ATOM      3  C   UNL     1      13.098  39.765  16.746  1.00  0.00     0.197 A 
ATOM      4  O   UNL     1      13.501  40.959  16.738  1.00  0.00    -0.289 OA
ATOM      5  C   UNL     1      13.258  38.935  17.881  1.00  0.00     0.111 A 
ATOM      6  C   UNL     1      13.874  39.373  19.082  1.00  0.00     0.179 A 
ATOM      7  C   UNL     1      13.992  38.474  20.181  1.00  0.00     0.204 A 
ATOM      8  C   UNL     1      13.487  37.150  20.062  1.00  0.00     0.168 A 
ATOM      9  C   UNL     1      12.879  36.747  18.863  1.00  0.00     0.098 A 
ATOM     10  C   UNL     1      12.763  37.618  17.788  1.00  0.00     0.146 A 
ATOM     11  O   UNL     1      12.180  37.186  16.675  1.00  0.00    -0.456 OA
ENDROOT
BRANCH   1  12
ATOM     12  C   UNL     1      11.349  37.346  14.403  1.00  0.00     0.021 A 
ATOM     13  C   UNL     1      10.028  36.269  12.150  1.00  0.00     0.160 A 
ATOM     14  C   UNL     1       9.861  37.623  12.479  1.00  0.00     0.161 A 
ATOM     15  C   UNL     1      10.846  35.457  12.956  1.00  0.00     0.051 A 
ATOM     16  C   UNL     1      10.519  38.154  13.605  1.00  0.00     0.062 A 
ATOM     17  C   UNL     1      11.494  35.988  14.071  1.00  0.00     0.016 A 
BRANCH  13  18
ATOM     18  O   UNL     1       9.363  35.771  11.019  1.00  0.00    -0.493 OA
ATOM     19  C   UNL     1      10.014  35.226   9.875  1.00  0.00     0.278 C 
ENDBRANCH  13  18
BRANCH  14  20
ATOM     20  O   UNL     1       9.032  38.408  11.661  1.00  0.00    -0.493 OA
ATOM     21  C   UNL     1       9.502  39.324  10.677  1.00  0.00     0.278 C 
ENDBRANCH  14  20
ENDBRANCH   1  12
BRANCH   6  22
ATOM     22  O   UNL     1      14.345  40.703  19.128  1.00  0.00    -0.492 OA
ATOM     23  C   UNL     1      15.698  41.147  19.126  1.00  0.00     0.278 C 
ENDBRANCH   6  22
BRANCH   8  24
ATOM     24  O   UNL     1      13.602  36.254  21.136  1.00  0.00    -0.493 OA
ATOM     25  C   UNL     1      12.725  36.198  22.258  1.00  0.00     0.278 C 
ENDBRANCH   8  24
BRANCH   7  26
ATOM     26  O   UNL     1      14.614  38.935  21.357  1.00  0.00    -0.490 OA
ATOM     27  C   UNL     1      15.924  38.629  21.822  1.00  0.00     0.278 C 
ENDBRANCH   7  26
TORSDOF 6
ENDMDL
MODEL 5
REMARK VINA RESULT:    -5.651      1.823      2.531
REMARK INTER + INTRA:          -8.081
REMARK INTER:                  -7.494
REMARK INTRA:                  -0.587
REMARK UNBOUND:                -0.447
REMARK SMILES COc1ccc(-c2cc(=O)c3c(OC)c(OC)c(OC)cc3o2)cc1OC
REMARK SMILES IDX 7 1 8 2 9 3 10 4 11 5 12 6 15 7 18 8 21 9 22 10 23 11 6 12
REMARK SMILES IDX 3 13 25 14 4 15 24 16 5 17 2 18 1 19 26 20 27 21 13 22 14 23
REMARK SMILES IDX 19 24 20 25 16 26 17 27
REMARK H PARENT
REMARK Flexibility Score: inf
ROOT
ATOM      1  C   UNL     1      12.422  38.280  15.970  1.00  0.00     0.138 A 
ATOM      2  C   UNL     1      12.411  37.106  16.737  1.00  0.00     0.100 A 
ATOM      3  C   UNL     1      13.025  37.101  17.990  1.00  0.00     0.197 A 
ATOM      4  O   UNL     1      13.005  36.036  18.665  1.00  0.00    -0.289 OA
ATOM      5  C   UNL     1      13.656  38.273  18.470  1.00  0.00     0.111 A 
ATOM      6  C   UNL     1      14.305  38.344  19.730  1.00  0.00     0.179 A 
ATOM      7  C   UNL     1      14.920  39.564  20.137  1.00  0.00     0.204 A 
ATOM      8  C   UNL     1      14.878  40.693  19.274  1.00  0.00     0.168 A 
ATOM      9  C   UNL     1      14.232  40.591  18.033  1.00  0.00     0.098 A 
ATOM     10  C   UNL     1      13.630  39.406  17.632  1.00  0.00     0.146 A 
ATOM     11  O   UNL     1      13.030  39.363  16.447  1.00  0.00    -0.456 OA
ENDROOT
BRANCH   1  12
ATOM     12  C   UNL     1      11.789  38.350  14.627  1.00  0.00     0.021 A 
ATOM     13  C   UNL     1      10.569  38.420  12.080  1.00  0.00     0.160 A 
ATOM     14  C   UNL     1      10.218  37.418  12.997  1.00  0.00     0.161 A 
ATOM     15  C   UNL     1      11.537  39.376  12.436  1.00  0.00     0.051 A 
ATOM     16  C   UNL     1      10.831  37.386  14.264  1.00  0.00     0.062 A 
ATOM     17  C   UNL     1      12.143  39.338  13.693  1.00  0.00     0.016 A 
BRANCH  13  18
ATOM     18  O   UNL     1       9.936  38.429  10.827  1.00  0.00    -0.493 OA
ATOM     19  C   UNL     1       8.945  39.371  10.430  1.00  0.00     0.278 C 
ENDBRANCH  13  18
BRANCH  14  20
ATOM     20  O   UNL     1       9.254  36.472  12.611  1.00  0.00    -0.493 OA
ATOM     21  C   UNL     1       9.420  35.062  12.713  1.00  0.00     0.278 C 
ENDBRANCH  14  20
ENDBRANCH   1  12
BRANCH   6  22
ATOM     22  O   UNL     1      14.312  37.181  20.529  1.00  0.00    -0.492 OA
ATOM     23  C   UNL     1      13.676  36.986  21.788  1.00  0.00     0.278 C 
ENDBRANCH   6  22
BRANCH   8  24
ATOM     24  O   UNL     1      15.476  41.901  19.667  1.00  0.00    -0.493 OA
ATOM     25  C   UNL     1      14.773  43.083  20.042  1.00  0.00     0.278 C 
ENDBRANCH   8  24
BRANCH   7  26
ATOM     26  O   UNL     1      15.550  39.606  21.395  1.00  0.00    -0.490 OA
ATOM     27  C   UNL     1      16.922  39.361  21.686  1.00  0.00     0.278 C 
ENDBRANCH   7  26
TORSDOF 6
ENDMDL
MODEL 6
REMARK VINA RESULT:    -5.629      2.535      8.421
REMARK INTER + INTRA:          -8.051
REMARK INTER:                  -7.471
REMARK INTRA:                  -0.580
REMARK UNBOUND:                -0.447
REMARK SMILES COc1ccc(-c2cc(=O)c3c(OC)c(OC)c(OC)cc3o2)cc1OC
REMARK SMILES IDX 7 1 8 2 9 3 10 4 11 5 12 6 15 7 18 8 21 9 22 10 23 11 6 12
REMARK SMILES IDX 3 13 25 14 4 15 24 16 5 17 2 18 1 19 26 20 27 21 13 22 14 23
REMARK SMILES IDX 19 24 20 25 16 26 17 27
REMARK H PARENT
REMARK Flexibility Score: inf
ROOT
ATOM      1  C   UNL     1      14.028  38.812  16.084  1.00  0.00     0.138 A 
ATOM      2  C   UNL     1      15.142  38.209  15.481  1.00  0.00     0.100 A 
ATOM      3  C   UNL     1      15.128  37.963  14.107  1.00  0.00     0.197 A 
ATOM      4  O   UNL     1      16.137  37.420  13.583  1.00  0.00    -0.289 OA
ATOM      5  C   UNL     1      13.993  38.317  13.340  1.00  0.00     0.111 A 
ATOM      6  C   UNL     1      13.901  38.096  11.942  1.00  0.00     0.179 A 
ATOM      7  C   UNL     1      12.720  38.480  11.243  1.00  0.00     0.204 A 
ATOM      8  C   UNL     1      11.646  39.078  11.958  1.00  0.00     0.168 A 
ATOM      9  C   UNL     1      11.764  39.281  13.341  1.00  0.00     0.098 A 
ATOM     10  C   UNL     1      12.913  38.911  14.026  1.00  0.00     0.146 A 
ATOM     11  O   UNL     1      12.974  39.127  15.336  1.00  0.00    -0.456 OA
ENDROOT
BRANCH   1  12
ATOM     12  C   UNL     1      13.980  39.097  17.542  1.00  0.00     0.021 A 
ATOM     13  C   UNL     1      13.834  39.606  20.317  1.00  0.00     0.160 A 
ATOM     14  C   UNL     1      13.128  38.527  19.765  1.00  0.00     0.161 A 
ATOM     15  C   UNL     1      14.600  40.434  19.477  1.00  0.00     0.051 A 
ATOM     16  C   UNL     1      13.203  38.279  18.380  1.00  0.00     0.062 A 
ATOM     17  C   UNL     1      14.669  40.185  18.105  1.00  0.00     0.016 A 
BRANCH  13  18
ATOM     18  O   UNL     1      13.745  39.825  21.701  1.00  0.00    -0.493 OA
ATOM     19  C   UNL     1      14.013  41.069  22.339  1.00  0.00     0.278 C 
ENDBRANCH  13  18
BRANCH  14  20
ATOM     20  O   UNL     1      12.365  37.722  20.627  1.00  0.00    -0.493 OA
ATOM     21  C   UNL     1      12.435  36.301  20.678  1.00  0.00     0.278 C 
ENDBRANCH  14  20
ENDBRANCH   1  12
BRANCH   6  22
ATOM     22  O   UNL     1      15.005  37.491  11.301  1.00  0.00    -0.492 OA
ATOM     23  C   UNL     1      15.879  38.073  10.341  1.00  0.00     0.278 C 
ENDBRANCH   6  22
BRANCH   8  24
ATOM     24  O   UNL     1      10.479  39.465  11.280  1.00  0.00    -0.493 OA
ATOM     25  C   UNL     1       9.320  38.655  11.108  1.00  0.00     0.278 C 
ENDBRANCH   8  24
BRANCH   7  26
ATOM     26  O   UNL     1      12.661  38.253   9.855  1.00  0.00    -0.490 OA
ATOM     27  C   UNL     1      12.238  37.070   9.187  1.00  0.00     0.278 C 
ENDBRANCH   7  26
TORSDOF 6
ENDMDL
MODEL 7
REMARK VINA RESULT:    -5.520      1.788      8.132
REMARK INTER + INTRA:          -7.904
REMARK INTER:                  -7.347
REMARK INTRA:                  -0.556
REMARK UNBOUND:                -0.447
REMARK SMILES COc1ccc(-c2cc(=O)c3c(OC)c(OC)c(OC)cc3o2)cc1OC
REMARK SMILES IDX 7 1 8 2 9 3 10 4 11 5 12 6 15 7 18 8 21 9 22 10 23 11 6 12
REMARK SMILES IDX 3 13 25 14 4 15 24 16 5 17 2 18 1 19 26 20 27 21 13 22 14 23
REMARK SMILES IDX 19 24 20 25 16 26 17 27
REMARK H PARENT
REMARK Flexibility Score: inf
ROOT
ATOM      1  C   UNL     1      12.695  37.964  16.239  1.00  0.00     0.138 A 
ATOM      2  C   UNL     1      12.590  36.566  16.270  1.00  0.00     0.100 A 
ATOM      3  C   UNL     1      12.050  35.895  15.172  1.00  0.00     0.197 A 
ATOM      4  O   UNL     1      11.963  34.638  15.218  1.00  0.00    -0.289 OA
ATOM      5  C   UNL     1      11.609  36.629  14.046  1.00  0.00     0.111 A 
ATOM      6  C   UNL     1      11.044  36.020  12.895  1.00  0.00     0.179 A 
ATOM      7  C   UNL     1      10.622  36.833  11.803  1.00  0.00     0.204 A 
ATOM      8  C   UNL     1      10.768  38.245  11.883  1.00  0.00     0.168 A 
ATOM      9  C   UNL     1      11.326  38.819  13.035  1.00  0.00     0.098 A 
ATOM     10  C   UNL     1      11.742  38.032  14.100  1.00  0.00     0.146 A 
ATOM     11  O   UNL     1      12.265  38.625  15.168  1.00  0.00    -0.456 OA
ENDROOT
BRANCH   1  12
ATOM     12  C   UNL     1      13.258  38.737  17.377  1.00  0.00     0.021 A 
ATOM     13  C   UNL     1      14.284  40.182  19.578  1.00  0.00     0.160 A 
ATOM     14  C   UNL     1      13.478  39.055  19.795  1.00  0.00     0.161 A 
ATOM     15  C   UNL     1      14.564  40.590  18.261  1.00  0.00     0.051 A 
ATOM     16  C   UNL     1      12.967  38.340  18.694  1.00  0.00     0.062 A 
ATOM     17  C   UNL     1      14.053  39.878  17.174  1.00  0.00     0.016 A 
BRANCH  13  18
ATOM     18  O   UNL     1      14.782  40.871  20.694  1.00  0.00    -0.493 OA
ATOM     19  C   UNL     1      16.074  40.666  21.258  1.00  0.00     0.278 C 
ENDBRANCH  13  18
BRANCH  14  20
ATOM     20  O   UNL     1      13.208  38.676  21.120  1.00  0.00    -0.493 OA
ATOM     21  C   UNL     1      13.489  37.391  21.666  1.00  0.00     0.278 C 
ENDBRANCH  14  20
ENDBRANCH   1  12
BRANCH   6  22
ATOM     22  O   UNL     1      10.925  34.614  12.891  1.00  0.00    -0.492 OA
ATOM     23  C   UNL     1       9.729  33.842  12.935  1.00  0.00     0.278 C 
ENDBRANCH   6  22
BRANCH   8  24
ATOM     24  O   UNL     1      10.361  39.056  10.812  1.00  0.00    -0.493 OA
ATOM     25  C   UNL     1       9.018  39.450  10.543  1.00  0.00     0.278 C 
ENDBRANCH   8  24
BRANCH   7  26
ATOM     26  O   UNL     1      10.072  36.200  10.673  1.00  0.00    -0.490 OA
ATOM     27  C   UNL     1      10.771  35.623   9.575  1.00  0.00     0.278 C 
ENDBRANCH   7  26
TORSDOF 6
ENDMDL
MODEL 8
REMARK VINA RESULT:    -5.453      9.747     12.053
REMARK INTER + INTRA:          -7.813
REMARK INTER:                  -7.319
REMARK INTRA:                  -0.494
REMARK UNBOUND:                -0.447
REMARK SMILES COc1ccc(-c2cc(=O)c3c(OC)c(OC)c(OC)cc3o2)cc1OC
REMARK SMILES IDX 7 1 8 2 9 3 10 4 11 5 12 6 15 7 18 8 21 9 22 10 23 11 6 12
REMARK SMILES IDX 3 13 25 14 4 15 24 16 5 17 2 18 1 19 26 20 27 21 13 22 14 23
REMARK SMILES IDX 19 24 20 25 16 26 17 27
REMARK H PARENT
REMARK Flexibility Score: inf
ROOT
ATOM      1  C   UNL     1      19.992  39.812  23.498  1.00  0.00     0.138 A 
ATOM      2  C   UNL     1      20.578  40.134  24.731  1.00  0.00     0.100 A 
ATOM      3  C   UNL     1      19.819  40.791  25.700  1.00  0.00     0.197 A 
ATOM      4  O   UNL     1      20.363  41.072  26.802  1.00  0.00    -0.289 OA
ATOM      5  C   UNL     1      18.472  41.129  25.429  1.00  0.00     0.111 A 
ATOM      6  C   UNL     1      17.637  41.800  26.360  1.00  0.00     0.179 A 
ATOM      7  C   UNL     1      16.292  42.107  26.006  1.00  0.00     0.204 A 
ATOM      8  C   UNL     1      15.803  41.740  24.723  1.00  0.00     0.168 A 
ATOM      9  C   UNL     1      16.652  41.080  23.822  1.00  0.00     0.098 A 
ATOM     10  C   UNL     1      17.963  40.777  24.162  1.00  0.00     0.146 A 
ATOM     11  O   UNL     1      18.726  40.150  23.272  1.00  0.00    -0.456 OA
ENDROOT
BRANCH   1  12
ATOM     12  C   UNL     1      20.749  39.116  22.425  1.00  0.00     0.021 A 
ATOM     13  C   UNL     1      22.161  37.834  20.341  1.00  0.00     0.160 A 
ATOM     14  C   UNL     1      21.698  39.146  20.168  1.00  0.00     0.161 A 
ATOM     15  C   UNL     1      21.906  37.163  21.551  1.00  0.00     0.051 A 
ATOM     16  C   UNL     1      20.991  39.780  21.209  1.00  0.00     0.062 A 
ATOM     17  C   UNL     1      21.204  37.795  22.578  1.00  0.00     0.016 A 
BRANCH  13  18
ATOM     18  O   UNL     1      22.866  37.231  19.288  1.00  0.00    -0.493 OA
ATOM     19  C   UNL     1      24.232  36.832  19.355  1.00  0.00     0.278 C 
ENDBRANCH  13  18
BRANCH  14  20
ATOM     20  O   UNL     1      21.960  39.788  18.947  1.00  0.00    -0.493 OA
ATOM     21  C   UNL     1      23.120  40.570  18.678  1.00  0.00     0.278 C 
ENDBRANCH  14  20
ENDBRANCH   1  12
BRANCH   6  22
ATOM     22  O   UNL     1      18.195  42.139  27.612  1.00  0.00    -0.492 OA
ATOM     23  C   UNL     1      18.504  43.439  28.103  1.00  0.00     0.278 C 
ENDBRANCH   6  22
BRANCH   8  24
ATOM     24  O   UNL     1      14.477  42.033  24.365  1.00  0.00    -0.493 OA
ATOM     25  C   UNL     1      13.932  41.907  23.054  1.00  0.00     0.278 C 
ENDBRANCH   8  24
BRANCH   7  26
ATOM     26  O   UNL     1      15.486  42.768  26.953  1.00  0.00    -0.490 OA
ATOM     27  C   UNL     1      15.086  44.134  26.949  1.00  0.00     0.278 C 
ENDBRANCH   7  26
TORSDOF 6
ENDMDL
MODEL 9
REMARK VINA RESULT:    -5.453     10.928     13.142
REMARK INTER + INTRA:          -7.813
REMARK INTER:                  -7.223
REMARK INTRA:                  -0.590
REMARK UNBOUND:                -0.447
REMARK SMILES COc1ccc(-c2cc(=O)c3c(OC)c(OC)c(OC)cc3o2)cc1OC
REMARK SMILES IDX 7 1 8 2 9 3 10 4 11 5 12 6 15 7 18 8 21 9 22 10 23 11 6 12
REMARK SMILES IDX 3 13 25 14 4 15 24 16 5 17 2 18 1 19 26 20 27 21 13 22 14 23
REMARK SMILES IDX 19 24 20 25 16 26 17 27
REMARK H PARENT
REMARK Flexibility Score: inf
ROOT
ATOM      1  C   UNL     1      20.371  39.664  23.775  1.00  0.00     0.138 A 
ATOM      2  C   UNL     1      20.927  40.296  22.653  1.00  0.00     0.100 A 
ATOM      3  C   UNL     1      21.341  39.524  21.567  1.00  0.00     0.197 A 
ATOM      4  O   UNL     1      21.838  40.110  20.567  1.00  0.00    -0.289 OA
ATOM      5  C   UNL     1      21.201  38.117  21.609  1.00  0.00     0.111 A 
ATOM      6  C   UNL     1      21.602  37.265  20.547  1.00  0.00     0.179 A 
ATOM      7  C   UNL     1      21.430  35.856  20.671  1.00  0.00     0.204 A 
ATOM      8  C   UNL     1      20.861  35.321  21.860  1.00  0.00     0.168 A 
ATOM      9  C   UNL     1      20.477  36.188  22.894  1.00  0.00     0.098 A 
ATOM     10  C   UNL     1      20.641  37.561  22.777  1.00  0.00     0.146 A 
ATOM     11  O   UNL     1      20.260  38.338  23.786  1.00  0.00    -0.456 OA
ENDROOT
BRANCH   1  12
ATOM     12  C   UNL     1      19.914  40.429  24.964  1.00  0.00     0.021 A 
ATOM     13  C   UNL     1      18.986  41.881  27.203  1.00  0.00     0.160 A 
ATOM     14  C   UNL     1      18.090  41.106  26.451  1.00  0.00     0.161 A 
ATOM     15  C   UNL     1      20.339  41.937  26.825  1.00  0.00     0.051 A 
ATOM     16  C   UNL     1      18.558  40.386  25.334  1.00  0.00     0.062 A 
ATOM     17  C   UNL     1      20.797  41.223  25.716  1.00  0.00     0.016 A 
BRANCH  13  18
ATOM     18  O   UNL     1      18.491  42.583  28.313  1.00  0.00    -0.493 OA
ATOM     19  C   UNL     1      18.195  43.976  28.320  1.00  0.00     0.278 C 
ENDBRANCH  13  18
BRANCH  14  20
ATOM     20  O   UNL     1      16.743  41.076  26.847  1.00  0.00    -0.493 OA
ATOM     21  C   UNL     1      15.673  41.667  26.117  1.00  0.00     0.278 C 
ENDBRANCH  14  20
ENDBRANCH   1  12
BRANCH   6  22
ATOM     22  O   UNL     1      22.166  37.868  19.402  1.00  0.00    -0.492 OA
ATOM     23  C   UNL     1      23.529  37.852  18.993  1.00  0.00     0.278 C 
ENDBRANCH   6  22
BRANCH   8  24
ATOM     24  O   UNL     1      20.681  33.935  21.991  1.00  0.00    -0.493 OA
ATOM     25  C   UNL     1      21.528  33.062  22.734  1.00  0.00     0.278 C 
ENDBRANCH   8  24
BRANCH   7  26
ATOM     26  O   UNL     1      21.831  35.037  19.599  1.00  0.00    -0.490 OA
ATOM     27  C   UNL     1      23.037  34.290  19.482  1.00  0.00     0.278 C 
ENDBRANCH   7  26
TORSDOF 6
ENDMDL
