MODEL 1
REMARK VINA RESULT:    -4.898      0.000      0.000
REMARK INTER + INTRA:          -5.041
REMARK INTER:                  -5.041
REMARK INTRA:                   0.000
REMARK UNBOUND:                 0.000
REMARK SMILES O=c1ccc2cc(O)ccc2o1
REMARK SMILES IDX 9 1 10 2 11 3 5 4 4 5 3 6 2 7 1 8 12 9 6 10 7 11 8 12
REMARK H PARENT 8 13
REMARK Flexibility Score: inf
ROOT
ATOM      1  C   UNL     1       7.636  -6.679  -5.900  1.00  0.00     0.050 A 
ATOM      2  C   UNL     1       8.698  -5.981  -6.482  1.00  0.00     0.052 A 
ATOM      3  C   UNL     1       9.517  -6.608  -7.427  1.00  0.00     0.138 A 
ATOM      4  C   UNL     1       9.265  -7.950  -7.791  1.00  0.00     0.021 A 
ATOM      5  C   UNL     1      10.099  -8.552  -8.737  1.00  0.00     0.019 A 
ATOM      6  C   UNL     1      11.147  -7.817  -9.292  1.00  0.00     0.094 A 
ATOM      7  C   UNL     1      11.336  -6.492  -8.883  1.00  0.00     0.336 A 
ATOM      8  O   UNL     1      12.276  -5.813  -9.372  1.00  0.00    -0.246 OA
ATOM      9  O   UNL     1      10.527  -5.944  -7.980  1.00  0.00    -0.423 OA
ATOM     10  C   UNL     1       8.198  -8.646  -7.204  1.00  0.00     0.058 A 
ATOM     11  C   UNL     1       7.383  -8.011  -6.259  1.00  0.00     0.116 A 
ENDROOT
BRANCH  11  12
ATOM     12  O   UNL     1       6.326  -8.712  -5.682  1.00  0.00    -0.508 OA
ATOM     13  H   UNL     1       6.482  -9.405  -4.960  1.00  0.00     0.293 HD
ENDBRANCH  11  12
TORSDOF 1
ENDMDL
MODEL 2
REMARK VINA RESULT:    -4.897     22.090     22.650
REMARK INTER + INTRA:          -5.040
REMARK INTER:                  -5.040
REMARK INTRA:                   0.000
REMARK UNBOUND:                 0.000
REMARK SMILES O=c1ccc2cc(O)ccc2o1
REMARK SMILES IDX 9 1 10 2 11 3 5 4 4 5 3 6 2 7 1 8 12 9 6 10 7 11 8 12
REMARK H PARENT 8 13
REMARK Flexibility Score: inf
ROOT
ATOM      1  C   UNL     1      16.999   7.929 -22.241  1.00  0.00     0.050 A 
ATOM      2  C   UNL     1      17.976   7.202 -22.928  1.00  0.00     0.052 A 
ATOM      3  C   UNL     1      19.214   6.948 -22.327  1.00  0.00     0.138 A 
ATOM      4  C   UNL     1      19.471   7.428 -21.024  1.00  0.00     0.021 A 
ATOM      5  C   UNL     1      20.717   7.160 -20.448  1.00  0.00     0.019 A 
ATOM      6  C   UNL     1      21.662   6.431 -21.171  1.00  0.00     0.094 A 
ATOM      7  C   UNL     1      21.336   5.987 -22.457  1.00  0.00     0.336 A 
ATOM      8  O   UNL     1      22.175   5.328 -23.125  1.00  0.00    -0.246 OA
ATOM      9  O   UNL     1      20.143   6.257 -22.981  1.00  0.00    -0.423 OA
ATOM     10  C   UNL     1      18.487   8.157 -20.339  1.00  0.00     0.058 A 
ATOM     11  C   UNL     1      17.252   8.407 -20.946  1.00  0.00     0.116 A 
ENDROOT
BRANCH  11  12
ATOM     12  O   UNL     1      16.282   9.132 -20.257  1.00  0.00    -0.508 OA
ATOM     13  H   UNL     1      15.752   8.718 -19.499  1.00  0.00     0.293 HD
ENDBRANCH  11  12
TORSDOF 1
ENDMDL
MODEL 3
REMARK VINA RESULT:    -4.884      1.899      2.530
REMARK INTER + INTRA:          -5.026
REMARK INTER:                  -5.026
REMARK INTRA:                   0.000
REMARK UNBOUND:                 0.000
REMARK SMILES O=c1ccc2cc(O)ccc2o1
REMARK SMILES IDX 9 1 10 2 11 3 5 4 4 5 3 6 2 7 1 8 12 9 6 10 7 11 8 12
REMARK H PARENT 8 13
REMARK Flexibility Score: inf
ROOT
ATOM      1  C   UNL     1       7.624  -7.062  -5.656  1.00  0.00     0.050 A 
ATOM      2  C   UNL     1       8.125  -7.998  -6.565  1.00  0.00     0.052 A 
ATOM      3  C   UNL     1       9.120  -7.629  -7.476  1.00  0.00     0.138 A 
ATOM      4  C   UNL     1       9.617  -6.307  -7.473  1.00  0.00     0.021 A 
ATOM      5  C   UNL     1      10.611  -5.966  -8.395  1.00  0.00     0.019 A 
ATOM      6  C   UNL     1      11.081  -6.933  -9.284  1.00  0.00     0.094 A 
ATOM      7  C   UNL     1      10.541  -8.223  -9.229  1.00  0.00     0.336 A 
ATOM      8  O   UNL     1      10.952  -9.110 -10.023  1.00  0.00    -0.246 OA
ATOM      9  O   UNL     1       9.595  -8.521  -8.341  1.00  0.00    -0.423 OA
ATOM     10  C   UNL     1       9.111  -5.371  -6.558  1.00  0.00     0.058 A 
ATOM     11  C   UNL     1       8.116  -5.748  -5.650  1.00  0.00     0.116 A 
ENDROOT
BRANCH  11  12
ATOM     12  O   UNL     1       7.621  -4.810  -4.746  1.00  0.00    -0.508 OA
ATOM     13  H   UNL     1       7.806  -4.884  -3.753  1.00  0.00     0.293 HD
ENDBRANCH  11  12
TORSDOF 1
ENDMDL
MODEL 4
REMARK VINA RESULT:    -4.746     22.167     22.945
REMARK INTER + INTRA:          -4.885
REMARK INTER:                  -4.885
REMARK INTRA:                   0.000
REMARK UNBOUND:                 0.000
REMARK SMILES O=c1ccc2cc(O)ccc2o1
REMARK SMILES IDX 9 1 10 2 11 3 5 4 4 5 3 6 2 7 1 8 12 9 6 10 7 11 8 12
REMARK H PARENT 8 13
REMARK Flexibility Score: inf
ROOT
ATOM      1  C   UNL     1      21.691   6.488 -21.155  1.00  0.00     0.050 A 
ATOM      2  C   UNL     1      20.692   7.201 -20.486  1.00  0.00     0.052 A 
ATOM      3  C   UNL     1      19.462   7.438 -21.108  1.00  0.00     0.138 A 
ATOM      4  C   UNL     1      19.233   6.952 -22.414  1.00  0.00     0.021 A 
ATOM      5  C   UNL     1      17.994   7.203 -23.011  1.00  0.00     0.019 A 
ATOM      6  C   UNL     1      17.027   7.919 -22.306  1.00  0.00     0.094 A 
ATOM      7  C   UNL     1      17.324   8.369 -21.015  1.00  0.00     0.336 A 
ATOM      8  O   UNL     1      16.465   9.017 -20.362  1.00  0.00    -0.246 OA
ATOM      9  O   UNL     1      18.512   8.116 -20.470  1.00  0.00    -0.423 OA
ATOM     10  C   UNL     1      20.239   6.237 -23.082  1.00  0.00     0.058 A 
ATOM     11  C   UNL     1      21.467   6.004 -22.453  1.00  0.00     0.116 A 
ENDROOT
BRANCH  11  12
ATOM     12  O   UNL     1      22.459   5.293 -23.125  1.00  0.00    -0.508 OA
ATOM     13  H   UNL     1      23.421   5.300 -22.809  1.00  0.00     0.293 HD
ENDBRANCH  11  12
TORSDOF 1
ENDMDL
MODEL 5
REMARK VINA RESULT:    -4.733      3.319      4.265
REMARK INTER + INTRA:          -4.871
REMARK INTER:                  -4.871
REMARK INTRA:                   0.000
REMARK UNBOUND:                 0.000
REMARK SMILES O=c1ccc2cc(O)ccc2o1
REMARK SMILES IDX 9 1 10 2 11 3 5 4 4 5 3 6 2 7 1 8 12 9 6 10 7 11 8 12
REMARK H PARENT 8 13
REMARK Flexibility Score: inf
ROOT
ATOM      1  C   UNL     1       9.312  -7.431  -7.492  1.00  0.00     0.050 A 
ATOM      2  C   UNL     1       8.582  -8.195  -8.407  1.00  0.00     0.052 A 
ATOM      3  C   UNL     1       8.400  -7.737  -9.716  1.00  0.00     0.138 A 
ATOM      4  C   UNL     1       8.957  -6.500 -10.110  1.00  0.00     0.021 A 
ATOM      5  C   UNL     1       8.759  -6.067 -11.424  1.00  0.00     0.019 A 
ATOM      6  C   UNL     1       8.024  -6.862 -12.303  1.00  0.00     0.094 A 
ATOM      7  C   UNL     1       7.501  -8.076 -11.843  1.00  0.00     0.336 A 
ATOM      8  O   UNL     1       6.835  -8.807 -12.621  1.00  0.00    -0.246 OA
ATOM      9  O   UNL     1       7.705  -8.464 -10.587  1.00  0.00    -0.423 OA
ATOM     10  C   UNL     1       9.689  -5.737  -9.187  1.00  0.00     0.058 A 
ATOM     11  C   UNL     1       9.867  -6.202  -7.879  1.00  0.00     0.116 A 
ENDROOT
BRANCH  11  12
ATOM     12  O   UNL     1      10.596  -5.436  -6.972  1.00  0.00    -0.508 OA
ATOM     13  H   UNL     1      11.434  -4.941  -7.250  1.00  0.00     0.293 HD
ENDBRANCH  11  12
TORSDOF 1
ENDMDL
MODEL 6
REMARK VINA RESULT:    -4.690      1.994      2.023
REMARK INTER + INTRA:          -4.827
REMARK INTER:                  -4.827
REMARK INTRA:                   0.000
REMARK UNBOUND:                 0.000
REMARK SMILES O=c1ccc2cc(O)ccc2o1
REMARK SMILES IDX 9 1 10 2 11 3 5 4 4 5 3 6 2 7 1 8 12 9 6 10 7 11 8 12
REMARK H PARENT 8 13
REMARK Flexibility Score: inf
ROOT
ATOM      1  C   UNL     1       7.936  -6.098  -5.084  1.00  0.00     0.050 A 
ATOM      2  C   UNL     1       8.330  -5.375  -6.213  1.00  0.00     0.052 A 
ATOM      3  C   UNL     1       8.350  -5.991  -7.469  1.00  0.00     0.138 A 
ATOM      4  C   UNL     1       7.970  -7.346  -7.591  1.00  0.00     0.021 A 
ATOM      5  C   UNL     1       8.000  -7.935  -8.858  1.00  0.00     0.019 A 
ATOM      6  C   UNL     1       8.399  -7.175  -9.958  1.00  0.00     0.094 A 
ATOM      7  C   UNL     1       8.761  -5.838  -9.761  1.00  0.00     0.336 A 
ATOM      8  O   UNL     1       9.124  -5.136 -10.740  1.00  0.00    -0.246 OA
ATOM      9  O   UNL     1       8.724  -5.302  -8.544  1.00  0.00    -0.423 OA
ATOM     10  C   UNL     1       7.576  -8.067  -6.454  1.00  0.00     0.058 A 
ATOM     11  C   UNL     1       7.559  -7.444  -5.201  1.00  0.00     0.116 A 
ENDROOT
BRANCH  11  12
ATOM     12  O   UNL     1       7.166  -8.170  -4.079  1.00  0.00    -0.508 OA
ATOM     13  H   UNL     1       6.302  -7.964  -3.591  1.00  0.00     0.293 HD
ENDBRANCH  11  12
TORSDOF 1
ENDMDL
MODEL 7
REMARK VINA RESULT:    -4.685     22.390     23.181
REMARK INTER + INTRA:          -4.822
REMARK INTER:                  -4.822
REMARK INTRA:                   0.000
REMARK UNBOUND:                 0.000
REMARK SMILES O=c1ccc2cc(O)ccc2o1
REMARK SMILES IDX 9 1 10 2 11 3 5 4 4 5 3 6 2 7 1 8 12 9 6 10 7 11 8 12
REMARK H PARENT 8 13
REMARK Flexibility Score: inf
ROOT
ATOM      1  C   UNL     1      22.094   5.533 -22.813  1.00  0.00     0.050 A 
ATOM      2  C   UNL     1      20.800   5.959 -23.125  1.00  0.00     0.052 A 
ATOM      3  C   UNL     1      20.077   6.733 -22.211  1.00  0.00     0.138 A 
ATOM      4  C   UNL     1      20.660   7.083 -20.973  1.00  0.00     0.021 A 
ATOM      5  C   UNL     1      19.914   7.857 -20.079  1.00  0.00     0.019 A 
ATOM      6  C   UNL     1      18.626   8.260 -20.433  1.00  0.00     0.094 A 
ATOM      7  C   UNL     1      18.114   7.876 -21.677  1.00  0.00     0.336 A 
ATOM      8  O   UNL     1      16.954   8.230 -22.014  1.00  0.00    -0.246 OA
ATOM      9  O   UNL     1      18.845   7.139 -22.509  1.00  0.00    -0.423 OA
ATOM     10  C   UNL     1      21.960   6.652 -20.665  1.00  0.00     0.058 A 
ATOM     11  C   UNL     1      22.677   5.878 -21.584  1.00  0.00     0.116 A 
ENDROOT
BRANCH  11  12
ATOM     12  O   UNL     1      23.966   5.456 -21.268  1.00  0.00    -0.508 OA
ATOM     13  H   UNL     1      24.293   5.426 -20.309  1.00  0.00     0.293 HD
ENDBRANCH  11  12
TORSDOF 1
ENDMDL
MODEL 8
REMARK VINA RESULT:    -4.570      3.134      4.482
REMARK INTER + INTRA:          -4.703
REMARK INTER:                  -4.703
REMARK INTRA:                   0.000
REMARK UNBOUND:                 0.000
REMARK SMILES O=c1ccc2cc(O)ccc2o1
REMARK SMILES IDX 9 1 10 2 11 3 5 4 4 5 3 6 2 7 1 8 12 9 6 10 7 11 8 12
REMARK H PARENT 8 13
REMARK Flexibility Score: inf
ROOT
ATOM      1  C   UNL     1       8.105  -5.374 -11.422  1.00  0.00     0.050 A 
ATOM      2  C   UNL     1       8.000  -4.860 -10.125  1.00  0.00     0.052 A 
ATOM      3  C   UNL     1       7.962  -5.727  -9.029  1.00  0.00     0.138 A 
ATOM      4  C   UNL     1       8.032  -7.123  -9.236  1.00  0.00     0.021 A 
ATOM      5  C   UNL     1       7.992  -7.966  -8.121  1.00  0.00     0.019 A 
ATOM      6  C   UNL     1       7.887  -7.409  -6.846  1.00  0.00     0.094 A 
ATOM      7  C   UNL     1       7.822  -6.018  -6.717  1.00  0.00     0.336 A 
ATOM      8  O   UNL     1       7.726  -5.497  -5.576  1.00  0.00    -0.246 OA
ATOM      9  O   UNL     1       7.862  -5.239  -7.796  1.00  0.00    -0.423 OA
ATOM     10  C   UNL     1       8.138  -7.633 -10.539  1.00  0.00     0.058 A 
ATOM     11  C   UNL     1       8.175  -6.759 -11.631  1.00  0.00     0.116 A 
ENDROOT
BRANCH  11  12
ATOM     12  O   UNL     1       8.280  -7.276 -12.921  1.00  0.00    -0.508 OA
ATOM     13  H   UNL     1       7.463  -7.413 -13.504  1.00  0.00     0.293 HD
ENDBRANCH  11  12
TORSDOF 1
ENDMDL
