MODEL 1
REMARK VINA RESULT:    -3.451      0.000      0.000
REMARK INTER + INTRA:          -4.348
REMARK INTER:                  -4.257
REMARK INTRA:                  -0.091
REMARK UNBOUND:                -0.091
REMARK SMILES CCCCCC(=O)[O-]
REMARK SMILES IDX 4 1 5 2 6 3 7 4 8 5 3 6 2 7 1 8
REMARK H PARENT
REMARK Flexibility Score: inf
ROOT
ATOM      1  C   UNL     1      25.933  -3.473  -3.535  1.00  0.00     0.006 C 
ENDROOT
BRANCH   1   2
ATOM      2  C   UNL     1      27.314  -3.973  -3.101  1.00  0.00     0.053 C 
BRANCH   2   3
ATOM      3  C   UNL     1      27.183  -5.004  -2.023  1.00  0.00     0.041 C 
ATOM      4  O   UNL     1      26.647  -6.115  -2.272  1.00  0.00    -0.550 OA
ATOM      5  O   UNL     1      27.609  -4.717  -0.733  1.00  0.00    -0.550 OA
ENDBRANCH   2   3
ENDBRANCH   1   2
BRANCH   1   6
ATOM      6  C   UNL     1      25.437  -2.356  -2.609  1.00  0.00     0.000 C 
BRANCH   6   7
ATOM      7  C   UNL     1      24.349  -1.519  -3.292  1.00  0.00    -0.003 C 
ATOM      8  C   UNL     1      23.248  -1.136  -2.306  1.00  0.00     0.004 C 
ENDBRANCH   6   7
ENDBRANCH   1   6
TORSDOF 4
ENDMDL
MODEL 2
REMARK VINA RESULT:    -3.040      3.225      4.709
REMARK INTER + INTRA:          -3.842
REMARK INTER:                  -3.779
REMARK INTRA:                  -0.063
REMARK UNBOUND:                -0.091
REMARK SMILES CCCCCC(=O)[O-]
REMARK SMILES IDX 4 1 5 2 6 3 7 4 8 5 3 6 2 7 1 8
REMARK H PARENT
REMARK Flexibility Score: inf
ROOT
ATOM      1  C   UNL     1      25.430  -2.689  -2.405  1.00  0.00     0.006 C 
ENDROOT
BRANCH   1   2
ATOM      2  C   UNL     1      24.653  -1.769  -3.351  1.00  0.00     0.053 C 
BRANCH   2   3
ATOM      3  C   UNL     1      23.674  -0.936  -2.585  1.00  0.00     0.041 C 
ATOM      4  O   UNL     1      22.919  -1.471  -1.732  1.00  0.00    -0.550 OA
ATOM      5  O   UNL     1      23.563   0.423  -2.849  1.00  0.00    -0.550 OA
ENDBRANCH   2   3
ENDBRANCH   1   2
BRANCH   1   6
ATOM      6  C   UNL     1      26.333  -3.649  -3.190  1.00  0.00     0.000 C 
BRANCH   6   7
ATOM      7  C   UNL     1      26.568  -4.946  -2.408  1.00  0.00    -0.003 C 
ATOM      8  C   UNL     1      27.353  -4.682  -1.127  1.00  0.00     0.004 C 
ENDBRANCH   6   7
ENDBRANCH   1   6
TORSDOF 4
ENDMDL
MODEL 3
REMARK VINA RESULT:    -2.685      9.498     10.738
REMARK INTER + INTRA:          -3.404
REMARK INTER:                  -3.321
REMARK INTRA:                  -0.083
REMARK UNBOUND:                -0.091
REMARK SMILES CCCCCC(=O)[O-]
REMARK SMILES IDX 4 1 5 2 6 3 7 4 8 5 3 6 2 7 1 8
REMARK H PARENT
REMARK Flexibility Score: inf
ROOT
ATOM      1  C   UNL     1      26.081   6.046  -1.526  1.00  0.00     0.006 C 
ENDROOT
BRANCH   1   2
ATOM      2  C   UNL     1      27.237   6.767  -0.827  1.00  0.00     0.053 C 
BRANCH   2   3
ATOM      3  C   UNL     1      27.282   8.206  -1.235  1.00  0.00     0.041 C 
ATOM      4  O   UNL     1      27.256   9.113  -0.363  1.00  0.00    -0.550 OA
ATOM      5  O   UNL     1      27.302   8.545  -2.582  1.00  0.00    -0.550 OA
ENDBRANCH   2   3
ENDBRANCH   1   2
BRANCH   1   6
ATOM      6  C   UNL     1      26.087   4.549  -1.198  1.00  0.00     0.000 C 
BRANCH   6   7
ATOM      7  C   UNL     1      24.984   3.813  -1.967  1.00  0.00    -0.003 C 
ATOM      8  C   UNL     1      24.114   4.790  -2.753  1.00  0.00     0.004 C 
ENDBRANCH   6   7
ENDBRANCH   1   6
TORSDOF 4
ENDMDL
MODEL 4
REMARK VINA RESULT:    -2.624     10.642     11.828
REMARK INTER + INTRA:          -3.328
REMARK INTER:                  -3.258
REMARK INTRA:                  -0.070
REMARK UNBOUND:                -0.091
REMARK SMILES CCCCCC(=O)[O-]
REMARK SMILES IDX 4 1 5 2 6 3 7 4 8 5 3 6 2 7 1 8
REMARK H PARENT
REMARK Flexibility Score: inf
ROOT
ATOM      1  C   UNL     1      27.280   7.038  -0.911  1.00  0.00     0.006 C 
ENDROOT
BRANCH   1   2
ATOM      2  C   UNL     1      27.820   8.167  -1.794  1.00  0.00     0.053 C 
BRANCH   2   3
ATOM      3  C   UNL     1      27.971   9.427  -1.000  1.00  0.00     0.041 C 
ATOM      4  O   UNL     1      27.433   9.529   0.133  1.00  0.00    -0.550 OA
ATOM      5  O   UNL     1      28.665  10.505  -1.534  1.00  0.00    -0.550 OA
ENDBRANCH   2   3
ENDBRANCH   1   2
BRANCH   1   6
ATOM      6  C   UNL     1      26.073   6.357  -1.568  1.00  0.00     0.000 C 
BRANCH   6   7
ATOM      7  C   UNL     1      26.019   4.868  -1.207  1.00  0.00    -0.003 C 
ATOM      8  C   UNL     1      24.966   4.138  -2.036  1.00  0.00     0.004 C 
ENDBRANCH   6   7
ENDBRANCH   1   6
TORSDOF 4
ENDMDL
MODEL 5
REMARK VINA RESULT:    -2.542     12.196     13.148
REMARK INTER + INTRA:          -3.227
REMARK INTER:                  -3.093
REMARK INTRA:                  -0.134
REMARK UNBOUND:                -0.091
REMARK SMILES CCCCCC(=O)[O-]
REMARK SMILES IDX 4 1 5 2 6 3 7 4 8 5 3 6 2 7 1 8
REMARK H PARENT
REMARK Flexibility Score: inf
ROOT
ATOM      1  C   UNL     1      28.062   9.640  -0.622  1.00  0.00     0.006 C 
ENDROOT
BRANCH   1   2
ATOM      2  C   UNL     1      28.352   8.148  -0.806  1.00  0.00     0.053 C 
BRANCH   2   3
ATOM      3  C   UNL     1      27.137   7.436  -1.312  1.00  0.00     0.041 C 
ATOM      4  O   UNL     1      26.844   6.293  -0.874  1.00  0.00    -0.550 OA
ATOM      5  O   UNL     1      26.356   8.016  -2.304  1.00  0.00    -0.550 OA
ENDBRANCH   2   3
ENDBRANCH   1   2
BRANCH   1   6
ATOM      6  C   UNL     1      29.077  10.496  -1.390  1.00  0.00     0.000 C 
BRANCH   6   7
ATOM      7  C   UNL     1      28.516  10.925  -2.751  1.00  0.00    -0.003 C 
ATOM      8  C   UNL     1      29.032  12.305  -3.149  1.00  0.00     0.004 C 
ENDBRANCH   6   7
ENDBRANCH   1   6
TORSDOF 4
ENDMDL
MODEL 6
REMARK VINA RESULT:    -2.439      9.450     10.560
REMARK INTER + INTRA:          -3.100
REMARK INTER:                  -3.046
REMARK INTRA:                  -0.054
REMARK UNBOUND:                -0.091
REMARK SMILES CCCCCC(=O)[O-]
REMARK SMILES IDX 4 1 5 2 6 3 7 4 8 5 3 6 2 7 1 8
REMARK H PARENT
REMARK Flexibility Score: inf
ROOT
ATOM      1  C   UNL     1      27.015   6.663  -0.956  1.00  0.00     0.006 C 
ENDROOT
BRANCH   1   2
ATOM      2  C   UNL     1      25.822   6.067  -1.709  1.00  0.00     0.053 C 
BRANCH   2   3
ATOM      3  C   UNL     1      25.745   4.590  -1.483  1.00  0.00     0.041 C 
ATOM      4  O   UNL     1      26.632   4.005  -0.808  1.00  0.00    -0.550 OA
ATOM      5  O   UNL     1      24.719   3.852  -2.060  1.00  0.00    -0.550 OA
ENDBRANCH   2   3
ENDBRANCH   1   2
BRANCH   1   6
ATOM      6  C   UNL     1      27.374   8.049  -1.504  1.00  0.00     0.000 C 
BRANCH   6   7
ATOM      7  C   UNL     1      27.590   9.052  -0.365  1.00  0.00    -0.003 C 
ATOM      8  C   UNL     1      29.058   9.452  -0.253  1.00  0.00     0.004 C 
ENDBRANCH   6   7
ENDBRANCH   1   6
TORSDOF 4
ENDMDL
MODEL 7
REMARK VINA RESULT:    -2.155     22.335     23.436
REMARK INTER + INTRA:          -2.751
REMARK INTER:                  -2.611
REMARK INTRA:                  -0.139
REMARK UNBOUND:                -0.091
REMARK SMILES CCCCCC(=O)[O-]
REMARK SMILES IDX 4 1 5 2 6 3 7 4 8 5 3 6 2 7 1 8
REMARK H PARENT
REMARK Flexibility Score: inf
ROOT
ATOM      1  C   UNL     1       9.682  -3.144  12.570  1.00  0.00     0.006 C 
ENDROOT
BRANCH   1   2
ATOM      2  C   UNL     1       9.028  -1.844  13.045  1.00  0.00     0.053 C 
BRANCH   2   3
ATOM      3  C   UNL     1      10.009  -1.013  13.812  1.00  0.00     0.041 C 
ATOM      4  O   UNL     1       9.744   0.186  14.086  1.00  0.00    -0.550 OA
ATOM      5  O   UNL     1      11.236  -1.550  14.179  1.00  0.00    -0.550 OA
ENDBRANCH   2   3
ENDBRANCH   1   2
BRANCH   1   6
ATOM      6  C   UNL     1       8.875  -4.365  13.026  1.00  0.00     0.000 C 
BRANCH   6   7
ATOM      7  C   UNL     1       8.932  -4.523  14.550  1.00  0.00    -0.003 C 
ATOM      8  C   UNL     1       8.876  -5.993  14.954  1.00  0.00     0.004 C 
ENDBRANCH   6   7
ENDBRANCH   1   6
TORSDOF 4
ENDMDL
MODEL 8
REMARK VINA RESULT:    -2.085     10.637     11.632
REMARK INTER + INTRA:          -2.664
REMARK INTER:                  -2.552
REMARK INTRA:                  -0.111
REMARK UNBOUND:                -0.091
REMARK SMILES CCCCCC(=O)[O-]
REMARK SMILES IDX 4 1 5 2 6 3 7 4 8 5 3 6 2 7 1 8
REMARK H PARENT
REMARK Flexibility Score: inf
ROOT
ATOM      1  C   UNL     1      28.076   7.889  -1.055  1.00  0.00     0.006 C 
ENDROOT
BRANCH   1   2
ATOM      2  C   UNL     1      26.726   7.254  -1.401  1.00  0.00     0.053 C 
BRANCH   2   3
ATOM      3  C   UNL     1      26.722   5.801  -1.040  1.00  0.00     0.041 C 
ATOM      4  O   UNL     1      25.737   5.078  -1.338  1.00  0.00    -0.550 OA
ATOM      5  O   UNL     1      27.786   5.260  -0.330  1.00  0.00    -0.550 OA
ENDBRANCH   2   3
ENDBRANCH   1   2
BRANCH   1   6
ATOM      6  C   UNL     1      27.894   9.321  -0.539  1.00  0.00     0.000 C 
BRANCH   6   7
ATOM      7  C   UNL     1      28.783  10.301  -1.313  1.00  0.00    -0.003 C 
ATOM      8  C   UNL     1      28.386  10.359  -2.786  1.00  0.00     0.004 C 
ENDBRANCH   6   7
ENDBRANCH   1   6
TORSDOF 4
ENDMDL
