MODEL 1
REMARK VINA RESULT:    -5.915      0.000      0.000
REMARK INTER + INTRA:          -7.332
REMARK INTER:                  -7.125
REMARK INTRA:                  -0.207
REMARK UNBOUND:                -0.207
REMARK SMILES O=c1c(O)c(-c2ccc(O)c(O)c2)oc2cc(O)cc(O)c12
REMARK SMILES IDX 5 1 3 2 2 3 1 4 22 5 20 6 19 7 17 8 16 9 15 10 14 11 6 12
REMARK SMILES IDX 7 13 8 14 9 15 13 16 11 17 10 18 12 20 4 22 21 24 18 26
REMARK H PARENT 10 19 12 21 4 23 21 25 18 27
REMARK Flexibility Score: inf
ROOT
ATOM      1  C   UNL     1       5.952 -17.089  14.326  1.00  0.00     0.180 A 
ATOM      2  C   UNL     1       6.763 -15.942  14.271  1.00  0.00     0.208 A 
ATOM      3  C   UNL     1       6.177 -14.683  14.476  1.00  0.00     0.238 A 
ATOM      4  O   UNL     1       6.897 -13.656  14.372  1.00  0.00    -0.285 OA
ATOM      5  C   UNL     1       4.791 -14.587  14.750  1.00  0.00     0.111 A 
ATOM      6  C   UNL     1       4.100 -13.366  15.013  1.00  0.00     0.134 A 
ATOM      7  C   UNL     1       2.705 -13.377  15.141  1.00  0.00     0.093 A 
ATOM      8  C   UNL     1       1.985 -14.569  15.081  1.00  0.00     0.123 A 
ATOM      9  C   UNL     1       2.658 -15.776  14.883  1.00  0.00     0.094 A 
ATOM     10  C   UNL     1       4.045 -15.794  14.715  1.00  0.00     0.146 A 
ATOM     11  O   UNL     1       4.645 -16.961  14.520  1.00  0.00    -0.452 OA
ENDROOT
BRANCH   1  12
ATOM     12  C   UNL     1       6.501 -18.452  14.145  1.00  0.00     0.025 A 
ATOM     13  C   UNL     1       6.602 -19.308  15.251  1.00  0.00     0.016 A 
ATOM     14  C   UNL     1       7.137 -20.592  15.107  1.00  0.00     0.051 A 
ATOM     15  C   UNL     1       7.594 -21.030  13.858  1.00  0.00     0.157 A 
ATOM     16  C   UNL     1       6.980 -18.889  12.896  1.00  0.00     0.062 A 
ATOM     17  C   UNL     1       7.519 -20.172  12.749  1.00  0.00     0.158 A 
BRANCH  15  18
ATOM     18  O   UNL     1       8.125 -22.312  13.717  1.00  0.00    -0.504 OA
ATOM     19  H   UNL     1       7.790 -22.951  13.006  1.00  0.00     0.293 HD
ENDBRANCH  15  18
BRANCH  17  20
ATOM     20  O   UNL     1       7.978 -20.574  11.495  1.00  0.00    -0.504 OA
ATOM     21  H   UNL     1       8.877 -21.024  11.369  1.00  0.00     0.293 HD
ENDBRANCH  17  20
ENDBRANCH   1  12
BRANCH   2  22
ATOM     22  O   UNL     1       8.125 -16.057  13.978  1.00  0.00    -0.502 OA
ATOM     23  H   UNL     1       8.471 -16.163  13.032  1.00  0.00     0.293 HD
ENDBRANCH   2  22
BRANCH   6  24
ATOM     24  O   UNL     1       4.732 -12.131  15.183  1.00  0.00    -0.507 OA
ATOM     25  H   UNL     1       4.306 -11.321  15.607  1.00  0.00     0.293 HD
ENDBRANCH   6  24
BRANCH   8  26
ATOM     26  O   UNL     1       0.600 -14.544  15.228  1.00  0.00    -0.508 OA
ATOM     27  H   UNL     1       0.002 -14.092  14.546  1.00  0.00     0.293 HD
ENDBRANCH   8  26
TORSDOF 6
ENDMDL
MODEL 2
REMARK VINA RESULT:    -5.725      1.658      7.168
REMARK INTER + INTRA:          -7.104
REMARK INTER:                  -6.781
REMARK INTRA:                  -0.322
REMARK UNBOUND:                -0.207
REMARK SMILES O=c1c(O)c(-c2ccc(O)c(O)c2)oc2cc(O)cc(O)c12
REMARK SMILES IDX 5 1 3 2 2 3 1 4 22 5 20 6 19 7 17 8 16 9 15 10 14 11 6 12
REMARK SMILES IDX 7 13 8 14 9 15 13 16 11 17 10 18 12 20 4 22 21 24 18 26
REMARK H PARENT 10 19 12 21 4 23 21 25 18 27
REMARK Flexibility Score: inf
ROOT
ATOM      1  C   UNL     1       4.820 -16.968  15.457  1.00  0.00     0.180 A 
ATOM      2  C   UNL     1       4.815 -17.802  16.588  1.00  0.00     0.208 A 
ATOM      3  C   UNL     1       5.507 -19.023  16.537  1.00  0.00     0.238 A 
ATOM      4  O   UNL     1       5.454 -19.790  17.533  1.00  0.00    -0.285 OA
ATOM      5  C   UNL     1       6.209 -19.387  15.363  1.00  0.00     0.111 A 
ATOM      6  C   UNL     1       6.977 -20.580  15.215  1.00  0.00     0.134 A 
ATOM      7  C   UNL     1       7.522 -20.900  13.964  1.00  0.00     0.093 A 
ATOM      8  C   UNL     1       7.382 -20.040  12.876  1.00  0.00     0.123 A 
ATOM      9  C   UNL     1       6.683 -18.841  13.026  1.00  0.00     0.094 A 
ATOM     10  C   UNL     1       6.097 -18.511  14.251  1.00  0.00     0.146 A 
ATOM     11  O   UNL     1       5.433 -17.367  14.348  1.00  0.00    -0.452 OA
ENDROOT
BRANCH   1  12
ATOM     12  C   UNL     1       4.134 -15.656  15.442  1.00  0.00     0.025 A 
ATOM     13  C   UNL     1       4.811 -14.518  15.906  1.00  0.00     0.016 A 
ATOM     14  C   UNL     1       4.176 -13.273  15.920  1.00  0.00     0.051 A 
ATOM     15  C   UNL     1       2.849 -13.151  15.488  1.00  0.00     0.157 A 
ATOM     16  C   UNL     1       2.795 -15.534  15.027  1.00  0.00     0.062 A 
ATOM     17  C   UNL     1       2.155 -14.289  15.044  1.00  0.00     0.158 A 
BRANCH  15  18
ATOM     18  O   UNL     1       2.219 -11.908  15.502  1.00  0.00    -0.504 OA
ATOM     19  H   UNL     1       1.433 -11.704  14.898  1.00  0.00     0.293 HD
ENDBRANCH  15  18
BRANCH  17  20
ATOM     20  O   UNL     1       0.830 -14.204  14.619  1.00  0.00    -0.504 OA
ATOM     21  H   UNL     1       0.436 -13.346  14.249  1.00  0.00     0.293 HD
ENDBRANCH  17  20
ENDBRANCH   1  12
BRANCH   2  22
ATOM     22  O   UNL     1       4.098 -17.434  17.730  1.00  0.00    -0.502 OA
ATOM     23  H   UNL     1       3.108 -17.622  17.835  1.00  0.00     0.293 HD
ENDBRANCH   2  22
BRANCH   6  24
ATOM     24  O   UNL     1       7.256 -21.464  16.261  1.00  0.00    -0.507 OA
ATOM     25  H   UNL     1       8.183 -21.757  16.533  1.00  0.00     0.293 HD
ENDBRANCH   6  24
BRANCH   8  26
ATOM     26  O   UNL     1       7.950 -20.383  11.651  1.00  0.00    -0.508 OA
ATOM     27  H   UNL     1       7.390 -20.752  10.892  1.00  0.00     0.293 HD
ENDBRANCH   8  26
TORSDOF 6
ENDMDL
MODEL 3
REMARK VINA RESULT:    -5.451      3.489      7.282
REMARK INTER + INTRA:          -6.774
REMARK INTER:                  -6.441
REMARK INTRA:                  -0.333
REMARK UNBOUND:                -0.207
REMARK SMILES O=c1c(O)c(-c2ccc(O)c(O)c2)oc2cc(O)cc(O)c12
REMARK SMILES IDX 5 1 3 2 2 3 1 4 22 5 20 6 19 7 17 8 16 9 15 10 14 11 6 12
REMARK SMILES IDX 7 13 8 14 9 15 13 16 11 17 10 18 12 20 4 22 21 24 18 26
REMARK H PARENT 10 19 12 21 4 23 21 25 18 27
REMARK Flexibility Score: inf
ROOT
ATOM      1  C   UNL     1       5.805 -12.029  14.385  1.00  0.00     0.180 A 
ATOM      2  C   UNL     1       6.735 -12.971  14.856  1.00  0.00     0.208 A 
ATOM      3  C   UNL     1       6.279 -14.238  15.254  1.00  0.00     0.238 A 
ATOM      4  O   UNL     1       7.107 -15.059  15.727  1.00  0.00    -0.285 OA
ATOM      5  C   UNL     1       4.901 -14.553  15.159  1.00  0.00     0.111 A 
ATOM      6  C   UNL     1       4.334 -15.818  15.496  1.00  0.00     0.134 A 
ATOM      7  C   UNL     1       2.942 -15.975  15.487  1.00  0.00     0.093 A 
ATOM      8  C   UNL     1       2.102 -14.935  15.092  1.00  0.00     0.123 A 
ATOM      9  C   UNL     1       2.650 -13.712  14.703  1.00  0.00     0.094 A 
ATOM     10  C   UNL     1       4.033 -13.512  14.737  1.00  0.00     0.146 A 
ATOM     11  O   UNL     1       4.513 -12.331  14.369  1.00  0.00    -0.452 OA
ENDROOT
BRANCH   1  12
ATOM     12  C   UNL     1       6.213 -10.682  13.925  1.00  0.00     0.025 A 
ATOM     13  C   UNL     1       6.145  -9.598  14.813  1.00  0.00     0.016 A 
ATOM     14  C   UNL     1       6.505  -8.314  14.394  1.00  0.00     0.051 A 
ATOM     15  C   UNL     1       6.923  -8.093  13.075  1.00  0.00     0.157 A 
ATOM     16  C   UNL     1       6.614 -10.452  12.596  1.00  0.00     0.062 A 
ATOM     17  C   UNL     1       6.973  -9.167  12.172  1.00  0.00     0.158 A 
BRANCH  15  18
ATOM     18  O   UNL     1       7.284  -6.812  12.661  1.00  0.00    -0.504 OA
ATOM     19  H   UNL     1       6.604  -6.064  12.594  1.00  0.00     0.293 HD
ENDBRANCH  15  18
BRANCH  17  20
ATOM     20  O   UNL     1       7.372  -8.977  10.849  1.00  0.00    -0.504 OA
ATOM     21  H   UNL     1       8.197  -9.423  10.466  1.00  0.00     0.293 HD
ENDBRANCH  17  20
ENDBRANCH   1  12
BRANCH   2  22
ATOM     22  O   UNL     1       8.087 -12.633  14.963  1.00  0.00    -0.502 OA
ATOM     23  H   UNL     1       8.450 -12.071  15.724  1.00  0.00     0.293 HD
ENDBRANCH   2  22
BRANCH   6  24
ATOM     24  O   UNL     1       5.088 -16.951  15.816  1.00  0.00    -0.507 OA
ATOM     25  H   UNL     1       5.877 -17.285  15.284  1.00  0.00     0.293 HD
ENDBRANCH   6  24
BRANCH   8  26
ATOM     26  O   UNL     1       0.723 -15.131  15.080  1.00  0.00    -0.508 OA
ATOM     27  H   UNL     1       0.298 -15.926  15.542  1.00  0.00     0.293 HD
ENDBRANCH   8  26
TORSDOF 6
ENDMDL
MODEL 4
REMARK VINA RESULT:    -5.446      2.219      7.170
REMARK INTER + INTRA:          -6.768
REMARK INTER:                  -6.534
REMARK INTRA:                  -0.234
REMARK UNBOUND:                -0.207
REMARK SMILES O=c1c(O)c(-c2ccc(O)c(O)c2)oc2cc(O)cc(O)c12
REMARK SMILES IDX 5 1 3 2 2 3 1 4 22 5 20 6 19 7 17 8 16 9 15 10 14 11 6 12
REMARK SMILES IDX 7 13 8 14 9 15 13 16 11 17 10 18 12 20 4 22 21 24 18 26
REMARK H PARENT 10 19 12 21 4 23 21 25 18 27
REMARK Flexibility Score: inf
ROOT
ATOM      1  C   UNL     1       5.014 -17.282  15.607  1.00  0.00     0.180 A 
ATOM      2  C   UNL     1       5.163 -18.144  14.507  1.00  0.00     0.208 A 
ATOM      3  C   UNL     1       5.861 -19.350  14.676  1.00  0.00     0.238 A 
ATOM      4  O   UNL     1       6.038 -20.091  13.674  1.00  0.00    -0.285 OA
ATOM      5  C   UNL     1       6.386 -19.689  15.946  1.00  0.00     0.111 A 
ATOM      6  C   UNL     1       7.074 -20.903  16.241  1.00  0.00     0.134 A 
ATOM      7  C   UNL     1       7.665 -21.074  17.500  1.00  0.00     0.093 A 
ATOM      8  C   UNL     1       7.536 -20.105  18.494  1.00  0.00     0.123 A 
ATOM      9  C   UNL     1       6.813 -18.939  18.235  1.00  0.00     0.094 A 
ATOM     10  C   UNL     1       6.244 -18.723  16.977  1.00  0.00     0.146 A 
ATOM     11  O   UNL     1       5.574 -17.597  16.770  1.00  0.00    -0.452 OA
ENDROOT
BRANCH   1  12
ATOM     12  C   UNL     1       4.271 -16.005  15.514  1.00  0.00     0.025 A 
ATOM     13  C   UNL     1       4.960 -14.792  15.659  1.00  0.00     0.016 A 
ATOM     14  C   UNL     1       4.275 -13.575  15.595  1.00  0.00     0.051 A 
ATOM     15  C   UNL     1       2.888 -13.555  15.401  1.00  0.00     0.157 A 
ATOM     16  C   UNL     1       2.875 -15.981  15.339  1.00  0.00     0.062 A 
ATOM     17  C   UNL     1       2.185 -14.765  15.277  1.00  0.00     0.158 A 
BRANCH  15  18
ATOM     18  O   UNL     1       2.208 -12.340  15.335  1.00  0.00    -0.504 OA
ATOM     19  H   UNL     1       2.074 -11.853  14.457  1.00  0.00     0.293 HD
ENDBRANCH  15  18
BRANCH  17  20
ATOM     20  O   UNL     1       0.802 -14.779  15.096  1.00  0.00    -0.504 OA
ATOM     21  H   UNL     1       0.233 -15.576  15.355  1.00  0.00     0.293 HD
ENDBRANCH  17  20
ENDBRANCH   1  12
BRANCH   2  22
ATOM     22  O   UNL     1       4.656 -17.780  13.256  1.00  0.00    -0.502 OA
ATOM     23  H   UNL     1       4.434 -16.822  13.016  1.00  0.00     0.293 HD
ENDBRANCH   2  22
BRANCH   6  24
ATOM     24  O   UNL     1       7.183 -21.975  15.351  1.00  0.00    -0.507 OA
ATOM     25  H   UNL     1       6.434 -22.614  15.127  1.00  0.00     0.293 HD
ENDBRANCH   6  24
BRANCH   8  26
ATOM     26  O   UNL     1       8.123 -20.315  19.740  1.00  0.00    -0.508 OA
ATOM     27  H   UNL     1       8.928 -19.780  20.043  1.00  0.00     0.293 HD
ENDBRANCH   8  26
TORSDOF 6
ENDMDL
MODEL 5
REMARK VINA RESULT:    -5.391      3.834      6.524
REMARK INTER + INTRA:          -6.701
REMARK INTER:                  -6.384
REMARK INTRA:                  -0.318
REMARK UNBOUND:                -0.207
REMARK SMILES O=c1c(O)c(-c2ccc(O)c(O)c2)oc2cc(O)cc(O)c12
REMARK SMILES IDX 5 1 3 2 2 3 1 4 22 5 20 6 19 7 17 8 16 9 15 10 14 11 6 12
REMARK SMILES IDX 7 13 8 14 9 15 13 16 11 17 10 18 12 20 4 22 21 24 18 26
REMARK H PARENT 10 19 12 21 4 23 21 25 18 27
REMARK Flexibility Score: inf
ROOT
ATOM      1  C   UNL     1       5.430 -12.055  14.411  1.00  0.00     0.180 A 
ATOM      2  C   UNL     1       5.338 -11.128  15.464  1.00  0.00     0.208 A 
ATOM      3  C   UNL     1       5.792  -9.816  15.257  1.00  0.00     0.238 A 
ATOM      4  O   UNL     1       5.757  -9.005  16.219  1.00  0.00    -0.285 OA
ATOM      5  C   UNL     1       6.316  -9.442  13.996  1.00  0.00     0.111 A 
ATOM      6  C   UNL     1       6.767  -8.129  13.664  1.00  0.00     0.134 A 
ATOM      7  C   UNL     1       7.388  -7.906  12.428  1.00  0.00     0.093 A 
ATOM      8  C   UNL     1       7.516  -8.929  11.490  1.00  0.00     0.123 A 
ATOM      9  C   UNL     1       7.024 -10.202  11.782  1.00  0.00     0.094 A 
ATOM     10  C   UNL     1       6.432 -10.465  13.020  1.00  0.00     0.146 A 
ATOM     11  O   UNL     1       5.987 -11.692  13.262  1.00  0.00    -0.452 OA
ENDROOT
BRANCH   1  12
ATOM     12  C   UNL     1       4.950 -13.449  14.545  1.00  0.00     0.025 A 
ATOM     13  C   UNL     1       5.875 -14.480  14.772  1.00  0.00     0.016 A 
ATOM     14  C   UNL     1       5.446 -15.805  14.881  1.00  0.00     0.051 A 
ATOM     15  C   UNL     1       4.088 -16.122  14.747  1.00  0.00     0.157 A 
ATOM     16  C   UNL     1       3.589 -13.774  14.391  1.00  0.00     0.062 A 
ATOM     17  C   UNL     1       3.157 -15.101  14.496  1.00  0.00     0.158 A 
BRANCH  15  18
ATOM     18  O   UNL     1       3.663 -17.445  14.858  1.00  0.00    -0.504 OA
ATOM     19  H   UNL     1       2.705 -17.713  14.669  1.00  0.00     0.293 HD
ENDBRANCH  15  18
BRANCH  17  20
ATOM     20  O   UNL     1       1.800 -15.385  14.345  1.00  0.00    -0.504 OA
ATOM     21  H   UNL     1       1.321 -15.269  13.459  1.00  0.00     0.293 HD
ENDBRANCH  17  20
ENDBRANCH   1  12
BRANCH   2  22
ATOM     22  O   UNL     1       4.836 -11.524  16.707  1.00  0.00    -0.502 OA
ATOM     23  H   UNL     1       4.242 -10.927  17.270  1.00  0.00     0.293 HD
ENDBRANCH   2  22
BRANCH   6  24
ATOM     24  O   UNL     1       6.607  -7.015  14.492  1.00  0.00    -0.507 OA
ATOM     25  H   UNL     1       6.953  -6.947  15.437  1.00  0.00     0.293 HD
ENDBRANCH   6  24
BRANCH   8  26
ATOM     26  O   UNL     1       8.125  -8.667  10.264  1.00  0.00    -0.508 OA
ATOM     27  H   UNL     1       9.075  -8.961  10.072  1.00  0.00     0.293 HD
ENDBRANCH   8  26
TORSDOF 6
ENDMDL
MODEL 6
REMARK VINA RESULT:    -5.241      2.394      4.242
REMARK INTER + INTRA:          -6.521
REMARK INTER:                  -6.468
REMARK INTRA:                  -0.053
REMARK UNBOUND:                -0.207
REMARK SMILES O=c1c(O)c(-c2ccc(O)c(O)c2)oc2cc(O)cc(O)c12
REMARK SMILES IDX 5 1 3 2 2 3 1 4 22 5 20 6 19 7 17 8 16 9 15 10 14 11 6 12
REMARK SMILES IDX 7 13 8 14 9 15 13 16 11 17 10 18 12 20 4 22 21 24 18 26
REMARK H PARENT 10 19 12 21 4 23 21 25 18 27
REMARK Flexibility Score: inf
ROOT
ATOM      1  C   UNL     1       4.713 -14.393  15.328  1.00  0.00     0.180 A 
ATOM      2  C   UNL     1       3.911 -14.467  16.479  1.00  0.00     0.208 A 
ATOM      3  C   UNL     1       3.269 -13.307  16.939  1.00  0.00     0.238 A 
ATOM      4  O   UNL     1       2.597 -13.367  18.001  1.00  0.00    -0.285 OA
ATOM      5  C   UNL     1       3.422 -12.089  16.231  1.00  0.00     0.111 A 
ATOM      6  C   UNL     1       2.786 -10.862  16.583  1.00  0.00     0.134 A 
ATOM      7  C   UNL     1       3.114  -9.691  15.888  1.00  0.00     0.093 A 
ATOM      8  C   UNL     1       4.003  -9.714  14.815  1.00  0.00     0.123 A 
ATOM      9  C   UNL     1       4.585 -10.921  14.425  1.00  0.00     0.094 A 
ATOM     10  C   UNL     1       4.307 -12.100  15.121  1.00  0.00     0.146 A 
ATOM     11  O   UNL     1       4.890 -13.224  14.724  1.00  0.00    -0.452 OA
ENDROOT
BRANCH   1  12
ATOM     12  C   UNL     1       5.402 -15.579  14.769  1.00  0.00     0.025 A 
ATOM     13  C   UNL     1       6.769 -15.502  14.461  1.00  0.00     0.016 A 
ATOM     14  C   UNL     1       7.434 -16.603  13.914  1.00  0.00     0.051 A 
ATOM     15  C   UNL     1       6.738 -17.790  13.651  1.00  0.00     0.157 A 
ATOM     16  C   UNL     1       4.702 -16.766  14.485  1.00  0.00     0.062 A 
ATOM     17  C   UNL     1       5.365 -17.869  13.934  1.00  0.00     0.158 A 
BRANCH  15  18
ATOM     18  O   UNL     1       7.405 -18.887  13.107  1.00  0.00    -0.504 OA
ATOM     19  H   UNL     1       6.905 -19.706  12.783  1.00  0.00     0.293 HD
ENDBRANCH  15  18
BRANCH  17  20
ATOM     20  O   UNL     1       4.641 -19.032  13.671  1.00  0.00    -0.504 OA
ATOM     21  H   UNL     1       4.822 -19.901  14.158  1.00  0.00     0.293 HD
ENDBRANCH  17  20
ENDBRANCH   1  12
BRANCH   2  22
ATOM     22  O   UNL     1       3.791 -15.674  17.176  1.00  0.00    -0.502 OA
ATOM     23  H   UNL     1       2.893 -16.087  17.398  1.00  0.00     0.293 HD
ENDBRANCH   2  22
BRANCH   6  24
ATOM     24  O   UNL     1       1.813 -10.744  17.580  1.00  0.00    -0.507 OA
ATOM     25  H   UNL     1       1.646 -11.428  18.303  1.00  0.00     0.293 HD
ENDBRANCH   6  24
BRANCH   8  26
ATOM     26  O   UNL     1       4.293  -8.532  14.136  1.00  0.00    -0.508 OA
ATOM     27  H   UNL     1       5.095  -7.964  14.382  1.00  0.00     0.293 HD
ENDBRANCH   8  26
TORSDOF 6
ENDMDL
MODEL 7
REMARK VINA RESULT:    -5.184      3.130      4.783
REMARK INTER + INTRA:          -6.452
REMARK INTER:                  -6.327
REMARK INTRA:                  -0.125
REMARK UNBOUND:                -0.207
REMARK SMILES O=c1c(O)c(-c2ccc(O)c(O)c2)oc2cc(O)cc(O)c12
REMARK SMILES IDX 5 1 3 2 2 3 1 4 22 5 20 6 19 7 17 8 16 9 15 10 14 11 6 12
REMARK SMILES IDX 7 13 8 14 9 15 13 16 11 17 10 18 12 20 4 22 21 24 18 26
REMARK H PARENT 10 19 12 21 4 23 21 25 18 27
REMARK Flexibility Score: inf
ROOT
ATOM      1  C   UNL     1       4.400 -13.132  15.163  1.00  0.00     0.180 A 
ATOM      2  C   UNL     1       5.494 -12.537  14.511  1.00  0.00     0.208 A 
ATOM      3  C   UNL     1       5.487 -11.149  14.298  1.00  0.00     0.238 A 
ATOM      4  O   UNL     1       6.442 -10.629  13.666  1.00  0.00    -0.285 OA
ATOM      5  C   UNL     1       4.394 -10.372  14.754  1.00  0.00     0.111 A 
ATOM      6  C   UNL     1       4.301  -8.953  14.627  1.00  0.00     0.134 A 
ATOM      7  C   UNL     1       3.116  -8.305  14.997  1.00  0.00     0.093 A 
ATOM      8  C   UNL     1       2.048  -9.012  15.547  1.00  0.00     0.123 A 
ATOM      9  C   UNL     1       2.152 -10.391  15.730  1.00  0.00     0.094 A 
ATOM     10  C   UNL     1       3.307 -11.073  15.338  1.00  0.00     0.146 A 
ATOM     11  O   UNL     1       3.361 -12.386  15.520  1.00  0.00    -0.452 OA
ENDROOT
BRANCH   1  12
ATOM     12  C   UNL     1       4.346 -14.585  15.445  1.00  0.00     0.025 A 
ATOM     13  C   UNL     1       4.338 -15.030  16.776  1.00  0.00     0.016 A 
ATOM     14  C   UNL     1       4.308 -16.397  17.065  1.00  0.00     0.051 A 
ATOM     15  C   UNL     1       4.305 -17.339  16.028  1.00  0.00     0.157 A 
ATOM     16  C   UNL     1       4.363 -15.534  14.407  1.00  0.00     0.062 A 
ATOM     17  C   UNL     1       4.337 -16.904  14.693  1.00  0.00     0.158 A 
BRANCH  15  18
ATOM     18  O   UNL     1       4.273 -18.702  16.321  1.00  0.00    -0.504 OA
ATOM     19  H   UNL     1       4.425 -19.047  17.260  1.00  0.00     0.293 HD
ENDBRANCH  15  18
BRANCH  17  20
ATOM     20  O   UNL     1       4.347 -17.816  13.639  1.00  0.00    -0.504 OA
ATOM     21  H   UNL     1       4.913 -17.676  12.810  1.00  0.00     0.293 HD
ENDBRANCH  17  20
ENDBRANCH   1  12
BRANCH   2  22
ATOM     22  O   UNL     1       6.552 -13.325  14.050  1.00  0.00    -0.502 OA
ATOM     23  H   UNL     1       6.590 -14.326  14.199  1.00  0.00     0.293 HD
ENDBRANCH   2  22
BRANCH   6  24
ATOM     24  O   UNL     1       5.343  -8.139  14.175  1.00  0.00    -0.507 OA
ATOM     25  H   UNL     1       5.222  -7.222  13.772  1.00  0.00     0.293 HD
ENDBRANCH   6  24
BRANCH   8  26
ATOM     26  O   UNL     1       0.890  -8.331  15.918  1.00  0.00    -0.508 OA
ATOM     27  H   UNL     1       0.094  -8.261  15.294  1.00  0.00     0.293 HD
ENDBRANCH   8  26
TORSDOF 6
ENDMDL
MODEL 8
REMARK VINA RESULT:    -5.108      6.782     10.310
REMARK INTER + INTRA:          -6.361
REMARK INTER:                  -6.170
REMARK INTRA:                  -0.191
REMARK UNBOUND:                -0.207
REMARK SMILES O=c1c(O)c(-c2ccc(O)c(O)c2)oc2cc(O)cc(O)c12
REMARK SMILES IDX 5 1 3 2 2 3 1 4 22 5 20 6 19 7 17 8 16 9 15 10 14 11 6 12
REMARK SMILES IDX 7 13 8 14 9 15 13 16 11 17 10 18 12 20 4 22 21 24 18 26
REMARK H PARENT 10 19 12 21 4 23 21 25 18 27
REMARK Flexibility Score: inf
ROOT
ATOM      1  C   UNL     1       2.231  -9.415  15.171  1.00  0.00     0.180 A 
ATOM      2  C   UNL     1       2.367  -9.985  16.449  1.00  0.00     0.208 A 
ATOM      3  C   UNL     1       3.595 -10.560  16.811  1.00  0.00     0.238 A 
ATOM      4  O   UNL     1       3.694 -11.118  17.935  1.00  0.00    -0.285 OA
ATOM      5  C   UNL     1       4.678 -10.543  15.899  1.00  0.00     0.111 A 
ATOM      6  C   UNL     1       5.979 -11.060  16.176  1.00  0.00     0.134 A 
ATOM      7  C   UNL     1       6.935 -11.108  15.152  1.00  0.00     0.093 A 
ATOM      8  C   UNL     1       6.659 -10.598  13.884  1.00  0.00     0.123 A 
ATOM      9  C   UNL     1       5.409 -10.036  13.621  1.00  0.00     0.094 A 
ATOM     10  C   UNL     1       4.423 -10.007  14.610  1.00  0.00     0.146 A 
ATOM     11  O   UNL     1       3.244  -9.473  14.315  1.00  0.00    -0.452 OA
ENDROOT
BRANCH   1  12
ATOM     12  C   UNL     1       0.976  -8.769  14.726  1.00  0.00     0.025 A 
ATOM     13  C   UNL     1       0.936  -7.376  14.565  1.00  0.00     0.016 A 
ATOM     14  C   UNL     1      -0.245  -6.743  14.166  1.00  0.00     0.051 A 
ATOM     15  C   UNL     1      -1.406  -7.492  13.938  1.00  0.00     0.157 A 
ATOM     16  C   UNL     1      -0.198  -9.516  14.516  1.00  0.00     0.062 A 
ATOM     17  C   UNL     1      -1.382  -8.885  14.119  1.00  0.00     0.158 A 
BRANCH  15  18
ATOM     18  O   UNL     1      -2.581  -6.858  13.538  1.00  0.00    -0.504 OA
ATOM     19  H   UNL     1      -3.116  -7.183  12.741  1.00  0.00     0.293 HD
ENDBRANCH  15  18
BRANCH  17  20
ATOM     20  O   UNL     1      -2.525  -9.658  13.913  1.00  0.00    -0.504 OA
ATOM     21  H   UNL     1      -2.588 -10.620  14.223  1.00  0.00     0.293 HD
ENDBRANCH  17  20
ENDBRANCH   1  12
BRANCH   2  22
ATOM     22  O   UNL     1       1.279 -10.011  17.327  1.00  0.00    -0.502 OA
ATOM     23  H   UNL     1       1.392 -10.064  18.332  1.00  0.00     0.293 HD
ENDBRANCH   2  22
BRANCH   6  24
ATOM     24  O   UNL     1       6.390 -11.510  17.434  1.00  0.00    -0.507 OA
ATOM     25  H   UNL     1       6.839 -10.935  18.131  1.00  0.00     0.293 HD
ENDBRANCH   6  24
BRANCH   8  26
ATOM     26  O   UNL     1       7.639 -10.648  12.895  1.00  0.00    -0.508 OA
ATOM     27  H   UNL     1       8.625 -10.654  13.127  1.00  0.00     0.293 HD
ENDBRANCH   8  26
TORSDOF 6
ENDMDL
MODEL 9
REMARK VINA RESULT:    -4.975      2.527      4.310
REMARK INTER + INTRA:          -6.201
REMARK INTER:                  -5.871
REMARK INTRA:                  -0.330
REMARK UNBOUND:                -0.207
REMARK SMILES O=c1c(O)c(-c2ccc(O)c(O)c2)oc2cc(O)cc(O)c12
REMARK SMILES IDX 5 1 3 2 2 3 1 4 22 5 20 6 19 7 17 8 16 9 15 10 14 11 6 12
REMARK SMILES IDX 7 13 8 14 9 15 13 16 11 17 10 18 12 20 4 22 21 24 18 26
REMARK H PARENT 10 19 12 21 4 23 21 25 18 27
REMARK Flexibility Score: inf
ROOT
ATOM      1  C   UNL     1       5.066 -14.341  15.306  1.00  0.00     0.180 A 
ATOM      2  C   UNL     1       4.093 -13.838  16.186  1.00  0.00     0.208 A 
ATOM      3  C   UNL     1       3.734 -12.484  16.104  1.00  0.00     0.238 A 
ATOM      4  O   UNL     1       2.902 -12.026  16.930  1.00  0.00    -0.285 OA
ATOM      5  C   UNL     1       4.340 -11.652  15.131  1.00  0.00     0.111 A 
ATOM      6  C   UNL     1       4.024 -10.275  14.931  1.00  0.00     0.134 A 
ATOM      7  C   UNL     1       4.781  -9.518  14.028  1.00  0.00     0.093 A 
ATOM      8  C   UNL     1       5.796 -10.100  13.271  1.00  0.00     0.123 A 
ATOM      9  C   UNL     1       6.074 -11.460  13.416  1.00  0.00     0.094 A 
ATOM     10  C   UNL     1       5.362 -12.235  14.335  1.00  0.00     0.146 A 
ATOM     11  O   UNL     1       5.664 -13.522  14.449  1.00  0.00    -0.452 OA
ENDROOT
BRANCH   1  12
ATOM     12  C   UNL     1       5.479 -15.763  15.317  1.00  0.00     0.025 A 
ATOM     13  C   UNL     1       6.567 -16.161  16.108  1.00  0.00     0.016 A 
ATOM     14  C   UNL     1       6.986 -17.495  16.117  1.00  0.00     0.051 A 
ATOM     15  C   UNL     1       6.334 -18.445  15.321  1.00  0.00     0.157 A 
ATOM     16  C   UNL     1       4.839 -16.717  14.504  1.00  0.00     0.062 A 
ATOM     17  C   UNL     1       5.258 -18.053  14.508  1.00  0.00     0.158 A 
BRANCH  15  18
ATOM     18  O   UNL     1       6.753 -19.775  15.334  1.00  0.00    -0.504 OA
ATOM     19  H   UNL     1       7.646 -20.047  15.727  1.00  0.00     0.293 HD
ENDBRANCH  15  18
BRANCH  17  20
ATOM     20  O   UNL     1       4.597 -18.972  13.694  1.00  0.00    -0.504 OA
ATOM     21  H   UNL     1       4.871 -19.947  13.649  1.00  0.00     0.293 HD
ENDBRANCH  17  20
ENDBRANCH   1  12
BRANCH   2  22
ATOM     22  O   UNL     1       3.522 -14.671  17.154  1.00  0.00    -0.502 OA
ATOM     23  H   UNL     1       3.767 -15.649  17.243  1.00  0.00     0.293 HD
ENDBRANCH   2  22
BRANCH   6  24
ATOM     24  O   UNL     1       2.969  -9.616  15.568  1.00  0.00    -0.507 OA
ATOM     25  H   UNL     1       2.188  -9.190  15.092  1.00  0.00     0.293 HD
ENDBRANCH   6  24
BRANCH   8  26
ATOM     26  O   UNL     1       6.517  -9.320  12.371  1.00  0.00    -0.508 OA
ATOM     27  H   UNL     1       6.674  -9.621  11.416  1.00  0.00     0.293 HD
ENDBRANCH   8  26
TORSDOF 6
ENDMDL
