MODEL 1
REMARK VINA RESULT:    -6.835      0.000      0.000
REMARK INTER + INTRA:          -8.297
REMARK INTER:                  -8.034
REMARK INTRA:                  -0.263
REMARK UNBOUND:                -0.263
REMARK SMILES O=c1cc(-c2ccc(O)c(O)c2)oc2cc(O)cc(O)c12
REMARK SMILES IDX 4 1 3 2 2 3 1 4 21 5 19 6 18 7 16 8 15 9 14 10 13 11 5 12
REMARK SMILES IDX 6 13 7 14 8 15 12 16 10 17 9 18 11 20 20 22 17 24
REMARK H PARENT 9 19 11 21 20 23 17 25
REMARK Flexibility Score: inf
ROOT
ATOM      1  C   UNL     1      12.283  10.374  12.480  1.00  0.00     0.138 A 
ATOM      2  C   UNL     1      12.629  11.675  12.089  1.00  0.00     0.100 A 
ATOM      3  C   UNL     1      13.886  11.918  11.532  1.00  0.00     0.197 A 
ATOM      4  O   UNL     1      14.143  13.083  11.134  1.00  0.00    -0.289 OA
ATOM      5  C   UNL     1      14.811  10.856  11.396  1.00  0.00     0.107 A 
ATOM      6  C   UNL     1      16.135  10.994  10.881  1.00  0.00     0.134 A 
ATOM      7  C   UNL     1      16.921   9.851  10.685  1.00  0.00     0.093 A 
ATOM      8  C   UNL     1      16.455   8.586  11.041  1.00  0.00     0.123 A 
ATOM      9  C   UNL     1      15.183   8.447  11.597  1.00  0.00     0.094 A 
ATOM     10  C   UNL     1      14.362   9.562  11.772  1.00  0.00     0.146 A 
ATOM     11  O   UNL     1      13.151   9.385  12.291  1.00  0.00    -0.456 OA
ENDROOT
BRANCH   1  12
ATOM     12  C   UNL     1      10.961  10.061  13.078  1.00  0.00     0.021 A 
ATOM     13  C   UNL     1      10.032   9.226  12.427  1.00  0.00     0.016 A 
ATOM     14  C   UNL     1       8.791   8.958  13.009  1.00  0.00     0.051 A 
ATOM     15  C   UNL     1       8.451   9.523  14.245  1.00  0.00     0.157 A 
ATOM     16  C   UNL     1      10.606  10.636  14.312  1.00  0.00     0.062 A 
ATOM     17  C   UNL     1       9.363  10.367  14.897  1.00  0.00     0.158 A 
BRANCH  15  18
ATOM     18  O   UNL     1       7.212   9.252  14.823  1.00  0.00    -0.504 OA
ATOM     19  H   UNL     1       6.395   9.815  14.615  1.00  0.00     0.293 HD
ENDBRANCH  15  18
BRANCH  17  20
ATOM     20  O   UNL     1       9.054  10.949  16.126  1.00  0.00    -0.504 OA
ATOM     21  H   UNL     1       9.698  11.566  16.606  1.00  0.00     0.293 HD
ENDBRANCH  17  20
ENDBRANCH   1  12
BRANCH   6  22
ATOM     22  O   UNL     1      16.729  12.221  10.571  1.00  0.00    -0.507 OA
ATOM     23  H   UNL     1      16.925  12.950  11.239  1.00  0.00     0.293 HD
ENDBRANCH   6  22
BRANCH   8  24
ATOM     24  O   UNL     1      17.271   7.473  10.846  1.00  0.00    -0.508 OA
ATOM     25  H   UNL     1      17.429   7.087   9.922  1.00  0.00     0.293 HD
ENDBRANCH   8  24
TORSDOF 5
ENDMDL
MODEL 2
REMARK VINA RESULT:    -6.800      1.567      7.088
REMARK INTER + INTRA:          -8.256
REMARK INTER:                  -7.955
REMARK INTRA:                  -0.301
REMARK UNBOUND:                -0.263
REMARK SMILES O=c1cc(-c2ccc(O)c(O)c2)oc2cc(O)cc(O)c12
REMARK SMILES IDX 4 1 3 2 2 3 1 4 21 5 19 6 18 7 16 8 15 9 14 10 13 11 5 12
REMARK SMILES IDX 6 13 7 14 8 15 12 16 10 17 9 18 11 20 20 22 17 24
REMARK H PARENT 9 19 11 21 20 23 17 25
REMARK Flexibility Score: inf
ROOT
ATOM      1  C   UNL     1      13.427  10.051  12.911  1.00  0.00     0.138 A 
ATOM      2  C   UNL     1      13.366  10.636  14.183  1.00  0.00     0.100 A 
ATOM      3  C   UNL     1      12.140  10.725  14.844  1.00  0.00     0.197 A 
ATOM      4  O   UNL     1      12.126  11.197  16.010  1.00  0.00    -0.289 OA
ATOM      5  C   UNL     1      10.965  10.252  14.212  1.00  0.00     0.107 A 
ATOM      6  C   UNL     1       9.655  10.327  14.774  1.00  0.00     0.134 A 
ATOM      7  C   UNL     1       8.583   9.722  14.105  1.00  0.00     0.093 A 
ATOM      8  C   UNL     1       8.762   9.098  12.871  1.00  0.00     0.123 A 
ATOM      9  C   UNL     1      10.029   9.067  12.288  1.00  0.00     0.094 A 
ATOM     10  C   UNL     1      11.125   9.631  12.946  1.00  0.00     0.146 A 
ATOM     11  O   UNL     1      12.317   9.567  12.363  1.00  0.00    -0.456 OA
ENDROOT
BRANCH   1  12
ATOM     12  C   UNL     1      14.704   9.933  12.164  1.00  0.00     0.021 A 
ATOM     13  C   UNL     1      15.681  10.947  12.202  1.00  0.00     0.016 A 
ATOM     14  C   UNL     1      16.870  10.813  11.480  1.00  0.00     0.051 A 
ATOM     15  C   UNL     1      17.101   9.671  10.702  1.00  0.00     0.157 A 
ATOM     16  C   UNL     1      14.939   8.797  11.369  1.00  0.00     0.062 A 
ATOM     17  C   UNL     1      16.129   8.660  10.646  1.00  0.00     0.158 A 
BRANCH  15  18
ATOM     18  O   UNL     1      18.290   9.541   9.984  1.00  0.00    -0.504 OA
ATOM     19  H   UNL     1      19.191   9.543  10.447  1.00  0.00     0.293 HD
ENDBRANCH  15  18
BRANCH  17  20
ATOM     20  O   UNL     1      16.327   7.513   9.877  1.00  0.00    -0.504 OA
ATOM     21  H   UNL     1      17.036   6.827  10.107  1.00  0.00     0.293 HD
ENDBRANCH  17  20
ENDBRANCH   1  12
BRANCH   6  22
ATOM     22  O   UNL     1       9.351  11.000  15.960  1.00  0.00    -0.507 OA
ATOM     23  H   UNL     1       9.502  10.632  16.886  1.00  0.00     0.293 HD
ENDBRANCH   6  22
BRANCH   8  24
ATOM     24  O   UNL     1       7.669   8.520  12.228  1.00  0.00    -0.508 OA
ATOM     25  H   UNL     1       7.764   8.068  11.327  1.00  0.00     0.293 HD
ENDBRANCH   8  24
TORSDOF 5
ENDMDL
MODEL 3
REMARK VINA RESULT:    -6.616      1.594      3.152
REMARK INTER + INTRA:          -8.040
REMARK INTER:                  -7.746
REMARK INTRA:                  -0.293
REMARK UNBOUND:                -0.263
REMARK SMILES O=c1cc(-c2ccc(O)c(O)c2)oc2cc(O)cc(O)c12
REMARK SMILES IDX 4 1 3 2 2 3 1 4 21 5 19 6 18 7 16 8 15 9 14 10 13 11 5 12
REMARK SMILES IDX 6 13 7 14 8 15 12 16 10 17 9 18 11 20 20 22 17 24
REMARK H PARENT 9 19 11 21 20 23 17 25
REMARK Flexibility Score: inf
ROOT
ATOM      1  C   UNL     1      13.587  10.221  13.004  1.00  0.00     0.138 A 
ATOM      2  C   UNL     1      14.034   8.894  12.929  1.00  0.00     0.100 A 
ATOM      3  C   UNL     1      15.195   8.596  12.213  1.00  0.00     0.197 A 
ATOM      4  O   UNL     1      15.605   7.407  12.217  1.00  0.00    -0.289 OA
ATOM      5  C   UNL     1      15.892   9.629  11.543  1.00  0.00     0.107 A 
ATOM      6  C   UNL     1      17.063   9.436  10.750  1.00  0.00     0.134 A 
ATOM      7  C   UNL     1      17.734  10.550  10.229  1.00  0.00     0.093 A 
ATOM      8  C   UNL     1      17.245  11.842  10.422  1.00  0.00     0.123 A 
ATOM      9  C   UNL     1      16.071  12.037  11.150  1.00  0.00     0.094 A 
ATOM     10  C   UNL     1      15.398  10.950  11.712  1.00  0.00     0.146 A 
ATOM     11  O   UNL     1      14.291  11.180  12.411  1.00  0.00    -0.456 OA
ENDROOT
BRANCH   1  12
ATOM     12  C   UNL     1      12.359  10.593  13.751  1.00  0.00     0.021 A 
ATOM     13  C   UNL     1      12.054  11.933  14.055  1.00  0.00     0.016 A 
ATOM     14  C   UNL     1      10.896  12.253  14.769  1.00  0.00     0.051 A 
ATOM     15  C   UNL     1      10.028  11.241  15.199  1.00  0.00     0.157 A 
ATOM     16  C   UNL     1      11.489   9.582  14.199  1.00  0.00     0.062 A 
ATOM     17  C   UNL     1      10.328   9.900  14.913  1.00  0.00     0.158 A 
BRANCH  15  18
ATOM     18  O   UNL     1       8.873  11.564  15.910  1.00  0.00    -0.504 OA
ATOM     19  H   UNL     1       8.900  12.183  16.712  1.00  0.00     0.293 HD
ENDBRANCH  15  18
BRANCH  17  20
ATOM     20  O   UNL     1       9.487   8.869  15.331  1.00  0.00    -0.504 OA
ATOM     21  H   UNL     1       9.682   7.898  15.121  1.00  0.00     0.293 HD
ENDBRANCH  17  20
ENDBRANCH   1  12
BRANCH   6  22
ATOM     22  O   UNL     1      17.589   8.183  10.425  1.00  0.00    -0.507 OA
ATOM     23  H   UNL     1      17.507   7.739   9.524  1.00  0.00     0.293 HD
ENDBRANCH   6  22
BRANCH   8  24
ATOM     24  O   UNL     1      17.931  12.925   9.876  1.00  0.00    -0.508 OA
ATOM     25  H   UNL     1      18.757  12.795   9.304  1.00  0.00     0.293 HD
ENDBRANCH   8  24
TORSDOF 5
ENDMDL
MODEL 4
REMARK VINA RESULT:    -6.427      1.431      2.150
REMARK INTER + INTRA:          -7.817
REMARK INTER:                  -7.501
REMARK INTRA:                  -0.315
REMARK UNBOUND:                -0.263
REMARK SMILES O=c1cc(-c2ccc(O)c(O)c2)oc2cc(O)cc(O)c12
REMARK SMILES IDX 4 1 3 2 2 3 1 4 21 5 19 6 18 7 16 8 15 9 14 10 13 11 5 12
REMARK SMILES IDX 6 13 7 14 8 15 12 16 10 17 9 18 11 20 20 22 17 24
REMARK H PARENT 9 19 11 21 20 23 17 25
REMARK Flexibility Score: inf
ROOT
ATOM      1  C   UNL     1      13.489  10.283  12.743  1.00  0.00     0.138 A 
ATOM      2  C   UNL     1      14.200  11.298  12.088  1.00  0.00     0.100 A 
ATOM      3  C   UNL     1      15.313  10.971  11.311  1.00  0.00     0.197 A 
ATOM      4  O   UNL     1      15.893  11.895  10.685  1.00  0.00    -0.289 OA
ATOM      5  C   UNL     1      15.733   9.622  11.217  1.00  0.00     0.107 A 
ATOM      6  C   UNL     1      16.876   9.177  10.488  1.00  0.00     0.134 A 
ATOM      7  C   UNL     1      17.127   7.804  10.371  1.00  0.00     0.093 A 
ATOM      8  C   UNL     1      16.313   6.865  11.004  1.00  0.00     0.123 A 
ATOM      9  C   UNL     1      15.224   7.293  11.765  1.00  0.00     0.094 A 
ATOM     10  C   UNL     1      14.927   8.654  11.872  1.00  0.00     0.146 A 
ATOM     11  O   UNL     1      13.872   9.019  12.594  1.00  0.00    -0.456 OA
ENDROOT
BRANCH   1  12
ATOM     12  C   UNL     1      12.300  10.576  13.582  1.00  0.00     0.021 A 
ATOM     13  C   UNL     1      12.004  11.882  14.017  1.00  0.00     0.016 A 
ATOM     14  C   UNL     1      10.883  12.126  14.814  1.00  0.00     0.051 A 
ATOM     15  C   UNL     1      10.044  11.073  15.198  1.00  0.00     0.157 A 
ATOM     16  C   UNL     1      11.460   9.522  13.983  1.00  0.00     0.062 A 
ATOM     17  C   UNL     1      10.336   9.764  14.782  1.00  0.00     0.158 A 
BRANCH  15  18
ATOM     18  O   UNL     1       8.926  11.321  15.993  1.00  0.00    -0.504 OA
ATOM     19  H   UNL     1       8.370  10.566  16.378  1.00  0.00     0.293 HD
ENDBRANCH  15  18
BRANCH  17  20
ATOM     20  O   UNL     1       9.523   8.693  15.150  1.00  0.00    -0.504 OA
ATOM     21  H   UNL     1       9.519   8.320  16.091  1.00  0.00     0.293 HD
ENDBRANCH  17  20
ENDBRANCH   1  12
BRANCH   6  22
ATOM     22  O   UNL     1      17.802  10.034   9.887  1.00  0.00    -0.507 OA
ATOM     23  H   UNL     1      18.799   9.991  10.023  1.00  0.00     0.293 HD
ENDBRANCH   6  22
BRANCH   8  24
ATOM     24  O   UNL     1      16.601   5.508  10.878  1.00  0.00    -0.508 OA
ATOM     25  H   UNL     1      17.524   5.185  10.610  1.00  0.00     0.293 HD
ENDBRANCH   8  24
TORSDOF 5
ENDMDL
MODEL 5
REMARK VINA RESULT:    -6.239      3.580      5.735
REMARK INTER + INTRA:          -7.596
REMARK INTER:                  -7.279
REMARK INTRA:                  -0.317
REMARK UNBOUND:                -0.263
REMARK SMILES O=c1cc(-c2ccc(O)c(O)c2)oc2cc(O)cc(O)c12
REMARK SMILES IDX 4 1 3 2 2 3 1 4 21 5 19 6 18 7 16 8 15 9 14 10 13 11 5 12
REMARK SMILES IDX 6 13 7 14 8 15 12 16 10 17 9 18 11 20 20 22 17 24
REMARK H PARENT 9 19 11 21 20 23 17 25
REMARK Flexibility Score: inf
ROOT
ATOM      1  C   UNL     1      15.251   7.493  12.472  1.00  0.00     0.138 A 
ATOM      2  C   UNL     1      15.611   7.056  11.189  1.00  0.00     0.100 A 
ATOM      3  C   UNL     1      16.329   5.868  11.041  1.00  0.00     0.197 A 
ATOM      4  O   UNL     1      16.583   5.470   9.875  1.00  0.00    -0.289 OA
ATOM      5  C   UNL     1      16.713   5.131  12.187  1.00  0.00     0.107 A 
ATOM      6  C   UNL     1      17.480   3.928  12.159  1.00  0.00     0.134 A 
ATOM      7  C   UNL     1      17.701   3.223  13.349  1.00  0.00     0.093 A 
ATOM      8  C   UNL     1      17.235   3.707  14.571  1.00  0.00     0.123 A 
ATOM      9  C   UNL     1      16.531   4.911  14.616  1.00  0.00     0.094 A 
ATOM     10  C   UNL     1      16.264   5.619  13.442  1.00  0.00     0.146 A 
ATOM     11  O   UNL     1      15.577   6.754  13.527  1.00  0.00    -0.456 OA
ENDROOT
BRANCH   1  12
ATOM     12  C   UNL     1      14.489   8.749  12.686  1.00  0.00     0.021 A 
ATOM     13  C   UNL     1      13.984   9.502  11.609  1.00  0.00     0.016 A 
ATOM     14  C   UNL     1      13.280  10.687  11.840  1.00  0.00     0.051 A 
ATOM     15  C   UNL     1      13.075  11.144  13.147  1.00  0.00     0.157 A 
ATOM     16  C   UNL     1      14.290   9.223  13.995  1.00  0.00     0.062 A 
ATOM     17  C   UNL     1      13.584  10.409  14.229  1.00  0.00     0.158 A 
BRANCH  15  18
ATOM     18  O   UNL     1      12.370  12.326  13.374  1.00  0.00    -0.504 OA
ATOM     19  H   UNL     1      11.361  12.365  13.294  1.00  0.00     0.293 HD
ENDBRANCH  15  18
BRANCH  17  20
ATOM     20  O   UNL     1      13.401  10.840  15.543  1.00  0.00    -0.504 OA
ATOM     21  H   UNL     1      12.507  11.179  15.878  1.00  0.00     0.293 HD
ENDBRANCH  17  20
ENDBRANCH   1  12
BRANCH   6  22
ATOM     22  O   UNL     1      18.064   3.400  11.003  1.00  0.00    -0.507 OA
ATOM     23  H   UNL     1      18.984   2.991  10.958  1.00  0.00     0.293 HD
ENDBRANCH   6  22
BRANCH   8  24
ATOM     24  O   UNL     1      17.487   2.987  15.737  1.00  0.00    -0.508 OA
ATOM     25  H   UNL     1      17.151   3.304  16.638  1.00  0.00     0.293 HD
ENDBRANCH   8  24
TORSDOF 5
ENDMDL
MODEL 6
REMARK VINA RESULT:    -6.234      3.009      6.535
REMARK INTER + INTRA:          -7.590
REMARK INTER:                  -7.274
REMARK INTRA:                  -0.316
REMARK UNBOUND:                -0.263
REMARK SMILES O=c1cc(-c2ccc(O)c(O)c2)oc2cc(O)cc(O)c12
REMARK SMILES IDX 4 1 3 2 2 3 1 4 21 5 19 6 18 7 16 8 15 9 14 10 13 11 5 12
REMARK SMILES IDX 6 13 7 14 8 15 12 16 10 17 9 18 11 20 20 22 17 24
REMARK H PARENT 9 19 11 21 20 23 17 25
REMARK Flexibility Score: inf
ROOT
ATOM      1  C   UNL     1      14.894   8.054  12.382  1.00  0.00     0.138 A 
ATOM      2  C   UNL     1      14.622   8.639  11.137  1.00  0.00     0.100 A 
ATOM      3  C   UNL     1      13.898   9.831  11.078  1.00  0.00     0.197 A 
ATOM      4  O   UNL     1      13.724  10.365   9.952  1.00  0.00    -0.289 OA
ATOM      5  C   UNL     1      13.418  10.422  12.271  1.00  0.00     0.107 A 
ATOM      6  C   UNL     1      12.635  11.614  12.329  1.00  0.00     0.134 A 
ATOM      7  C   UNL     1      12.314  12.168  13.574  1.00  0.00     0.093 A 
ATOM      8  C   UNL     1      12.696  11.544  14.761  1.00  0.00     0.123 A 
ATOM      9  C   UNL     1      13.415  10.349  14.716  1.00  0.00     0.094 A 
ATOM     10  C   UNL     1      13.780   9.789  13.490  1.00  0.00     0.146 A 
ATOM     11  O   UNL     1      14.478   8.658  13.490  1.00  0.00    -0.456 OA
ENDROOT
BRANCH   1  12
ATOM     12  C   UNL     1      15.658   6.787  12.501  1.00  0.00     0.021 A 
ATOM     13  C   UNL     1      16.347   6.231  11.406  1.00  0.00     0.016 A 
ATOM     14  C   UNL     1      17.049   5.031  11.545  1.00  0.00     0.051 A 
ATOM     15  C   UNL     1      17.070   4.362  12.775  1.00  0.00     0.157 A 
ATOM     16  C   UNL     1      15.673   6.101  13.729  1.00  0.00     0.062 A 
ATOM     17  C   UNL     1      16.377   4.900  13.871  1.00  0.00     0.158 A 
BRANCH  15  18
ATOM     18  O   UNL     1      17.774   3.166  12.910  1.00  0.00    -0.504 OA
ATOM     19  H   UNL     1      18.549   3.077  13.557  1.00  0.00     0.293 HD
ENDBRANCH  15  18
BRANCH  17  20
ATOM     20  O   UNL     1      16.375   4.256  15.108  1.00  0.00    -0.504 OA
ATOM     21  H   UNL     1      16.800   4.668  15.930  1.00  0.00     0.293 HD
ENDBRANCH  17  20
ENDBRANCH   1  12
BRANCH   6  22
ATOM     22  O   UNL     1      12.129  12.272  11.204  1.00  0.00    -0.507 OA
ATOM     23  H   UNL     1      11.886  13.249  11.169  1.00  0.00     0.293 HD
ENDBRANCH   6  22
BRANCH   8  24
ATOM     24  O   UNL     1      12.346  12.117  15.983  1.00  0.00    -0.508 OA
ATOM     25  H   UNL     1      12.493  13.102  16.167  1.00  0.00     0.293 HD
ENDBRANCH   8  24
TORSDOF 5
ENDMDL
MODEL 7
REMARK VINA RESULT:    -6.172      3.704      6.743
REMARK INTER + INTRA:          -7.518
REMARK INTER:                  -7.215
REMARK INTRA:                  -0.303
REMARK UNBOUND:                -0.263
REMARK SMILES O=c1cc(-c2ccc(O)c(O)c2)oc2cc(O)cc(O)c12
REMARK SMILES IDX 4 1 3 2 2 3 1 4 21 5 19 6 18 7 16 8 15 9 14 10 13 11 5 12
REMARK SMILES IDX 6 13 7 14 8 15 12 16 10 17 9 18 11 20 20 22 17 24
REMARK H PARENT 9 19 11 21 20 23 17 25
REMARK Flexibility Score: inf
ROOT
ATOM      1  C   UNL     1      15.433   6.807  12.574  1.00  0.00     0.138 A 
ATOM      2  C   UNL     1      15.630   7.338  11.292  1.00  0.00     0.100 A 
ATOM      3  C   UNL     1      15.224   8.645  11.016  1.00  0.00     0.197 A 
ATOM      4  O   UNL     1      15.471   9.116   9.876  1.00  0.00    -0.289 OA
ATOM      5  C   UNL     1      14.590   9.411  12.024  1.00  0.00     0.107 A 
ATOM      6  C   UNL     1      14.098  10.739  11.845  1.00  0.00     0.134 A 
ATOM      7  C   UNL     1      13.592  11.440  12.946  1.00  0.00     0.093 A 
ATOM      8  C   UNL     1      13.505  10.844  14.204  1.00  0.00     0.123 A 
ATOM      9  C   UNL     1      13.933   9.527  14.377  1.00  0.00     0.094 A 
ATOM     10  C   UNL     1      14.474   8.812  13.306  1.00  0.00     0.146 A 
ATOM     11  O   UNL     1      14.884   7.566  13.516  1.00  0.00    -0.456 OA
ENDROOT
BRANCH   1  12
ATOM     12  C   UNL     1      15.845   5.422  12.919  1.00  0.00     0.021 A 
ATOM     13  C   UNL     1      15.761   4.370  11.987  1.00  0.00     0.016 A 
ATOM     14  C   UNL     1      16.146   3.075  12.344  1.00  0.00     0.051 A 
ATOM     15  C   UNL     1      16.612   2.806  13.637  1.00  0.00     0.157 A 
ATOM     16  C   UNL     1      16.300   5.140  14.220  1.00  0.00     0.062 A 
ATOM     17  C   UNL     1      16.687   3.844  14.579  1.00  0.00     0.158 A 
BRANCH  15  18
ATOM     18  O   UNL     1      16.996   1.512  13.988  1.00  0.00    -0.504 OA
ATOM     19  H   UNL     1      17.867   1.331  14.473  1.00  0.00     0.293 HD
ENDBRANCH  15  18
BRANCH  17  20
ATOM     20  O   UNL     1      17.142   3.608  15.876  1.00  0.00    -0.504 OA
ATOM     21  H   UNL     1      16.532   3.261  16.605  1.00  0.00     0.293 HD
ENDBRANCH  17  20
ENDBRANCH   1  12
BRANCH   6  22
ATOM     22  O   UNL     1      14.060  11.399  10.613  1.00  0.00    -0.507 OA
ATOM     23  H   UNL     1      13.510  11.108   9.821  1.00  0.00     0.293 HD
ENDBRANCH   6  22
BRANCH   8  24
ATOM     24  O   UNL     1      12.982  11.567  15.273  1.00  0.00    -0.508 OA
ATOM     25  H   UNL     1      12.556  12.477  15.140  1.00  0.00     0.293 HD
ENDBRANCH   8  24
TORSDOF 5
ENDMDL
MODEL 8
REMARK VINA RESULT:    -5.955      2.248      3.442
REMARK INTER + INTRA:          -7.262
REMARK INTER:                  -6.999
REMARK INTRA:                  -0.263
REMARK UNBOUND:                -0.263
REMARK SMILES O=c1cc(-c2ccc(O)c(O)c2)oc2cc(O)cc(O)c12
REMARK SMILES IDX 4 1 3 2 2 3 1 4 21 5 19 6 18 7 16 8 15 9 14 10 13 11 5 12
REMARK SMILES IDX 6 13 7 14 8 15 12 16 10 17 9 18 11 20 20 22 17 24
REMARK H PARENT 9 19 11 21 20 23 17 25
REMARK Flexibility Score: inf
ROOT
ATOM      1  C   UNL     1      13.912   9.048  12.869  1.00  0.00     0.138 A 
ATOM      2  C   UNL     1      14.418   9.468  11.631  1.00  0.00     0.100 A 
ATOM      3  C   UNL     1      15.431   8.731  11.014  1.00  0.00     0.197 A 
ATOM      4  O   UNL     1      15.821   9.096   9.875  1.00  0.00    -0.289 OA
ATOM      5  C   UNL     1      15.959   7.586  11.657  1.00  0.00     0.107 A 
ATOM      6  C   UNL     1      17.019   6.782  11.141  1.00  0.00     0.134 A 
ATOM      7  C   UNL     1      17.380   5.606  11.810  1.00  0.00     0.093 A 
ATOM      8  C   UNL     1      16.762   5.236  13.004  1.00  0.00     0.123 A 
ATOM      9  C   UNL     1      15.761   6.044  13.545  1.00  0.00     0.094 A 
ATOM     10  C   UNL     1      15.355   7.205  12.884  1.00  0.00     0.146 A 
ATOM     11  O   UNL     1      14.388   7.939  13.425  1.00  0.00    -0.456 OA
ENDROOT
BRANCH   1  12
ATOM     12  C   UNL     1      12.836   9.795  13.569  1.00  0.00     0.021 A 
ATOM     13  C   UNL     1      11.476   9.479  13.388  1.00  0.00     0.016 A 
ATOM     14  C   UNL     1      10.485  10.207  14.051  1.00  0.00     0.051 A 
ATOM     15  C   UNL     1      10.833  11.265  14.900  1.00  0.00     0.157 A 
ATOM     16  C   UNL     1      13.176  10.869  14.412  1.00  0.00     0.062 A 
ATOM     17  C   UNL     1      12.184  11.598  15.078  1.00  0.00     0.158 A 
BRANCH  15  18
ATOM     18  O   UNL     1       9.840  11.988  15.561  1.00  0.00    -0.504 OA
ATOM     19  H   UNL     1       9.308  11.583  16.322  1.00  0.00     0.293 HD
ENDBRANCH  15  18
BRANCH  17  20
ATOM     20  O   UNL     1      12.563  12.649  15.913  1.00  0.00    -0.504 OA
ATOM     21  H   UNL     1      11.928  13.400  16.155  1.00  0.00     0.293 HD
ENDBRANCH  17  20
ENDBRANCH   1  12
BRANCH   6  22
ATOM     22  O   UNL     1      17.761   7.104  10.001  1.00  0.00    -0.507 OA
ATOM     23  H   UNL     1      17.832   8.027   9.602  1.00  0.00     0.293 HD
ENDBRANCH   6  22
BRANCH   8  24
ATOM     24  O   UNL     1      17.158   4.066  13.650  1.00  0.00    -0.508 OA
ATOM     25  H   UNL     1      16.506   3.518  14.198  1.00  0.00     0.293 HD
ENDBRANCH   8  24
TORSDOF 5
ENDMDL
