MODEL 1
REMARK VINA RESULT:    -3.636      0.000      0.000
REMARK INTER + INTRA:          -5.442
REMARK INTER:                  -4.912
REMARK INTRA:                  -0.530
REMARK UNBOUND:                -0.530
REMARK SMILES CCCCCCCC(=O)[O-]
REMARK SMILES IDX 5 1 6 2 7 3 8 4 9 5 10 6 4 7 3 8 2 9 1 10
REMARK H PARENT
REMARK Flexibility Score: inf
ROOT
ATOM      1  C   UNL     1      -7.698 -35.842 -10.137  1.00  0.00     0.000 C 
ENDROOT
BRANCH   1   2
ATOM      2  C   UNL     1      -7.603 -37.352 -10.420  1.00  0.00     0.006 C 
BRANCH   2   3
ATOM      3  C   UNL     1      -6.943 -38.115  -9.265  1.00  0.00     0.053 C 
BRANCH   3   4
ATOM      4  C   UNL     1      -6.013 -39.180  -9.760  1.00  0.00     0.041 C 
ATOM      5  O   UNL     1      -4.965 -38.868 -10.383  1.00  0.00    -0.550 OA
ATOM      6  O   UNL     1      -6.320 -40.520  -9.557  1.00  0.00    -0.550 OA
ENDBRANCH   3   4
ENDBRANCH   2   3
ENDBRANCH   1   2
BRANCH   1   7
ATOM      7  C   UNL     1      -6.378 -35.104 -10.412  1.00  0.00     0.000 C 
BRANCH   7   8
ATOM      8  C   UNL     1      -5.931 -34.230  -9.232  1.00  0.00    -0.000 C 
BRANCH   8   9
ATOM      9  C   UNL     1      -5.232 -35.073  -8.158  1.00  0.00    -0.003 C 
ATOM     10  C   UNL     1      -4.009 -35.788  -8.726  1.00  0.00     0.004 C 
ENDBRANCH   8   9
ENDBRANCH   7   8
ENDBRANCH   1   7
TORSDOF 6
ENDMDL
MODEL 2
REMARK VINA RESULT:    -3.618      1.541      2.114
REMARK INTER + INTRA:          -5.417
REMARK INTER:                  -4.944
REMARK INTRA:                  -0.473
REMARK UNBOUND:                -0.530
REMARK SMILES CCCCCCCC(=O)[O-]
REMARK SMILES IDX 5 1 6 2 7 3 8 4 9 5 10 6 4 7 3 8 2 9 1 10
REMARK H PARENT
REMARK Flexibility Score: inf
ROOT
ATOM      1  C   UNL     1      -6.679 -34.830 -10.403  1.00  0.00     0.000 C 
ENDROOT
BRANCH   1   2
ATOM      2  C   UNL     1      -8.198 -35.075 -10.404  1.00  0.00     0.006 C 
BRANCH   2   3
ATOM      3  C   UNL     1      -8.597 -36.236  -9.485  1.00  0.00     0.053 C 
BRANCH   3   4
ATOM      4  C   UNL     1      -7.880 -37.501  -9.843  1.00  0.00     0.041 C 
ATOM      5  O   UNL     1      -8.001 -37.996 -10.994  1.00  0.00    -0.550 OA
ATOM      6  O   UNL     1      -7.099 -38.150  -8.894  1.00  0.00    -0.550 OA
ENDBRANCH   3   4
ENDBRANCH   2   3
ENDBRANCH   1   2
BRANCH   1   7
ATOM      7  C   UNL     1      -6.209 -34.033  -9.175  1.00  0.00     0.000 C 
BRANCH   7   8
ATOM      8  C   UNL     1      -5.443 -34.897  -8.164  1.00  0.00    -0.000 C 
BRANCH   8   9
ATOM      9  C   UNL     1      -4.434 -35.808  -8.875  1.00  0.00    -0.003 C 
ATOM     10  C   UNL     1      -3.073 -35.768  -8.186  1.00  0.00     0.004 C 
ENDBRANCH   8   9
ENDBRANCH   7   8
ENDBRANCH   1   7
TORSDOF 6
ENDMDL
MODEL 3
REMARK VINA RESULT:    -3.581      1.526      2.550
REMARK INTER + INTRA:          -5.367
REMARK INTER:                  -5.048
REMARK INTRA:                  -0.319
REMARK UNBOUND:                -0.530
REMARK SMILES CCCCCCCC(=O)[O-]
REMARK SMILES IDX 5 1 6 2 7 3 8 4 9 5 10 6 4 7 3 8 2 9 1 10
REMARK H PARENT
REMARK Flexibility Score: inf
ROOT
ATOM      1  C   UNL     1      -4.389 -36.475  -9.283  1.00  0.00     0.000 C 
ENDROOT
BRANCH   1   2
ATOM      2  C   UNL     1      -5.566 -37.464  -9.356  1.00  0.00     0.006 C 
BRANCH   2   3
ATOM      3  C   UNL     1      -5.218 -38.717 -10.169  1.00  0.00     0.053 C 
BRANCH   3   4
ATOM      4  C   UNL     1      -6.408 -39.252 -10.904  1.00  0.00     0.041 C 
ATOM      5  O   UNL     1      -6.324 -40.329 -11.551  1.00  0.00    -0.550 OA
ATOM      6  O   UNL     1      -7.605 -38.546 -10.896  1.00  0.00    -0.550 OA
ENDBRANCH   3   4
ENDBRANCH   2   3
ENDBRANCH   1   2
BRANCH   1   7
ATOM      7  C   UNL     1      -4.610 -35.368  -8.240  1.00  0.00     0.000 C 
BRANCH   7   8
ATOM      8  C   UNL     1      -6.078 -34.928  -8.144  1.00  0.00    -0.000 C 
BRANCH   8   9
ATOM      9  C   UNL     1      -6.408 -33.883  -9.218  1.00  0.00    -0.003 C 
ATOM     10  C   UNL     1      -7.433 -34.419 -10.214  1.00  0.00     0.004 C 
ENDBRANCH   8   9
ENDBRANCH   7   8
ENDBRANCH   1   7
TORSDOF 6
ENDMDL
MODEL 4
REMARK VINA RESULT:    -3.532      1.127      2.208
REMARK INTER + INTRA:          -5.301
REMARK INTER:                  -4.849
REMARK INTRA:                  -0.452
REMARK UNBOUND:                -0.530
REMARK SMILES CCCCCCCC(=O)[O-]
REMARK SMILES IDX 5 1 6 2 7 3 8 4 9 5 10 6 4 7 3 8 2 9 1 10
REMARK H PARENT
REMARK Flexibility Score: inf
ROOT
ATOM      1  C   UNL     1      -4.715 -37.005  -9.388  1.00  0.00     0.000 C 
ENDROOT
BRANCH   1   2
ATOM      2  C   UNL     1      -6.114 -37.577  -9.097  1.00  0.00     0.006 C 
BRANCH   2   3
ATOM      3  C   UNL     1      -6.779 -38.145 -10.358  1.00  0.00     0.053 C 
BRANCH   3   4
ATOM      4  C   UNL     1      -6.345 -39.552 -10.630  1.00  0.00     0.041 C 
ATOM      5  O   UNL     1      -6.086 -39.920 -11.806  1.00  0.00    -0.550 OA
ATOM      6  O   UNL     1      -6.252 -40.465  -9.587  1.00  0.00    -0.550 OA
ENDBRANCH   3   4
ENDBRANCH   2   3
ENDBRANCH   1   2
BRANCH   1   7
ATOM      7  C   UNL     1      -4.520 -35.595  -8.808  1.00  0.00     0.000 C 
BRANCH   7   8
ATOM      8  C   UNL     1      -5.833 -34.971  -8.312  1.00  0.00    -0.000 C 
BRANCH   8   9
ATOM      9  C   UNL     1      -6.315 -33.874  -9.269  1.00  0.00    -0.003 C 
ATOM     10  C   UNL     1      -7.431 -34.384 -10.176  1.00  0.00     0.004 C 
ENDBRANCH   8   9
ENDBRANCH   7   8
ENDBRANCH   1   7
TORSDOF 6
ENDMDL
MODEL 5
REMARK VINA RESULT:    -3.515      2.651      3.718
REMARK INTER + INTRA:          -5.278
REMARK INTER:                  -4.857
REMARK INTRA:                  -0.421
REMARK UNBOUND:                -0.530
REMARK SMILES CCCCCCCC(=O)[O-]
REMARK SMILES IDX 5 1 6 2 7 3 8 4 9 5 10 6 4 7 3 8 2 9 1 10
REMARK H PARENT
REMARK Flexibility Score: inf
ROOT
ATOM      1  C   UNL     1      -6.170 -35.059 -10.418  1.00  0.00     0.000 C 
ENDROOT
BRANCH   1   2
ATOM      2  C   UNL     1      -7.463 -34.334 -10.006  1.00  0.00     0.006 C 
BRANCH   2   3
ATOM      3  C   UNL     1      -8.495 -35.293  -9.401  1.00  0.00     0.053 C 
BRANCH   3   4
ATOM      4  C   UNL     1      -9.318 -35.965 -10.456  1.00  0.00     0.041 C 
ATOM      5  O   UNL     1      -9.916 -35.280 -11.327  1.00  0.00    -0.550 OA
ATOM      6  O   UNL     1      -9.446 -37.349 -10.462  1.00  0.00    -0.550 OA
ENDBRANCH   3   4
ENDBRANCH   2   3
ENDBRANCH   1   2
BRANCH   1   7
ATOM      7  C   UNL     1      -5.250 -35.353  -9.223  1.00  0.00     0.000 C 
BRANCH   7   8
ATOM      8  C   UNL     1      -4.700 -36.787  -9.236  1.00  0.00    -0.000 C 
BRANCH   8   9
ATOM      9  C   UNL     1      -5.820 -37.801  -9.503  1.00  0.00    -0.003 C 
ATOM     10  C   UNL     1      -5.296 -39.015 -10.265  1.00  0.00     0.004 C 
ENDBRANCH   8   9
ENDBRANCH   7   8
ENDBRANCH   1   7
TORSDOF 6
ENDMDL
MODEL 6
REMARK VINA RESULT:    -3.416      2.474      3.235
REMARK INTER + INTRA:          -5.144
REMARK INTER:                  -4.568
REMARK INTRA:                  -0.576
REMARK UNBOUND:                -0.530
REMARK SMILES CCCCCCCC(=O)[O-]
REMARK SMILES IDX 5 1 6 2 7 3 8 4 9 5 10 6 4 7 3 8 2 9 1 10
REMARK H PARENT
REMARK Flexibility Score: inf
ROOT
ATOM      1  C   UNL     1      -5.176 -37.577  -9.705  1.00  0.00     0.000 C 
ENDROOT
BRANCH   1   2
ATOM      2  C   UNL     1      -6.636 -37.909  -9.350  1.00  0.00     0.006 C 
BRANCH   2   3
ATOM      3  C   UNL     1      -7.608 -37.499 -10.463  1.00  0.00     0.053 C 
BRANCH   3   4
ATOM      4  C   UNL     1      -8.634 -36.523  -9.975  1.00  0.00     0.041 C 
ATOM      5  O   UNL     1      -8.956 -36.496  -8.758  1.00  0.00    -0.550 OA
ATOM      6  O   UNL     1      -9.255 -35.661 -10.870  1.00  0.00    -0.550 OA
ENDBRANCH   3   4
ENDBRANCH   2   3
ENDBRANCH   1   2
BRANCH   1   7
ATOM      7  C   UNL     1      -4.906 -36.064  -9.742  1.00  0.00     0.000 C 
BRANCH   7   8
ATOM      8  C   UNL     1      -4.842 -35.438  -8.342  1.00  0.00    -0.000 C 
BRANCH   8   9
ATOM      9  C   UNL     1      -6.035 -34.503  -8.104  1.00  0.00    -0.003 C 
ATOM     10  C   UNL     1      -6.455 -33.806  -9.395  1.00  0.00     0.004 C 
ENDBRANCH   8   9
ENDBRANCH   7   8
ENDBRANCH   1   7
TORSDOF 6
ENDMDL
MODEL 7
REMARK VINA RESULT:    -3.405      1.722      2.329
REMARK INTER + INTRA:          -5.129
REMARK INTER:                  -4.925
REMARK INTRA:                  -0.204
REMARK UNBOUND:                -0.530
REMARK SMILES CCCCCCCC(=O)[O-]
REMARK SMILES IDX 5 1 6 2 7 3 8 4 9 5 10 6 4 7 3 8 2 9 1 10
REMARK H PARENT
REMARK Flexibility Score: inf
ROOT
ATOM      1  C   UNL     1      -5.631 -37.353  -9.409  1.00  0.00     0.000 C 
ENDROOT
BRANCH   1   2
ATOM      2  C   UNL     1      -5.218 -38.646 -10.133  1.00  0.00     0.006 C 
BRANCH   2   3
ATOM      3  C   UNL     1      -6.144 -39.820  -9.792  1.00  0.00     0.053 C 
BRANCH   3   4
ATOM      4  C   UNL     1      -6.671 -40.489 -11.024  1.00  0.00     0.041 C 
ATOM      5  O   UNL     1      -6.307 -40.099 -12.164  1.00  0.00    -0.550 OA
ATOM      6  O   UNL     1      -7.587 -41.529 -10.913  1.00  0.00    -0.550 OA
ENDBRANCH   3   4
ENDBRANCH   2   3
ENDBRANCH   1   2
BRANCH   1   7
ATOM      7  C   UNL     1      -4.494 -36.321  -9.346  1.00  0.00     0.000 C 
BRANCH   7   8
ATOM      8  C   UNL     1      -4.716 -35.258  -8.260  1.00  0.00    -0.000 C 
BRANCH   8   9
ATOM      9  C   UNL     1      -6.196 -34.863  -8.174  1.00  0.00    -0.003 C 
ATOM     10  C   UNL     1      -6.551 -33.821  -9.231  1.00  0.00     0.004 C 
ENDBRANCH   8   9
ENDBRANCH   7   8
ENDBRANCH   1   7
TORSDOF 6
ENDMDL
MODEL 8
REMARK VINA RESULT:    -3.381      2.824      5.074
REMARK INTER + INTRA:          -5.096
REMARK INTER:                  -4.959
REMARK INTRA:                  -0.137
REMARK UNBOUND:                -0.530
REMARK SMILES CCCCCCCC(=O)[O-]
REMARK SMILES IDX 5 1 6 2 7 3 8 4 9 5 10 6 4 7 3 8 2 9 1 10
REMARK H PARENT
REMARK Flexibility Score: inf
ROOT
ATOM      1  C   UNL     1      -5.680 -37.491  -9.390  1.00  0.00     0.000 C 
ENDROOT
BRANCH   1   2
ATOM      2  C   UNL     1      -4.732 -36.278  -9.407  1.00  0.00     0.006 C 
BRANCH   2   3
ATOM      3  C   UNL     1      -5.235 -35.139  -8.511  1.00  0.00     0.053 C 
BRANCH   3   4
ATOM      4  C   UNL     1      -6.207 -34.254  -9.229  1.00  0.00     0.041 C 
ATOM      5  O   UNL     1      -6.898 -33.419  -8.589  1.00  0.00    -0.550 OA
ATOM      6  O   UNL     1      -6.368 -34.370 -10.605  1.00  0.00    -0.550 OA
ENDBRANCH   3   4
ENDBRANCH   2   3
ENDBRANCH   1   2
BRANCH   1   7
ATOM      7  C   UNL     1      -5.112 -38.695 -10.157  1.00  0.00     0.000 C 
BRANCH   7   8
ATOM      8  C   UNL     1      -6.143 -39.817 -10.346  1.00  0.00    -0.000 C 
BRANCH   8   9
ATOM      9  C   UNL     1      -6.986 -39.581 -11.606  1.00  0.00    -0.003 C 
ATOM     10  C   UNL     1      -6.555 -40.505 -12.741  1.00  0.00     0.004 C 
ENDBRANCH   8   9
ENDBRANCH   7   8
ENDBRANCH   1   7
TORSDOF 6
ENDMDL
MODEL 9
REMARK VINA RESULT:    -3.375      1.684      3.599
REMARK INTER + INTRA:          -5.088
REMARK INTER:                  -4.602
REMARK INTRA:                  -0.487
REMARK UNBOUND:                -0.530
REMARK SMILES CCCCCCCC(=O)[O-]
REMARK SMILES IDX 5 1 6 2 7 3 8 4 9 5 10 6 4 7 3 8 2 9 1 10
REMARK H PARENT
REMARK Flexibility Score: inf
ROOT
ATOM      1  C   UNL     1      -6.687 -34.947 -10.469  1.00  0.00     0.000 C 
ENDROOT
BRANCH   1   2
ATOM      2  C   UNL     1      -5.995 -34.147  -9.351  1.00  0.00     0.006 C 
BRANCH   2   3
ATOM      3  C   UNL     1      -5.474 -35.053  -8.229  1.00  0.00     0.053 C 
BRANCH   3   4
ATOM      4  C   UNL     1      -4.310 -35.881  -8.678  1.00  0.00     0.041 C 
ATOM      5  O   UNL     1      -3.139 -35.425  -8.602  1.00  0.00    -0.550 OA
ATOM      6  O   UNL     1      -4.521 -37.149  -9.207  1.00  0.00    -0.550 OA
ENDBRANCH   3   4
ENDBRANCH   2   3
ENDBRANCH   1   2
BRANCH   1   7
ATOM      7  C   UNL     1      -8.220 -34.865 -10.393  1.00  0.00     0.000 C 
BRANCH   7   8
ATOM      8  C   UNL     1      -8.884 -36.245 -10.279  1.00  0.00    -0.000 C 
BRANCH   8   9
ATOM      9  C   UNL     1      -7.830 -37.347 -10.111  1.00  0.00    -0.003 C 
ATOM     10  C   UNL     1      -7.902 -37.972  -8.721  1.00  0.00     0.004 C 
ENDBRANCH   8   9
ENDBRANCH   7   8
ENDBRANCH   1   7
TORSDOF 6
ENDMDL
