MODEL 1
REMARK VINA RESULT:    -3.483      0.000      0.000
REMARK INTER + INTRA:          -7.440
REMARK INTER:                  -6.129
REMARK INTRA:                  -1.311
REMARK UNBOUND:                -1.311
REMARK SMILES CCCCCCCCCCCCCCC(=O)[O-]
REMARK SMILES IDX 9 1 10 2 11 3 12 4 13 5 14 6 15 7 16 8 17 9 8 10 7 11 6 12
REMARK SMILES IDX 5 13 4 14 3 15 2 16 1 17
REMARK H PARENT
REMARK Flexibility Score: inf
ROOT
ATOM      1  C   UNL     1     112.174  61.603 218.715  1.00  0.00     0.000 C 
ENDROOT
BRANCH   1   2
ATOM      2  C   UNL     1     111.880  62.053 220.157  1.00  0.00     0.000 C 
BRANCH   2   3
ATOM      3  C   UNL     1     112.146  63.548 220.386  1.00  0.00     0.000 C 
BRANCH   3   4
ATOM      4  C   UNL     1     112.761  64.193 219.135  1.00  0.00     0.000 C 
BRANCH   4   5
ATOM      5  C   UNL     1     112.122  65.549 218.786  1.00  0.00     0.006 C 
BRANCH   5   6
ATOM      6  C   UNL     1     112.167  65.905 217.291  1.00  0.00     0.053 C 
BRANCH   6   7
ATOM      7  C   UNL     1     113.363  66.739 216.948  1.00  0.00     0.041 C 
ATOM      8  O   UNL     1     114.363  66.214 216.393  1.00  0.00    -0.550 OA
ATOM      9  O   UNL     1     113.357  68.103 217.210  1.00  0.00    -0.550 OA
ENDBRANCH   6   7
ENDBRANCH   5   6
ENDBRANCH   4   5
ENDBRANCH   3   4
ENDBRANCH   2   3
ENDBRANCH   1   2
BRANCH   1  10
ATOM     10  C   UNL     1     110.928  61.283 217.869  1.00  0.00     0.000 C 
BRANCH  10  11
ATOM     11  C   UNL     1     111.188  61.379 216.358  1.00  0.00    -0.000 C 
BRANCH  11  12
ATOM     12  C   UNL     1     110.854  62.782 215.831  1.00  0.00    -0.000 C 
BRANCH  12  13
ATOM     13  C   UNL     1     109.514  62.839 215.076  1.00  0.00    -0.000 C 
BRANCH  13  14
ATOM     14  C   UNL     1     108.678  61.546 215.129  1.00  0.00    -0.000 C 
BRANCH  14  15
ATOM     15  C   UNL     1     107.214  61.796 215.527  1.00  0.00    -0.000 C 
BRANCH  15  16
ATOM     16  C   UNL     1     106.611  60.626 216.320  1.00  0.00    -0.003 C 
ATOM     17  C   UNL     1     107.675  59.740 216.970  1.00  0.00     0.004 C 
ENDBRANCH  15  16
ENDBRANCH  14  15
ENDBRANCH  13  14
ENDBRANCH  12  13
ENDBRANCH  11  12
ENDBRANCH  10  11
ENDBRANCH   1  10
TORSDOF 13
ENDMDL
MODEL 2
REMARK VINA RESULT:    -3.229     14.933     16.760
REMARK INTER + INTRA:          -6.993
REMARK INTER:                  -5.003
REMARK INTRA:                  -1.990
REMARK UNBOUND:                -1.311
REMARK SMILES CCCCCCCCCCCCCCC(=O)[O-]
REMARK SMILES IDX 9 1 10 2 11 3 12 4 13 5 14 6 15 7 16 8 17 9 8 10 7 11 6 12
REMARK SMILES IDX 5 13 4 14 3 15 2 16 1 17
REMARK H PARENT
REMARK Flexibility Score: inf
ROOT
ATOM      1  C   UNL     1      96.580  65.273 224.935  1.00  0.00     0.000 C 
ENDROOT
BRANCH   1   2
ATOM      2  C   UNL     1      97.798  64.527 225.507  1.00  0.00     0.000 C 
BRANCH   2   3
ATOM      3  C   UNL     1      97.497  63.816 226.835  1.00  0.00     0.000 C 
BRANCH   3   4
ATOM      4  C   UNL     1      98.759  63.140 227.393  1.00  0.00     0.000 C 
BRANCH   4   5
ATOM      5  C   UNL     1     100.052  63.889 227.021  1.00  0.00     0.006 C 
BRANCH   5   6
ATOM      6  C   UNL     1     100.987  63.110 226.083  1.00  0.00     0.053 C 
BRANCH   6   7
ATOM      7  C   UNL     1     101.693  64.011 225.117  1.00  0.00     0.041 C 
ATOM      8  O   UNL     1     101.067  64.521 224.151  1.00  0.00    -0.550 OA
ATOM      9  O   UNL     1     103.036  64.318 225.306  1.00  0.00    -0.550 OA
ENDBRANCH   6   7
ENDBRANCH   5   6
ENDBRANCH   4   5
ENDBRANCH   3   4
ENDBRANCH   2   3
ENDBRANCH   1   2
BRANCH   1  10
ATOM     10  C   UNL     1      95.431  65.503 225.934  1.00  0.00     0.000 C 
BRANCH  10  11
ATOM     11  C   UNL     1      94.875  66.933 225.890  1.00  0.00    -0.000 C 
BRANCH  11  12
ATOM     12  C   UNL     1      95.913  67.942 226.403  1.00  0.00    -0.000 C 
BRANCH  12  13
ATOM     13  C   UNL     1      96.371  67.656 227.845  1.00  0.00    -0.000 C 
BRANCH  13  14
ATOM     14  C   UNL     1      97.871  67.346 228.004  1.00  0.00    -0.000 C 
BRANCH  14  15
ATOM     15  C   UNL     1      98.183  66.539 229.275  1.00  0.00    -0.000 C 
BRANCH  15  16
ATOM     16  C   UNL     1      96.960  65.772 229.801  1.00  0.00    -0.003 C 
ATOM     17  C   UNL     1      97.337  64.619 230.732  1.00  0.00     0.004 C 
ENDBRANCH  15  16
ENDBRANCH  14  15
ENDBRANCH  13  14
ENDBRANCH  12  13
ENDBRANCH  11  12
ENDBRANCH  10  11
ENDBRANCH   1  10
TORSDOF 13
ENDMDL
MODEL 3
REMARK VINA RESULT:    -3.212     11.773     14.925
REMARK INTER + INTRA:          -6.964
REMARK INTER:                  -5.042
REMARK INTRA:                  -1.922
REMARK UNBOUND:                -1.311
REMARK SMILES CCCCCCCCCCCCCCC(=O)[O-]
REMARK SMILES IDX 9 1 10 2 11 3 12 4 13 5 14 6 15 7 16 8 17 9 8 10 7 11 6 12
REMARK SMILES IDX 5 13 4 14 3 15 2 16 1 17
REMARK H PARENT
REMARK Flexibility Score: inf
ROOT
ATOM      1  C   UNL     1      98.285  55.576 222.242  1.00  0.00     0.000 C 
ENDROOT
BRANCH   1   2
ATOM      2  C   UNL     1      99.669  56.100 222.668  1.00  0.00     0.000 C 
BRANCH   2   3
ATOM      3  C   UNL     1      99.931  57.543 222.213  1.00  0.00     0.000 C 
BRANCH   3   4
ATOM      4  C   UNL     1      98.981  57.939 221.072  1.00  0.00     0.000 C 
BRANCH   4   5
ATOM      5  C   UNL     1      99.724  58.485 219.839  1.00  0.00     0.006 C 
BRANCH   5   6
ATOM      6  C   UNL     1     101.255  58.397 219.933  1.00  0.00     0.053 C 
BRANCH   6   7
ATOM      7  C   UNL     1     101.905  59.739 219.794  1.00  0.00     0.041 C 
ATOM      8  O   UNL     1     103.160  59.836 219.765  1.00  0.00    -0.550 OA
ATOM      9  O   UNL     1     101.123  60.880 219.661  1.00  0.00    -0.550 OA
ENDBRANCH   6   7
ENDBRANCH   5   6
ENDBRANCH   4   5
ENDBRANCH   3   4
ENDBRANCH   2   3
ENDBRANCH   1   2
BRANCH   1  10
ATOM     10  C   UNL     1      97.545  54.754 223.313  1.00  0.00     0.000 C 
BRANCH  10  11
ATOM     11  C   UNL     1      96.263  55.435 223.812  1.00  0.00    -0.000 C 
BRANCH  11  12
ATOM     12  C   UNL     1      96.044  56.780 223.104  1.00  0.00    -0.000 C 
BRANCH  12  13
ATOM     13  C   UNL     1      96.191  57.988 224.046  1.00  0.00    -0.000 C 
BRANCH  13  14
ATOM     14  C   UNL     1      96.217  57.646 225.548  1.00  0.00    -0.000 C 
BRANCH  14  15
ATOM     15  C   UNL     1      97.488  58.144 226.254  1.00  0.00    -0.000 C 
BRANCH  15  16
ATOM     16  C   UNL     1      98.652  57.146 226.144  1.00  0.00    -0.003 C 
ATOM     17  C   UNL     1     100.008  57.832 225.974  1.00  0.00     0.004 C 
ENDBRANCH  15  16
ENDBRANCH  14  15
ENDBRANCH  13  14
ENDBRANCH  12  13
ENDBRANCH  11  12
ENDBRANCH  10  11
ENDBRANCH   1  10
TORSDOF 13
ENDMDL
MODEL 4
REMARK VINA RESULT:    -3.200     14.517     16.253
REMARK INTER + INTRA:          -6.943
REMARK INTER:                  -4.800
REMARK INTRA:                  -2.144
REMARK UNBOUND:                -1.311
REMARK SMILES CCCCCCCCCCCCCCC(=O)[O-]
REMARK SMILES IDX 9 1 10 2 11 3 12 4 13 5 14 6 15 7 16 8 17 9 8 10 7 11 6 12
REMARK SMILES IDX 5 13 4 14 3 15 2 16 1 17
REMARK H PARENT
REMARK Flexibility Score: inf
ROOT
ATOM      1  C   UNL     1     100.702  65.866 225.509  1.00  0.00     0.000 C 
ENDROOT
BRANCH   1   2
ATOM      2  C   UNL     1      99.173  66.037 225.472  1.00  0.00     0.000 C 
BRANCH   2   3
ATOM      3  C   UNL     1      98.442  64.786 224.963  1.00  0.00     0.000 C 
BRANCH   3   4
ATOM      4  C   UNL     1      96.942  64.858 225.287  1.00  0.00     0.000 C 
BRANCH   4   5
ATOM      5  C   UNL     1      96.631  65.792 226.471  1.00  0.00     0.006 C 
BRANCH   5   6
ATOM      6  C   UNL     1      96.013  65.087 227.688  1.00  0.00     0.053 C 
BRANCH   6   7
ATOM      7  C   UNL     1      96.483  65.681 228.981  1.00  0.00     0.041 C 
ATOM      8  O   UNL     1      97.691  66.003 229.128  1.00  0.00    -0.550 OA
ATOM      9  O   UNL     1      95.578  65.913 230.009  1.00  0.00    -0.550 OA
ENDBRANCH   6   7
ENDBRANCH   5   6
ENDBRANCH   4   5
ENDBRANCH   3   4
ENDBRANCH   2   3
ENDBRANCH   1   2
BRANCH   1  10
ATOM     10  C   UNL     1     101.245  64.696 224.669  1.00  0.00     0.000 C 
BRANCH  10  11
ATOM     11  C   UNL     1     102.301  63.864 225.411  1.00  0.00    -0.000 C 
BRANCH  11  12
ATOM     12  C   UNL     1     101.968  62.366 225.343  1.00  0.00    -0.000 C 
BRANCH  12  13
ATOM     13  C   UNL     1     101.172  61.869 226.563  1.00  0.00    -0.000 C 
BRANCH  13  14
ATOM     14  C   UNL     1     101.146  62.834 227.763  1.00  0.00    -0.000 C 
BRANCH  14  15
ATOM     15  C   UNL     1      99.729  63.320 228.109  1.00  0.00    -0.000 C 
BRANCH  15  16
ATOM     16  C   UNL     1      98.643  62.316 227.688  1.00  0.00    -0.003 C 
ATOM     17  C   UNL     1      97.740  61.898 228.848  1.00  0.00     0.004 C 
ENDBRANCH  15  16
ENDBRANCH  14  15
ENDBRANCH  13  14
ENDBRANCH  12  13
ENDBRANCH  11  12
ENDBRANCH  10  11
ENDBRANCH   1  10
TORSDOF 13
ENDMDL
MODEL 5
REMARK VINA RESULT:    -3.180     15.501     17.354
REMARK INTER + INTRA:          -6.908
REMARK INTER:                  -5.074
REMARK INTRA:                  -1.834
REMARK UNBOUND:                -1.311
REMARK SMILES CCCCCCCCCCCCCCC(=O)[O-]
REMARK SMILES IDX 9 1 10 2 11 3 12 4 13 5 14 6 15 7 16 8 17 9 8 10 7 11 6 12
REMARK SMILES IDX 5 13 4 14 3 15 2 16 1 17
REMARK H PARENT
REMARK Flexibility Score: inf
ROOT
ATOM      1  C   UNL     1      95.230  65.903 225.666  1.00  0.00     0.000 C 
ENDROOT
BRANCH   1   2
ATOM      2  C   UNL     1      95.975  65.496 224.382  1.00  0.00     0.000 C 
BRANCH   2   3
ATOM      3  C   UNL     1      97.466  65.209 224.618  1.00  0.00     0.000 C 
BRANCH   3   4
ATOM      4  C   UNL     1      97.660  64.278 225.824  1.00  0.00     0.000 C 
BRANCH   4   5
ATOM      5  C   UNL     1      99.139  64.111 226.218  1.00  0.00     0.006 C 
BRANCH   5   6
ATOM      6  C   UNL     1      99.958  65.410 226.163  1.00  0.00     0.053 C 
BRANCH   6   7
ATOM      7  C   UNL     1     101.162  65.280 225.282  1.00  0.00     0.041 C 
ATOM      8  O   UNL     1     102.255  65.805 225.619  1.00  0.00    -0.550 OA
ATOM      9  O   UNL     1     101.085  64.546 224.104  1.00  0.00    -0.550 OA
ENDBRANCH   6   7
ENDBRANCH   5   6
ENDBRANCH   4   5
ENDBRANCH   3   4
ENDBRANCH   2   3
ENDBRANCH   1   2
BRANCH   1  10
ATOM     10  C   UNL     1      95.175  67.418 225.931  1.00  0.00     0.000 C 
BRANCH  10  11
ATOM     11  C   UNL     1      95.662  67.799 227.337  1.00  0.00    -0.000 C 
BRANCH  11  12
ATOM     12  C   UNL     1      97.184  67.627 227.456  1.00  0.00    -0.000 C 
BRANCH  12  13
ATOM     13  C   UNL     1      97.608  66.880 228.733  1.00  0.00    -0.000 C 
BRANCH  13  14
ATOM     14  C   UNL     1      96.705  65.695 229.127  1.00  0.00    -0.000 C 
BRANCH  14  15
ATOM     15  C   UNL     1      96.059  65.870 230.511  1.00  0.00    -0.000 C 
BRANCH  15  16
ATOM     16  C   UNL     1      97.024  65.529 231.658  1.00  0.00    -0.003 C 
ATOM     17  C   UNL     1      97.424  64.054 231.678  1.00  0.00     0.004 C 
ENDBRANCH  15  16
ENDBRANCH  14  15
ENDBRANCH  13  14
ENDBRANCH  12  13
ENDBRANCH  11  12
ENDBRANCH  10  11
ENDBRANCH   1  10
TORSDOF 13
ENDMDL
MODEL 6
REMARK VINA RESULT:    -3.164     15.199     17.046
REMARK INTER + INTRA:          -6.880
REMARK INTER:                  -4.891
REMARK INTRA:                  -1.989
REMARK UNBOUND:                -1.311
REMARK SMILES CCCCCCCCCCCCCCC(=O)[O-]
REMARK SMILES IDX 9 1 10 2 11 3 12 4 13 5 14 6 15 7 16 8 17 9 8 10 7 11 6 12
REMARK SMILES IDX 5 13 4 14 3 15 2 16 1 17
REMARK H PARENT
REMARK Flexibility Score: inf
ROOT
ATOM      1  C   UNL     1      96.495  66.078 223.791  1.00  0.00     0.000 C 
ENDROOT
BRANCH   1   2
ATOM      2  C   UNL     1      96.401  65.241 225.080  1.00  0.00     0.000 C 
BRANCH   2   3
ATOM      3  C   UNL     1      97.702  64.492 225.405  1.00  0.00     0.000 C 
BRANCH   3   4
ATOM      4  C   UNL     1      97.718  64.035 226.872  1.00  0.00     0.000 C 
BRANCH   4   5
ATOM      5  C   UNL     1      98.130  65.157 227.842  1.00  0.00     0.006 C 
BRANCH   5   6
ATOM      6  C   UNL     1      97.530  65.026 229.251  1.00  0.00     0.053 C 
BRANCH   6   7
ATOM      7  C   UNL     1      96.228  65.756 229.378  1.00  0.00     0.041 C 
ATOM      8  O   UNL     1      95.560  65.680 230.442  1.00  0.00    -0.550 OA
ATOM      9  O   UNL     1      95.771  66.549 228.333  1.00  0.00    -0.550 OA
ENDBRANCH   6   7
ENDBRANCH   5   6
ENDBRANCH   4   5
ENDBRANCH   3   4
ENDBRANCH   2   3
ENDBRANCH   1   2
BRANCH   1  10
ATOM     10  C   UNL     1      96.364  67.598 223.993  1.00  0.00     0.000 C 
BRANCH  10  11
ATOM     11  C   UNL     1      96.714  68.045 225.420  1.00  0.00    -0.000 C 
BRANCH  11  12
ATOM     12  C   UNL     1      98.060  68.784 225.451  1.00  0.00    -0.000 C 
BRANCH  12  13
ATOM     13  C   UNL     1      99.189  67.954 226.087  1.00  0.00    -0.000 C 
BRANCH  13  14
ATOM     14  C   UNL     1     100.216  67.376 225.094  1.00  0.00    -0.000 C 
BRANCH  14  15
ATOM     15  C   UNL     1     101.029  66.213 225.683  1.00  0.00    -0.000 C 
BRANCH  15  16
ATOM     16  C   UNL     1     101.226  65.065 224.680  1.00  0.00    -0.003 C 
ATOM     17  C   UNL     1     101.404  63.707 225.359  1.00  0.00     0.004 C 
ENDBRANCH  15  16
ENDBRANCH  14  15
ENDBRANCH  13  14
ENDBRANCH  12  13
ENDBRANCH  11  12
ENDBRANCH  10  11
ENDBRANCH   1  10
TORSDOF 13
ENDMDL
MODEL 7
REMARK VINA RESULT:    -3.154     13.118     15.263
REMARK INTER + INTRA:          -6.862
REMARK INTER:                  -5.342
REMARK INTRA:                  -1.520
REMARK UNBOUND:                -1.311
REMARK SMILES CCCCCCCCCCCCCCC(=O)[O-]
REMARK SMILES IDX 9 1 10 2 11 3 12 4 13 5 14 6 15 7 16 8 17 9 8 10 7 11 6 12
REMARK SMILES IDX 5 13 4 14 3 15 2 16 1 17
REMARK H PARENT
REMARK Flexibility Score: inf
ROOT
ATOM      1  C   UNL     1     114.809  55.046 228.006  1.00  0.00     0.000 C 
ENDROOT
BRANCH   1   2
ATOM      2  C   UNL     1     114.611  56.267 228.922  1.00  0.00     0.000 C 
BRANCH   2   3
ATOM      3  C   UNL     1     113.295  56.217 229.713  1.00  0.00     0.000 C 
BRANCH   3   4
ATOM      4  C   UNL     1     113.567  56.188 231.225  1.00  0.00     0.000 C 
BRANCH   4   5
ATOM      5  C   UNL     1     112.686  55.169 231.970  1.00  0.00     0.006 C 
BRANCH   5   6
ATOM      6  C   UNL     1     113.154  53.711 231.837  1.00  0.00     0.053 C 
BRANCH   6   7
ATOM      7  C   UNL     1     113.105  52.983 233.145  1.00  0.00     0.041 C 
ATOM      8  O   UNL     1     114.166  52.564 233.677  1.00  0.00    -0.550 OA
ATOM      9  O   UNL     1     111.890  52.799 233.794  1.00  0.00    -0.550 OA
ENDBRANCH   6   7
ENDBRANCH   5   6
ENDBRANCH   4   5
ENDBRANCH   3   4
ENDBRANCH   2   3
ENDBRANCH   1   2
BRANCH   1  10
ATOM     10  C   UNL     1     113.774  53.921 228.192  1.00  0.00     0.000 C 
BRANCH  10  11
ATOM     11  C   UNL     1     112.849  53.750 226.979  1.00  0.00    -0.000 C 
BRANCH  11  12
ATOM     12  C   UNL     1     113.074  54.871 225.954  1.00  0.00    -0.000 C 
BRANCH  12  13
ATOM     13  C   UNL     1     111.792  55.658 225.630  1.00  0.00    -0.000 C 
BRANCH  13  14
ATOM     14  C   UNL     1     111.455  56.792 226.616  1.00  0.00    -0.000 C 
BRANCH  14  15
ATOM     15  C   UNL     1     110.261  56.459 227.526  1.00  0.00    -0.000 C 
BRANCH  15  16
ATOM     16  C   UNL     1     108.915  56.852 226.898  1.00  0.00    -0.003 C 
ATOM     17  C   UNL     1     108.114  55.645 226.407  1.00  0.00     0.004 C 
ENDBRANCH  15  16
ENDBRANCH  14  15
ENDBRANCH  13  14
ENDBRANCH  12  13
ENDBRANCH  11  12
ENDBRANCH  10  11
ENDBRANCH   1  10
TORSDOF 13
ENDMDL
MODEL 8
REMARK VINA RESULT:    -3.146     14.157     15.681
REMARK INTER + INTRA:          -6.847
REMARK INTER:                  -4.440
REMARK INTRA:                  -2.408
REMARK UNBOUND:                -1.311
REMARK SMILES CCCCCCCCCCCCCCC(=O)[O-]
REMARK SMILES IDX 9 1 10 2 11 3 12 4 13 5 14 6 15 7 16 8 17 9 8 10 7 11 6 12
REMARK SMILES IDX 5 13 4 14 3 15 2 16 1 17
REMARK H PARENT
REMARK Flexibility Score: inf
ROOT
ATOM      1  C   UNL     1      97.347  66.817 228.588  1.00  0.00     0.000 C 
ENDROOT
BRANCH   1   2
ATOM      2  C   UNL     1      98.885  66.851 228.644  1.00  0.00     0.000 C 
BRANCH   2   3
ATOM      3  C   UNL     1      99.514  65.452 228.723  1.00  0.00     0.000 C 
BRANCH   3   4
ATOM      4  C   UNL     1     100.804  65.383 227.892  1.00  0.00     0.000 C 
BRANCH   4   5
ATOM      5  C   UNL     1     101.135  63.955 227.422  1.00  0.00     0.006 C 
BRANCH   5   6
ATOM      6  C   UNL     1     100.794  63.678 225.949  1.00  0.00     0.053 C 
BRANCH   6   7
ATOM      7  C   UNL     1     101.839  64.212 225.019  1.00  0.00     0.041 C 
ATOM      8  O   UNL     1     101.516  64.975 224.072  1.00  0.00    -0.550 OA
ATOM      9  O   UNL     1     103.177  63.894 225.221  1.00  0.00    -0.550 OA
ENDBRANCH   6   7
ENDBRANCH   5   6
ENDBRANCH   4   5
ENDBRANCH   3   4
ENDBRANCH   2   3
ENDBRANCH   1   2
BRANCH   1  10
ATOM     10  C   UNL     1      96.727  65.409 228.648  1.00  0.00     0.000 C 
BRANCH  10  11
ATOM     11  C   UNL     1      96.063  64.990 227.328  1.00  0.00    -0.000 C 
BRANCH  11  12
ATOM     12  C   UNL     1      97.062  64.261 226.418  1.00  0.00    -0.000 C 
BRANCH  12  13
ATOM     13  C   UNL     1      97.232  64.937 225.045  1.00  0.00    -0.000 C 
BRANCH  13  14
ATOM     14  C   UNL     1      98.289  66.057 224.995  1.00  0.00    -0.000 C 
BRANCH  14  15
ATOM     15  C   UNL     1      97.669  67.463 224.962  1.00  0.00    -0.000 C 
BRANCH  15  16
ATOM     16  C   UNL     1      98.695  68.566 225.269  1.00  0.00    -0.003 C 
ATOM     17  C   UNL     1     100.130  68.042 225.326  1.00  0.00     0.004 C 
ENDBRANCH  15  16
ENDBRANCH  14  15
ENDBRANCH  13  14
ENDBRANCH  12  13
ENDBRANCH  11  12
ENDBRANCH  10  11
ENDBRANCH   1  10
TORSDOF 13
ENDMDL
MODEL 9
REMARK VINA RESULT:    -3.143     16.033     17.710
REMARK INTER + INTRA:          -6.842
REMARK INTER:                  -4.791
REMARK INTRA:                  -2.051
REMARK UNBOUND:                -1.311
REMARK SMILES CCCCCCCCCCCCCCC(=O)[O-]
REMARK SMILES IDX 9 1 10 2 11 3 12 4 13 5 14 6 15 7 16 8 17 9 8 10 7 11 6 12
REMARK SMILES IDX 5 13 4 14 3 15 2 16 1 17
REMARK H PARENT
REMARK Flexibility Score: inf
ROOT
ATOM      1  C   UNL     1      96.279  66.921 225.031  1.00  0.00     0.000 C 
ENDROOT
BRANCH   1   2
ATOM      2  C   UNL     1      96.292  67.738 226.336  1.00  0.00     0.000 C 
BRANCH   2   3
ATOM      3  C   UNL     1      97.697  68.219 226.729  1.00  0.00     0.000 C 
BRANCH   3   4
ATOM      4  C   UNL     1      98.056  67.759 228.149  1.00  0.00     0.000 C 
BRANCH   4   5
ATOM      5  C   UNL     1      96.826  67.639 229.067  1.00  0.00     0.006 C 
BRANCH   5   6
ATOM      6  C   UNL     1      97.131  67.074 230.464  1.00  0.00     0.053 C 
BRANCH   6   7
ATOM      7  C   UNL     1      96.385  65.803 230.732  1.00  0.00     0.041 C 
ATOM      8  O   UNL     1      95.250  65.615 230.220  1.00  0.00    -0.550 OA
ATOM      9  O   UNL     1      96.959  64.812 231.518  1.00  0.00    -0.550 OA
ENDBRANCH   6   7
ENDBRANCH   5   6
ENDBRANCH   4   5
ENDBRANCH   3   4
ENDBRANCH   2   3
ENDBRANCH   1   2
BRANCH   1  10
ATOM     10  C   UNL     1      96.105  65.402 225.218  1.00  0.00     0.000 C 
BRANCH  10  11
ATOM     11  C   UNL     1      95.844  65.004 226.678  1.00  0.00    -0.000 C 
BRANCH  11  12
ATOM     12  C   UNL     1      97.073  64.313 227.287  1.00  0.00    -0.000 C 
BRANCH  12  13
ATOM     13  C   UNL     1      98.173  64.017 226.252  1.00  0.00    -0.000 C 
BRANCH  13  14
ATOM     14  C   UNL     1      99.500  64.766 226.477  1.00  0.00    -0.000 C 
BRANCH  14  15
ATOM     15  C   UNL     1      99.855  65.715 225.322  1.00  0.00    -0.000 C 
BRANCH  15  16
ATOM     16  C   UNL     1     101.145  65.301 224.595  1.00  0.00    -0.003 C 
ATOM     17  C   UNL     1     101.601  63.886 224.955  1.00  0.00     0.004 C 
ENDBRANCH  15  16
ENDBRANCH  14  15
ENDBRANCH  13  14
ENDBRANCH  12  13
ENDBRANCH  11  12
ENDBRANCH  10  11
ENDBRANCH   1  10
TORSDOF 13
ENDMDL
