MODEL 1
REMARK VINA RESULT:    -2.357      0.000      0.000
REMARK INTER + INTRA:         -11.784
REMARK INTER:                  -6.214
REMARK INTRA:                  -5.570
REMARK UNBOUND:                -5.570
REMARK SMILES CCCCCCCCCCCCCCCCCCCCCCCCCCCCCC(=O)[O-]
REMARK SMILES IDX 16 1 17 2 18 3 19 4 20 5 21 6 22 7 23 8 24 9 25 10 26 11
REMARK SMILES IDX 27 12 28 13 29 14 30 15 31 16 32 17 15 18 14 19 13 20 12 21
REMARK SMILES IDX 11 22 10 23 9 24 8 25 7 26 6 27 5 28 4 29 3 30 2 31 1 32
REMARK H PARENT
REMARK Flexibility Score: inf
ROOT
ATOM      1  C   UNL     1     -20.750  17.189 -17.933  1.00  0.00     0.000 C 
ENDROOT
BRANCH   1   2
ATOM      2  C   UNL     1     -21.949  17.608 -18.810  1.00  0.00     0.000 C 
BRANCH   2   3
ATOM      3  C   UNL     1     -21.576  17.761 -20.297  1.00  0.00     0.000 C 
BRANCH   3   4
ATOM      4  C   UNL     1     -20.177  17.204 -20.622  1.00  0.00     0.000 C 
BRANCH   4   5
ATOM      5  C   UNL     1     -20.171  15.836 -21.336  1.00  0.00     0.000 C 
BRANCH   5   6
ATOM      6  C   UNL     1     -21.559  15.324 -21.764  1.00  0.00     0.000 C 
BRANCH   6   7
ATOM      7  C   UNL     1     -21.569  13.915 -22.396  1.00  0.00     0.000 C 
BRANCH   7   8
ATOM      8  C   UNL     1     -22.121  13.845 -23.833  1.00  0.00     0.000 C 
BRANCH   8   9
ATOM      9  C   UNL     1     -21.055  14.151 -24.898  1.00  0.00     0.000 C 
BRANCH   9  10
ATOM     10  C   UNL     1     -19.835  13.223 -24.800  1.00  0.00     0.000 C 
BRANCH  10  11
ATOM     11  C   UNL     1     -18.544  13.971 -24.423  1.00  0.00     0.000 C 
BRANCH  11  12
ATOM     12  C   UNL     1     -17.956  13.492 -23.086  1.00  0.00     0.000 C 
BRANCH  12  13
ATOM     13  C   UNL     1     -16.803  14.386 -22.596  1.00  0.00     0.006 C 
BRANCH  13  14
ATOM     14  C   UNL     1     -16.584  14.271 -21.082  1.00  0.00     0.053 C 
BRANCH  14  15
ATOM     15  C   UNL     1     -15.926  12.975 -20.711  1.00  0.00     0.041 C 
ATOM     16  O   UNL     1     -16.277  12.361 -19.668  1.00  0.00    -0.550 OA
ATOM     17  O   UNL     1     -14.920  12.449 -21.513  1.00  0.00    -0.550 OA
ENDBRANCH  14  15
ENDBRANCH  13  14
ENDBRANCH  12  13
ENDBRANCH  11  12
ENDBRANCH  10  11
ENDBRANCH   9  10
ENDBRANCH   8   9
ENDBRANCH   7   8
ENDBRANCH   6   7
ENDBRANCH   5   6
ENDBRANCH   4   5
ENDBRANCH   3   4
ENDBRANCH   2   3
ENDBRANCH   1   2
BRANCH   1  18
ATOM     18  C   UNL     1     -20.959  15.855 -17.190  1.00  0.00     0.000 C 
BRANCH  18  19
ATOM     19  C   UNL     1     -21.978  14.901 -17.839  1.00  0.00     0.000 C 
BRANCH  19  20
ATOM     20  C   UNL     1     -21.383  13.600 -18.418  1.00  0.00     0.000 C 
BRANCH  20  21
ATOM     21  C   UNL     1     -19.848  13.573 -18.535  1.00  0.00     0.000 C 
BRANCH  21  22
ATOM     22  C   UNL     1     -19.210  12.387 -17.791  1.00  0.00     0.000 C 
BRANCH  22  23
ATOM     23  C   UNL     1     -19.182  12.595 -16.269  1.00  0.00     0.000 C 
BRANCH  23  24
ATOM     24  C   UNL     1     -19.707  11.375 -15.493  1.00  0.00    -0.000 C 
BRANCH  24  25
ATOM     25  C   UNL     1     -21.062  11.650 -14.819  1.00  0.00    -0.000 C 
BRANCH  25  26
ATOM     26  C   UNL     1     -21.336  13.153 -14.636  1.00  0.00    -0.000 C 
BRANCH  26  27
ATOM     27  C   UNL     1     -22.805  13.454 -14.296  1.00  0.00    -0.000 C 
BRANCH  27  28
ATOM     28  C   UNL     1     -23.780  12.884 -15.340  1.00  0.00    -0.000 C 
BRANCH  28  29
ATOM     29  C   UNL     1     -24.910  13.866 -15.690  1.00  0.00    -0.000 C 
BRANCH  29  30
ATOM     30  C   UNL     1     -24.641  15.285 -15.159  1.00  0.00    -0.000 C 
BRANCH  30  31
ATOM     31  C   UNL     1     -24.859  16.368 -16.228  1.00  0.00    -0.003 C 
ATOM     32  C   UNL     1     -24.242  17.713 -15.845  1.00  0.00     0.004 C 
ENDBRANCH  30  31
ENDBRANCH  29  30
ENDBRANCH  28  29
ENDBRANCH  27  28
ENDBRANCH  26  27
ENDBRANCH  25  26
ENDBRANCH  24  25
ENDBRANCH  23  24
ENDBRANCH  22  23
ENDBRANCH  21  22
ENDBRANCH  20  21
ENDBRANCH  19  20
ENDBRANCH  18  19
ENDBRANCH   1  18
TORSDOF 28
ENDMDL
MODEL 2
REMARK VINA RESULT:    -2.356      2.616      4.054
REMARK INTER + INTRA:         -11.782
REMARK INTER:                  -5.730
REMARK INTRA:                  -6.052
REMARK UNBOUND:                -5.570
REMARK SMILES CCCCCCCCCCCCCCCCCCCCCCCCCCCCCC(=O)[O-]
REMARK SMILES IDX 16 1 17 2 18 3 19 4 20 5 21 6 22 7 23 8 24 9 25 10 26 11
REMARK SMILES IDX 27 12 28 13 29 14 30 15 31 16 32 17 15 18 14 19 13 20 12 21
REMARK SMILES IDX 11 22 10 23 9 24 8 25 7 26 6 27 5 28 4 29 3 30 2 31 1 32
REMARK H PARENT
REMARK Flexibility Score: inf
ROOT
ATOM      1  C   UNL     1     -19.692  15.220 -19.381  1.00  0.00     0.000 C 
ENDROOT
BRANCH   1   2
ATOM      2  C   UNL     1     -20.954  15.295 -20.266  1.00  0.00     0.000 C 
BRANCH   2   3
ATOM      3  C   UNL     1     -21.031  14.151 -21.295  1.00  0.00     0.000 C 
BRANCH   3   4
ATOM      4  C   UNL     1     -21.453  14.634 -22.695  1.00  0.00     0.000 C 
BRANCH   4   5
ATOM      5  C   UNL     1     -22.100  13.554 -23.587  1.00  0.00     0.000 C 
BRANCH   5   6
ATOM      6  C   UNL     1     -21.193  13.015 -24.710  1.00  0.00     0.000 C 
BRANCH   6   7
ATOM      7  C   UNL     1     -19.837  13.737 -24.858  1.00  0.00     0.000 C 
BRANCH   7   8
ATOM      8  C   UNL     1     -18.606  12.910 -24.442  1.00  0.00     0.000 C 
BRANCH   8   9
ATOM      9  C   UNL     1     -17.927  13.445 -23.170  1.00  0.00     0.000 C 
BRANCH   9  10
ATOM     10  C   UNL     1     -16.526  14.014 -23.440  1.00  0.00     0.000 C 
BRANCH  10  11
ATOM     11  C   UNL     1     -16.427  15.522 -23.150  1.00  0.00     0.000 C 
BRANCH  11  12
ATOM     12  C   UNL     1     -17.796  16.155 -22.852  1.00  0.00     0.000 C 
BRANCH  12  13
ATOM     13  C   UNL     1     -17.675  17.505 -22.125  1.00  0.00     0.006 C 
BRANCH  13  14
ATOM     14  C   UNL     1     -19.035  18.029 -21.645  1.00  0.00     0.053 C 
BRANCH  14  15
ATOM     15  C   UNL     1     -18.885  19.128 -20.635  1.00  0.00     0.041 C 
ATOM     16  O   UNL     1     -18.279  18.914 -19.551  1.00  0.00    -0.550 OA
ATOM     17  O   UNL     1     -19.420  20.386 -20.888  1.00  0.00    -0.550 OA
ENDBRANCH  14  15
ENDBRANCH  13  14
ENDBRANCH  12  13
ENDBRANCH  11  12
ENDBRANCH  10  11
ENDBRANCH   9  10
ENDBRANCH   8   9
ENDBRANCH   7   8
ENDBRANCH   6   7
ENDBRANCH   5   6
ENDBRANCH   4   5
ENDBRANCH   3   4
ENDBRANCH   2   3
ENDBRANCH   1   2
BRANCH   1  18
ATOM     18  C   UNL     1     -18.731  14.079 -19.764  1.00  0.00     0.000 C 
BRANCH  18  19
ATOM     19  C   UNL     1     -17.235  14.409 -19.612  1.00  0.00     0.000 C 
BRANCH  19  20
ATOM     20  C   UNL     1     -16.925  15.740 -18.895  1.00  0.00     0.000 C 
BRANCH  20  21
ATOM     21  C   UNL     1     -16.136  15.610 -17.579  1.00  0.00     0.000 C 
BRANCH  21  22
ATOM     22  C   UNL     1     -16.571  14.400 -16.735  1.00  0.00     0.000 C 
BRANCH  22  23
ATOM     23  C   UNL     1     -17.937  14.612 -16.063  1.00  0.00     0.000 C 
BRANCH  23  24
ATOM     24  C   UNL     1     -18.544  13.305 -15.527  1.00  0.00    -0.000 C 
BRANCH  24  25
ATOM     25  C   UNL     1     -19.264  12.502 -16.624  1.00  0.00    -0.000 C 
BRANCH  25  26
ATOM     26  C   UNL     1     -20.333  11.552 -16.055  1.00  0.00    -0.000 C 
BRANCH  26  27
ATOM     27  C   UNL     1     -21.758  12.114 -16.186  1.00  0.00    -0.000 C 
BRANCH  27  28
ATOM     28  C   UNL     1     -21.909  13.065 -17.385  1.00  0.00    -0.000 C 
BRANCH  28  29
ATOM     29  C   UNL     1     -22.590  14.390 -17.004  1.00  0.00    -0.000 C 
BRANCH  29  30
ATOM     30  C   UNL     1     -21.651  15.332 -16.229  1.00  0.00    -0.000 C 
BRANCH  30  31
ATOM     31  C   UNL     1     -22.155  15.631 -14.808  1.00  0.00    -0.003 C 
ATOM     32  C   UNL     1     -21.337  14.925 -13.728  1.00  0.00     0.004 C 
ENDBRANCH  30  31
ENDBRANCH  29  30
ENDBRANCH  28  29
ENDBRANCH  27  28
ENDBRANCH  26  27
ENDBRANCH  25  26
ENDBRANCH  24  25
ENDBRANCH  23  24
ENDBRANCH  22  23
ENDBRANCH  21  22
ENDBRANCH  20  21
ENDBRANCH  19  20
ENDBRANCH  18  19
ENDBRANCH   1  18
TORSDOF 28
ENDMDL
MODEL 3
REMARK VINA RESULT:    -2.348      2.583      4.455
REMARK INTER + INTRA:         -11.762
REMARK INTER:                  -6.077
REMARK INTRA:                  -5.685
REMARK UNBOUND:                -5.570
REMARK SMILES CCCCCCCCCCCCCCCCCCCCCCCCCCCCCC(=O)[O-]
REMARK SMILES IDX 16 1 17 2 18 3 19 4 20 5 21 6 22 7 23 8 24 9 25 10 26 11
REMARK SMILES IDX 27 12 28 13 29 14 30 15 31 16 32 17 15 18 14 19 13 20 12 21
REMARK SMILES IDX 11 22 10 23 9 24 8 25 7 26 6 27 5 28 4 29 3 30 2 31 1 32
REMARK H PARENT
REMARK Flexibility Score: inf
ROOT
ATOM      1  C   UNL     1     -16.876  14.680 -19.929  1.00  0.00     0.000 C 
ENDROOT
BRANCH   1   2
ATOM      2  C   UNL     1     -16.283  14.859 -21.343  1.00  0.00     0.000 C 
BRANCH   2   3
ATOM      3  C   UNL     1     -17.144  15.769 -22.240  1.00  0.00     0.000 C 
BRANCH   3   4
ATOM      4  C   UNL     1     -17.647  15.055 -23.508  1.00  0.00     0.000 C 
BRANCH   4   5
ATOM      5  C   UNL     1     -17.584  13.515 -23.457  1.00  0.00     0.000 C 
BRANCH   5   6
ATOM      6  C   UNL     1     -18.605  12.794 -24.357  1.00  0.00     0.000 C 
BRANCH   6   7
ATOM      7  C   UNL     1     -19.684  13.705 -24.980  1.00  0.00     0.000 C 
BRANCH   7   8
ATOM      8  C   UNL     1     -21.095  13.091 -25.058  1.00  0.00     0.000 C 
BRANCH   8   9
ATOM      9  C   UNL     1     -21.980  13.471 -23.860  1.00  0.00     0.000 C 
BRANCH   9  10
ATOM     10  C   UNL     1     -21.435  14.675 -23.078  1.00  0.00     0.000 C 
BRANCH  10  11
ATOM     11  C   UNL     1     -21.051  14.324 -21.630  1.00  0.00     0.000 C 
BRANCH  11  12
ATOM     12  C   UNL     1     -21.286  15.493 -20.660  1.00  0.00     0.000 C 
BRANCH  12  13
ATOM     13  C   UNL     1     -20.208  16.585 -20.782  1.00  0.00     0.006 C 
BRANCH  13  14
ATOM     14  C   UNL     1     -19.874  17.224 -19.427  1.00  0.00     0.053 C 
BRANCH  14  15
ATOM     15  C   UNL     1     -21.077  17.865 -18.802  1.00  0.00     0.041 C 
ATOM     16  O   UNL     1     -21.700  18.774 -19.413  1.00  0.00    -0.550 OA
ATOM     17  O   UNL     1     -21.505  17.465 -17.541  1.00  0.00    -0.550 OA
ENDBRANCH  14  15
ENDBRANCH  13  14
ENDBRANCH  12  13
ENDBRANCH  11  12
ENDBRANCH  10  11
ENDBRANCH   9  10
ENDBRANCH   8   9
ENDBRANCH   7   8
ENDBRANCH   6   7
ENDBRANCH   5   6
ENDBRANCH   4   5
ENDBRANCH   3   4
ENDBRANCH   2   3
ENDBRANCH   1   2
BRANCH   1  18
ATOM     18  C   UNL     1     -17.973  13.602 -19.847  1.00  0.00     0.000 C 
BRANCH  18  19
ATOM     19  C   UNL     1     -18.333  13.148 -18.421  1.00  0.00     0.000 C 
BRANCH  19  20
ATOM     20  C   UNL     1     -19.558  13.851 -17.798  1.00  0.00     0.000 C 
BRANCH  20  21
ATOM     21  C   UNL     1     -20.895  13.103 -17.952  1.00  0.00     0.000 C 
BRANCH  21  22
ATOM     22  C   UNL     1     -22.104  13.928 -17.478  1.00  0.00     0.000 C 
BRANCH  22  23
ATOM     23  C   UNL     1     -23.017  13.140 -16.526  1.00  0.00     0.000 C 
BRANCH  23  24
ATOM     24  C   UNL     1     -22.254  12.079 -15.715  1.00  0.00    -0.000 C 
BRANCH  24  25
ATOM     25  C   UNL     1     -22.563  12.158 -14.210  1.00  0.00    -0.000 C 
BRANCH  25  26
ATOM     26  C   UNL     1     -21.309  12.437 -13.364  1.00  0.00    -0.000 C 
BRANCH  26  27
ATOM     27  C   UNL     1     -20.191  13.123 -14.166  1.00  0.00    -0.000 C 
BRANCH  27  28
ATOM     28  C   UNL     1     -19.923  14.562 -13.692  1.00  0.00    -0.000 C 
BRANCH  28  29
ATOM     29  C   UNL     1     -20.388  15.615 -14.710  1.00  0.00    -0.000 C 
BRANCH  29  30
ATOM     30  C   UNL     1     -21.487  16.533 -14.146  1.00  0.00    -0.000 C 
BRANCH  30  31
ATOM     31  C   UNL     1     -22.857  15.840 -14.075  1.00  0.00    -0.003 C 
ATOM     32  C   UNL     1     -23.421  15.784 -12.656  1.00  0.00     0.004 C 
ENDBRANCH  30  31
ENDBRANCH  29  30
ENDBRANCH  28  29
ENDBRANCH  27  28
ENDBRANCH  26  27
ENDBRANCH  25  26
ENDBRANCH  24  25
ENDBRANCH  23  24
ENDBRANCH  22  23
ENDBRANCH  21  22
ENDBRANCH  20  21
ENDBRANCH  19  20
ENDBRANCH  18  19
ENDBRANCH   1  18
TORSDOF 28
ENDMDL
MODEL 4
REMARK VINA RESULT:    -2.238      3.132      8.115
REMARK INTER + INTRA:         -11.470
REMARK INTER:                  -5.570
REMARK INTRA:                  -5.900
REMARK UNBOUND:                -5.570
REMARK SMILES CCCCCCCCCCCCCCCCCCCCCCCCCCCCCC(=O)[O-]
REMARK SMILES IDX 16 1 17 2 18 3 19 4 20 5 21 6 22 7 23 8 24 9 25 10 26 11
REMARK SMILES IDX 27 12 28 13 29 14 30 15 31 16 32 17 15 18 14 19 13 20 12 21
REMARK SMILES IDX 11 22 10 23 9 24 8 25 7 26 6 27 5 28 4 29 3 30 2 31 1 32
REMARK H PARENT
REMARK Flexibility Score: inf
ROOT
ATOM      1  C   UNL     1     -17.962  17.443 -19.849  1.00  0.00     0.000 C 
ENDROOT
BRANCH   1   2
ATOM      2  C   UNL     1     -17.902  16.638 -18.534  1.00  0.00     0.000 C 
BRANCH   2   3
ATOM      3  C   UNL     1     -16.487  16.118 -18.216  1.00  0.00     0.000 C 
BRANCH   3   4
ATOM      4  C   UNL     1     -16.136  14.832 -18.988  1.00  0.00     0.000 C 
BRANCH   4   5
ATOM      5  C   UNL     1     -17.331  14.140 -19.676  1.00  0.00     0.000 C 
BRANCH   5   6
ATOM      6  C   UNL     1     -17.811  12.846 -18.992  1.00  0.00     0.000 C 
BRANCH   6   7
ATOM      7  C   UNL     1     -18.632  13.055 -17.702  1.00  0.00     0.000 C 
BRANCH   7   8
ATOM      8  C   UNL     1     -20.049  12.449 -17.721  1.00  0.00     0.000 C 
BRANCH   8   9
ATOM      9  C   UNL     1     -21.118  13.408 -17.172  1.00  0.00     0.000 C 
BRANCH   9  10
ATOM     10  C   UNL     1     -20.530  14.752 -16.714  1.00  0.00     0.000 C 
BRANCH  10  11
ATOM     11  C   UNL     1     -21.610  15.807 -16.417  1.00  0.00     0.000 C 
BRANCH  11  12
ATOM     12  C   UNL     1     -23.025  15.309 -16.751  1.00  0.00     0.000 C 
BRANCH  12  13
ATOM     13  C   UNL     1     -24.013  16.464 -16.995  1.00  0.00     0.006 C 
BRANCH  13  14
ATOM     14  C   UNL     1     -23.296  17.780 -17.320  1.00  0.00     0.053 C 
BRANCH  14  15
ATOM     15  C   UNL     1     -23.758  18.359 -18.624  1.00  0.00     0.041 C 
ATOM     16  O   UNL     1     -24.552  17.713 -19.359  1.00  0.00    -0.550 OA
ATOM     17  O   UNL     1     -23.306  19.609 -19.032  1.00  0.00    -0.550 OA
ENDBRANCH  14  15
ENDBRANCH  13  14
ENDBRANCH  12  13
ENDBRANCH  11  12
ENDBRANCH  10  11
ENDBRANCH   9  10
ENDBRANCH   8   9
ENDBRANCH   7   8
ENDBRANCH   6   7
ENDBRANCH   5   6
ENDBRANCH   4   5
ENDBRANCH   3   4
ENDBRANCH   2   3
ENDBRANCH   1   2
BRANCH   1  18
ATOM     18  C   UNL     1     -19.291  17.288 -20.613  1.00  0.00     0.000 C 
BRANCH  18  19
ATOM     19  C   UNL     1     -20.513  16.967 -19.733  1.00  0.00     0.000 C 
BRANCH  19  20
ATOM     20  C   UNL     1     -21.386  15.793 -20.224  1.00  0.00     0.000 C 
BRANCH  20  21
ATOM     21  C   UNL     1     -20.615  14.615 -20.848  1.00  0.00     0.000 C 
BRANCH  21  22
ATOM     22  C   UNL     1     -21.401  13.905 -21.964  1.00  0.00     0.000 C 
BRANCH  22  23
ATOM     23  C   UNL     1     -21.584  14.791 -23.207  1.00  0.00     0.000 C 
BRANCH  23  24
ATOM     24  C   UNL     1     -21.966  13.983 -24.459  1.00  0.00    -0.000 C 
BRANCH  24  25
ATOM     25  C   UNL     1     -20.884  12.964 -24.850  1.00  0.00    -0.000 C 
BRANCH  25  26
ATOM     26  C   UNL     1     -19.485  13.597 -24.949  1.00  0.00    -0.000 C 
BRANCH  26  27
ATOM     27  C   UNL     1     -18.395  12.738 -24.286  1.00  0.00    -0.000 C 
BRANCH  27  28
ATOM     28  C   UNL     1     -17.524  13.543 -23.307  1.00  0.00    -0.000 C 
BRANCH  28  29
ATOM     29  C   UNL     1     -17.867  15.042 -23.307  1.00  0.00    -0.000 C 
BRANCH  29  30
ATOM     30  C   UNL     1     -16.728  15.905 -23.878  1.00  0.00    -0.000 C 
BRANCH  30  31
ATOM     31  C   UNL     1     -16.114  16.844 -22.827  1.00  0.00    -0.003 C 
ATOM     32  C   UNL     1     -14.855  16.268 -22.180  1.00  0.00     0.004 C 
ENDBRANCH  30  31
ENDBRANCH  29  30
ENDBRANCH  28  29
ENDBRANCH  27  28
ENDBRANCH  26  27
ENDBRANCH  25  26
ENDBRANCH  24  25
ENDBRANCH  23  24
ENDBRANCH  22  23
ENDBRANCH  21  22
ENDBRANCH  20  21
ENDBRANCH  19  20
ENDBRANCH  18  19
ENDBRANCH   1  18
TORSDOF 28
ENDMDL
MODEL 5
REMARK VINA RESULT:    -2.226      3.029      5.270
REMARK INTER + INTRA:         -11.439
REMARK INTER:                  -6.239
REMARK INTRA:                  -5.200
REMARK UNBOUND:                -5.570
REMARK SMILES CCCCCCCCCCCCCCCCCCCCCCCCCCCCCC(=O)[O-]
REMARK SMILES IDX 16 1 17 2 18 3 19 4 20 5 21 6 22 7 23 8 24 9 25 10 26 11
REMARK SMILES IDX 27 12 28 13 29 14 30 15 31 16 32 17 15 18 14 19 13 20 12 21
REMARK SMILES IDX 11 22 10 23 9 24 8 25 7 26 6 27 5 28 4 29 3 30 2 31 1 32
REMARK H PARENT
REMARK Flexibility Score: inf
ROOT
ATOM      1  C   UNL     1     -17.484  14.022 -19.582  1.00  0.00     0.000 C 
ENDROOT
BRANCH   1   2
ATOM      2  C   UNL     1     -16.919  14.852 -20.754  1.00  0.00     0.000 C 
BRANCH   2   3
ATOM      3  C   UNL     1     -18.022  15.465 -21.638  1.00  0.00     0.000 C 
BRANCH   3   4
ATOM      4  C   UNL     1     -17.951  14.987 -23.100  1.00  0.00     0.000 C 
BRANCH   4   5
ATOM      5  C   UNL     1     -17.632  13.489 -23.280  1.00  0.00     0.000 C 
BRANCH   5   6
ATOM      6  C   UNL     1     -18.492  12.766 -24.334  1.00  0.00     0.000 C 
BRANCH   6   7
ATOM      7  C   UNL     1     -19.587  13.634 -24.991  1.00  0.00     0.000 C 
BRANCH   7   8
ATOM      8  C   UNL     1     -20.995  13.008 -25.011  1.00  0.00     0.000 C 
BRANCH   8   9
ATOM      9  C   UNL     1     -21.793  13.288 -23.727  1.00  0.00     0.000 C 
BRANCH   9  10
ATOM     10  C   UNL     1     -21.730  14.762 -23.299  1.00  0.00     0.000 C 
BRANCH  10  11
ATOM     11  C   UNL     1     -21.734  14.941 -21.770  1.00  0.00     0.000 C 
BRANCH  11  12
ATOM     12  C   UNL     1     -21.490  16.399 -21.349  1.00  0.00     0.000 C 
BRANCH  12  13
ATOM     13  C   UNL     1     -22.681  16.997 -20.580  1.00  0.00     0.006 C 
BRANCH  13  14
ATOM     14  C   UNL     1     -22.294  17.431 -19.160  1.00  0.00     0.053 C 
BRANCH  14  15
ATOM     15  C   UNL     1     -22.844  18.785 -18.822  1.00  0.00     0.041 C 
ATOM     16  O   UNL     1     -23.236  19.035 -17.651  1.00  0.00    -0.550 OA
ATOM     17  O   UNL     1     -22.931  19.767 -19.802  1.00  0.00    -0.550 OA
ENDBRANCH  14  15
ENDBRANCH  13  14
ENDBRANCH  12  13
ENDBRANCH  11  12
ENDBRANCH  10  11
ENDBRANCH   9  10
ENDBRANCH   8   9
ENDBRANCH   7   8
ENDBRANCH   6   7
ENDBRANCH   5   6
ENDBRANCH   4   5
ENDBRANCH   3   4
ENDBRANCH   2   3
ENDBRANCH   1   2
BRANCH   1  18
ATOM     18  C   UNL     1     -19.001  13.769 -19.674  1.00  0.00     0.000 C 
BRANCH  18  19
ATOM     19  C   UNL     1     -19.842  14.454 -18.583  1.00  0.00     0.000 C 
BRANCH  19  20
ATOM     20  C   UNL     1     -21.272  13.900 -18.410  1.00  0.00     0.000 C 
BRANCH  20  21
ATOM     21  C   UNL     1     -21.909  14.140 -17.029  1.00  0.00     0.000 C 
BRANCH  21  22
ATOM     22  C   UNL     1     -23.115  13.224 -16.755  1.00  0.00     0.000 C 
BRANCH  22  23
ATOM     23  C   UNL     1     -22.998  12.485 -15.412  1.00  0.00     0.000 C 
BRANCH  23  24
ATOM     24  C   UNL     1     -22.545  13.406 -14.266  1.00  0.00    -0.000 C 
BRANCH  24  25
ATOM     25  C   UNL     1     -21.203  12.964 -13.657  1.00  0.00    -0.000 C 
BRANCH  25  26
ATOM     26  C   UNL     1     -20.995  11.441 -13.728  1.00  0.00    -0.000 C 
BRANCH  26  27
ATOM     27  C   UNL     1     -19.663  11.052 -14.390  1.00  0.00    -0.000 C 
BRANCH  27  28
ATOM     28  C   UNL     1     -19.571  11.523 -15.851  1.00  0.00    -0.000 C 
BRANCH  28  29
ATOM     29  C   UNL     1     -18.269  12.287 -16.143  1.00  0.00    -0.000 C 
BRANCH  29  30
ATOM     30  C   UNL     1     -17.958  13.350 -15.074  1.00  0.00    -0.000 C 
BRANCH  30  31
ATOM     31  C   UNL     1     -17.925  14.775 -15.651  1.00  0.00    -0.003 C 
ATOM     32  C   UNL     1     -19.051  15.658 -15.114  1.00  0.00     0.004 C 
ENDBRANCH  30  31
ENDBRANCH  29  30
ENDBRANCH  28  29
ENDBRANCH  27  28
ENDBRANCH  26  27
ENDBRANCH  25  26
ENDBRANCH  24  25
ENDBRANCH  23  24
ENDBRANCH  22  23
ENDBRANCH  21  22
ENDBRANCH  20  21
ENDBRANCH  19  20
ENDBRANCH  18  19
ENDBRANCH   1  18
TORSDOF 28
ENDMDL
MODEL 6
REMARK VINA RESULT:    -2.218     11.758     15.769
REMARK INTER + INTRA:         -11.420
REMARK INTER:                  -5.605
REMARK INTRA:                  -5.815
REMARK UNBOUND:                -5.570
REMARK SMILES CCCCCCCCCCCCCCCCCCCCCCCCCCCCCC(=O)[O-]
REMARK SMILES IDX 16 1 17 2 18 3 19 4 20 5 21 6 22 7 23 8 24 9 25 10 26 11
REMARK SMILES IDX 27 12 28 13 29 14 30 15 31 16 32 17 15 18 14 19 13 20 12 21
REMARK SMILES IDX 11 22 10 23 9 24 8 25 7 26 6 27 5 28 4 29 3 30 2 31 1 32
REMARK H PARENT
REMARK Flexibility Score: inf
ROOT
ATOM      1  C   UNL     1     -20.845  25.998 -20.711  1.00  0.00     0.000 C 
ENDROOT
BRANCH   1   2
ATOM      2  C   UNL     1     -20.254  27.318 -21.248  1.00  0.00     0.000 C 
BRANCH   2   3
ATOM      3  C   UNL     1     -20.458  28.501 -20.282  1.00  0.00     0.000 C 
BRANCH   3   4
ATOM      4  C   UNL     1     -19.133  29.157 -19.852  1.00  0.00     0.000 C 
BRANCH   4   5
ATOM      5  C   UNL     1     -19.087  29.627 -18.384  1.00  0.00     0.000 C 
BRANCH   5   6
ATOM      6  C   UNL     1     -20.296  29.203 -17.529  1.00  0.00     0.000 C 
BRANCH   6   7
ATOM      7  C   UNL     1     -19.956  28.754 -16.092  1.00  0.00     0.000 C 
BRANCH   7   8
ATOM      8  C   UNL     1     -21.090  28.025 -15.347  1.00  0.00     0.000 C 
BRANCH   8   9
ATOM      9  C   UNL     1     -22.332  27.795 -16.224  1.00  0.00     0.000 C 
BRANCH   9  10
ATOM     10  C   UNL     1     -23.493  28.735 -15.865  1.00  0.00     0.000 C 
BRANCH  10  11
ATOM     11  C   UNL     1     -24.005  29.540 -17.073  1.00  0.00     0.000 C 
BRANCH  11  12
ATOM     12  C   UNL     1     -24.094  28.691 -18.351  1.00  0.00     0.000 C 
BRANCH  12  13
ATOM     13  C   UNL     1     -24.340  29.544 -19.608  1.00  0.00     0.006 C 
BRANCH  13  14
ATOM     14  C   UNL     1     -24.765  28.692 -20.812  1.00  0.00     0.053 C 
BRANCH  14  15
ATOM     15  C   UNL     1     -23.787  28.799 -21.943  1.00  0.00     0.041 C 
ATOM     16  O   UNL     1     -23.226  29.899 -22.195  1.00  0.00    -0.550 OA
ATOM     17  O   UNL     1     -23.499  27.685 -22.724  1.00  0.00    -0.550 OA
ENDBRANCH  14  15
ENDBRANCH  13  14
ENDBRANCH  12  13
ENDBRANCH  11  12
ENDBRANCH  10  11
ENDBRANCH   9  10
ENDBRANCH   8   9
ENDBRANCH   7   8
ENDBRANCH   6   7
ENDBRANCH   5   6
ENDBRANCH   4   5
ENDBRANCH   3   4
ENDBRANCH   2   3
ENDBRANCH   1   2
BRANCH   1  18
ATOM     18  C   UNL     1     -21.184  26.034 -19.209  1.00  0.00     0.000 C 
BRANCH  18  19
ATOM     19  C   UNL     1     -20.511  24.938 -18.363  1.00  0.00     0.000 C 
BRANCH  19  20
ATOM     20  C   UNL     1     -19.334  25.414 -17.486  1.00  0.00     0.000 C 
BRANCH  20  21
ATOM     21  C   UNL     1     -18.159  26.051 -18.250  1.00  0.00     0.000 C 
BRANCH  21  22
ATOM     22  C   UNL     1     -17.578  25.130 -19.337  1.00  0.00     0.000 C 
BRANCH  22  23
ATOM     23  C   UNL     1     -16.398  25.773 -20.083  1.00  0.00     0.000 C 
BRANCH  23  24
ATOM     24  C   UNL     1     -16.285  27.284 -19.823  1.00  0.00    -0.000 C 
BRANCH  24  25
ATOM     25  C   UNL     1     -15.559  28.020 -20.962  1.00  0.00    -0.000 C 
BRANCH  25  26
ATOM     26  C   UNL     1     -15.512  29.543 -20.746  1.00  0.00    -0.000 C 
BRANCH  26  27
ATOM     27  C   UNL     1     -16.293  30.321 -21.817  1.00  0.00    -0.000 C 
BRANCH  27  28
ATOM     28  C   UNL     1     -16.894  29.401 -22.893  1.00  0.00    -0.000 C 
BRANCH  28  29
ATOM     29  C   UNL     1     -16.182  29.534 -24.249  1.00  0.00    -0.000 C 
BRANCH  29  30
ATOM     30  C   UNL     1     -15.524  28.217 -24.699  1.00  0.00    -0.000 C 
BRANCH  30  31
ATOM     31  C   UNL     1     -16.404  26.989 -24.412  1.00  0.00    -0.003 C 
ATOM     32  C   UNL     1     -15.601  25.787 -23.918  1.00  0.00     0.004 C 
ENDBRANCH  30  31
ENDBRANCH  29  30
ENDBRANCH  28  29
ENDBRANCH  27  28
ENDBRANCH  26  27
ENDBRANCH  25  26
ENDBRANCH  24  25
ENDBRANCH  23  24
ENDBRANCH  22  23
ENDBRANCH  21  22
ENDBRANCH  20  21
ENDBRANCH  19  20
ENDBRANCH  18  19
ENDBRANCH   1  18
TORSDOF 28
ENDMDL
MODEL 7
REMARK VINA RESULT:    -2.195     11.875     15.787
REMARK INTER + INTRA:         -11.357
REMARK INTER:                  -5.681
REMARK INTRA:                  -5.676
REMARK UNBOUND:                -5.570
REMARK SMILES CCCCCCCCCCCCCCCCCCCCCCCCCCCCCC(=O)[O-]
REMARK SMILES IDX 16 1 17 2 18 3 19 4 20 5 21 6 22 7 23 8 24 9 25 10 26 11
REMARK SMILES IDX 27 12 28 13 29 14 30 15 31 16 32 17 15 18 14 19 13 20 12 21
REMARK SMILES IDX 11 22 10 23 9 24 8 25 7 26 6 27 5 28 4 29 3 30 2 31 1 32
REMARK H PARENT
REMARK Flexibility Score: inf
ROOT
ATOM      1  C   UNL     1     -19.147  25.028 -21.252  1.00  0.00     0.000 C 
ENDROOT
BRANCH   1   2
ATOM      2  C   UNL     1     -20.477  24.822 -20.497  1.00  0.00     0.000 C 
BRANCH   2   3
ATOM      3  C   UNL     1     -20.792  25.969 -19.518  1.00  0.00     0.000 C 
BRANCH   3   4
ATOM      4  C   UNL     1     -22.050  26.764 -19.915  1.00  0.00     0.000 C 
BRANCH   4   5
ATOM      5  C   UNL     1     -21.785  28.007 -20.788  1.00  0.00     0.000 C 
BRANCH   5   6
ATOM      6  C   UNL     1     -22.964  28.434 -21.682  1.00  0.00     0.000 C 
BRANCH   6   7
ATOM      7  C   UNL     1     -23.799  29.615 -21.142  1.00  0.00     0.000 C 
BRANCH   7   8
ATOM      8  C   UNL     1     -24.725  29.275 -19.957  1.00  0.00     0.000 C 
BRANCH   8   9
ATOM      9  C   UNL     1     -24.429  30.117 -18.706  1.00  0.00     0.000 C 
BRANCH   9  10
ATOM     10  C   UNL     1     -24.569  29.313 -17.404  1.00  0.00     0.000 C 
BRANCH  10  11
ATOM     11  C   UNL     1     -23.297  28.523 -17.049  1.00  0.00     0.000 C 
BRANCH  11  12
ATOM     12  C   UNL     1     -22.111  29.440 -16.709  1.00  0.00     0.000 C 
BRANCH  12  13
ATOM     13  C   UNL     1     -20.787  28.937 -17.310  1.00  0.00     0.006 C 
BRANCH  13  14
ATOM     14  C   UNL     1     -19.831  28.398 -16.238  1.00  0.00     0.053 C 
BRANCH  14  15
ATOM     15  C   UNL     1     -18.835  29.433 -15.808  1.00  0.00     0.041 C 
ATOM     16  O   UNL     1     -18.474  30.336 -16.609  1.00  0.00    -0.550 OA
ATOM     17  O   UNL     1     -18.300  29.397 -14.525  1.00  0.00    -0.550 OA
ENDBRANCH  14  15
ENDBRANCH  13  14
ENDBRANCH  12  13
ENDBRANCH  11  12
ENDBRANCH  10  11
ENDBRANCH   9  10
ENDBRANCH   8   9
ENDBRANCH   7   8
ENDBRANCH   6   7
ENDBRANCH   5   6
ENDBRANCH   4   5
ENDBRANCH   3   4
ENDBRANCH   2   3
ENDBRANCH   1   2
BRANCH   1  18
ATOM     18  C   UNL     1     -19.264  25.957 -22.475  1.00  0.00     0.000 C 
BRANCH  18  19
ATOM     19  C   UNL     1     -17.941  26.231 -23.212  1.00  0.00     0.000 C 
BRANCH  19  20
ATOM     20  C   UNL     1     -16.662  25.922 -22.405  1.00  0.00     0.000 C 
BRANCH  20  21
ATOM     21  C   UNL     1     -15.343  26.363 -23.067  1.00  0.00     0.000 C 
BRANCH  21  22
ATOM     22  C   UNL     1     -15.545  26.956 -24.472  1.00  0.00     0.000 C 
BRANCH  22  23
ATOM     23  C   UNL     1     -14.741  28.249 -24.685  1.00  0.00     0.000 C 
BRANCH  23  24
ATOM     24  C   UNL     1     -15.562  29.514 -24.385  1.00  0.00    -0.000 C 
BRANCH  24  25
ATOM     25  C   UNL     1     -14.876  30.426 -23.354  1.00  0.00    -0.000 C 
BRANCH  25  26
ATOM     26  C   UNL     1     -15.790  30.764 -22.163  1.00  0.00    -0.000 C 
BRANCH  26  27
ATOM     27  C   UNL     1     -16.287  29.512 -21.421  1.00  0.00    -0.000 C 
BRANCH  27  28
ATOM     28  C   UNL     1     -17.821  29.445 -21.339  1.00  0.00    -0.000 C 
BRANCH  28  29
ATOM     29  C   UNL     1     -18.312  28.676 -20.101  1.00  0.00    -0.000 C 
BRANCH  29  30
ATOM     30  C   UNL     1     -17.156  28.235 -19.185  1.00  0.00    -0.000 C 
BRANCH  30  31
ATOM     31  C   UNL     1     -17.403  26.861 -18.542  1.00  0.00    -0.003 C 
ATOM     32  C   UNL     1     -16.244  25.889 -18.758  1.00  0.00     0.004 C 
ENDBRANCH  30  31
ENDBRANCH  29  30
ENDBRANCH  28  29
ENDBRANCH  27  28
ENDBRANCH  26  27
ENDBRANCH  25  26
ENDBRANCH  24  25
ENDBRANCH  23  24
ENDBRANCH  22  23
ENDBRANCH  21  22
ENDBRANCH  20  21
ENDBRANCH  19  20
ENDBRANCH  18  19
ENDBRANCH   1  18
TORSDOF 28
ENDMDL
MODEL 8
REMARK VINA RESULT:    -2.191      1.563      3.103
REMARK INTER + INTRA:         -11.348
REMARK INTER:                  -5.696
REMARK INTRA:                  -5.652
REMARK UNBOUND:                -5.570
REMARK SMILES CCCCCCCCCCCCCCCCCCCCCCCCCCCCCC(=O)[O-]
REMARK SMILES IDX 16 1 17 2 18 3 19 4 20 5 21 6 22 7 23 8 24 9 25 10 26 11
REMARK SMILES IDX 27 12 28 13 29 14 30 15 31 16 32 17 15 18 14 19 13 20 12 21
REMARK SMILES IDX 11 22 10 23 9 24 8 25 7 26 6 27 5 28 4 29 3 30 2 31 1 32
REMARK H PARENT
REMARK Flexibility Score: inf
ROOT
ATOM      1  C   UNL     1     -20.165  16.490 -19.377  1.00  0.00     0.000 C 
ENDROOT
BRANCH   1   2
ATOM      2  C   UNL     1     -19.861  17.095 -20.764  1.00  0.00     0.000 C 
BRANCH   2   3
ATOM      3  C   UNL     1     -19.984  16.066 -21.904  1.00  0.00     0.000 C 
BRANCH   3   4
ATOM      4  C   UNL     1     -21.351  15.359 -21.926  1.00  0.00     0.000 C 
BRANCH   4   5
ATOM      5  C   UNL     1     -21.303  13.858 -22.279  1.00  0.00     0.000 C 
BRANCH   5   6
ATOM      6  C   UNL     1     -21.906  13.496 -23.649  1.00  0.00     0.000 C 
BRANCH   6   7
ATOM      7  C   UNL     1     -20.910  12.895 -24.663  1.00  0.00     0.000 C 
BRANCH   7   8
ATOM      8  C   UNL     1     -19.594  13.678 -24.832  1.00  0.00     0.000 C 
BRANCH   8   9
ATOM      9  C   UNL     1     -18.366  12.903 -24.324  1.00  0.00     0.000 C 
BRANCH   9  10
ATOM     10  C   UNL     1     -17.403  13.784 -23.514  1.00  0.00     0.000 C 
BRANCH  10  11
ATOM     11  C   UNL     1     -17.495  13.533 -21.998  1.00  0.00     0.000 C 
BRANCH  11  12
ATOM     12  C   UNL     1     -16.352  14.205 -21.221  1.00  0.00     0.000 C 
BRANCH  12  13
ATOM     13  C   UNL     1     -16.231  13.679 -19.780  1.00  0.00     0.006 C 
BRANCH  13  14
ATOM     14  C   UNL     1     -16.114  12.150 -19.729  1.00  0.00     0.053 C 
BRANCH  14  15
ATOM     15  C   UNL     1     -14.904  11.708 -18.962  1.00  0.00     0.041 C 
ATOM     16  O   UNL     1     -13.965  11.108 -19.550  1.00  0.00    -0.550 OA
ATOM     17  O   UNL     1     -14.816  11.953 -17.596  1.00  0.00    -0.550 OA
ENDBRANCH  14  15
ENDBRANCH  13  14
ENDBRANCH  12  13
ENDBRANCH  11  12
ENDBRANCH  10  11
ENDBRANCH   9  10
ENDBRANCH   8   9
ENDBRANCH   7   8
ENDBRANCH   6   7
ENDBRANCH   5   6
ENDBRANCH   4   5
ENDBRANCH   3   4
ENDBRANCH   2   3
ENDBRANCH   1   2
BRANCH   1  18
ATOM     18  C   UNL     1     -19.213  15.347 -18.975  1.00  0.00     0.000 C 
BRANCH  18  19
ATOM     19  C   UNL     1     -19.886  13.975 -18.786  1.00  0.00     0.000 C 
BRANCH  19  20
ATOM     20  C   UNL     1     -21.336  14.021 -18.261  1.00  0.00     0.000 C 
BRANCH  20  21
ATOM     21  C   UNL     1     -21.818  12.745 -17.546  1.00  0.00     0.000 C 
BRANCH  21  22
ATOM     22  C   UNL     1     -21.931  12.917 -16.021  1.00  0.00     0.000 C 
BRANCH  22  23
ATOM     23  C   UNL     1     -21.098  11.880 -15.250  1.00  0.00     0.000 C 
BRANCH  23  24
ATOM     24  C   UNL     1     -19.888  11.375 -16.053  1.00  0.00    -0.000 C 
BRANCH  24  25
ATOM     25  C   UNL     1     -18.557  11.619 -15.322  1.00  0.00    -0.000 C 
BRANCH  25  26
ATOM     26  C   UNL     1     -17.765  12.797 -15.915  1.00  0.00    -0.000 C 
BRANCH  26  27
ATOM     27  C   UNL     1     -17.742  14.025 -14.989  1.00  0.00    -0.000 C 
BRANCH  27  28
ATOM     28  C   UNL     1     -18.438  15.247 -15.611  1.00  0.00    -0.000 C 
BRANCH  28  29
ATOM     29  C   UNL     1     -19.808  15.533 -14.976  1.00  0.00    -0.000 C 
BRANCH  29  30
ATOM     30  C   UNL     1     -20.379  16.898 -15.400  1.00  0.00    -0.000 C 
BRANCH  30  31
ATOM     31  C   UNL     1     -21.796  16.788 -15.986  1.00  0.00    -0.003 C 
ATOM     32  C   UNL     1     -22.832  16.339 -14.956  1.00  0.00     0.004 C 
ENDBRANCH  30  31
ENDBRANCH  29  30
ENDBRANCH  28  29
ENDBRANCH  27  28
ENDBRANCH  26  27
ENDBRANCH  25  26
ENDBRANCH  24  25
ENDBRANCH  23  24
ENDBRANCH  22  23
ENDBRANCH  21  22
ENDBRANCH  20  21
ENDBRANCH  19  20
ENDBRANCH  18  19
ENDBRANCH   1  18
TORSDOF 28
ENDMDL
MODEL 9
REMARK VINA RESULT:    -2.187      2.340      4.856
REMARK INTER + INTRA:         -11.337
REMARK INTER:                  -4.877
REMARK INTRA:                  -6.459
REMARK UNBOUND:                -5.570
REMARK SMILES CCCCCCCCCCCCCCCCCCCCCCCCCCCCCC(=O)[O-]
REMARK SMILES IDX 16 1 17 2 18 3 19 4 20 5 21 6 22 7 23 8 24 9 25 10 26 11
REMARK SMILES IDX 27 12 28 13 29 14 30 15 31 16 32 17 15 18 14 19 13 20 12 21
REMARK SMILES IDX 11 22 10 23 9 24 8 25 7 26 6 27 5 28 4 29 3 30 2 31 1 32
REMARK H PARENT
REMARK Flexibility Score: inf
ROOT
ATOM      1  C   UNL     1     -18.476  14.272 -18.032  1.00  0.00     0.000 C 
ENDROOT
BRANCH   1   2
ATOM      2  C   UNL     1     -17.469  14.571 -19.163  1.00  0.00     0.000 C 
BRANCH   2   3
ATOM      3  C   UNL     1     -17.504  13.520 -20.288  1.00  0.00     0.000 C 
BRANCH   3   4
ATOM      4  C   UNL     1     -17.075  14.090 -21.653  1.00  0.00     0.000 C 
BRANCH   4   5
ATOM      5  C   UNL     1     -17.893  13.581 -22.857  1.00  0.00     0.000 C 
BRANCH   5   6
ATOM      6  C   UNL     1     -19.030  14.516 -23.310  1.00  0.00     0.000 C 
BRANCH   6   7
ATOM      7  C   UNL     1     -20.415  13.847 -23.435  1.00  0.00     0.000 C 
BRANCH   7   8
ATOM      8  C   UNL     1     -21.473  14.338 -22.428  1.00  0.00     0.000 C 
BRANCH   8   9
ATOM      9  C   UNL     1     -21.000  14.243 -20.968  1.00  0.00     0.000 C 
BRANCH   9  10
ATOM     10  C   UNL     1     -21.234  15.543 -20.183  1.00  0.00     0.000 C 
BRANCH  10  11
ATOM     11  C   UNL     1     -20.894  16.803 -20.998  1.00  0.00     0.000 C 
BRANCH  11  12
ATOM     12  C   UNL     1     -19.516  17.382 -20.637  1.00  0.00     0.000 C 
BRANCH  12  13
ATOM     13  C   UNL     1     -19.493  18.016 -19.235  1.00  0.00     0.006 C 
BRANCH  13  14
ATOM     14  C   UNL     1     -18.093  17.985 -18.608  1.00  0.00     0.053 C 
BRANCH  14  15
ATOM     15  C   UNL     1     -18.143  18.178 -17.122  1.00  0.00     0.041 C 
ATOM     16  O   UNL     1     -17.615  17.330 -16.355  1.00  0.00    -0.550 OA
ATOM     17  O   UNL     1     -18.778  19.291 -16.584  1.00  0.00    -0.550 OA
ENDBRANCH  14  15
ENDBRANCH  13  14
ENDBRANCH  12  13
ENDBRANCH  11  12
ENDBRANCH  10  11
ENDBRANCH   9  10
ENDBRANCH   8   9
ENDBRANCH   7   8
ENDBRANCH   6   7
ENDBRANCH   5   6
ENDBRANCH   4   5
ENDBRANCH   3   4
ENDBRANCH   2   3
ENDBRANCH   1   2
BRANCH   1  18
ATOM     18  C   UNL     1     -18.978  12.815 -18.017  1.00  0.00     0.000 C 
BRANCH  18  19
ATOM     19  C   UNL     1     -20.484  12.649 -17.749  1.00  0.00     0.000 C 
BRANCH  19  20
ATOM     20  C   UNL     1     -20.842  11.799 -16.511  1.00  0.00     0.000 C 
BRANCH  20  21
ATOM     21  C   UNL     1     -22.194  12.131 -15.853  1.00  0.00     0.000 C 
BRANCH  21  22
ATOM     22  C   UNL     1     -22.994  13.194 -16.627  1.00  0.00     0.000 C 
BRANCH  22  23
ATOM     23  C   UNL     1     -24.424  13.360 -16.088  1.00  0.00     0.000 C 
BRANCH  23  24
ATOM     24  C   UNL     1     -24.566  14.567 -15.145  1.00  0.00    -0.000 C 
BRANCH  24  25
ATOM     25  C   UNL     1     -24.753  15.888 -15.911  1.00  0.00    -0.000 C 
BRANCH  25  26
ATOM     26  C   UNL     1     -23.566  16.850 -15.726  1.00  0.00    -0.000 C 
BRANCH  26  27
ATOM     27  C   UNL     1     -22.610  16.854 -16.930  1.00  0.00    -0.000 C 
BRANCH  27  28
ATOM     28  C   UNL     1     -21.218  16.302 -16.579  1.00  0.00    -0.000 C 
BRANCH  28  29
ATOM     29  C   UNL     1     -21.043  16.058 -15.071  1.00  0.00    -0.000 C 
BRANCH  29  30
ATOM     30  C   UNL     1     -20.007  14.960 -14.769  1.00  0.00    -0.000 C 
BRANCH  30  31
ATOM     31  C   UNL     1     -20.225  14.304 -13.396  1.00  0.00    -0.003 C 
ATOM     32  C   UNL     1     -21.685  14.341 -12.946  1.00  0.00     0.004 C 
ENDBRANCH  30  31
ENDBRANCH  29  30
ENDBRANCH  28  29
ENDBRANCH  27  28
ENDBRANCH  26  27
ENDBRANCH  25  26
ENDBRANCH  24  25
ENDBRANCH  23  24
ENDBRANCH  22  23
ENDBRANCH  21  22
ENDBRANCH  20  21
ENDBRANCH  19  20
ENDBRANCH  18  19
ENDBRANCH   1  18
TORSDOF 28
ENDMDL
