MODEL 1
REMARK VINA RESULT:    -5.084      0.000      0.000
REMARK INTER + INTRA:          -8.053
REMARK INTER:                  -7.759
REMARK INTRA:                  -0.295
REMARK UNBOUND:                -0.295
REMARK SMILES CC1=CCC[C@@H](C)C(=O)C[C@@H](C(C)C)C(=O)C1
REMARK SMILES IDX 8 1 9 2 6 3 7 4 5 5 4 6 3 7 2 8 1 9 10 11 11 12 15 13 16 14
REMARK SMILES IDX 17 15 12 17 13 18 14 19
REMARK H PARENT
REMARK Flexibility Score: 70.00
ROOT
ATOM      1  C   UNL     1      -9.213  32.653  22.441  1.00  0.00     0.136 C 
ATOM      2  O   UNL     1     -10.112  32.851  21.635  1.00  0.00    -0.299 OA
ENDROOT
BRANCH   1   3
ATOM      3  C   UNL     1      -7.923  32.022  21.929  1.00  0.00     0.053 C 
ATOM      4  C   UNL     1      -7.506  32.456  20.514  1.00  0.00     0.016 C 
BRANCH   3   5
ATOM      5  C   UNL     1      -7.938  30.478  22.082  1.00  0.00     0.015 C 
BRANCH   5   6
ATOM      6  C   UNL     1      -7.239  29.930  23.339  1.00  0.00     0.028 C 
BRANCH   6   7
ATOM      7  C   UNL     1      -8.222  29.378  24.343  1.00  0.00    -0.028 C 
ATOM      8  C   UNL     1      -8.377  29.814  25.614  1.00  0.00    -0.070 CG0
ATOM      9  C   UNL     1      -9.404  29.126  26.476  1.00  0.00     0.039 C 
ATOM     10  G   UNL     1      -7.610  30.989  26.190  1.00  0.00     0.000 G0
ENDBRANCH   6   7
ENDBRANCH   5   6
ENDBRANCH   3   5
ENDBRANCH   1   3
BRANCH   1  11
ATOM     11  C   UNL     1      -9.476  33.022  23.886  1.00  0.00     0.087 C 
BRANCH  11  12
ATOM     12  C   UNL     1      -8.160  33.107  24.712  1.00  0.00     0.066 C 
BRANCH  12  13
ATOM     13  C   UNL     1      -8.319  32.289  25.985  1.00  0.00     0.140 C 
ATOM     14  O   UNL     1      -9.017  32.722  26.893  1.00  0.00    -0.299 OA
BRANCH  13  15
ATOM     15  C   UNL     1      -7.578  30.994  26.194  1.00  0.00     0.106 CG0
ATOM     16  G   UNL     1      -8.367  29.827  25.633  1.00  0.00     0.000 G0
ENDBRANCH  13  15
ENDBRANCH  12  13
BRANCH  12  17
ATOM     17  C   UNL     1      -7.763  34.585  25.039  1.00  0.00    -0.006 C 
ATOM     18  C   UNL     1      -6.786  35.165  23.996  1.00  0.00     0.008 C 
ATOM     19  C   UNL     1      -8.998  35.506  25.104  1.00  0.00     0.008 C 
ENDBRANCH  12  17
ENDBRANCH  11  12
ENDBRANCH   1  11
TORSDOF 1
ENDMDL
MODEL 2
REMARK VINA RESULT:    -4.679      1.641      3.453
REMARK INTER + INTRA:          -7.436
REMARK INTER:                  -8.153
REMARK INTRA:                   0.718
REMARK UNBOUND:                -0.295
REMARK SMILES CC1=CCC[C@@H](C)C(=O)C[C@@H](C(C)C)C(=O)C1
REMARK SMILES IDX 8 1 9 2 6 3 7 4 5 5 4 6 3 7 2 8 1 9 10 11 11 12 15 13 16 14
REMARK SMILES IDX 17 15 12 17 13 18 14 19
REMARK H PARENT
REMARK Flexibility Score: 70.00
ROOT
ATOM      1  C   UNL     1      -9.413  32.488  21.869  1.00  0.00     0.136 C 
ATOM      2  O   UNL     1      -9.712  31.852  20.867  1.00  0.00    -0.299 OA
ENDROOT
BRANCH   1   3
ATOM      3  C   UNL     1      -8.395  33.613  21.720  1.00  0.00     0.053 C 
ATOM      4  C   UNL     1      -7.515  33.530  20.462  1.00  0.00     0.016 C 
BRANCH   3   5
ATOM      5  C   UNL     1      -7.550  33.797  23.008  1.00  0.00     0.015 C 
BRANCH   5   6
ATOM      6  C   UNL     1      -8.292  34.421  24.204  1.00  0.00     0.028 C 
BRANCH   6   7
ATOM      7  C   UNL     1      -7.739  33.948  25.526  1.00  0.00    -0.028 C 
ATOM      8  C   UNL     1      -8.300  33.009  26.322  1.00  0.00    -0.070 CG0
ATOM      9  C   UNL     1      -7.608  32.677  27.619  1.00  0.00     0.039 C 
ATOM     10  G   UNL     1      -9.553  32.241  25.948  1.00  0.00     0.000 G0
ENDBRANCH   6   7
ENDBRANCH   5   6
ENDBRANCH   3   5
ENDBRANCH   1   3
BRANCH   1  11
ATOM     11  C   UNL     1     -10.057  32.077  23.176  1.00  0.00     0.087 C 
BRANCH  11  12
ATOM     12  C   UNL     1      -9.426  30.776  23.751  1.00  0.00     0.066 C 
BRANCH  12  13
ATOM     13  C   UNL     1      -9.236  30.936  25.251  1.00  0.00     0.140 C 
ATOM     14  O   UNL     1      -8.863  29.977  25.914  1.00  0.00    -0.299 OA
BRANCH  13  15
ATOM     15  C   UNL     1      -9.568  32.223  25.960  1.00  0.00     0.106 CG0
ATOM     16  G   UNL     1      -8.304  32.980  26.319  1.00  0.00     0.000 G0
ENDBRANCH  13  15
ENDBRANCH  12  13
BRANCH  12  17
ATOM     17  C   UNL     1      -8.075  30.416  23.048  1.00  0.00    -0.006 C 
ATOM     18  C   UNL     1      -6.875  30.522  24.012  1.00  0.00     0.008 C 
ATOM     19  C   UNL     1      -8.097  28.988  22.466  1.00  0.00     0.008 C 
ENDBRANCH  12  17
ENDBRANCH  11  12
ENDBRANCH   1  11
TORSDOF 1
ENDMDL
MODEL 3
REMARK VINA RESULT:    -4.660      1.831      4.119
REMARK INTER + INTRA:          -7.407
REMARK INTER:                  -7.378
REMARK INTRA:                  -0.028
REMARK UNBOUND:                -0.295
REMARK SMILES CC1=CCC[C@@H](C)C(=O)C[C@@H](C(C)C)C(=O)C1
REMARK SMILES IDX 8 1 9 2 6 3 7 4 5 5 4 6 3 7 2 8 1 9 10 11 11 12 15 13 16 14
REMARK SMILES IDX 17 15 12 17 13 18 14 19
REMARK H PARENT
REMARK Flexibility Score: 70.00
ROOT
ATOM      1  C   UNL     1      -7.868  31.395  22.496  1.00  0.00     0.136 C 
ATOM      2  O   UNL     1      -6.984  31.147  21.687  1.00  0.00    -0.299 OA
ENDROOT
BRANCH   1   3
ATOM      3  C   UNL     1      -9.162  32.008  21.972  1.00  0.00     0.053 C 
ATOM      4  C   UNL     1      -9.845  31.217  20.845  1.00  0.00     0.016 C 
BRANCH   3   5
ATOM      5  C   UNL     1      -8.981  33.505  21.604  1.00  0.00     0.015 C 
BRANCH   5   6
ATOM      6  C   UNL     1      -7.817  34.224  22.307  1.00  0.00     0.028 C 
BRANCH   6   7
ATOM      7  C   UNL     1      -8.295  35.140  23.407  1.00  0.00    -0.028 C 
ATOM      8  C   UNL     1      -8.224  34.881  24.733  1.00  0.00    -0.070 CG0
ATOM      9  C   UNL     1      -8.770  35.913  25.686  1.00  0.00     0.039 C 
ATOM     10  G   UNL     1      -7.577  33.633  25.304  1.00  0.00     0.000 G0
ENDBRANCH   6   7
ENDBRANCH   5   6
ENDBRANCH   3   5
ENDBRANCH   1   3
BRANCH   1  11
ATOM     11  C   UNL     1      -7.583  31.102  23.954  1.00  0.00     0.087 C 
BRANCH  11  12
ATOM     12  C   UNL     1      -8.830  31.352  24.851  1.00  0.00     0.066 C 
BRANCH  12  13
ATOM     13  C   UNL     1      -8.592  32.593  25.699  1.00  0.00     0.140 C 
ATOM     14  O   UNL     1      -9.291  32.789  26.684  1.00  0.00    -0.299 OA
BRANCH  13  15
ATOM     15  C   UNL     1      -7.569  33.630  25.317  1.00  0.00     0.106 CG0
ATOM     16  G   UNL     1      -8.242  34.862  24.743  1.00  0.00     0.000 G0
ENDBRANCH  13  15
ENDBRANCH  12  13
BRANCH  12  17
ATOM     17  C   UNL     1      -9.169  30.115  25.747  1.00  0.00    -0.006 C 
ATOM     18  C   UNL     1      -9.489  28.862  24.906  1.00  0.00     0.008 C 
ATOM     19  C   UNL     1      -8.010  29.767  26.702  1.00  0.00     0.008 C 
ENDBRANCH  12  17
ENDBRANCH  11  12
ENDBRANCH   1  11
TORSDOF 1
ENDMDL
MODEL 4
REMARK VINA RESULT:    -4.642      1.668      2.007
REMARK INTER + INTRA:          -7.379
REMARK INTER:                  -7.510
REMARK INTRA:                   0.131
REMARK UNBOUND:                -0.295
REMARK SMILES CC1=CCC[C@@H](C)C(=O)C[C@@H](C(C)C)C(=O)C1
REMARK SMILES IDX 8 1 9 2 6 3 7 4 5 5 4 6 3 7 2 8 1 9 10 11 11 12 15 13 16 14
REMARK SMILES IDX 17 15 12 17 13 18 14 19
REMARK H PARENT
REMARK Flexibility Score: 70.00
ROOT
ATOM      1  C   UNL     1      -8.236  33.915  22.143  1.00  0.00     0.136 C 
ATOM      2  O   UNL     1      -7.682  34.975  21.883  1.00  0.00    -0.299 OA
ENDROOT
BRANCH   1   3
ATOM      3  C   UNL     1      -8.028  32.749  21.183  1.00  0.00     0.053 C 
ATOM      4  C   UNL     1      -7.300  33.106  19.877  1.00  0.00     0.016 C 
BRANCH   3   5
ATOM      5  C   UNL     1      -9.348  31.978  20.920  1.00  0.00     0.015 C 
BRANCH   5   6
ATOM      6  C   UNL     1      -9.349  30.500  21.349  1.00  0.00     0.028 C 
BRANCH   6   7
ATOM      7  C   UNL     1      -8.188  30.170  22.256  1.00  0.00    -0.028 C 
ATOM      8  C   UNL     1      -8.109  30.469  23.572  1.00  0.00    -0.070 CG0
ATOM      9  C   UNL     1      -6.859  30.071  24.313  1.00  0.00     0.039 C 
ATOM     10  G   UNL     1      -9.234  31.131  24.345  1.00  0.00     0.000 G0
ENDBRANCH   6   7
ENDBRANCH   5   6
ENDBRANCH   3   5
ENDBRANCH   1   3
BRANCH   1  11
ATOM     11  C   UNL     1      -9.110  33.867  23.379  1.00  0.00     0.087 C 
BRANCH  11  12
ATOM     12  C   UNL     1      -8.281  33.580  24.664  1.00  0.00     0.066 C 
BRANCH  12  13
ATOM     13  C   UNL     1      -8.707  32.238  25.241  1.00  0.00     0.140 C 
ATOM     14  O   UNL     1      -8.560  32.026  26.437  1.00  0.00    -0.299 OA
BRANCH  13  15
ATOM     15  C   UNL     1      -9.236  31.131  24.366  1.00  0.00     0.106 CG0
ATOM     16  G   UNL     1      -8.111  30.482  23.584  1.00  0.00     0.000 G0
ENDBRANCH  13  15
ENDBRANCH  12  13
BRANCH  12  17
ATOM     17  C   UNL     1      -8.426  34.720  25.726  1.00  0.00    -0.006 C 
ATOM     18  C   UNL     1      -7.068  35.366  26.071  1.00  0.00     0.008 C 
ATOM     19  C   UNL     1      -9.376  35.834  25.242  1.00  0.00     0.008 C 
ENDBRANCH  12  17
ENDBRANCH  11  12
ENDBRANCH   1  11
TORSDOF 1
ENDMDL
MODEL 5
REMARK VINA RESULT:    -4.633      1.769      3.780
REMARK INTER + INTRA:          -7.365
REMARK INTER:                  -7.122
REMARK INTRA:                  -0.242
REMARK UNBOUND:                -0.295
REMARK SMILES CC1=CCC[C@@H](C)C(=O)C[C@@H](C(C)C)C(=O)C1
REMARK SMILES IDX 8 1 9 2 6 3 7 4 5 5 4 6 3 7 2 8 1 9 10 11 11 12 15 13 16 14
REMARK SMILES IDX 17 15 12 17 13 18 14 19
REMARK H PARENT
REMARK Flexibility Score: 70.00
ROOT
ATOM      1  C   UNL     1      -7.503  33.989  24.482  1.00  0.00     0.136 C 
ATOM      2  O   UNL     1      -6.663  34.862  24.310  1.00  0.00    -0.299 OA
ENDROOT
BRANCH   1   3
ATOM      3  C   UNL     1      -8.731  34.337  25.317  1.00  0.00     0.053 C 
ATOM      4  C   UNL     1      -9.368  35.699  24.998  1.00  0.00     0.016 C 
BRANCH   3   5
ATOM      5  C   UNL     1      -8.462  34.162  26.835  1.00  0.00     0.015 C 
BRANCH   5   6
ATOM      6  C   UNL     1      -7.545  32.985  27.214  1.00  0.00     0.028 C 
BRANCH   6   7
ATOM      7  C   UNL     1      -8.330  31.757  27.608  1.00  0.00    -0.028 C 
ATOM      8  C   UNL     1      -8.384  30.601  26.908  1.00  0.00    -0.070 CG0
ATOM      9  C   UNL     1      -9.237  29.484  27.452  1.00  0.00     0.039 C 
ATOM     10  G   UNL     1      -7.590  30.358  25.639  1.00  0.00     0.000 G0
ENDBRANCH   6   7
ENDBRANCH   5   6
ENDBRANCH   3   5
ENDBRANCH   1   3
BRANCH   1  11
ATOM     11  C   UNL     1      -7.230  32.628  23.878  1.00  0.00     0.087 C 
BRANCH  11  12
ATOM     12  C   UNL     1      -8.540  31.815  23.662  1.00  0.00     0.066 C 
BRANCH  12  13
ATOM     13  C   UNL     1      -8.432  30.493  24.406  1.00  0.00     0.140 C 
ATOM     14  O   UNL     1      -9.113  29.543  24.042  1.00  0.00    -0.299 OA
BRANCH  13  15
ATOM     15  C   UNL     1      -7.567  30.339  25.630  1.00  0.00     0.106 CG0
ATOM     16  G   UNL     1      -8.367  30.607  26.890  1.00  0.00     0.000 G0
ENDBRANCH  13  15
ENDBRANCH  12  13
BRANCH  12  17
ATOM     17  C   UNL     1      -8.847  31.584  22.145  1.00  0.00    -0.006 C 
ATOM     18  C   UNL     1     -10.038  32.437  21.660  1.00  0.00     0.008 C 
ATOM     19  C   UNL     1      -7.629  31.914  21.260  1.00  0.00     0.008 C 
ENDBRANCH  12  17
ENDBRANCH  11  12
ENDBRANCH   1  11
TORSDOF 1
ENDMDL
MODEL 6
REMARK VINA RESULT:    -4.551      1.444      2.042
REMARK INTER + INTRA:          -7.240
REMARK INTER:                  -7.923
REMARK INTRA:                   0.683
REMARK UNBOUND:                -0.295
REMARK SMILES CC1=CCC[C@@H](C)C(=O)C[C@@H](C(C)C)C(=O)C1
REMARK SMILES IDX 8 1 9 2 6 3 7 4 5 5 4 6 3 7 2 8 1 9 10 11 11 12 15 13 16 14
REMARK SMILES IDX 17 15 12 17 13 18 14 19
REMARK H PARENT
REMARK Flexibility Score: 70.00
ROOT
ATOM      1  C   UNL     1      -8.626  31.598  22.722  1.00  0.00     0.136 C 
ATOM      2  O   UNL     1      -8.446  31.968  21.570  1.00  0.00    -0.299 OA
ENDROOT
BRANCH   1   3
ATOM      3  C   UNL     1      -8.369  30.131  23.048  1.00  0.00     0.053 C 
ATOM      4  C   UNL     1      -8.974  29.129  22.051  1.00  0.00     0.016 C 
BRANCH   3   5
ATOM      5  C   UNL     1      -8.749  29.793  24.514  1.00  0.00     0.015 C 
BRANCH   5   6
ATOM      6  C   UNL     1      -7.581  29.784  25.516  1.00  0.00     0.028 C 
BRANCH   6   7
ATOM      7  C   UNL     1      -8.051  29.964  26.939  1.00  0.00    -0.028 C 
ATOM      8  C   UNL     1      -8.792  30.999  27.398  1.00  0.00    -0.070 CG0
ATOM      9  C   UNL     1      -9.153  31.015  28.861  1.00  0.00     0.039 C 
ATOM     10  G   UNL     1      -9.318  32.107  26.506  1.00  0.00     0.000 G0
ENDBRANCH   6   7
ENDBRANCH   5   6
ENDBRANCH   3   5
ENDBRANCH   1   3
BRANCH   1  11
ATOM     11  C   UNL     1      -9.121  32.627  23.717  1.00  0.00     0.087 C 
BRANCH  11  12
ATOM     12  C   UNL     1      -7.957  33.235  24.552  1.00  0.00     0.066 C 
BRANCH  12  13
ATOM     13  C   UNL     1      -8.255  33.046  26.031  1.00  0.00     0.140 C 
ATOM     14  O   UNL     1      -7.546  33.599  26.861  1.00  0.00    -0.299 OA
BRANCH  13  15
ATOM     15  C   UNL     1      -9.353  32.131  26.509  1.00  0.00     0.106 CG0
ATOM     16  G   UNL     1      -8.788  31.014  27.363  1.00  0.00     0.000 G0
ENDBRANCH  13  15
ENDBRANCH  12  13
BRANCH  12  17
ATOM     17  C   UNL     1      -7.716  34.744  24.215  1.00  0.00    -0.006 C 
ATOM     18  C   UNL     1      -7.466  34.968  22.710  1.00  0.00     0.008 C 
ATOM     19  C   UNL     1      -8.911  35.621  24.638  1.00  0.00     0.008 C 
ENDBRANCH  12  17
ENDBRANCH  11  12
ENDBRANCH   1  11
TORSDOF 1
ENDMDL
MODEL 7
REMARK VINA RESULT:    -4.509      2.152      5.298
REMARK INTER + INTRA:          -7.176
REMARK INTER:                  -6.848
REMARK INTRA:                  -0.328
REMARK UNBOUND:                -0.295
REMARK SMILES CC1=CCC[C@@H](C)C(=O)C[C@@H](C(C)C)C(=O)C1
REMARK SMILES IDX 8 1 9 2 6 3 7 4 5 5 4 6 3 7 2 8 1 9 10 11 11 12 15 13 16 14
REMARK SMILES IDX 17 15 12 17 13 18 14 19
REMARK H PARENT
REMARK Flexibility Score: 70.00
ROOT
ATOM      1  C   UNL     1      -9.219  31.757  25.864  1.00  0.00     0.136 C 
ATOM      2  O   UNL     1     -10.029  31.455  26.730  1.00  0.00    -0.299 OA
ENDROOT
BRANCH   1   3
ATOM      3  C   UNL     1      -7.986  32.548  26.286  1.00  0.00     0.053 C 
ATOM      4  C   UNL     1      -7.228  31.973  27.494  1.00  0.00     0.016 C 
BRANCH   3   5
ATOM      5  C   UNL     1      -8.304  34.056  26.464  1.00  0.00     0.015 C 
BRANCH   5   6
ATOM      6  C   UNL     1      -9.103  34.705  25.320  1.00  0.00     0.028 C 
BRANCH   6   7
ATOM      7  C   UNL     1      -8.213  35.153  24.186  1.00  0.00    -0.028 C 
ATOM      8  C   UNL     1      -8.202  34.628  22.940  1.00  0.00    -0.070 CG0
ATOM      9  C   UNL     1      -7.228  35.198  21.941  1.00  0.00     0.039 C 
ATOM     10  G   UNL     1      -9.155  33.539  22.487  1.00  0.00     0.000 G0
ENDBRANCH   6   7
ENDBRANCH   5   6
ENDBRANCH   3   5
ENDBRANCH   1   3
BRANCH   1  11
ATOM     11  C   UNL     1      -9.533  31.346  24.440  1.00  0.00     0.087 C 
BRANCH  11  12
ATOM     12  C   UNL     1      -8.254  31.297  23.555  1.00  0.00     0.066 C 
BRANCH  12  13
ATOM     13  C   UNL     1      -8.445  32.210  22.354  1.00  0.00     0.140 C 
ATOM     14  O   UNL     1      -7.959  31.894  21.276  1.00  0.00    -0.299 OA
BRANCH  13  15
ATOM     15  C   UNL     1      -9.152  33.536  22.469  1.00  0.00     0.106 CG0
ATOM     16  G   UNL     1      -8.193  34.617  22.929  1.00  0.00     0.000 G0
ENDBRANCH  13  15
ENDBRANCH  12  13
BRANCH  12  17
ATOM     17  C   UNL     1      -7.905  29.840  23.104  1.00  0.00    -0.006 C 
ATOM     18  C   UNL     1      -6.486  29.423  23.541  1.00  0.00     0.008 C 
ATOM     19  C   UNL     1      -8.903  28.812  23.674  1.00  0.00     0.008 C 
ENDBRANCH  12  17
ENDBRANCH  11  12
ENDBRANCH   1  11
TORSDOF 1
ENDMDL
MODEL 8
REMARK VINA RESULT:    -4.316      1.941      4.646
REMARK INTER + INTRA:          -6.882
REMARK INTER:                  -7.765
REMARK INTRA:                   0.883
REMARK UNBOUND:                -0.295
REMARK SMILES CC1=CCC[C@@H](C)C(=O)C[C@@H](C(C)C)C(=O)C1
REMARK SMILES IDX 8 1 9 2 6 3 7 4 5 5 4 6 3 7 2 8 1 9 10 11 11 12 15 13 16 14
REMARK SMILES IDX 17 15 12 17 13 18 14 19
REMARK H PARENT
REMARK Flexibility Score: 70.00
ROOT
ATOM      1  C   UNL     1      -8.548  33.426  25.866  1.00  0.00     0.136 C 
ATOM      2  O   UNL     1      -8.641  33.475  27.084  1.00  0.00    -0.299 OA
ENDROOT
BRANCH   1   3
ATOM      3  C   UNL     1      -7.877  34.596  25.154  1.00  0.00     0.053 C 
ATOM      4  C   UNL     1      -8.795  35.797  24.874  1.00  0.00     0.016 C 
BRANCH   3   5
ATOM      5  C   UNL     1      -7.117  34.135  23.882  1.00  0.00     0.015 C 
BRANCH   5   6
ATOM      6  C   UNL     1      -7.601  34.756  22.560  1.00  0.00     0.028 C 
BRANCH   6   7
ATOM      7  C   UNL     1      -8.651  33.908  21.884  1.00  0.00    -0.028 C 
ATOM      8  C   UNL     1      -8.626  32.560  21.780  1.00  0.00    -0.070 CG0
ATOM      9  C   UNL     1      -9.760  31.885  21.052  1.00  0.00     0.039 C 
ATOM     10  G   UNL     1      -7.546  31.697  22.403  1.00  0.00     0.000 G0
ENDBRANCH   6   7
ENDBRANCH   5   6
ENDBRANCH   3   5
ENDBRANCH   1   3
BRANCH   1  11
ATOM     11  C   UNL     1      -9.139  32.218  25.168  1.00  0.00     0.087 C 
BRANCH  11  12
ATOM     12  C   UNL     1      -8.070  31.118  24.906  1.00  0.00     0.066 C 
BRANCH  12  13
ATOM     13  C   UNL     1      -8.091  30.746  23.431  1.00  0.00     0.140 C 
ATOM     14  O   UNL     1      -8.505  29.644  23.096  1.00  0.00    -0.299 OA
BRANCH  13  15
ATOM     15  C   UNL     1      -7.545  31.668  22.373  1.00  0.00     0.106 CG0
ATOM     16  G   UNL     1      -8.644  32.543  21.803  1.00  0.00     0.000 G0
ENDBRANCH  13  15
ENDBRANCH  12  13
BRANCH  12  17
ATOM     17  C   UNL     1      -8.289  29.857  25.807  1.00  0.00    -0.006 C 
ATOM     18  C   UNL     1      -7.570  29.986  27.166  1.00  0.00     0.008 C 
ATOM     19  C   UNL     1      -9.785  29.603  26.079  1.00  0.00     0.008 C 
ENDBRANCH  12  17
ENDBRANCH  11  12
ENDBRANCH   1  11
TORSDOF 1
ENDMDL
MODEL 9
REMARK VINA RESULT:    -3.335      1.882      3.956
REMARK INTER + INTRA:          -5.385
REMARK INTER:                  -6.697
REMARK INTRA:                   1.312
REMARK UNBOUND:                -0.295
REMARK SMILES CC1=CCC[C@@H](C)C(=O)C[C@@H](C(C)C)C(=O)C1
REMARK SMILES IDX 8 1 9 2 6 3 7 4 5 5 4 6 3 7 2 8 1 9 10 11 11 12 15 13 16 14
REMARK SMILES IDX 17 15 12 17 13 18 14 19
REMARK H PARENT
REMARK Flexibility Score: 70.00
ROOT
ATOM      1  C   UNL     1      -7.266  30.290  23.608  1.00  0.00     0.136 C 
ATOM      2  O   UNL     1      -6.685  29.796  22.652  1.00  0.00    -0.299 OA
ENDROOT
BRANCH   1   3
ATOM      3  C   UNL     1      -8.290  29.431  24.341  1.00  0.00     0.053 C 
ATOM      4  C   UNL     1      -9.720  29.506  23.780  1.00  0.00     0.016 C 
BRANCH   3   5
ATOM      5  C   UNL     1      -8.254  29.675  25.873  1.00  0.00     0.015 C 
BRANCH   5   6
ATOM      6  C   UNL     1      -9.289  30.680  26.409  1.00  0.00     0.028 C 
BRANCH   6   7
ATOM      7  C   UNL     1      -8.662  32.007  26.765  1.00  0.00    -0.028 C 
ATOM      8  C   UNL     1      -8.678  33.116  25.992  1.00  0.00    -0.070 CG0
ATOM      9  C   UNL     1      -7.982  34.348  26.510  1.00  0.00     0.039 C 
ATOM     10  G   UNL     1      -9.403  33.195  24.663  1.00  0.00     0.000 G0
ENDBRANCH   6   7
ENDBRANCH   5   6
ENDBRANCH   3   5
ENDBRANCH   1   3
BRANCH   1  11
ATOM     11  C   UNL     1      -6.939  31.727  23.957  1.00  0.00     0.087 C 
BRANCH  11  12
ATOM     12  C   UNL     1      -7.485  32.722  22.893  1.00  0.00     0.066 C 
BRANCH  12  13
ATOM     13  C   UNL     1      -8.477  33.666  23.557  1.00  0.00     0.140 C 
ATOM     14  O   UNL     1      -8.483  34.848  23.241  1.00  0.00    -0.299 OA
BRANCH  13  15
ATOM     15  C   UNL     1      -9.402  33.202  24.652  1.00  0.00     0.106 CG0
ATOM     16  G   UNL     1      -8.667  33.115  25.975  1.00  0.00     0.000 G0
ENDBRANCH  13  15
ENDBRANCH  12  13
BRANCH  12  17
ATOM     17  C   UNL     1      -8.138  31.985  21.677  1.00  0.00    -0.006 C 
ATOM     18  C   UNL     1      -9.672  32.150  21.656  1.00  0.00     0.008 C 
ATOM     19  C   UNL     1      -7.583  32.498  20.333  1.00  0.00     0.008 C 
ENDBRANCH  12  17
ENDBRANCH  11  12
ENDBRANCH   1  11
TORSDOF 1
ENDMDL
