MODEL 1
REMARK VINA RESULT:    -3.848      0.000      0.000
REMARK INTER + INTRA:          -3.961
REMARK INTER:                  -3.961
REMARK INTRA:                   0.000
REMARK UNBOUND:                 0.000
REMARK SMILES Nc1ncnc2nc[nH]c12
REMARK SMILES IDX 8 1 7 2 6 3 5 4 4 5 3 6 2 7 10 8 9 9 1 11
REMARK H PARENT 9 10 1 12 1 13
REMARK Flexibility Score: inf
ROOT
ATOM      1  C   UNL     1     -29.590   9.084 -37.914  1.00  0.00     0.199 A 
ATOM      2  N   UNL     1     -29.481   7.728 -37.968  1.00  0.00    -0.217 NA
ATOM      3  C   UNL     1     -28.264   7.520 -37.436  1.00  0.00     0.182 A 
ATOM      4  N   UNL     1     -27.658   6.322 -37.254  1.00  0.00    -0.215 NA
ATOM      5  C   UNL     1     -26.410   6.310 -36.693  1.00  0.00     0.226 A 
ATOM      6  N   UNL     1     -25.800   7.484 -36.329  1.00  0.00    -0.217 NA
ATOM      7  C   UNL     1     -26.410   8.693 -36.513  1.00  0.00     0.152 A 
ATOM      8  C   UNL     1     -27.680   8.687 -37.084  1.00  0.00     0.127 A 
ATOM      9  N   UNL     1     -28.506   9.699 -37.379  1.00  0.00    -0.340 N 
ATOM     10  H   UNL     1     -28.361  10.723 -37.236  1.00  0.00     0.168 HD
ENDROOT
BRANCH   7  11
ATOM     11  N   UNL     1     -25.755   9.901 -36.126  1.00  0.00    -0.382 N 
ATOM     12  H   UNL     1     -24.735   9.893 -35.902  1.00  0.00     0.158 HD
ATOM     13  H   UNL     1     -26.274  10.803 -36.059  1.00  0.00     0.158 HD
ENDBRANCH   7  11
TORSDOF 1
ENDMDL
MODEL 2
REMARK VINA RESULT:    -3.794     13.383     15.049
REMARK INTER + INTRA:          -3.905
REMARK INTER:                  -3.905
REMARK INTRA:                   0.000
REMARK UNBOUND:                 0.000
REMARK SMILES Nc1ncnc2nc[nH]c12
REMARK SMILES IDX 8 1 7 2 6 3 5 4 4 5 3 6 2 7 10 8 9 9 1 11
REMARK H PARENT 9 10 1 12 1 13
REMARK Flexibility Score: inf
ROOT
ATOM      1  C   UNL     1     -20.343   1.768 -28.500  1.00  0.00     0.199 A 
ATOM      2  N   UNL     1     -19.192   1.087 -28.755  1.00  0.00    -0.217 NA
ATOM      3  C   UNL     1     -18.467   1.330 -27.650  1.00  0.00     0.182 A 
ATOM      4  N   UNL     1     -17.217   0.876 -27.389  1.00  0.00    -0.215 NA
ATOM      5  C   UNL     1     -16.637   1.230 -26.202  1.00  0.00     0.226 A 
ATOM      6  N   UNL     1     -17.311   2.022 -25.307  1.00  0.00    -0.217 NA
ATOM      7  C   UNL     1     -18.572   2.481 -25.570  1.00  0.00     0.152 A 
ATOM      8  C   UNL     1     -19.147   2.111 -26.782  1.00  0.00     0.127 A 
ATOM      9  N   UNL     1     -20.347   2.404 -27.301  1.00  0.00    -0.340 N 
ATOM     10  H   UNL     1     -21.112   2.984 -26.891  1.00  0.00     0.168 HD
ENDROOT
BRANCH   7  11
ATOM     11  N   UNL     1     -19.254   3.305 -24.623  1.00  0.00    -0.382 N 
ATOM     12  H   UNL     1     -19.047   4.328 -24.578  1.00  0.00     0.158 HD
ATOM     13  H   UNL     1     -19.961   2.909 -23.968  1.00  0.00     0.158 HD
ENDBRANCH   7  11
TORSDOF 1
ENDMDL
MODEL 3
REMARK VINA RESULT:    -3.721      0.979      3.068
REMARK INTER + INTRA:          -3.830
REMARK INTER:                  -3.830
REMARK INTRA:                   0.000
REMARK UNBOUND:                 0.000
REMARK SMILES Nc1ncnc2nc[nH]c12
REMARK SMILES IDX 8 1 7 2 6 3 5 4 4 5 3 6 2 7 10 8 9 9 1 11
REMARK H PARENT 9 10 1 12 1 13
REMARK Flexibility Score: inf
ROOT
ATOM      1  C   UNL     1     -25.005   5.897 -36.462  1.00  0.00     0.199 A 
ATOM      2  N   UNL     1     -26.227   5.483 -36.897  1.00  0.00    -0.217 NA
ATOM      3  C   UNL     1     -26.901   6.640 -36.996  1.00  0.00     0.182 A 
ATOM      4  N   UNL     1     -28.187   6.794 -37.394  1.00  0.00    -0.215 NA
ATOM      5  C   UNL     1     -28.703   8.060 -37.432  1.00  0.00     0.226 A 
ATOM      6  N   UNL     1     -27.932   9.137 -37.077  1.00  0.00    -0.217 NA
ATOM      7  C   UNL     1     -26.634   8.984 -36.675  1.00  0.00     0.152 A 
ATOM      8  C   UNL     1     -26.124   7.689 -36.642  1.00  0.00     0.127 A 
ATOM      9  N   UNL     1     -24.910   7.240 -36.297  1.00  0.00    -0.340 N 
ATOM     10  H   UNL     1     -24.080   7.785 -35.975  1.00  0.00     0.168 HD
ENDROOT
BRANCH   7  11
ATOM     11  N   UNL     1     -25.851  10.120 -36.308  1.00  0.00    -0.382 N 
ATOM     12  H   UNL     1     -24.809  10.075 -36.365  1.00  0.00     0.158 HD
ATOM     13  H   UNL     1     -26.295  11.004 -35.981  1.00  0.00     0.158 HD
ENDBRANCH   7  11
TORSDOF 1
ENDMDL
MODEL 4
REMARK VINA RESULT:    -3.592      1.628      2.603
REMARK INTER + INTRA:          -3.697
REMARK INTER:                  -3.697
REMARK INTRA:                   0.000
REMARK UNBOUND:                 0.000
REMARK SMILES Nc1ncnc2nc[nH]c12
REMARK SMILES IDX 8 1 7 2 6 3 5 4 4 5 3 6 2 7 10 8 9 9 1 11
REMARK H PARENT 9 10 1 12 1 13
REMARK Flexibility Score: inf
ROOT
ATOM      1  C   UNL     1     -26.656   9.494 -36.240  1.00  0.00     0.199 A 
ATOM      2  N   UNL     1     -27.566   8.800 -36.977  1.00  0.00    -0.217 NA
ATOM      3  C   UNL     1     -27.024   7.571 -37.014  1.00  0.00     0.182 A 
ATOM      4  N   UNL     1     -27.539   6.480 -37.632  1.00  0.00    -0.215 NA
ATOM      5  C   UNL     1     -26.838   5.307 -37.559  1.00  0.00     0.226 A 
ATOM      6  N   UNL     1     -25.650   5.248 -36.876  1.00  0.00    -0.217 NA
ATOM      7  C   UNL     1     -25.130   6.348 -36.252  1.00  0.00     0.152 A 
ATOM      8  C   UNL     1     -25.855   7.533 -36.336  1.00  0.00     0.127 A 
ATOM      9  N   UNL     1     -25.598   8.747 -35.833  1.00  0.00    -0.340 N 
ATOM     10  H   UNL     1     -24.782   9.058 -35.262  1.00  0.00     0.168 HD
ENDROOT
BRANCH   7  11
ATOM     11  N   UNL     1     -23.891   6.262 -35.548  1.00  0.00    -0.382 N 
ATOM     12  H   UNL     1     -23.551   7.076 -34.989  1.00  0.00     0.158 HD
ATOM     13  H   UNL     1     -23.308   5.398 -35.576  1.00  0.00     0.158 HD
ENDBRANCH   7  11
TORSDOF 1
ENDMDL
MODEL 5
REMARK VINA RESULT:    -3.539     14.112     15.929
REMARK INTER + INTRA:          -3.642
REMARK INTER:                  -3.642
REMARK INTRA:                   0.000
REMARK UNBOUND:                 0.000
REMARK SMILES Nc1ncnc2nc[nH]c12
REMARK SMILES IDX 8 1 7 2 6 3 5 4 4 5 3 6 2 7 10 8 9 9 1 11
REMARK H PARENT 9 10 1 12 1 13
REMARK Flexibility Score: inf
ROOT
ATOM      1  C   UNL     1     -12.895   2.493 -28.765  1.00  0.00     0.199 A 
ATOM      2  N   UNL     1     -13.697   1.670 -29.495  1.00  0.00    -0.217 NA
ATOM      3  C   UNL     1     -14.185   2.504 -30.429  1.00  0.00     0.182 A 
ATOM      4  N   UNL     1     -15.048   2.185 -31.424  1.00  0.00    -0.215 NA
ATOM      5  C   UNL     1     -15.433   3.176 -32.285  1.00  0.00     0.226 A 
ATOM      6  N   UNL     1     -14.952   4.452 -32.137  1.00  0.00    -0.217 NA
ATOM      7  C   UNL     1     -14.082   4.775 -31.134  1.00  0.00     0.152 A 
ATOM      8  C   UNL     1     -13.699   3.755 -30.267  1.00  0.00     0.127 A 
ATOM      9  N   UNL     1     -12.875   3.774 -29.212  1.00  0.00    -0.340 N 
ATOM     10  H   UNL     1     -12.338   4.577 -28.817  1.00  0.00     0.168 HD
ENDROOT
BRANCH   7  11
ATOM     11  N   UNL     1     -13.595   6.111 -31.000  1.00  0.00    -0.382 N 
ATOM     12  H   UNL     1     -14.141   6.812 -30.451  1.00  0.00     0.158 HD
ATOM     13  H   UNL     1     -12.699   6.409 -31.442  1.00  0.00     0.158 HD
ENDBRANCH   7  11
TORSDOF 1
ENDMDL
MODEL 6
REMARK VINA RESULT:    -3.530      6.034      6.577
REMARK INTER + INTRA:          -3.634
REMARK INTER:                  -3.634
REMARK INTRA:                   0.000
REMARK UNBOUND:                 0.000
REMARK SMILES Nc1ncnc2nc[nH]c12
REMARK SMILES IDX 8 1 7 2 6 3 5 4 4 5 3 6 2 7 10 8 9 9 1 11
REMARK H PARENT 9 10 1 12 1 13
REMARK Flexibility Score: inf
ROOT
ATOM      1  C   UNL     1     -32.456   5.777 -35.045  1.00  0.00     0.199 A 
ATOM      2  N   UNL     1     -31.603   4.750 -35.312  1.00  0.00    -0.217 NA
ATOM      3  C   UNL     1     -31.162   4.419 -34.087  1.00  0.00     0.182 A 
ATOM      4  N   UNL     1     -30.278   3.439 -33.785  1.00  0.00    -0.215 NA
ATOM      5  C   UNL     1     -29.949   3.250 -32.470  1.00  0.00     0.226 A 
ATOM      6  N   UNL     1     -30.505   4.037 -31.494  1.00  0.00    -0.217 NA
ATOM      7  C   UNL     1     -31.397   5.027 -31.798  1.00  0.00     0.152 A 
ATOM      8  C   UNL     1     -31.721   5.205 -33.139  1.00  0.00     0.127 A 
ATOM      9  N   UNL     1     -32.549   6.079 -33.725  1.00  0.00    -0.340 N 
ATOM     10  H   UNL     1     -33.135   6.822 -33.283  1.00  0.00     0.168 HD
ENDROOT
BRANCH   7  11
ATOM     11  N   UNL     1     -31.962   5.834 -30.764  1.00  0.00    -0.382 N 
ATOM     12  H   UNL     1     -31.639   5.719 -29.777  1.00  0.00     0.158 HD
ATOM     13  H   UNL     1     -32.698   6.544 -30.969  1.00  0.00     0.158 HD
ENDBRANCH   7  11
TORSDOF 1
ENDMDL
MODEL 7
REMARK VINA RESULT:    -3.491      5.808      6.756
REMARK INTER + INTRA:          -3.593
REMARK INTER:                  -3.593
REMARK INTRA:                   0.000
REMARK UNBOUND:                 0.000
REMARK SMILES Nc1ncnc2nc[nH]c12
REMARK SMILES IDX 8 1 7 2 6 3 5 4 4 5 3 6 2 7 10 8 9 9 1 11
REMARK H PARENT 9 10 1 12 1 13
REMARK Flexibility Score: inf
ROOT
ATOM      1  C   UNL     1     -31.243   5.400 -31.033  1.00  0.00     0.199 A 
ATOM      2  N   UNL     1     -30.494   4.410 -31.592  1.00  0.00    -0.217 NA
ATOM      3  C   UNL     1     -30.819   4.506 -32.892  1.00  0.00     0.182 A 
ATOM      4  N   UNL     1     -30.344   3.737 -33.901  1.00  0.00    -0.215 NA
ATOM      5  C   UNL     1     -30.795   3.986 -35.169  1.00  0.00     0.226 A 
ATOM      6  N   UNL     1     -31.701   4.989 -35.400  1.00  0.00    -0.217 NA
ATOM      7  C   UNL     1     -32.181   5.766 -34.382  1.00  0.00     0.152 A 
ATOM      8  C   UNL     1     -31.712   5.499 -33.099  1.00  0.00     0.127 A 
ATOM      9  N   UNL     1     -31.999   6.084 -31.929  1.00  0.00    -0.340 N 
ATOM     10  H   UNL     1     -32.648   6.880 -31.738  1.00  0.00     0.168 HD
ENDROOT
BRANCH   7  11
ATOM     11  N   UNL     1     -33.125   6.804 -34.648  1.00  0.00    -0.382 N 
ATOM     12  H   UNL     1     -33.307   7.105 -35.631  1.00  0.00     0.158 HD
ATOM     13  H   UNL     1     -33.644   7.277 -33.877  1.00  0.00     0.158 HD
ENDBRANCH   7  11
TORSDOF 1
ENDMDL
MODEL 8
REMARK VINA RESULT:    -3.464      7.280      8.239
REMARK INTER + INTRA:          -3.565
REMARK INTER:                  -3.565
REMARK INTRA:                   0.000
REMARK UNBOUND:                 0.000
REMARK SMILES Nc1ncnc2nc[nH]c12
REMARK SMILES IDX 8 1 7 2 6 3 5 4 4 5 3 6 2 7 10 8 9 9 1 11
REMARK H PARENT 9 10 1 12 1 13
REMARK Flexibility Score: inf
ROOT
ATOM      1  C   UNL     1     -31.761   5.671 -32.050  1.00  0.00     0.199 A 
ATOM      2  N   UNL     1     -30.628   5.293 -31.398  1.00  0.00    -0.217 NA
ATOM      3  C   UNL     1     -30.597   3.969 -31.624  1.00  0.00     0.182 A 
ATOM      4  N   UNL     1     -29.656   3.098 -31.187  1.00  0.00    -0.215 NA
ATOM      5  C   UNL     1     -29.795   1.778 -31.520  1.00  0.00     0.226 A 
ATOM      6  N   UNL     1     -30.860   1.360 -32.278  1.00  0.00    -0.217 NA
ATOM      7  C   UNL     1     -31.809   2.238 -32.719  1.00  0.00     0.152 A 
ATOM      8  C   UNL     1     -31.653   3.577 -32.371  1.00  0.00     0.127 A 
ATOM      9  N   UNL     1     -32.411   4.644 -32.655  1.00  0.00    -0.340 N 
ATOM     10  H   UNL     1     -33.294   4.689 -33.210  1.00  0.00     0.168 HD
ENDROOT
BRANCH   7  11
ATOM     11  N   UNL     1     -32.910   1.780 -33.506  1.00  0.00    -0.382 N 
ATOM     12  H   UNL     1     -33.580   2.468 -33.917  1.00  0.00     0.158 HD
ATOM     13  H   UNL     1     -33.065   0.764 -33.683  1.00  0.00     0.158 HD
ENDBRANCH   7  11
TORSDOF 1
ENDMDL
MODEL 9
REMARK VINA RESULT:    -3.348      6.609      7.472
REMARK INTER + INTRA:          -3.445
REMARK INTER:                  -3.445
REMARK INTRA:                   0.000
REMARK UNBOUND:                 0.000
REMARK SMILES Nc1ncnc2nc[nH]c12
REMARK SMILES IDX 8 1 7 2 6 3 5 4 4 5 3 6 2 7 10 8 9 9 1 11
REMARK H PARENT 9 10 1 12 1 13
REMARK Flexibility Score: inf
ROOT
ATOM      1  C   UNL     1     -31.354   2.056 -34.046  1.00  0.00     0.199 A 
ATOM      2  N   UNL     1     -30.715   2.149 -32.848  1.00  0.00    -0.217 NA
ATOM      3  C   UNL     1     -30.935   3.429 -32.506  1.00  0.00     0.182 A 
ATOM      4  N   UNL     1     -30.506   4.049 -31.380  1.00  0.00    -0.215 NA
ATOM      5  C   UNL     1     -30.832   5.367 -31.206  1.00  0.00     0.226 A 
ATOM      6  N   UNL     1     -31.572   6.031 -32.150  1.00  0.00    -0.217 NA
ATOM      7  C   UNL     1     -32.005   5.407 -33.286  1.00  0.00     0.152 A 
ATOM      8  C   UNL     1     -31.666   4.067 -33.448  1.00  0.00     0.127 A 
ATOM      9  N   UNL     1     -31.946   3.212 -34.441  1.00  0.00    -0.340 N 
ATOM     10  H   UNL     1     -32.489   3.383 -35.316  1.00  0.00     0.168 HD
ENDROOT
BRANCH   7  11
ATOM     11  N   UNL     1     -32.775   6.120 -34.255  1.00  0.00    -0.382 N 
ATOM     12  H   UNL     1     -33.819   6.101 -34.209  1.00  0.00     0.158 HD
ATOM     13  H   UNL     1     -32.319   6.665 -35.018  1.00  0.00     0.158 HD
ENDBRANCH   7  11
TORSDOF 1
ENDMDL
