MODEL 1
REMARK VINA RESULT:    -4.505      0.000      0.000
REMARK INTER + INTRA:          -7.624
REMARK INTER:                  -7.007
REMARK INTRA:                  -0.617
REMARK UNBOUND:                -0.617
REMARK SMILES COc1cc(CNC(=O)CCCCC=CC(C)C)ccc1O
REMARK SMILES IDX 11 1 12 2 13 3 14 4 15 5 16 6 17 7 18 8 10 9 8 10 9 11 7 12
REMARK SMILES IDX 6 14 5 15 4 16 19 17 3 18 20 19 21 20 2 21 1 22 22 23
REMARK H PARENT 7 13 22 24
REMARK Flexibility Score: inf
ROOT
ATOM      1  C   UNL     1      -8.514  22.993  14.098  1.00  0.00     0.010 C 
ENDROOT
BRANCH   1   2
ATOM      2  C   UNL     1      -8.813  23.030  15.613  1.00  0.00     0.005 C 
BRANCH   2   3
ATOM      3  C   UNL     1      -8.289  24.282  16.338  1.00  0.00     0.027 C 
BRANCH   3   4
ATOM      4  C   UNL     1      -7.277  23.955  17.400  1.00  0.00    -0.031 C 
ATOM      5  C   UNL     1      -7.580  24.020  18.706  1.00  0.00    -0.028 C 
BRANCH   5   6
ATOM      6  C   UNL     1      -6.559  23.682  19.767  1.00  0.00     0.005 C 
ATOM      7  C   UNL     1      -5.432  22.829  19.173  1.00  0.00     0.012 C 
ATOM      8  C   UNL     1      -5.988  24.963  20.393  1.00  0.00     0.012 C 
ENDBRANCH   5   6
ENDBRANCH   3   4
ENDBRANCH   2   3
ENDBRANCH   1   2
BRANCH   1   9
ATOM      9  C   UNL     1      -8.233  21.593  13.530  1.00  0.00     0.100 C 
BRANCH   9  10
ATOM     10  C   UNL     1      -7.161  21.609  12.480  1.00  0.00     0.220 C 
ATOM     11  O   UNL     1      -6.359  20.639  12.395  1.00  0.00    -0.275 OA
ATOM     12  N   UNL     1      -7.057  22.713  11.570  1.00  0.00    -0.352 N 
ATOM     13  H   UNL     1      -7.612  23.577  11.756  1.00  0.00     0.163 HD
BRANCH  12  14
ATOM     14  C   UNL     1      -6.410  22.584  10.268  1.00  0.00     0.151 C 
BRANCH  14  15
ATOM     15  C   UNL     1      -5.118  23.356  10.271  1.00  0.00    -0.025 A 
ATOM     16  C   UNL     1      -4.457  23.644   9.067  1.00  0.00     0.056 A 
ATOM     17  C   UNL     1      -4.615  23.868  11.475  1.00  0.00     0.009 A 
ATOM     18  C   UNL     1      -3.291  24.439   9.064  1.00  0.00     0.160 A 
ATOM     19  C   UNL     1      -3.459  24.653  11.479  1.00  0.00     0.050 A 
ATOM     20  C   UNL     1      -2.800  24.942  10.278  1.00  0.00     0.157 A 
BRANCH  18  21
ATOM     21  O   UNL     1      -2.603  24.755   7.883  1.00  0.00    -0.493 OA
ATOM     22  C   UNL     1      -2.748  24.054   6.654  1.00  0.00     0.278 C 
ENDBRANCH  18  21
BRANCH  20  23
ATOM     23  O   UNL     1      -1.651  25.733  10.281  1.00  0.00    -0.504 OA
ATOM     24  H   UNL     1      -1.330  26.200  11.121  1.00  0.00     0.293 HD
ENDBRANCH  20  23
ENDBRANCH  14  15
ENDBRANCH  12  14
ENDBRANCH   9  10
ENDBRANCH   1   9
TORSDOF 10
ENDMDL
MODEL 2
REMARK VINA RESULT:    -4.446      3.660      5.189
REMARK INTER + INTRA:          -7.532
REMARK INTER:                  -6.229
REMARK INTRA:                  -1.303
REMARK UNBOUND:                -0.617
REMARK SMILES COc1cc(CNC(=O)CCCCC=CC(C)C)ccc1O
REMARK SMILES IDX 11 1 12 2 13 3 14 4 15 5 16 6 17 7 18 8 10 9 8 10 9 11 7 12
REMARK SMILES IDX 6 14 5 15 4 16 19 17 3 18 20 19 21 20 2 21 1 22 22 23
REMARK H PARENT 7 13 22 24
REMARK Flexibility Score: inf
ROOT
ATOM      1  C   UNL     1      -7.541  22.774   9.451  1.00  0.00     0.010 C 
ENDROOT
BRANCH   1   2
ATOM      2  C   UNL     1      -6.894  23.471  10.668  1.00  0.00     0.005 C 
BRANCH   2   3
ATOM      3  C   UNL     1      -6.037  22.549  11.552  1.00  0.00     0.027 C 
BRANCH   3   4
ATOM      4  C   UNL     1      -6.840  21.456  12.200  1.00  0.00    -0.031 C 
ATOM      5  C   UNL     1      -7.856  21.728  13.033  1.00  0.00    -0.028 C 
BRANCH   5   6
ATOM      6  C   UNL     1      -8.665  20.624  13.674  1.00  0.00     0.005 C 
ATOM      7  C   UNL     1      -9.383  21.144  14.924  1.00  0.00     0.012 C 
ATOM      8  C   UNL     1      -9.678  20.049  12.673  1.00  0.00     0.012 C 
ENDBRANCH   5   6
ENDBRANCH   3   4
ENDBRANCH   2   3
ENDBRANCH   1   2
BRANCH   1   9
ATOM      9  C   UNL     1      -6.556  22.357   8.347  1.00  0.00     0.100 C 
BRANCH   9  10
ATOM     10  C   UNL     1      -5.756  23.517   7.829  1.00  0.00     0.220 C 
ATOM     11  O   UNL     1      -6.352  24.511   7.333  1.00  0.00    -0.275 OA
ATOM     12  N   UNL     1      -4.324  23.500   7.909  1.00  0.00    -0.352 N 
ATOM     13  H   UNL     1      -3.841  22.609   8.164  1.00  0.00     0.163 HD
BRANCH  12  14
ATOM     14  C   UNL     1      -3.534  24.727   7.901  1.00  0.00     0.151 C 
BRANCH  14  15
ATOM     15  C   UNL     1      -3.050  25.021   9.296  1.00  0.00    -0.025 A 
ATOM     16  C   UNL     1      -2.720  26.331   9.675  1.00  0.00     0.056 A 
ATOM     17  C   UNL     1      -3.011  23.995  10.251  1.00  0.00     0.009 A 
ATOM     18  C   UNL     1      -2.346  26.617  11.005  1.00  0.00     0.160 A 
ATOM     19  C   UNL     1      -2.639  24.272  11.568  1.00  0.00     0.050 A 
ATOM     20  C   UNL     1      -2.311  25.580  11.947  1.00  0.00     0.157 A 
BRANCH  18  21
ATOM     21  O   UNL     1      -2.014  27.914  11.427  1.00  0.00    -0.493 OA
ATOM     22  C   UNL     1      -2.949  28.976  11.579  1.00  0.00     0.278 C 
ENDBRANCH  18  21
BRANCH  20  23
ATOM     23  O   UNL     1      -1.948  25.857  13.266  1.00  0.00    -0.504 OA
ATOM     24  H   UNL     1      -0.982  26.001  13.532  1.00  0.00     0.293 HD
ENDBRANCH  20  23
ENDBRANCH  14  15
ENDBRANCH  12  14
ENDBRANCH   9  10
ENDBRANCH   1   9
TORSDOF 10
ENDMDL
MODEL 3
REMARK VINA RESULT:    -4.436      2.295      3.484
REMARK INTER + INTRA:          -7.516
REMARK INTER:                  -6.177
REMARK INTRA:                  -1.340
REMARK UNBOUND:                -0.617
REMARK SMILES COc1cc(CNC(=O)CCCCC=CC(C)C)ccc1O
REMARK SMILES IDX 11 1 12 2 13 3 14 4 15 5 16 6 17 7 18 8 10 9 8 10 9 11 7 12
REMARK SMILES IDX 6 14 5 15 4 16 19 17 3 18 20 19 21 20 2 21 1 22 22 23
REMARK H PARENT 7 13 22 24
REMARK Flexibility Score: inf
ROOT
ATOM      1  C   UNL     1     -10.131  20.298  11.543  1.00  0.00     0.010 C 
ENDROOT
BRANCH   1   2
ATOM      2  C   UNL     1      -9.700  20.424  13.021  1.00  0.00     0.005 C 
BRANCH   2   3
ATOM      3  C   UNL     1      -8.190  20.628  13.231  1.00  0.00     0.027 C 
BRANCH   3   4
ATOM      4  C   UNL     1      -7.846  22.036  13.632  1.00  0.00    -0.031 C 
ATOM      5  C   UNL     1      -8.778  22.885  14.093  1.00  0.00    -0.028 C 
BRANCH   5   6
ATOM      6  C   UNL     1      -8.423  24.296  14.502  1.00  0.00     0.005 C 
ATOM      7  C   UNL     1      -7.812  24.307  15.908  1.00  0.00     0.012 C 
ATOM      8  C   UNL     1      -7.451  24.921  13.490  1.00  0.00     0.012 C 
ENDBRANCH   5   6
ENDBRANCH   3   4
ENDBRANCH   2   3
ENDBRANCH   1   2
BRANCH   1   9
ATOM      9  C   UNL     1     -10.305  21.636  10.807  1.00  0.00     0.100 C 
BRANCH   9  10
ATOM     10  C   UNL     1      -9.388  21.761   9.625  1.00  0.00     0.220 C 
ATOM     11  O   UNL     1      -9.816  21.477   8.473  1.00  0.00    -0.275 OA
ATOM     12  N   UNL     1      -8.038  22.212   9.802  1.00  0.00    -0.352 N 
ATOM     13  H   UNL     1      -7.649  22.280  10.770  1.00  0.00     0.163 HD
BRANCH  12  14
ATOM     14  C   UNL     1      -7.276  22.818   8.715  1.00  0.00     0.151 C 
BRANCH  14  15
ATOM     15  C   UNL     1      -5.903  23.185   9.209  1.00  0.00    -0.025 A 
ATOM     16  C   UNL     1      -4.901  23.576   8.308  1.00  0.00     0.056 A 
ATOM     17  C   UNL     1      -5.644  23.221  10.587  1.00  0.00     0.009 A 
ATOM     18  C   UNL     1      -3.640  23.999   8.779  1.00  0.00     0.160 A 
ATOM     19  C   UNL     1      -4.397  23.635  11.059  1.00  0.00     0.050 A 
ATOM     20  C   UNL     1      -3.397  24.028  10.160  1.00  0.00     0.157 A 
BRANCH  18  21
ATOM     21  O   UNL     1      -2.614  24.404   7.912  1.00  0.00    -0.493 OA
ATOM     22  C   UNL     1      -2.694  24.361   6.493  1.00  0.00     0.278 C 
ENDBRANCH  18  21
BRANCH  20  23
ATOM     23  O   UNL     1      -2.155  24.451  10.633  1.00  0.00    -0.504 OA
ATOM     24  H   UNL     1      -1.424  23.791  10.871  1.00  0.00     0.293 HD
ENDBRANCH  20  23
ENDBRANCH  14  15
ENDBRANCH  12  14
ENDBRANCH   9  10
ENDBRANCH   1   9
TORSDOF 10
ENDMDL
MODEL 4
REMARK VINA RESULT:    -4.421      1.111      2.086
REMARK INTER + INTRA:          -7.494
REMARK INTER:                  -6.757
REMARK INTRA:                  -0.737
REMARK UNBOUND:                -0.617
REMARK SMILES COc1cc(CNC(=O)CCCCC=CC(C)C)ccc1O
REMARK SMILES IDX 11 1 12 2 13 3 14 4 15 5 16 6 17 7 18 8 10 9 8 10 9 11 7 12
REMARK SMILES IDX 6 14 5 15 4 16 19 17 3 18 20 19 21 20 2 21 1 22 22 23
REMARK H PARENT 7 13 22 24
REMARK Flexibility Score: inf
ROOT
ATOM      1  C   UNL     1      -7.963  23.889  13.650  1.00  0.00     0.010 C 
ENDROOT
BRANCH   1   2
ATOM      2  C   UNL     1      -8.898  24.314  14.803  1.00  0.00     0.005 C 
BRANCH   2   3
ATOM      3  C   UNL     1      -8.894  23.365  16.013  1.00  0.00     0.027 C 
BRANCH   3   4
ATOM      4  C   UNL     1      -8.259  23.979  17.230  1.00  0.00    -0.031 C 
ATOM      5  C   UNL     1      -7.155  23.458  17.787  1.00  0.00    -0.028 C 
BRANCH   5   6
ATOM      6  C   UNL     1      -6.518  24.086  19.005  1.00  0.00     0.005 C 
ATOM      7  C   UNL     1      -6.280  23.029  20.088  1.00  0.00     0.012 C 
ATOM      8  C   UNL     1      -5.198  24.774  18.627  1.00  0.00     0.012 C 
ENDBRANCH   5   6
ENDBRANCH   3   4
ENDBRANCH   2   3
ENDBRANCH   1   2
BRANCH   1   9
ATOM      9  C   UNL     1      -7.509  22.421  13.696  1.00  0.00     0.100 C 
BRANCH   9  10
ATOM     10  C   UNL     1      -6.907  21.969  12.397  1.00  0.00     0.220 C 
ATOM     11  O   UNL     1      -6.388  20.823  12.318  1.00  0.00    -0.275 OA
ATOM     12  N   UNL     1      -6.934  22.830  11.250  1.00  0.00    -0.352 N 
ATOM     13  H   UNL     1      -7.212  23.830  11.373  1.00  0.00     0.163 HD
BRANCH  12  14
ATOM     14  C   UNL     1      -6.839  22.310   9.890  1.00  0.00     0.151 C 
BRANCH  14  15
ATOM     15  C   UNL     1      -5.676  22.955   9.186  1.00  0.00    -0.025 A 
ATOM     16  C   UNL     1      -4.626  23.526   9.920  1.00  0.00     0.056 A 
ATOM     17  C   UNL     1      -5.596  22.910   7.787  1.00  0.00     0.009 A 
ATOM     18  C   UNL     1      -3.497  24.056   9.260  1.00  0.00     0.160 A 
ATOM     19  C   UNL     1      -4.483  23.436   7.128  1.00  0.00     0.050 A 
ATOM     20  C   UNL     1      -3.433  24.005   7.860  1.00  0.00     0.157 A 
BRANCH  18  21
ATOM     21  O   UNL     1      -2.423  24.631   9.957  1.00  0.00    -0.493 OA
ATOM     22  C   UNL     1      -2.377  25.984  10.392  1.00  0.00     0.278 C 
ENDBRANCH  18  21
BRANCH  20  23
ATOM     23  O   UNL     1      -2.318  24.522   7.201  1.00  0.00    -0.504 OA
ATOM     24  H   UNL     1      -1.724  25.221   7.630  1.00  0.00     0.293 HD
ENDBRANCH  20  23
ENDBRANCH  14  15
ENDBRANCH  12  14
ENDBRANCH   9  10
ENDBRANCH   1   9
TORSDOF 10
ENDMDL
MODEL 5
REMARK VINA RESULT:    -4.396      4.524      6.996
REMARK INTER + INTRA:          -7.454
REMARK INTER:                  -5.526
REMARK INTRA:                  -1.928
REMARK UNBOUND:                -0.617
REMARK SMILES COc1cc(CNC(=O)CCCCC=CC(C)C)ccc1O
REMARK SMILES IDX 11 1 12 2 13 3 14 4 15 5 16 6 17 7 18 8 10 9 8 10 9 11 7 12
REMARK SMILES IDX 6 14 5 15 4 16 19 17 3 18 20 19 21 20 2 21 1 22 22 23
REMARK H PARENT 7 13 22 24
REMARK Flexibility Score: inf
ROOT
ATOM      1  C   UNL     1      -5.861  21.283   5.087  1.00  0.00     0.010 C 
ENDROOT
BRANCH   1   2
ATOM      2  C   UNL     1      -6.409  21.059   6.512  1.00  0.00     0.005 C 
BRANCH   2   3
ATOM      3  C   UNL     1      -6.377  22.305   7.414  1.00  0.00     0.027 C 
BRANCH   3   4
ATOM      4  C   UNL     1      -6.648  21.983   8.857  1.00  0.00    -0.031 C 
ATOM      5  C   UNL     1      -7.672  22.540   9.522  1.00  0.00    -0.028 C 
BRANCH   5   6
ATOM      6  C   UNL     1      -7.943  22.205  10.971  1.00  0.00     0.005 C 
ATOM      7  C   UNL     1      -6.642  21.815  11.682  1.00  0.00     0.012 C 
ATOM      8  C   UNL     1      -8.608  23.392  11.682  1.00  0.00     0.012 C 
ENDBRANCH   5   6
ENDBRANCH   3   4
ENDBRANCH   2   3
ENDBRANCH   1   2
BRANCH   1   9
ATOM      9  C   UNL     1      -4.333  21.425   4.998  1.00  0.00     0.100 C 
BRANCH   9  10
ATOM     10  C   UNL     1      -3.883  22.850   5.142  1.00  0.00     0.220 C 
ATOM     11  O   UNL     1      -4.457  23.754   4.478  1.00  0.00    -0.275 OA
ATOM     12  N   UNL     1      -2.815  23.182   6.040  1.00  0.00    -0.352 N 
ATOM     13  H   UNL     1      -2.241  22.413   6.453  1.00  0.00     0.163 HD
BRANCH  12  14
ATOM     14  C   UNL     1      -2.661  24.523   6.598  1.00  0.00     0.151 C 
BRANCH  14  15
ATOM     15  C   UNL     1      -3.469  24.636   7.862  1.00  0.00    -0.025 A 
ATOM     16  C   UNL     1      -3.097  23.923   9.012  1.00  0.00     0.056 A 
ATOM     17  C   UNL     1      -4.551  25.525   7.921  1.00  0.00     0.009 A 
ATOM     18  C   UNL     1      -3.807  24.094  10.220  1.00  0.00     0.160 A 
ATOM     19  C   UNL     1      -5.259  25.696   9.112  1.00  0.00     0.050 A 
ATOM     20  C   UNL     1      -4.888  24.986  10.261  1.00  0.00     0.157 A 
BRANCH  18  21
ATOM     21  O   UNL     1      -3.464  23.406  11.394  1.00  0.00    -0.493 OA
ATOM     22  C   UNL     1      -2.315  23.685  12.185  1.00  0.00     0.278 C 
ENDBRANCH  18  21
BRANCH  20  23
ATOM     23  O   UNL     1      -5.589  25.165  11.454  1.00  0.00    -0.504 OA
ATOM     24  H   UNL     1      -5.316  24.693  12.307  1.00  0.00     0.293 HD
ENDBRANCH  20  23
ENDBRANCH  14  15
ENDBRANCH  12  14
ENDBRANCH   9  10
ENDBRANCH   1   9
TORSDOF 10
ENDMDL
MODEL 6
REMARK VINA RESULT:    -4.386      2.538      4.175
REMARK INTER + INTRA:          -7.438
REMARK INTER:                  -6.473
REMARK INTRA:                  -0.965
REMARK UNBOUND:                -0.617
REMARK SMILES COc1cc(CNC(=O)CCCCC=CC(C)C)ccc1O
REMARK SMILES IDX 11 1 12 2 13 3 14 4 15 5 16 6 17 7 18 8 10 9 8 10 9 11 7 12
REMARK SMILES IDX 6 14 5 15 4 16 19 17 3 18 20 19 21 20 2 21 1 22 22 23
REMARK H PARENT 7 13 22 24
REMARK Flexibility Score: inf
ROOT
ATOM      1  C   UNL     1      -8.098  23.688  15.592  1.00  0.00     0.010 C 
ENDROOT
BRANCH   1   2
ATOM      2  C   UNL     1      -7.456  24.644  16.620  1.00  0.00     0.005 C 
BRANCH   2   3
ATOM      3  C   UNL     1      -8.030  24.533  18.043  1.00  0.00     0.027 C 
BRANCH   3   4
ATOM      4  C   UNL     1      -6.972  24.257  19.075  1.00  0.00    -0.031 C 
ATOM      5  C   UNL     1      -6.383  23.055  19.176  1.00  0.00    -0.028 C 
BRANCH   5   6
ATOM      6  C   UNL     1      -5.314  22.789  20.211  1.00  0.00     0.005 C 
ATOM      7  C   UNL     1      -3.965  23.341  19.739  1.00  0.00     0.012 C 
ATOM      8  C   UNL     1      -5.705  23.407  21.561  1.00  0.00     0.012 C 
ENDBRANCH   5   6
ENDBRANCH   3   4
ENDBRANCH   2   3
ENDBRANCH   1   2
BRANCH   1   9
ATOM      9  C   UNL     1      -9.359  22.961  16.087  1.00  0.00     0.100 C 
BRANCH   9  10
ATOM     10  C   UNL     1      -9.829  21.911  15.123  1.00  0.00     0.220 C 
ATOM     11  O   UNL     1     -10.988  21.990  14.633  1.00  0.00    -0.275 OA
ATOM     12  N   UNL     1      -8.959  20.833  14.749  1.00  0.00    -0.352 N 
ATOM     13  H   UNL     1      -8.074  20.687  15.284  1.00  0.00     0.163 HD
BRANCH  12  14
ATOM     14  C   UNL     1      -9.133  20.096  13.502  1.00  0.00     0.151 C 
BRANCH  14  15
ATOM     15  C   UNL     1      -8.661  20.941  12.350  1.00  0.00    -0.025 A 
ATOM     16  C   UNL     1      -7.321  21.351  12.268  1.00  0.00     0.056 A 
ATOM     17  C   UNL     1      -9.542  21.249  11.304  1.00  0.00     0.009 A 
ATOM     18  C   UNL     1      -6.861  22.073  11.146  1.00  0.00     0.160 A 
ATOM     19  C   UNL     1      -9.093  21.966  10.193  1.00  0.00     0.050 A 
ATOM     20  C   UNL     1      -7.756  22.375  10.110  1.00  0.00     0.157 A 
BRANCH  18  21
ATOM     21  O   UNL     1      -5.529  22.497  11.023  1.00  0.00    -0.493 OA
ATOM     22  C   UNL     1      -5.063  23.798  11.360  1.00  0.00     0.278 C 
ENDBRANCH  18  21
BRANCH  20  23
ATOM     23  O   UNL     1      -7.307  23.083   8.995  1.00  0.00    -0.504 OA
ATOM     24  H   UNL     1      -7.941  23.618   8.414  1.00  0.00     0.293 HD
ENDBRANCH  20  23
ENDBRANCH  14  15
ENDBRANCH  12  14
ENDBRANCH   9  10
ENDBRANCH   1   9
TORSDOF 10
ENDMDL
MODEL 7
REMARK VINA RESULT:    -4.380      3.503      6.102
REMARK INTER + INTRA:          -7.430
REMARK INTER:                  -6.239
REMARK INTRA:                  -1.191
REMARK UNBOUND:                -0.617
REMARK SMILES COc1cc(CNC(=O)CCCCC=CC(C)C)ccc1O
REMARK SMILES IDX 11 1 12 2 13 3 14 4 15 5 16 6 17 7 18 8 10 9 8 10 9 11 7 12
REMARK SMILES IDX 6 14 5 15 4 16 19 17 3 18 20 19 21 20 2 21 1 22 22 23
REMARK H PARENT 7 13 22 24
REMARK Flexibility Score: inf
ROOT
ATOM      1  C   UNL     1      -5.688  24.370  10.892  1.00  0.00     0.010 C 
ENDROOT
BRANCH   1   2
ATOM      2  C   UNL     1      -5.707  22.875  11.278  1.00  0.00     0.005 C 
BRANCH   2   3
ATOM      3  C   UNL     1      -6.857  22.067  10.652  1.00  0.00     0.027 C 
BRANCH   3   4
ATOM      4  C   UNL     1      -7.938  21.736  11.643  1.00  0.00    -0.031 C 
ATOM      5  C   UNL     1      -7.653  21.249  12.860  1.00  0.00    -0.028 C 
BRANCH   5   6
ATOM      6  C   UNL     1      -8.745  20.927  13.854  1.00  0.00     0.005 C 
ATOM      7  C   UNL     1      -9.511  22.198  14.237  1.00  0.00     0.012 C 
ATOM      8  C   UNL     1      -9.704  19.875  13.277  1.00  0.00     0.012 C 
ENDBRANCH   5   6
ENDBRANCH   3   4
ENDBRANCH   2   3
ENDBRANCH   1   2
BRANCH   1   9
ATOM      9  C   UNL     1      -4.324  25.060  11.048  1.00  0.00     0.100 C 
BRANCH   9  10
ATOM     10  C   UNL     1      -3.440  24.853   9.853  1.00  0.00     0.220 C 
ATOM     11  O   UNL     1      -2.201  24.689  10.016  1.00  0.00    -0.275 OA
ATOM     12  N   UNL     1      -4.003  24.828   8.534  1.00  0.00    -0.352 N 
ATOM     13  H   UNL     1      -4.994  25.130   8.400  1.00  0.00     0.163 HD
BRANCH  12  14
ATOM     14  C   UNL     1      -3.336  24.161   7.420  1.00  0.00     0.151 C 
BRANCH  14  15
ATOM     15  C   UNL     1      -4.216  23.057   6.897  1.00  0.00    -0.025 A 
ATOM     16  C   UNL     1      -5.502  22.861   7.422  1.00  0.00     0.056 A 
ATOM     17  C   UNL     1      -3.784  22.274   5.817  1.00  0.00     0.009 A 
ATOM     18  C   UNL     1      -6.356  21.880   6.875  1.00  0.00     0.160 A 
ATOM     19  C   UNL     1      -4.624  21.300   5.273  1.00  0.00     0.050 A 
ATOM     20  C   UNL     1      -5.908  21.104   5.796  1.00  0.00     0.157 A 
BRANCH  18  21
ATOM     21  O   UNL     1      -7.651  21.656   7.367  1.00  0.00    -0.493 OA
ATOM     22  C   UNL     1      -8.740  22.557   7.210  1.00  0.00     0.278 C 
ENDBRANCH  18  21
BRANCH  20  23
ATOM     23  O   UNL     1      -6.750  20.137   5.246  1.00  0.00    -0.504 OA
ATOM     24  H   UNL     1      -6.438  19.520   4.506  1.00  0.00     0.293 HD
ENDBRANCH  20  23
ENDBRANCH  14  15
ENDBRANCH  12  14
ENDBRANCH   9  10
ENDBRANCH   1   9
TORSDOF 10
ENDMDL
MODEL 8
REMARK VINA RESULT:    -4.320      1.827      3.090
REMARK INTER + INTRA:          -7.336
REMARK INTER:                  -6.509
REMARK INTRA:                  -0.828
REMARK UNBOUND:                -0.617
REMARK SMILES COc1cc(CNC(=O)CCCCC=CC(C)C)ccc1O
REMARK SMILES IDX 11 1 12 2 13 3 14 4 15 5 16 6 17 7 18 8 10 9 8 10 9 11 7 12
REMARK SMILES IDX 6 14 5 15 4 16 19 17 3 18 20 19 21 20 2 21 1 22 22 23
REMARK H PARENT 7 13 22 24
REMARK Flexibility Score: inf
ROOT
ATOM      1  C   UNL     1      -8.591  20.663  13.102  1.00  0.00     0.010 C 
ENDROOT
BRANCH   1   2
ATOM      2  C   UNL     1      -9.231  21.138  14.425  1.00  0.00     0.005 C 
BRANCH   2   3
ATOM      3  C   UNL     1      -9.838  22.550  14.370  1.00  0.00     0.027 C 
BRANCH   3   4
ATOM      4  C   UNL     1      -9.081  23.540  15.211  1.00  0.00    -0.031 C 
ATOM      5  C   UNL     1      -8.209  23.143  16.151  1.00  0.00    -0.028 C 
BRANCH   5   6
ATOM      6  C   UNL     1      -7.445  24.144  16.987  1.00  0.00     0.005 C 
ATOM      7  C   UNL     1      -7.717  25.570  16.494  1.00  0.00     0.012 C 
ATOM      8  C   UNL     1      -7.823  24.007  18.469  1.00  0.00     0.012 C 
ENDBRANCH   5   6
ENDBRANCH   3   4
ENDBRANCH   2   3
ENDBRANCH   1   2
BRANCH   1   9
ATOM      9  C   UNL     1      -7.171  21.192  12.846  1.00  0.00     0.100 C 
BRANCH   9  10
ATOM     10  C   UNL     1      -7.119  22.146  11.687  1.00  0.00     0.220 C 
ATOM     11  O   UNL     1      -8.192  22.603  11.209  1.00  0.00    -0.275 OA
ATOM     12  N   UNL     1      -5.855  22.544  11.137  1.00  0.00    -0.352 N 
ATOM     13  H   UNL     1      -4.992  22.034  11.428  1.00  0.00     0.163 HD
BRANCH  12  14
ATOM     14  C   UNL     1      -5.695  23.788  10.390  1.00  0.00     0.151 C 
BRANCH  14  15
ATOM     15  C   UNL     1      -5.257  23.476   8.985  1.00  0.00    -0.025 A 
ATOM     16  C   UNL     1      -3.991  23.874   8.527  1.00  0.00     0.056 A 
ATOM     17  C   UNL     1      -6.081  22.707   8.152  1.00  0.00     0.009 A 
ATOM     18  C   UNL     1      -3.549  23.509   7.237  1.00  0.00     0.160 A 
ATOM     19  C   UNL     1      -5.651  22.345   6.873  1.00  0.00     0.050 A 
ATOM     20  C   UNL     1      -4.387  22.741   6.417  1.00  0.00     0.157 A 
BRANCH  18  21
ATOM     21  O   UNL     1      -2.290  23.881   6.744  1.00  0.00    -0.493 OA
ATOM     22  C   UNL     1      -2.060  24.972   5.861  1.00  0.00     0.278 C 
ENDBRANCH  18  21
BRANCH  20  23
ATOM     23  O   UNL     1      -3.954  22.371   5.143  1.00  0.00    -0.504 OA
ATOM     24  H   UNL     1      -3.058  22.670   4.779  1.00  0.00     0.293 HD
ENDBRANCH  20  23
ENDBRANCH  14  15
ENDBRANCH  12  14
ENDBRANCH   9  10
ENDBRANCH   1   9
TORSDOF 10
ENDMDL
MODEL 9
REMARK VINA RESULT:    -4.316      2.284      8.625
REMARK INTER + INTRA:          -7.329
REMARK INTER:                  -6.151
REMARK INTRA:                  -1.179
REMARK UNBOUND:                -0.617
REMARK SMILES COc1cc(CNC(=O)CCCCC=CC(C)C)ccc1O
REMARK SMILES IDX 11 1 12 2 13 3 14 4 15 5 16 6 17 7 18 8 10 9 8 10 9 11 7 12
REMARK SMILES IDX 6 14 5 15 4 16 19 17 3 18 20 19 21 20 2 21 1 22 22 23
REMARK H PARENT 7 13 22 24
REMARK Flexibility Score: inf
ROOT
ATOM      1  C   UNL     1      -3.922  25.836  10.982  1.00  0.00     0.010 C 
ENDROOT
BRANCH   1   2
ATOM      2  C   UNL     1      -3.922  26.041   9.452  1.00  0.00     0.005 C 
BRANCH   2   3
ATOM      3  C   UNL     1      -2.996  25.086   8.679  1.00  0.00     0.027 C 
BRANCH   3   4
ATOM      4  C   UNL     1      -3.755  24.053   7.893  1.00  0.00    -0.031 C 
ATOM      5  C   UNL     1      -5.093  24.079   7.805  1.00  0.00    -0.028 C 
BRANCH   5   6
ATOM      6  C   UNL     1      -5.848  23.042   7.005  1.00  0.00     0.005 C 
ATOM      7  C   UNL     1      -4.903  22.319   6.039  1.00  0.00     0.012 C 
ATOM      8  C   UNL     1      -6.532  22.034   7.941  1.00  0.00     0.012 C 
ENDBRANCH   5   6
ENDBRANCH   3   4
ENDBRANCH   2   3
ENDBRANCH   1   2
BRANCH   1   9
ATOM      9  C   UNL     1      -5.238  25.289  11.560  1.00  0.00     0.100 C 
BRANCH   9  10
ATOM     10  C   UNL     1      -5.343  23.798  11.429  1.00  0.00     0.220 C 
ATOM     11  O   UNL     1      -4.293  23.107  11.334  1.00  0.00    -0.275 OA
ATOM     12  N   UNL     1      -6.628  23.161  11.426  1.00  0.00    -0.352 N 
ATOM     13  H   UNL     1      -7.486  23.751  11.336  1.00  0.00     0.163 HD
BRANCH  12  14
ATOM     14  C   UNL     1      -6.799  21.760  11.799  1.00  0.00     0.151 C 
BRANCH  14  15
ATOM     15  C   UNL     1      -7.702  21.667  12.999  1.00  0.00    -0.025 A 
ATOM     16  C   UNL     1      -7.794  22.733  13.907  1.00  0.00     0.056 A 
ATOM     17  C   UNL     1      -8.524  20.544  13.168  1.00  0.00     0.009 A 
ATOM     18  C   UNL     1      -8.703  22.677  14.985  1.00  0.00     0.160 A 
ATOM     19  C   UNL     1      -9.422  20.481  14.235  1.00  0.00     0.050 A 
ATOM     20  C   UNL     1      -9.516  21.546  15.141  1.00  0.00     0.157 A 
BRANCH  18  21
ATOM     21  O   UNL     1      -8.831  23.724  15.911  1.00  0.00    -0.493 OA
ATOM     22  C   UNL     1      -8.013  23.884  17.064  1.00  0.00     0.278 C 
ENDBRANCH  18  21
BRANCH  20  23
ATOM     23  O   UNL     1     -10.421  21.487  16.201  1.00  0.00    -0.504 OA
ATOM     24  H   UNL     1     -10.347  22.108  16.997  1.00  0.00     0.293 HD
ENDBRANCH  20  23
ENDBRANCH  14  15
ENDBRANCH  12  14
ENDBRANCH   9  10
ENDBRANCH   1   9
TORSDOF 10
ENDMDL
