MODEL 1
REMARK VINA RESULT:    -3.230      0.000      0.000
REMARK INTER + INTRA:          -3.437
REMARK INTER:                  -3.418
REMARK INTRA:                  -0.019
REMARK UNBOUND:                -0.019
REMARK SMILES O=C([O-])c1cccnc1
REMARK SMILES IDX 4 1 5 2 9 3 6 4 8 5 7 6 2 7 1 8 3 9
REMARK H PARENT
REMARK Flexibility Score: inf
ROOT
ATOM      1  C   UNL     1       0.497   0.369   7.510  1.00  0.00     0.016 A 
ATOM      2  C   UNL     1       0.268  -0.997   7.282  1.00  0.00     0.013 A 
ATOM      3  C   UNL     1       1.107   0.752   8.719  1.00  0.00     0.120 A 
ATOM      4  C   UNL     1       0.643  -1.940   8.240  1.00  0.00     0.021 A 
ATOM      5  N   UNL     1       1.462  -0.188   9.636  1.00  0.00    -0.264 NA
ATOM      6  C   UNL     1       1.245  -1.512   9.424  1.00  0.00     0.111 A 
ENDROOT
BRANCH   1   7
ATOM      7  C   UNL     1       0.105   1.379   6.503  1.00  0.00     0.073 C 
ATOM      8  O   UNL     1       0.520   1.294   5.316  1.00  0.00    -0.545 OA
ATOM      9  O   UNL     1      -0.727   2.435   6.852  1.00  0.00    -0.545 OA
ENDBRANCH   1   7
TORSDOF 1
ENDMDL
MODEL 2
REMARK VINA RESULT:    -3.212     13.671     14.416
REMARK INTER + INTRA:          -3.418
REMARK INTER:                  -3.402
REMARK INTRA:                  -0.017
REMARK UNBOUND:                -0.019
REMARK SMILES O=C([O-])c1cccnc1
REMARK SMILES IDX 4 1 5 2 9 3 6 4 8 5 7 6 2 7 1 8 3 9
REMARK H PARENT
REMARK Flexibility Score: inf
ROOT
ATOM      1  C   UNL     1      -6.354  -1.881  -4.525  1.00  0.00     0.016 A 
ATOM      2  C   UNL     1      -7.085  -1.879  -3.326  1.00  0.00     0.013 A 
ATOM      3  C   UNL     1      -5.822  -0.663  -4.985  1.00  0.00     0.120 A 
ATOM      4  C   UNL     1      -7.270  -0.690  -2.620  1.00  0.00     0.021 A 
ATOM      5  N   UNL     1      -6.018   0.482  -4.277  1.00  0.00    -0.264 NA
ATOM      6  C   UNL     1      -6.723   0.494  -3.116  1.00  0.00     0.111 A 
ENDROOT
BRANCH   1   7
ATOM      7  C   UNL     1      -6.151  -3.135  -5.283  1.00  0.00     0.073 C 
ATOM      8  O   UNL     1      -5.025  -3.699  -5.299  1.00  0.00    -0.545 OA
ATOM      9  O   UNL     1      -7.202  -3.708  -5.990  1.00  0.00    -0.545 OA
ENDBRANCH   1   7
TORSDOF 1
ENDMDL
MODEL 3
REMARK VINA RESULT:    -3.181      1.860      2.222
REMARK INTER + INTRA:          -3.386
REMARK INTER:                  -3.364
REMARK INTRA:                  -0.022
REMARK UNBOUND:                -0.019
REMARK SMILES O=C([O-])c1cccnc1
REMARK SMILES IDX 4 1 5 2 9 3 6 4 8 5 7 6 2 7 1 8 3 9
REMARK H PARENT
REMARK Flexibility Score: inf
ROOT
ATOM      1  C   UNL     1      -0.682  -0.090   6.904  1.00  0.00     0.016 A 
ATOM      2  C   UNL     1       0.414  -0.813   7.403  1.00  0.00     0.013 A 
ATOM      3  C   UNL     1      -1.973  -0.608   7.108  1.00  0.00     0.120 A 
ATOM      4  C   UNL     1       0.210  -2.015   8.082  1.00  0.00     0.021 A 
ATOM      5  N   UNL     1      -2.144  -1.782   7.774  1.00  0.00    -0.264 NA
ATOM      6  C   UNL     1      -1.091  -2.489   8.260  1.00  0.00     0.111 A 
ENDROOT
BRANCH   1   7
ATOM      7  C   UNL     1      -0.478   1.185   6.182  1.00  0.00     0.073 C 
ATOM      8  O   UNL     1       0.563   1.377   5.500  1.00  0.00    -0.545 OA
ATOM      9  O   UNL     1      -1.436   2.191   6.248  1.00  0.00    -0.545 OA
ENDBRANCH   1   7
TORSDOF 1
ENDMDL
MODEL 4
REMARK VINA RESULT:    -3.104     13.599     14.407
REMARK INTER + INTRA:          -3.304
REMARK INTER:                  -3.286
REMARK INTRA:                  -0.017
REMARK UNBOUND:                -0.019
REMARK SMILES O=C([O-])c1cccnc1
REMARK SMILES IDX 4 1 5 2 9 3 6 4 8 5 7 6 2 7 1 8 3 9
REMARK H PARENT
REMARK Flexibility Score: inf
ROOT
ATOM      1  C   UNL     1      -6.497  -2.225  -4.383  1.00  0.00     0.016 A 
ATOM      2  C   UNL     1      -5.984  -0.942  -4.637  1.00  0.00     0.013 A 
ATOM      3  C   UNL     1      -7.330  -2.401  -3.263  1.00  0.00     0.120 A 
ATOM      4  C   UNL     1      -6.303   0.121  -3.791  1.00  0.00     0.021 A 
ATOM      5  N   UNL     1      -7.625  -1.348  -2.455  1.00  0.00    -0.264 NA
ATOM      6  C   UNL     1      -7.134  -0.104  -2.693  1.00  0.00     0.111 A 
ENDROOT
BRANCH   1   7
ATOM      7  C   UNL     1      -6.166  -3.359  -5.272  1.00  0.00     0.073 C 
ATOM      8  O   UNL     1      -4.979  -3.767  -5.375  1.00  0.00    -0.545 OA
ATOM      9  O   UNL     1      -7.162  -3.991  -6.006  1.00  0.00    -0.545 OA
ENDBRANCH   1   7
TORSDOF 1
ENDMDL
MODEL 5
REMARK VINA RESULT:    -3.018     14.229     15.071
REMARK INTER + INTRA:          -3.213
REMARK INTER:                  -3.192
REMARK INTRA:                  -0.021
REMARK UNBOUND:                -0.019
REMARK SMILES O=C([O-])c1cccnc1
REMARK SMILES IDX 4 1 5 2 9 3 6 4 8 5 7 6 2 7 1 8 3 9
REMARK H PARENT
REMARK Flexibility Score: inf
ROOT
ATOM      1  C   UNL     1      -6.545  -1.158  -5.224  1.00  0.00     0.016 A 
ATOM      2  C   UNL     1      -5.706  -2.008  -4.485  1.00  0.00     0.013 A 
ATOM      3  C   UNL     1      -7.557  -1.738  -6.010  1.00  0.00     0.120 A 
ATOM      4  C   UNL     1      -5.884  -3.391  -4.540  1.00  0.00     0.021 A 
ATOM      5  N   UNL     1      -7.709  -3.089  -6.045  1.00  0.00    -0.264 NA
ATOM      6  C   UNL     1      -6.903  -3.919  -5.335  1.00  0.00     0.111 A 
ENDROOT
BRANCH   1   7
ATOM      7  C   UNL     1      -6.366   0.309  -5.174  1.00  0.00     0.073 C 
ATOM      8  O   UNL     1      -6.004   0.874  -4.108  1.00  0.00    -0.545 OA
ATOM      9  O   UNL     1      -6.594   1.084  -6.305  1.00  0.00    -0.545 OA
ENDBRANCH   1   7
TORSDOF 1
ENDMDL
MODEL 6
REMARK VINA RESULT:    -2.953      2.171      3.023
REMARK INTER + INTRA:          -3.144
REMARK INTER:                  -3.122
REMARK INTRA:                  -0.022
REMARK UNBOUND:                -0.019
REMARK SMILES O=C([O-])c1cccnc1
REMARK SMILES IDX 4 1 5 2 9 3 6 4 8 5 7 6 2 7 1 8 3 9
REMARK H PARENT
REMARK Flexibility Score: inf
ROOT
ATOM      1  C   UNL     1      -1.478   1.126   6.509  1.00  0.00     0.016 A 
ATOM      2  C   UNL     1      -0.133   1.453   6.272  1.00  0.00     0.013 A 
ATOM      3  C   UNL     1      -1.769  -0.127   7.079  1.00  0.00     0.120 A 
ATOM      4  C   UNL     1       0.877   0.549   6.599  1.00  0.00     0.021 A 
ATOM      5  N   UNL     1      -0.765  -0.990   7.389  1.00  0.00    -0.264 NA
ATOM      6  C   UNL     1       0.538  -0.682   7.163  1.00  0.00     0.111 A 
ENDROOT
BRANCH   1   7
ATOM      7  C   UNL     1      -2.558   2.076   6.166  1.00  0.00     0.073 C 
ATOM      8  O   UNL     1      -2.337   3.316   6.143  1.00  0.00    -0.545 OA
ATOM      9  O   UNL     1      -3.833   1.613   5.865  1.00  0.00    -0.545 OA
ENDBRANCH   1   7
TORSDOF 1
ENDMDL
MODEL 7
REMARK VINA RESULT:    -2.911      2.148      2.716
REMARK INTER + INTRA:          -3.099
REMARK INTER:                  -3.077
REMARK INTRA:                  -0.023
REMARK UNBOUND:                -0.019
REMARK SMILES O=C([O-])c1cccnc1
REMARK SMILES IDX 4 1 5 2 9 3 6 4 8 5 7 6 2 7 1 8 3 9
REMARK H PARENT
REMARK Flexibility Score: inf
ROOT
ATOM      1  C   UNL     1      -1.117   0.016   6.819  1.00  0.00     0.016 A 
ATOM      2  C   UNL     1      -2.477  -0.257   7.035  1.00  0.00     0.013 A 
ATOM      3  C   UNL     1      -0.173  -0.959   7.191  1.00  0.00     0.120 A 
ATOM      4  C   UNL     1      -2.868  -1.469   7.605  1.00  0.00     0.021 A 
ATOM      5  N   UNL     1      -0.581  -2.132   7.746  1.00  0.00    -0.264 NA
ATOM      6  C   UNL     1      -1.895  -2.405   7.958  1.00  0.00     0.111 A 
ENDROOT
BRANCH   1   7
ATOM      7  C   UNL     1      -0.690   1.297   6.215  1.00  0.00     0.073 C 
ATOM      8  O   UNL     1      -1.425   2.317   6.291  1.00  0.00    -0.545 OA
ATOM      9  O   UNL     1       0.529   1.391   5.555  1.00  0.00    -0.545 OA
ENDBRANCH   1   7
TORSDOF 1
ENDMDL
MODEL 8
REMARK VINA RESULT:    -2.882     13.465     13.679
REMARK INTER + INTRA:          -3.069
REMARK INTER:                  -3.045
REMARK INTRA:                  -0.024
REMARK UNBOUND:                -0.019
REMARK SMILES O=C([O-])c1cccnc1
REMARK SMILES IDX 4 1 5 2 9 3 6 4 8 5 7 6 2 7 1 8 3 9
REMARK H PARENT
REMARK Flexibility Score: inf
ROOT
ATOM      1  C   UNL     1      -6.665  -0.936  -3.629  1.00  0.00     0.016 A 
ATOM      2  C   UNL     1      -5.762  -1.534  -4.522  1.00  0.00     0.013 A 
ATOM      3  C   UNL     1      -7.508  -1.770  -2.872  1.00  0.00     0.120 A 
ATOM      4  C   UNL     1      -5.713  -2.922  -4.645  1.00  0.00     0.021 A 
ATOM      5  N   UNL     1      -7.440  -3.122  -3.012  1.00  0.00    -0.264 NA
ATOM      6  C   UNL     1      -6.569  -3.709  -3.873  1.00  0.00     0.111 A 
ENDROOT
BRANCH   1   7
ATOM      7  C   UNL     1      -6.727   0.535  -3.489  1.00  0.00     0.073 C 
ATOM      8  O   UNL     1      -5.924   1.273  -4.120  1.00  0.00    -0.545 OA
ATOM      9  O   UNL     1      -7.673   1.124  -2.659  1.00  0.00    -0.545 OA
ENDBRANCH   1   7
TORSDOF 1
ENDMDL
MODEL 9
REMARK VINA RESULT:    -2.832      3.214      4.315
REMARK INTER + INTRA:          -3.016
REMARK INTER:                  -3.000
REMARK INTRA:                  -0.016
REMARK UNBOUND:                -0.019
REMARK SMILES O=C([O-])c1cccnc1
REMARK SMILES IDX 4 1 5 2 9 3 6 4 8 5 7 6 2 7 1 8 3 9
REMARK H PARENT
REMARK Flexibility Score: inf
ROOT
ATOM      1  C   UNL     1      -1.723   1.426   6.530  1.00  0.00     0.016 A 
ATOM      2  C   UNL     1      -2.680   2.363   6.110  1.00  0.00     0.013 A 
ATOM      3  C   UNL     1      -2.147   0.110   6.791  1.00  0.00     0.120 A 
ATOM      4  C   UNL     1      -4.015   1.984   5.960  1.00  0.00     0.021 A 
ATOM      5  N   UNL     1      -3.454  -0.233   6.637  1.00  0.00    -0.264 NA
ATOM      6  C   UNL     1      -4.387   0.667   6.232  1.00  0.00     0.111 A 
ENDROOT
BRANCH   1   7
ATOM      7  C   UNL     1      -0.306   1.815   6.692  1.00  0.00     0.073 C 
ATOM      8  O   UNL     1       0.535   1.568   5.787  1.00  0.00    -0.545 OA
ATOM      9  O   UNL     1       0.118   2.461   7.847  1.00  0.00    -0.545 OA
ENDBRANCH   1   7
TORSDOF 1
ENDMDL
