MODEL 1
REMARK VINA RESULT:    -3.412      0.000      0.000
REMARK INTER + INTRA:          -5.361
REMARK INTER:                  -5.208
REMARK INTRA:                  -0.153
REMARK UNBOUND:                -0.153
REMARK SMILES CC1=CCC[C@H](C)C(=O)C[C@H](C(C)C)C(=O)C1
REMARK SMILES IDX 8 1 9 2 6 3 7 4 5 5 4 6 3 7 2 8 1 9 10 11 11 12 15 13 16 14
REMARK SMILES IDX 17 15 12 17 13 18 14 19
REMARK H PARENT
REMARK Flexibility Score: 70.00
ROOT
ATOM      1  C   UNL     1      31.302   9.433 105.549  1.00  0.00     0.136 C 
ATOM      2  O   UNL     1      31.123   8.441 104.857  1.00  0.00    -0.299 OA
ENDROOT
BRANCH   1   3
ATOM      3  C   UNL     1      31.013  10.803 104.967  1.00  0.00     0.053 C 
ATOM      4  C   UNL     1      29.661  11.330 105.461  1.00  0.00     0.016 C 
BRANCH   3   5
ATOM      5  C   UNL     1      32.169  11.775 105.331  1.00  0.00     0.015 C 
BRANCH   5   6
ATOM      6  C   UNL     1      33.571  11.312 104.890  1.00  0.00     0.028 C 
BRANCH   6   7
ATOM      7  C   UNL     1      34.719  11.700 105.801  1.00  0.00    -0.028 C 
ATOM      8  C   UNL     1      35.440  10.867 106.590  1.00  0.00    -0.070 CG0
ATOM      9  C   UNL     1      36.489  11.472 107.490  1.00  0.00     0.039 C 
ATOM     10  G   UNL     1      35.293   9.357 106.569  1.00  0.00     0.000 G0
ENDBRANCH   6   7
ENDBRANCH   5   6
ENDBRANCH   3   5
ENDBRANCH   1   3
BRANCH   1  11
ATOM     11  C   UNL     1      31.809   9.251 106.965  1.00  0.00     0.087 C 
BRANCH  11  12
ATOM     12  C   UNL     1      32.935   8.188 107.100  1.00  0.00     0.066 C 
BRANCH  12  13
ATOM     13  C   UNL     1      34.263   8.803 107.544  1.00  0.00     0.140 C 
ATOM     14  O   UNL     1      34.523   8.844 108.737  1.00  0.00    -0.299 OA
BRANCH  13  15
ATOM     15  C   UNL     1      35.303   9.347 106.577  1.00  0.00     0.106 CG0
ATOM     16  G   UNL     1      35.440  10.857 106.590  1.00  0.00     0.000 G0
ENDBRANCH  13  15
ENDBRANCH  12  13
BRANCH  12  17
ATOM     17  C   UNL     1      32.555   6.977 108.010  1.00  0.00    -0.006 C 
ATOM     18  C   UNL     1      31.384   7.245 108.972  1.00  0.00     0.008 C 
ATOM     19  C   UNL     1      32.273   5.711 107.186  1.00  0.00     0.008 C 
ENDBRANCH  12  17
ENDBRANCH  11  12
ENDBRANCH   1  11
TORSDOF 1
ENDMDL
MODEL 2
REMARK VINA RESULT:    -3.274      1.906      4.334
REMARK INTER + INTRA:          -5.149
REMARK INTER:                  -5.066
REMARK INTRA:                  -0.083
REMARK UNBOUND:                -0.153
REMARK SMILES CC1=CCC[C@H](C)C(=O)C[C@H](C(C)C)C(=O)C1
REMARK SMILES IDX 8 1 9 2 6 3 7 4 5 5 4 6 3 7 2 8 1 9 10 11 11 12 15 13 16 14
REMARK SMILES IDX 17 15 12 17 13 18 14 19
REMARK H PARENT
REMARK Flexibility Score: 70.00
ROOT
ATOM      1  C   UNL     1      32.808   9.233 106.302  1.00  0.00     0.136 C 
ATOM      2  O   UNL     1      31.813   8.537 106.152  1.00  0.00    -0.299 OA
ENDROOT
BRANCH   1   3
ATOM      3  C   UNL     1      33.572   9.160 107.609  1.00  0.00     0.053 C 
ATOM      4  C   UNL     1      33.306   7.828 108.321  1.00  0.00     0.016 C 
BRANCH   3   5
ATOM      5  C   UNL     1      35.088   9.365 107.335  1.00  0.00     0.015 C 
BRANCH   5   6
ATOM      6  C   UNL     1      35.689  10.651 107.933  1.00  0.00     0.028 C 
BRANCH   6   7
ATOM      7  C   UNL     1      36.731  11.357 107.087  1.00  0.00    -0.028 C 
ATOM      8  C   UNL     1      36.514  12.388 106.236  1.00  0.00    -0.070 CG0
ATOM      9  C   UNL     1      37.680  12.891 105.420  1.00  0.00     0.039 C 
ATOM     10  G   UNL     1      35.183  13.103 106.106  1.00  0.00     0.000 G0
ENDBRANCH   6   7
ENDBRANCH   5   6
ENDBRANCH   3   5
ENDBRANCH   1   3
BRANCH   1  11
ATOM     11  C   UNL     1      33.235  10.144 105.170  1.00  0.00     0.087 C 
BRANCH  11  12
ATOM     12  C   UNL     1      33.006  11.655 105.454  1.00  0.00     0.066 C 
BRANCH  12  13
ATOM     13  C   UNL     1      34.220  12.507 105.081  1.00  0.00     0.140 C 
ATOM     14  O   UNL     1      34.436  12.739 103.900  1.00  0.00    -0.299 OA
BRANCH  13  15
ATOM     15  C   UNL     1      35.170  13.112 106.102  1.00  0.00     0.106 CG0
ATOM     16  G   UNL     1      36.495  12.385 106.233  1.00  0.00     0.000 G0
ENDBRANCH  13  15
ENDBRANCH  12  13
BRANCH  12  17
ATOM     17  C   UNL     1      31.707  12.231 104.806  1.00  0.00    -0.006 C 
ATOM     18  C   UNL     1      30.423  11.460 105.161  1.00  0.00     0.008 C 
ATOM     19  C   UNL     1      31.524  13.724 105.124  1.00  0.00     0.008 C 
ENDBRANCH  12  17
ENDBRANCH  11  12
ENDBRANCH   1  11
TORSDOF 1
ENDMDL
MODEL 3
REMARK VINA RESULT:    -3.141      1.529      3.868
REMARK INTER + INTRA:          -4.946
REMARK INTER:                  -4.954
REMARK INTRA:                   0.008
REMARK UNBOUND:                -0.153
REMARK SMILES CC1=CCC[C@H](C)C(=O)C[C@H](C(C)C)C(=O)C1
REMARK SMILES IDX 8 1 9 2 6 3 7 4 5 5 4 6 3 7 2 8 1 9 10 11 11 12 15 13 16 14
REMARK SMILES IDX 17 15 12 17 13 18 14 19
REMARK H PARENT
REMARK Flexibility Score: 70.00
ROOT
ATOM      1  C   UNL     1      35.485  10.384 107.727  1.00  0.00     0.136 C 
ATOM      2  O   UNL     1      35.343  10.794 108.871  1.00  0.00    -0.299 OA
ENDROOT
BRANCH   1   3
ATOM      3  C   UNL     1      36.300  11.203 106.744  1.00  0.00     0.053 C 
ATOM      4  C   UNL     1      36.468  10.452 105.419  1.00  0.00     0.016 C 
BRANCH   3   5
ATOM      5  C   UNL     1      35.620  12.583 106.533  1.00  0.00     0.015 C 
BRANCH   5   6
ATOM      6  C   UNL     1      34.936  12.769 105.165  1.00  0.00     0.028 C 
BRANCH   6   7
ATOM      7  C   UNL     1      33.420  12.737 105.166  1.00  0.00    -0.028 C 
ATOM      8  C   UNL     1      32.637  11.639 105.037  1.00  0.00    -0.070 CG0
ATOM      9  C   UNL     1      31.142  11.837 104.976  1.00  0.00     0.039 C 
ATOM     10  G   UNL     1      33.176  10.221 105.016  1.00  0.00     0.000 G0
ENDBRANCH   6   7
ENDBRANCH   5   6
ENDBRANCH   3   5
ENDBRANCH   1   3
BRANCH   1  11
ATOM     11  C   UNL     1      34.838   9.071 107.339  1.00  0.00     0.087 C 
BRANCH  11  12
ATOM     12  C   UNL     1      33.286   9.078 107.437  1.00  0.00     0.066 C 
BRANCH  12  13
ATOM     13  C   UNL     1      32.620   9.295 106.079  1.00  0.00     0.140 C 
ATOM     14  O   UNL     1      31.567   8.721 105.841  1.00  0.00    -0.299 OA
BRANCH  13  15
ATOM     15  C   UNL     1      33.179  10.212 105.003  1.00  0.00     0.106 CG0
ATOM     16  G   UNL     1      32.633  11.626 105.038  1.00  0.00     0.000 G0
ENDBRANCH  13  15
ENDBRANCH  12  13
BRANCH  12  17
ATOM     17  C   UNL     1      32.692   7.823 108.151  1.00  0.00    -0.006 C 
ATOM     18  C   UNL     1      33.745   6.872 108.749  1.00  0.00     0.008 C 
ATOM     19  C   UNL     1      31.668   8.211 109.229  1.00  0.00     0.008 C 
ENDBRANCH  12  17
ENDBRANCH  11  12
ENDBRANCH   1  11
TORSDOF 1
ENDMDL
MODEL 4
REMARK VINA RESULT:    -2.967      1.695      4.141
REMARK INTER + INTRA:          -4.681
REMARK INTER:                  -4.545
REMARK INTRA:                  -0.136
REMARK UNBOUND:                -0.153
REMARK SMILES CC1=CCC[C@H](C)C(=O)C[C@H](C(C)C)C(=O)C1
REMARK SMILES IDX 8 1 9 2 6 3 7 4 5 5 4 6 3 7 2 8 1 9 10 11 11 12 15 13 16 14
REMARK SMILES IDX 17 15 12 17 13 18 14 19
REMARK H PARENT
REMARK Flexibility Score: 70.00
ROOT
ATOM      1  C   UNL     1      32.485  10.623 105.269  1.00  0.00     0.136 C 
ATOM      2  O   UNL     1      32.549  11.754 104.806  1.00  0.00    -0.299 OA
ENDROOT
BRANCH   1   3
ATOM      3  C   UNL     1      31.129  10.044 105.622  1.00  0.00     0.053 C 
ATOM      4  C   UNL     1      30.023  11.086 105.418  1.00  0.00     0.016 C 
BRANCH   3   5
ATOM      5  C   UNL     1      30.873   8.770 104.772  1.00  0.00     0.015 C 
BRANCH   5   6
ATOM      6  C   UNL     1      31.061   7.438 105.524  1.00  0.00     0.028 C 
BRANCH   6   7
ATOM      7  C   UNL     1      31.030   7.515 107.037  1.00  0.00    -0.028 C 
ATOM      8  C   UNL     1      32.101   7.529 107.866  1.00  0.00    -0.070 CG0
ATOM      9  C   UNL     1      31.848   7.522 109.354  1.00  0.00     0.039 C 
ATOM     10  G   UNL     1      33.536   7.618 107.382  1.00  0.00     0.000 G0
ENDBRANCH   6   7
ENDBRANCH   5   6
ENDBRANCH   3   5
ENDBRANCH   1   3
BRANCH   1  11
ATOM     11  C   UNL     1      33.769   9.846 105.472  1.00  0.00     0.087 C 
BRANCH  11  12
ATOM     12  C   UNL     1      34.434  10.077 106.858  1.00  0.00     0.066 C 
BRANCH  12  13
ATOM     13  C   UNL     1      34.307   8.858 107.772  1.00  0.00     0.140 C 
ATOM     14  O   UNL     1      34.821   8.896 108.881  1.00  0.00    -0.299 OA
BRANCH  13  15
ATOM     15  C   UNL     1      33.548   7.596 107.393  1.00  0.00     0.106 CG0
ATOM     16  G   UNL     1      32.111   7.560 107.876  1.00  0.00     0.000 G0
ENDBRANCH  13  15
ENDBRANCH  12  13
BRANCH  12  17
ATOM     17  C   UNL     1      35.919  10.553 106.777  1.00  0.00    -0.006 C 
ATOM     18  C   UNL     1      36.400  10.897 105.355  1.00  0.00     0.008 C 
ATOM     19  C   UNL     1      36.191  11.736 107.720  1.00  0.00     0.008 C 
ENDBRANCH  12  17
ENDBRANCH  11  12
ENDBRANCH   1  11
TORSDOF 1
ENDMDL
MODEL 5
REMARK VINA RESULT:    -2.716      2.016      4.806
REMARK INTER + INTRA:          -4.298
REMARK INTER:                  -4.321
REMARK INTRA:                   0.023
REMARK UNBOUND:                -0.153
REMARK SMILES CC1=CCC[C@H](C)C(=O)C[C@H](C(C)C)C(=O)C1
REMARK SMILES IDX 8 1 9 2 6 3 7 4 5 5 4 6 3 7 2 8 1 9 10 11 11 12 15 13 16 14
REMARK SMILES IDX 17 15 12 17 13 18 14 19
REMARK H PARENT
REMARK Flexibility Score: 70.00
ROOT
ATOM      1  C   UNL     1      32.687   8.044 108.195  1.00  0.00     0.136 C 
ATOM      2  O   UNL     1      31.748   8.265 108.948  1.00  0.00    -0.299 OA
ENDROOT
BRANCH   1   3
ATOM      3  C   UNL     1      32.702   6.761 107.388  1.00  0.00     0.053 C 
ATOM      4  C   UNL     1      33.210   5.590 108.236  1.00  0.00     0.016 C 
BRANCH   3   5
ATOM      5  C   UNL     1      31.278   6.484 106.832  1.00  0.00     0.015 C 
BRANCH   5   6
ATOM      6  C   UNL     1      31.009   7.045 105.422  1.00  0.00     0.028 C 
BRANCH   6   7
ATOM      7  C   UNL     1      30.431   8.445 105.359  1.00  0.00    -0.028 C 
ATOM      8  C   UNL     1      31.115   9.591 105.126  1.00  0.00    -0.070 CG0
ATOM      9  C   UNL     1      30.358  10.895 105.192  1.00  0.00     0.039 C 
ATOM     10  G   UNL     1      32.581   9.628 104.739  1.00  0.00     0.000 G0
ENDBRANCH   6   7
ENDBRANCH   5   6
ENDBRANCH   3   5
ENDBRANCH   1   3
BRANCH   1  11
ATOM     11  C   UNL     1      33.801   9.066 108.103  1.00  0.00     0.087 C 
BRANCH  11  12
ATOM     12  C   UNL     1      34.394   9.227 106.675  1.00  0.00     0.066 C 
BRANCH  12  13
ATOM     13  C   UNL     1      33.540  10.139 105.792  1.00  0.00     0.140 C 
ATOM     14  O   UNL     1      33.635  11.350 105.930  1.00  0.00    -0.299 OA
BRANCH  13  15
ATOM     15  C   UNL     1      32.589   9.625 104.723  1.00  0.00     0.106 CG0
ATOM     16  G   UNL     1      31.132   9.598 105.141  1.00  0.00     0.000 G0
ENDBRANCH  13  15
ENDBRANCH  12  13
BRANCH  12  17
ATOM     17  C   UNL     1      35.888   9.682 106.657  1.00  0.00    -0.006 C 
ATOM     18  C   UNL     1      36.415  10.082 105.267  1.00  0.00     0.008 C 
ATOM     19  C   UNL     1      36.150  10.816 107.660  1.00  0.00     0.008 C 
ENDBRANCH  12  17
ENDBRANCH  11  12
ENDBRANCH   1  11
TORSDOF 1
ENDMDL
MODEL 6
REMARK VINA RESULT:    -2.619      2.815      5.652
REMARK INTER + INTRA:          -4.150
REMARK INTER:                  -3.775
REMARK INTRA:                  -0.375
REMARK UNBOUND:                -0.153
REMARK SMILES CC1=CCC[C@H](C)C(=O)C[C@H](C(C)C)C(=O)C1
REMARK SMILES IDX 8 1 9 2 6 3 7 4 5 5 4 6 3 7 2 8 1 9 10 11 11 12 15 13 16 14
REMARK SMILES IDX 17 15 12 17 13 18 14 19
REMARK H PARENT
REMARK Flexibility Score: 70.00
ROOT
ATOM      1  C   UNL     1      35.696  10.771 107.622  1.00  0.00     0.136 C 
ATOM      2  O   UNL     1      35.148  11.095 108.667  1.00  0.00    -0.299 OA
ENDROOT
BRANCH   1   3
ATOM      3  C   UNL     1      35.195   9.551 106.872  1.00  0.00     0.053 C 
ATOM      4  C   UNL     1      35.446   8.274 107.682  1.00  0.00     0.016 C 
BRANCH   3   5
ATOM      5  C   UNL     1      33.688   9.729 106.544  1.00  0.00     0.015 C 
BRANCH   5   6
ATOM      6  C   UNL     1      33.390  10.304 105.145  1.00  0.00     0.028 C 
BRANCH   6   7
ATOM      7  C   UNL     1      32.751  11.678 105.111  1.00  0.00    -0.028 C 
ATOM      8  C   UNL     1      33.357  12.841 104.769  1.00  0.00    -0.070 CG0
ATOM      9  C   UNL     1      32.560  14.117 104.886  1.00  0.00     0.039 C 
ATOM     10  G   UNL     1      34.767  12.921 104.217  1.00  0.00     0.000 G0
ENDBRANCH   6   7
ENDBRANCH   5   6
ENDBRANCH   3   5
ENDBRANCH   1   3
BRANCH   1  11
ATOM     11  C   UNL     1      36.856  11.604 107.120  1.00  0.00     0.087 C 
BRANCH  11  12
ATOM     12  C   UNL     1      36.817  11.886 105.592  1.00  0.00     0.066 C 
BRANCH  12  13
ATOM     13  C   UNL     1      35.878  13.040 105.239  1.00  0.00     0.140 C 
ATOM     14  O   UNL     1      36.031  14.116 105.799  1.00  0.00    -0.299 OA
BRANCH  13  15
ATOM     15  C   UNL     1      34.770  12.937 104.203  1.00  0.00     0.106 CG0
ATOM     16  G   UNL     1      33.375  12.826 104.787  1.00  0.00     0.000 G0
ENDBRANCH  13  15
ENDBRANCH  12  13
BRANCH  12  17
ATOM     17  C   UNL     1      38.225  12.104 104.952  1.00  0.00    -0.006 C 
ATOM     18  C   UNL     1      39.405  11.756 105.877  1.00  0.00     0.008 C 
ATOM     19  C   UNL     1      38.368  11.353 103.619  1.00  0.00     0.008 C 
ENDBRANCH  12  17
ENDBRANCH  11  12
ENDBRANCH   1  11
TORSDOF 1
ENDMDL
MODEL 7
REMARK VINA RESULT:    -2.574      2.380      5.431
REMARK INTER + INTRA:          -4.081
REMARK INTER:                  -3.823
REMARK INTRA:                  -0.258
REMARK UNBOUND:                -0.153
REMARK SMILES CC1=CCC[C@H](C)C(=O)C[C@H](C(C)C)C(=O)C1
REMARK SMILES IDX 8 1 9 2 6 3 7 4 5 5 4 6 3 7 2 8 1 9 10 11 11 12 15 13 16 14
REMARK SMILES IDX 17 15 12 17 13 18 14 19
REMARK H PARENT
REMARK Flexibility Score: 70.00
ROOT
ATOM      1  C   UNL     1      33.198   6.615 108.363  1.00  0.00     0.136 C 
ATOM      2  O   UNL     1      33.666   6.327 109.456  1.00  0.00    -0.299 OA
ENDROOT
BRANCH   1   3
ATOM      3  C   UNL     1      33.008   5.523 107.328  1.00  0.00     0.053 C 
ATOM      4  C   UNL     1      34.042   4.407 107.520  1.00  0.00     0.016 C 
BRANCH   3   5
ATOM      5  C   UNL     1      31.558   4.975 107.415  1.00  0.00     0.015 C 
BRANCH   5   6
ATOM      6  C   UNL     1      30.474   5.910 106.845  1.00  0.00     0.028 C 
BRANCH   6   7
ATOM      7  C   UNL     1      30.627   6.302 105.389  1.00  0.00    -0.028 C 
ATOM      8  C   UNL     1      30.783   7.557 104.903  1.00  0.00    -0.070 CG0
ATOM      9  C   UNL     1      30.831   7.738 103.406  1.00  0.00     0.039 C 
ATOM     10  G   UNL     1      30.976   8.778 105.782  1.00  0.00     0.000 G0
ENDBRANCH   6   7
ENDBRANCH   5   6
ENDBRANCH   3   5
ENDBRANCH   1   3
BRANCH   1  11
ATOM     11  C   UNL     1      32.827   8.058 108.087  1.00  0.00     0.087 C 
BRANCH  11  12
ATOM     12  C   UNL     1      33.473   8.641 106.799  1.00  0.00     0.066 C 
BRANCH  12  13
ATOM     13  C   UNL     1      32.437   9.252 105.856  1.00  0.00     0.140 C 
ATOM     14  O   UNL     1      32.779  10.162 105.115  1.00  0.00    -0.299 OA
BRANCH  13  15
ATOM     15  C   UNL     1      30.996   8.774 105.763  1.00  0.00     0.106 CG0
ATOM     16  G   UNL     1      30.797   7.550 104.891  1.00  0.00     0.000 G0
ENDBRANCH  13  15
ENDBRANCH  12  13
BRANCH  12  17
ATOM     17  C   UNL     1      34.633   9.649 107.073  1.00  0.00    -0.006 C 
ATOM     18  C   UNL     1      35.027   9.779 108.556  1.00  0.00     0.008 C 
ATOM     19  C   UNL     1      35.878   9.330 106.230  1.00  0.00     0.008 C 
ENDBRANCH  12  17
ENDBRANCH  11  12
ENDBRANCH   1  11
TORSDOF 1
ENDMDL
MODEL 8
REMARK VINA RESULT:    -2.281      3.703      6.469
REMARK INTER + INTRA:          -3.634
REMARK INTER:                  -3.961
REMARK INTRA:                   0.328
REMARK UNBOUND:                -0.153
REMARK SMILES CC1=CCC[C@H](C)C(=O)C[C@H](C(C)C)C(=O)C1
REMARK SMILES IDX 8 1 9 2 6 3 7 4 5 5 4 6 3 7 2 8 1 9 10 11 11 12 15 13 16 14
REMARK SMILES IDX 17 15 12 17 13 18 14 19
REMARK H PARENT
REMARK Flexibility Score: 70.00
ROOT
ATOM      1  C   UNL     1      38.595  11.372 103.954  1.00  0.00     0.136 C 
ATOM      2  O   UNL     1      38.324  10.355 103.331  1.00  0.00    -0.299 OA
ENDROOT
BRANCH   1   3
ATOM      3  C   UNL     1      40.048  11.699 104.240  1.00  0.00     0.053 C 
ATOM      4  C   UNL     1      40.942  11.275 103.069  1.00  0.00     0.016 C 
BRANCH   3   5
ATOM      5  C   UNL     1      40.188  13.216 104.541  1.00  0.00     0.015 C 
BRANCH   5   6
ATOM      6  C   UNL     1      40.465  13.564 106.016  1.00  0.00     0.028 C 
BRANCH   6   7
ATOM      7  C   UNL     1      39.289  14.099 106.809  1.00  0.00    -0.028 C 
ATOM      8  C   UNL     1      38.258  13.376 107.309  1.00  0.00    -0.070 CG0
ATOM      9  C   UNL     1      37.138  14.119 107.997  1.00  0.00     0.039 C 
ATOM     10  G   UNL     1      38.199  11.861 107.272  1.00  0.00     0.000 G0
ENDBRANCH   6   7
ENDBRANCH   5   6
ENDBRANCH   3   5
ENDBRANCH   1   3
BRANCH   1  11
ATOM     11  C   UNL     1      37.463  12.265 104.418  1.00  0.00     0.087 C 
BRANCH  11  12
ATOM     12  C   UNL     1      36.401  11.537 105.288  1.00  0.00     0.066 C 
BRANCH  12  13
ATOM     13  C   UNL     1      36.890  11.291 106.716  1.00  0.00     0.140 C 
ATOM     14  O   UNL     1      36.218  10.586 107.456  1.00  0.00    -0.299 OA
BRANCH  13  15
ATOM     15  C   UNL     1      38.189  11.854 107.270  1.00  0.00     0.106 CG0
ATOM     16  G   UNL     1      38.247  13.369 107.312  1.00  0.00     0.000 G0
ENDBRANCH  13  15
ENDBRANCH  12  13
BRANCH  12  17
ATOM     17  C   UNL     1      35.003  12.233 105.295  1.00  0.00    -0.006 C 
ATOM     18  C   UNL     1      34.874  13.412 104.314  1.00  0.00     0.008 C 
ATOM     19  C   UNL     1      33.864  11.229 105.056  1.00  0.00     0.008 C 
ENDBRANCH  12  17
ENDBRANCH  11  12
ENDBRANCH   1  11
TORSDOF 1
ENDMDL
MODEL 9
REMARK VINA RESULT:    -2.241      3.414      6.267
REMARK INTER + INTRA:          -3.573
REMARK INTER:                  -4.388
REMARK INTRA:                   0.815
REMARK UNBOUND:                -0.153
REMARK SMILES CC1=CCC[C@H](C)C(=O)C[C@H](C(C)C)C(=O)C1
REMARK SMILES IDX 8 1 9 2 6 3 7 4 5 5 4 6 3 7 2 8 1 9 10 11 11 12 15 13 16 14
REMARK SMILES IDX 17 15 12 17 13 18 14 19
REMARK H PARENT
REMARK Flexibility Score: 70.00
ROOT
ATOM      1  C   UNL     1      36.231  11.169 107.444  1.00  0.00     0.136 C 
ATOM      2  O   UNL     1      35.447  11.525 108.314  1.00  0.00    -0.299 OA
ENDROOT
BRANCH   1   3
ATOM      3  C   UNL     1      35.717  10.346 106.279  1.00  0.00     0.053 C 
ATOM      4  C   UNL     1      35.752   8.850 106.613  1.00  0.00     0.016 C 
BRANCH   3   5
ATOM      5  C   UNL     1      34.283  10.812 105.908  1.00  0.00     0.015 C 
BRANCH   5   6
ATOM      6  C   UNL     1      34.188  12.246 105.354  1.00  0.00     0.028 C 
BRANCH   6   7
ATOM      7  C   UNL     1      35.084  12.567 104.174  1.00  0.00    -0.028 C 
ATOM      8  C   UNL     1      36.177  13.369 104.185  1.00  0.00    -0.070 CG0
ATOM      9  C   UNL     1      36.881  13.626 102.876  1.00  0.00     0.039 C 
ATOM     10  G   UNL     1      36.765  13.967 105.449  1.00  0.00     0.000 G0
ENDBRANCH   6   7
ENDBRANCH   5   6
ENDBRANCH   3   5
ENDBRANCH   1   3
BRANCH   1  11
ATOM     11  C   UNL     1      37.687  11.566 107.570  1.00  0.00     0.087 C 
BRANCH  11  12
ATOM     12  C   UNL     1      38.366  11.913 106.215  1.00  0.00     0.066 C 
BRANCH  12  13
ATOM     13  C   UNL     1      38.144  13.371 105.811  1.00  0.00     0.140 C 
ATOM     14  O   UNL     1      39.109  14.118 105.747  1.00  0.00    -0.299 OA
BRANCH  13  15
ATOM     15  C   UNL     1      36.783  13.947 105.453  1.00  0.00     0.106 CG0
ATOM     16  G   UNL     1      36.169  13.368 104.192  1.00  0.00     0.000 G0
ENDBRANCH  13  15
ENDBRANCH  12  13
BRANCH  12  17
ATOM     17  C   UNL     1      39.883  11.548 106.156  1.00  0.00    -0.006 C 
ATOM     18  C   UNL     1      40.466  11.475 104.733  1.00  0.00     0.008 C 
ATOM     19  C   UNL     1      40.731  12.496 107.019  1.00  0.00     0.008 C 
ENDBRANCH  12  17
ENDBRANCH  11  12
ENDBRANCH   1  11
TORSDOF 1
ENDMDL
