MODEL 1
REMARK VINA RESULT:    -4.214      0.000      0.000
REMARK INTER + INTRA:          -4.460
REMARK INTER:                  -4.460
REMARK INTRA:                   0.000
REMARK UNBOUND:                 0.000
REMARK SMILES O=c1ccc2cc(O)c(O)cc2o1
REMARK SMILES IDX 4 1 3 2 2 3 1 4 13 5 12 6 11 7 9 8 7 9 6 10 5 11 8 12 10 14
REMARK H PARENT 8 13 10 15
REMARK Flexibility Score: inf
ROOT
ATOM      1  C   UNL     1     105.895  96.858  24.128  1.00  0.00     0.019 A 
ATOM      2  C   UNL     1     104.698  96.162  23.955  1.00  0.00     0.094 A 
ATOM      3  C   UNL     1     104.694  94.772  24.111  1.00  0.00     0.336 A 
ATOM      4  O   UNL     1     103.624  94.126  23.959  1.00  0.00    -0.246 OA
ATOM      5  O   UNL     1     105.815  94.125  24.419  1.00  0.00    -0.423 OA
ATOM      6  C   UNL     1     106.978  94.750  24.592  1.00  0.00     0.142 A 
ATOM      7  C   UNL     1     108.124  94.017  24.914  1.00  0.00     0.098 A 
ATOM      8  C   UNL     1     109.352  94.670  25.098  1.00  0.00     0.161 A 
ATOM      9  C   UNL     1     109.431  96.068  24.957  1.00  0.00     0.158 A 
ATOM     10  C   UNL     1     108.285  96.804  24.635  1.00  0.00     0.062 A 
ATOM     11  C   UNL     1     107.058  96.152  24.451  1.00  0.00     0.022 A 
ENDROOT
BRANCH   9  12
ATOM     12  O   UNL     1     110.640  96.742  25.134  1.00  0.00    -0.504 OA
ATOM     13  H   UNL     1     111.012  97.370  24.433  1.00  0.00     0.293 HD
ENDBRANCH   9  12
BRANCH   8  14
ATOM     14  O   UNL     1     110.493  93.936  25.420  1.00  0.00    -0.504 OA
ATOM     15  H   UNL     1     110.565  93.422  26.291  1.00  0.00     0.293 HD
ENDBRANCH   8  14
TORSDOF 2
ENDMDL
MODEL 2
REMARK VINA RESULT:    -4.203      1.273      2.313
REMARK INTER + INTRA:          -4.449
REMARK INTER:                  -4.449
REMARK INTRA:                   0.000
REMARK UNBOUND:                 0.000
REMARK SMILES O=c1ccc2cc(O)c(O)cc2o1
REMARK SMILES IDX 4 1 3 2 2 3 1 4 13 5 12 6 11 7 9 8 7 9 6 10 5 11 8 12 10 14
REMARK H PARENT 8 13 10 15
REMARK Flexibility Score: inf
ROOT
ATOM      1  C   UNL     1     105.623  94.372  24.535  1.00  0.00     0.019 A 
ATOM      2  C   UNL     1     104.538  95.199  24.241  1.00  0.00     0.094 A 
ATOM      3  C   UNL     1     104.756  96.571  24.078  1.00  0.00     0.336 A 
ATOM      4  O   UNL     1     103.791  97.334  23.812  1.00  0.00    -0.246 OA
ATOM      5  O   UNL     1     105.980  97.078  24.202  1.00  0.00    -0.423 OA
ATOM      6  C   UNL     1     107.042  96.325  24.483  1.00  0.00     0.142 A 
ATOM      7  C   UNL     1     108.305  96.913  24.602  1.00  0.00     0.098 A 
ATOM      8  C   UNL     1     109.427  96.125  24.897  1.00  0.00     0.161 A 
ATOM      9  C   UNL     1     109.282  94.737  25.074  1.00  0.00     0.158 A 
ATOM     10  C   UNL     1     108.019  94.145  24.955  1.00  0.00     0.062 A 
ATOM     11  C   UNL     1     106.898  94.932  24.661  1.00  0.00     0.022 A 
ENDROOT
BRANCH   9  12
ATOM     12  O   UNL     1     110.381  93.930  25.368  1.00  0.00    -0.504 OA
ATOM     13  H   UNL     1     110.930  93.484  24.643  1.00  0.00     0.293 HD
ENDBRANCH   9  12
BRANCH   8  14
ATOM     14  O   UNL     1     110.685  96.716  25.014  1.00  0.00    -0.504 OA
ATOM     15  H   UNL     1     111.430  96.512  24.358  1.00  0.00     0.293 HD
ENDBRANCH   8  14
TORSDOF 2
ENDMDL
MODEL 3
REMARK VINA RESULT:    -3.918      2.331      3.052
REMARK INTER + INTRA:          -4.148
REMARK INTER:                  -4.148
REMARK INTRA:                   0.000
REMARK UNBOUND:                 0.000
REMARK SMILES O=c1ccc2cc(O)c(O)cc2o1
REMARK SMILES IDX 4 1 3 2 2 3 1 4 13 5 12 6 11 7 9 8 7 9 6 10 5 11 8 12 10 14
REMARK H PARENT 8 13 10 15
REMARK Flexibility Score: inf
ROOT
ATOM      1  C   UNL     1     107.291  93.690  25.143  1.00  0.00     0.019 A 
ATOM      2  C   UNL     1     106.308  94.158  26.016  1.00  0.00     0.094 A 
ATOM      3  C   UNL     1     106.390  95.472  26.487  1.00  0.00     0.336 A 
ATOM      4  O   UNL     1     105.513  95.913  27.275  1.00  0.00    -0.246 OA
ATOM      5  O   UNL     1     107.391  96.262  26.108  1.00  0.00    -0.423 OA
ATOM      6  C   UNL     1     108.349  95.856  25.277  1.00  0.00     0.142 A 
ATOM      7  C   UNL     1     109.377  96.731  24.914  1.00  0.00     0.098 A 
ATOM      8  C   UNL     1     110.389  96.308  24.039  1.00  0.00     0.161 A 
ATOM      9  C   UNL     1     110.371  94.999  23.526  1.00  0.00     0.158 A 
ATOM     10  C   UNL     1     109.343  94.121  23.888  1.00  0.00     0.062 A 
ATOM     11  C   UNL     1     108.331  94.542  24.762  1.00  0.00     0.022 A 
ENDROOT
BRANCH   9  12
ATOM     12  O   UNL     1     111.364  94.553  22.654  1.00  0.00    -0.504 OA
ATOM     13  H   UNL     1     111.744  95.144  21.925  1.00  0.00     0.293 HD
ENDBRANCH   9  12
BRANCH   8  14
ATOM     14  O   UNL     1     111.412  97.185  23.678  1.00  0.00    -0.504 OA
ATOM     15  H   UNL     1     112.175  96.891  23.079  1.00  0.00     0.293 HD
ENDBRANCH   8  14
TORSDOF 2
ENDMDL
MODEL 4
REMARK VINA RESULT:    -3.870     13.802     15.514
REMARK INTER + INTRA:          -4.096
REMARK INTER:                  -4.096
REMARK INTRA:                   0.000
REMARK UNBOUND:                 0.000
REMARK SMILES O=c1ccc2cc(O)c(O)cc2o1
REMARK SMILES IDX 4 1 3 2 2 3 1 4 13 5 12 6 11 7 9 8 7 9 6 10 5 11 8 12 10 14
REMARK H PARENT 8 13 10 15
REMARK Flexibility Score: inf
ROOT
ATOM      1  C   UNL     1     102.118  81.746  19.846  1.00  0.00     0.019 A 
ATOM      2  C   UNL     1     101.665  82.843  20.579  1.00  0.00     0.094 A 
ATOM      3  C   UNL     1     101.681  84.109  19.983  1.00  0.00     0.336 A 
ATOM      4  O   UNL     1     101.277  85.112  20.627  1.00  0.00    -0.246 OA
ATOM      5  O   UNL     1     102.122  84.262  18.737  1.00  0.00    -0.423 OA
ATOM      6  C   UNL     1     102.563  83.242  18.004  1.00  0.00     0.142 A 
ATOM      7  C   UNL     1     103.016  83.463  16.700  1.00  0.00     0.098 A 
ATOM      8  C   UNL     1     103.482  82.392  15.922  1.00  0.00     0.161 A 
ATOM      9  C   UNL     1     103.494  81.091  16.456  1.00  0.00     0.158 A 
ATOM     10  C   UNL     1     103.041  80.866  17.761  1.00  0.00     0.062 A 
ATOM     11  C   UNL     1     102.576  81.936  18.539  1.00  0.00     0.022 A 
ENDROOT
BRANCH   9  12
ATOM     12  O   UNL     1     103.952  80.008  15.705  1.00  0.00    -0.504 OA
ATOM     13  H   UNL     1     104.915  79.935  15.399  1.00  0.00     0.293 HD
ENDBRANCH   9  12
BRANCH   8  14
ATOM     14  O   UNL     1     103.931  82.616  14.621  1.00  0.00    -0.504 OA
ATOM     15  H   UNL     1     104.572  81.978  14.164  1.00  0.00     0.293 HD
ENDBRANCH   8  14
TORSDOF 2
ENDMDL
MODEL 5
REMARK VINA RESULT:    -3.774      1.868      2.072
REMARK INTER + INTRA:          -3.994
REMARK INTER:                  -3.994
REMARK INTRA:                   0.000
REMARK UNBOUND:                 0.000
REMARK SMILES O=c1ccc2cc(O)c(O)cc2o1
REMARK SMILES IDX 4 1 3 2 2 3 1 4 13 5 12 6 11 7 9 8 7 9 6 10 5 11 8 12 10 14
REMARK H PARENT 8 13 10 15
REMARK Flexibility Score: inf
ROOT
ATOM      1  C   UNL     1     107.019  95.689  21.638  1.00  0.00     0.019 A 
ATOM      2  C   UNL     1     105.703  95.964  22.010  1.00  0.00     0.094 A 
ATOM      3  C   UNL     1     105.319  95.769  23.340  1.00  0.00     0.336 A 
ATOM      4  O   UNL     1     104.136  96.012  23.696  1.00  0.00    -0.246 OA
ATOM      5  O   UNL     1     106.197  95.327  24.236  1.00  0.00    -0.423 OA
ATOM      6  C   UNL     1     107.462  95.052  23.925  1.00  0.00     0.142 A 
ATOM      7  C   UNL     1     108.340  94.589  24.909  1.00  0.00     0.098 A 
ATOM      8  C   UNL     1     109.674  94.298  24.586  1.00  0.00     0.161 A 
ATOM      9  C   UNL     1     110.130  94.471  23.266  1.00  0.00     0.158 A 
ATOM     10  C   UNL     1     109.253  94.934  22.279  1.00  0.00     0.062 A 
ATOM     11  C   UNL     1     107.920  95.225  22.601  1.00  0.00     0.022 A 
ENDROOT
BRANCH   9  12
ATOM     12  O   UNL     1     111.451  94.189  22.918  1.00  0.00    -0.504 OA
ATOM     13  H   UNL     1     112.073  93.682  23.536  1.00  0.00     0.293 HD
ENDBRANCH   9  12
BRANCH   8  14
ATOM     14  O   UNL     1     110.547  93.837  25.571  1.00  0.00    -0.504 OA
ATOM     15  H   UNL     1     110.230  93.650  26.516  1.00  0.00     0.293 HD
ENDBRANCH   8  14
TORSDOF 2
ENDMDL
MODEL 6
REMARK VINA RESULT:    -3.757      1.421      2.107
REMARK INTER + INTRA:          -3.977
REMARK INTER:                  -3.977
REMARK INTRA:                   0.000
REMARK UNBOUND:                 0.000
REMARK SMILES O=c1ccc2cc(O)c(O)cc2o1
REMARK SMILES IDX 4 1 3 2 2 3 1 4 13 5 12 6 11 7 9 8 7 9 6 10 5 11 8 12 10 14
REMARK H PARENT 8 13 10 15
REMARK Flexibility Score: inf
ROOT
ATOM      1  C   UNL     1     106.535  94.546  25.941  1.00  0.00     0.019 A 
ATOM      2  C   UNL     1     105.325  94.059  25.446  1.00  0.00     0.094 A 
ATOM      3  C   UNL     1     105.033  94.224  24.089  1.00  0.00     0.336 A 
ATOM      4  O   UNL     1     103.947  93.791  23.622  1.00  0.00    -0.246 OA
ATOM      5  O   UNL     1     105.897  94.836  23.283  1.00  0.00    -0.423 OA
ATOM      6  C   UNL     1     107.061  95.316  23.714  1.00  0.00     0.142 A 
ATOM      7  C   UNL     1     107.929  95.952  22.821  1.00  0.00     0.098 A 
ATOM      8  C   UNL     1     109.158  96.459  23.270  1.00  0.00     0.161 A 
ATOM      9  C   UNL     1     109.518  96.329  24.623  1.00  0.00     0.158 A 
ATOM     10  C   UNL     1     108.651  95.693  25.519  1.00  0.00     0.062 A 
ATOM     11  C   UNL     1     107.424  95.186  25.072  1.00  0.00     0.022 A 
ENDROOT
BRANCH   9  12
ATOM     12  O   UNL     1     110.734  96.825  25.096  1.00  0.00    -0.504 OA
ATOM     13  H   UNL     1     111.069  96.624  26.030  1.00  0.00     0.293 HD
ENDBRANCH   9  12
BRANCH   8  14
ATOM     14  O   UNL     1     110.021  97.092  22.376  1.00  0.00    -0.504 OA
ATOM     15  H   UNL     1     110.680  96.566  21.813  1.00  0.00     0.293 HD
ENDBRANCH   8  14
TORSDOF 2
ENDMDL
MODEL 7
REMARK VINA RESULT:    -3.718     13.968     15.486
REMARK INTER + INTRA:          -3.936
REMARK INTER:                  -3.936
REMARK INTRA:                   0.000
REMARK UNBOUND:                 0.000
REMARK SMILES O=c1ccc2cc(O)c(O)cc2o1
REMARK SMILES IDX 4 1 3 2 2 3 1 4 13 5 12 6 11 7 9 8 7 9 6 10 5 11 8 12 10 14
REMARK H PARENT 8 13 10 15
REMARK Flexibility Score: inf
ROOT
ATOM      1  C   UNL     1     103.662  81.038  20.457  1.00  0.00     0.019 A 
ATOM      2  C   UNL     1     104.225  81.766  21.506  1.00  0.00     0.094 A 
ATOM      3  C   UNL     1     105.114  82.804  21.209  1.00  0.00     0.336 A 
ATOM      4  O   UNL     1     105.632  83.474  22.140  1.00  0.00    -0.246 OA
ATOM      5  O   UNL     1     105.418  83.090  19.945  1.00  0.00    -0.423 OA
ATOM      6  C   UNL     1     104.904  82.419  18.916  1.00  0.00     0.142 A 
ATOM      7  C   UNL     1     105.261  82.765  17.609  1.00  0.00     0.098 A 
ATOM      8  C   UNL     1     104.723  82.062  16.520  1.00  0.00     0.161 A 
ATOM      9  C   UNL     1     103.821  81.005  16.744  1.00  0.00     0.158 A 
ATOM     10  C   UNL     1     103.462  80.658  18.052  1.00  0.00     0.062 A 
ATOM     11  C   UNL     1     104.000  81.359  19.139  1.00  0.00     0.022 A 
ENDROOT
BRANCH   9  12
ATOM     12  O   UNL     1     103.271  80.290  15.680  1.00  0.00    -0.504 OA
ATOM     13  H   UNL     1     103.716  80.253  14.771  1.00  0.00     0.293 HD
ENDBRANCH   9  12
BRANCH   8  14
ATOM     14  O   UNL     1     105.080  82.409  15.218  1.00  0.00    -0.504 OA
ATOM     15  H   UNL     1     104.382  82.614  14.513  1.00  0.00     0.293 HD
ENDBRANCH   8  14
TORSDOF 2
ENDMDL
MODEL 8
REMARK VINA RESULT:    -3.694     13.393     14.929
REMARK INTER + INTRA:          -3.910
REMARK INTER:                  -3.910
REMARK INTRA:                   0.000
REMARK UNBOUND:                 0.000
REMARK SMILES O=c1ccc2cc(O)c(O)cc2o1
REMARK SMILES IDX 4 1 3 2 2 3 1 4 13 5 12 6 11 7 9 8 7 9 6 10 5 11 8 12 10 14
REMARK H PARENT 8 13 10 15
REMARK Flexibility Score: inf
ROOT
ATOM      1  C   UNL     1     104.467  84.672  18.989  1.00  0.00     0.019 A 
ATOM      2  C   UNL     1     104.277  84.612  20.370  1.00  0.00     0.094 A 
ATOM      3  C   UNL     1     103.744  83.447  20.931  1.00  0.00     0.336 A 
ATOM      4  O   UNL     1     103.565  83.373  22.175  1.00  0.00    -0.246 OA
ATOM      5  O   UNL     1     103.426  82.412  20.158  1.00  0.00    -0.423 OA
ATOM      6  C   UNL     1     103.591  82.427  18.837  1.00  0.00     0.142 A 
ATOM      7  C   UNL     1     103.237  81.310  18.075  1.00  0.00     0.098 A 
ATOM      8  C   UNL     1     103.409  81.320  16.682  1.00  0.00     0.161 A 
ATOM      9  C   UNL     1     103.938  82.460  16.050  1.00  0.00     0.158 A 
ATOM     10  C   UNL     1     104.294  83.580  16.810  1.00  0.00     0.062 A 
ATOM     11  C   UNL     1     104.122  83.570  18.201  1.00  0.00     0.022 A 
ENDROOT
BRANCH   9  12
ATOM     12  O   UNL     1     104.119  82.497  14.667  1.00  0.00    -0.504 OA
ATOM     13  H   UNL     1     104.994  82.228  14.232  1.00  0.00     0.293 HD
ENDBRANCH   9  12
BRANCH   8  14
ATOM     14  O   UNL     1     103.055  80.203  15.926  1.00  0.00    -0.504 OA
ATOM     15  H   UNL     1     102.273  80.226  15.281  1.00  0.00     0.293 HD
ENDBRANCH   8  14
TORSDOF 2
ENDMDL
MODEL 9
REMARK VINA RESULT:    -3.685      2.061      3.180
REMARK INTER + INTRA:          -3.900
REMARK INTER:                  -3.900
REMARK INTRA:                   0.000
REMARK UNBOUND:                 0.000
REMARK SMILES O=c1ccc2cc(O)c(O)cc2o1
REMARK SMILES IDX 4 1 3 2 2 3 1 4 13 5 12 6 11 7 9 8 7 9 6 10 5 11 8 12 10 14
REMARK H PARENT 8 13 10 15
REMARK Flexibility Score: inf
ROOT
ATOM      1  C   UNL     1     103.612  95.166  23.659  1.00  0.00     0.019 A 
ATOM      2  C   UNL     1     103.252  96.211  22.808  1.00  0.00     0.094 A 
ATOM      3  C   UNL     1     104.217  97.158  22.452  1.00  0.00     0.336 A 
ATOM      4  O   UNL     1     103.912  98.108  21.684  1.00  0.00    -0.246 OA
ATOM      5  O   UNL     1     105.459  97.062  22.919  1.00  0.00    -0.423 OA
ATOM      6  C   UNL     1     105.845  96.082  23.733  1.00  0.00     0.142 A 
ATOM      7  C   UNL     1     107.164  96.033  24.193  1.00  0.00     0.098 A 
ATOM      8  C   UNL     1     107.575  95.002  25.051  1.00  0.00     0.161 A 
ATOM      9  C   UNL     1     106.657  94.014  25.452  1.00  0.00     0.158 A 
ATOM     10  C   UNL     1     105.336  94.061  24.993  1.00  0.00     0.062 A 
ATOM     11  C   UNL     1     104.924  95.091  24.136  1.00  0.00     0.022 A 
ENDROOT
BRANCH   9  12
ATOM     12  O   UNL     1     107.040  92.979  26.305  1.00  0.00    -0.504 OA
ATOM     13  H   UNL     1     107.941  92.523  26.226  1.00  0.00     0.293 HD
ENDBRANCH   9  12
BRANCH   8  14
ATOM     14  O   UNL     1     108.892  94.956  25.507  1.00  0.00    -0.504 OA
ATOM     15  H   UNL     1     109.509  94.187  25.272  1.00  0.00     0.293 HD
ENDBRANCH   8  14
TORSDOF 2
ENDMDL
