MODEL 1
REMARK VINA RESULT:    -6.776      0.000      0.000
REMARK INTER + INTRA:         -10.837
REMARK INTER:                  -9.747
REMARK INTRA:                  -1.090
REMARK UNBOUND:                -1.090
REMARK SMILES O=c1c(O[C@H]2O[C@@H](CO)[C@H](O)[C@H](O)[C@H]2O)c(-c2ccc(O)cc2)oc2cc(O)cc(O)c12
REMARK SMILES IDX 4 1 3 2 16 3 24 4 2 5 25 6 1 7 32 8 26 9 30 10 27 11 29 12
REMARK SMILES IDX 17 13 18 14 19 15 20 16 23 17 22 18 21 19 31 21 28 23 5 25
REMARK SMILES IDX 14 26 6 27 12 28 7 29 10 30 15 31 13 33 8 35 9 36 11 38
REMARK H PARENT 21 20 31 22 28 24 15 32 13 34 9 37 11 39
REMARK Flexibility Score: inf
ROOT
ATOM      1  O   UNL     1     -10.543 -16.667  20.495  1.00  0.00    -0.454 OA
ENDROOT
BRANCH   1   2
ATOM      2  C   UNL     1     -10.287 -18.025  20.225  1.00  0.00     0.214 A 
ATOM      3  C   UNL     1     -11.354 -18.838  19.793  1.00  0.00     0.180 A 
ATOM      4  O   UNL     1     -11.157 -20.131  19.556  1.00  0.00    -0.452 OA
ATOM      5  C   UNL     1      -9.015 -18.618  20.381  1.00  0.00     0.239 A 
ATOM      6  C   UNL     1      -9.980 -20.726  19.690  1.00  0.00     0.146 A 
ATOM      7  O   UNL     1      -8.031 -17.921  20.745  1.00  0.00    -0.285 OA
ATOM      8  C   UNL     1      -8.847 -19.993  20.113  1.00  0.00     0.111 A 
ATOM      9  C   UNL     1      -9.872 -22.091  19.408  1.00  0.00     0.094 A 
ATOM     10  C   UNL     1      -7.606 -20.663  20.247  1.00  0.00     0.134 A 
ATOM     11  C   UNL     1      -8.644 -22.746  19.540  1.00  0.00     0.123 A 
ATOM     12  C   UNL     1      -7.519 -22.033  19.960  1.00  0.00     0.093 A 
BRANCH   3  13
ATOM     13  C   UNL     1     -12.728 -18.309  19.641  1.00  0.00     0.021 A 
ATOM     14  C   UNL     1     -13.558 -18.211  20.769  1.00  0.00     0.016 A 
ATOM     15  C   UNL     1     -14.857 -17.709  20.651  1.00  0.00     0.047 A 
ATOM     16  C   UNL     1     -15.347 -17.311  19.403  1.00  0.00     0.115 A 
ATOM     17  C   UNL     1     -13.234 -17.932  18.385  1.00  0.00     0.016 A 
ATOM     18  C   UNL     1     -14.533 -17.428  18.269  1.00  0.00     0.047 A 
BRANCH  16  19
ATOM     19  O   UNL     1     -16.641 -16.806  19.301  1.00  0.00    -0.508 OA
ATOM     20  H   UNL     1     -16.994 -16.117  19.955  1.00  0.00     0.293 HD
ENDBRANCH  16  19
ENDBRANCH   3  13
BRANCH  10  21
ATOM     21  O   UNL     1      -6.463 -19.982  20.668  1.00  0.00    -0.507 OA
ATOM     22  H   UNL     1      -6.283 -19.023  20.396  1.00  0.00     0.293 HD
ENDBRANCH  10  21
BRANCH  11  23
ATOM     23  O   UNL     1      -8.530 -24.105  19.256  1.00  0.00    -0.508 OA
ATOM     24  H   UNL     1      -8.225 -24.433  18.348  1.00  0.00     0.293 HD
ENDBRANCH  11  23
ENDBRANCH   1   2
BRANCH   1  25
ATOM     25  C   UNL     1      -9.689 -15.563  20.187  1.00  0.00     0.339 C 
ATOM     26  C   UNL     1      -9.198 -14.882  21.479  1.00  0.00     0.214 C 
ATOM     27  O   UNL     1     -10.311 -14.644  19.295  1.00  0.00    -0.332 OA
ATOM     28  C   UNL     1     -10.356 -14.149  22.175  1.00  0.00     0.180 C 
ATOM     29  C   UNL     1     -11.384 -13.896  19.863  1.00  0.00     0.179 C 
ATOM     30  C   UNL     1     -11.004 -13.176  21.182  1.00  0.00     0.177 C 
BRANCH  26  31
ATOM     31  O   UNL     1      -8.588 -15.814  22.338  1.00  0.00    -0.384 OA
ATOM     32  H   UNL     1      -7.670 -15.986  22.006  1.00  0.00     0.211 HD
ENDBRANCH  26  31
BRANCH  28  33
ATOM     33  O   UNL     1      -9.881 -13.433  23.286  1.00  0.00    -0.387 OA
ATOM     34  H   UNL     1     -10.513 -13.606  24.031  1.00  0.00     0.211 HD
ENDBRANCH  28  33
BRANCH  29  35
ATOM     35  C   UNL     1     -12.688 -14.704  19.968  1.00  0.00     0.191 C 
BRANCH  35  36
ATOM     36  O   UNL     1     -13.656 -14.162  19.113  1.00  0.00    -0.394 OA
ATOM     37  H   UNL     1     -14.356 -13.772  19.699  1.00  0.00     0.210 HD
ENDBRANCH  35  36
ENDBRANCH  29  35
BRANCH  30  38
ATOM     38  O   UNL     1     -10.110 -12.126  20.904  1.00  0.00    -0.387 OA
ATOM     39  H   UNL     1     -10.225 -11.451  21.623  1.00  0.00     0.211 HD
ENDBRANCH  30  38
ENDBRANCH   1  25
TORSDOF 11
ENDMDL
MODEL 2
REMARK VINA RESULT:    -6.737      3.127      6.946
REMARK INTER + INTRA:         -10.781
REMARK INTER:                  -9.475
REMARK INTRA:                  -1.305
REMARK UNBOUND:                -1.090
REMARK SMILES O=c1c(O[C@H]2O[C@@H](CO)[C@H](O)[C@H](O)[C@H]2O)c(-c2ccc(O)cc2)oc2cc(O)cc(O)c12
REMARK SMILES IDX 4 1 3 2 16 3 24 4 2 5 25 6 1 7 32 8 26 9 30 10 27 11 29 12
REMARK SMILES IDX 17 13 18 14 19 15 20 16 23 17 22 18 21 19 31 21 28 23 5 25
REMARK SMILES IDX 14 26 6 27 12 28 7 29 10 30 15 31 13 33 8 35 9 36 11 38
REMARK H PARENT 21 20 31 22 28 24 15 32 13 34 9 37 11 39
REMARK Flexibility Score: inf
ROOT
ATOM      1  O   UNL     1     -13.730 -17.645  18.888  1.00  0.00    -0.454 OA
ENDROOT
BRANCH   1   2
ATOM      2  C   UNL     1     -14.914 -17.972  18.201  1.00  0.00     0.214 A 
ATOM      3  C   UNL     1     -15.813 -18.877  18.801  1.00  0.00     0.180 A 
ATOM      4  O   UNL     1     -16.926 -19.231  18.169  1.00  0.00    -0.452 OA
ATOM      5  C   UNL     1     -15.240 -17.448  16.931  1.00  0.00     0.239 A 
ATOM      6  C   UNL     1     -17.270 -18.764  16.977  1.00  0.00     0.146 A 
ATOM      7  O   UNL     1     -14.474 -16.621  16.370  1.00  0.00    -0.285 OA
ATOM      8  C   UNL     1     -16.437 -17.846  16.297  1.00  0.00     0.111 A 
ATOM      9  C   UNL     1     -18.469 -19.191  16.399  1.00  0.00     0.094 A 
ATOM     10  C   UNL     1     -16.835 -17.371  15.024  1.00  0.00     0.134 A 
ATOM     11  C   UNL     1     -18.857 -18.716  15.142  1.00  0.00     0.123 A 
ATOM     12  C   UNL     1     -18.041 -17.811  14.460  1.00  0.00     0.093 A 
BRANCH   3  13
ATOM     13  C   UNL     1     -15.531 -19.504  20.112  1.00  0.00     0.021 A 
ATOM     14  C   UNL     1     -14.899 -20.757  20.156  1.00  0.00     0.016 A 
ATOM     15  C   UNL     1     -14.619 -21.366  21.383  1.00  0.00     0.047 A 
ATOM     16  C   UNL     1     -14.977 -20.737  22.578  1.00  0.00     0.115 A 
ATOM     17  C   UNL     1     -15.913 -18.889  21.317  1.00  0.00     0.016 A 
ATOM     18  C   UNL     1     -15.630 -19.498  22.543  1.00  0.00     0.047 A 
BRANCH  16  19
ATOM     19  O   UNL     1     -14.685 -21.351  23.794  1.00  0.00    -0.508 OA
ATOM     20  H   UNL     1     -14.644 -20.823  24.658  1.00  0.00     0.293 HD
ENDBRANCH  16  19
ENDBRANCH   3  13
BRANCH  10  21
ATOM     21  O   UNL     1     -16.042 -16.469  14.312  1.00  0.00    -0.507 OA
ATOM     22  H   UNL     1     -15.050 -16.370  14.496  1.00  0.00     0.293 HD
ENDBRANCH  10  21
BRANCH  11  23
ATOM     23  O   UNL     1     -20.053 -19.135  14.564  1.00  0.00    -0.508 OA
ATOM     24  H   UNL     1     -20.685 -19.761  15.047  1.00  0.00     0.293 HD
ENDBRANCH  11  23
ENDBRANCH   1   2
BRANCH   1  25
ATOM     25  C   UNL     1     -13.620 -16.815  20.047  1.00  0.00     0.339 C 
ATOM     26  C   UNL     1     -13.189 -15.389  19.652  1.00  0.00     0.214 C 
ATOM     27  O   UNL     1     -12.762 -17.386  21.029  1.00  0.00    -0.332 OA
ATOM     28  C   UNL     1     -11.730 -15.382  19.168  1.00  0.00     0.180 C 
ATOM     29  C   UNL     1     -11.380 -17.398  20.677  1.00  0.00     0.179 C 
ATOM     30  C   UNL     1     -10.839 -16.011  20.248  1.00  0.00     0.177 C 
BRANCH  26  31
ATOM     31  O   UNL     1     -14.055 -14.853  18.682  1.00  0.00    -0.384 OA
ATOM     32  H   UNL     1     -14.321 -13.943  18.974  1.00  0.00     0.211 HD
ENDBRANCH  26  31
BRANCH  28  33
ATOM     33  O   UNL     1     -11.305 -14.067  18.921  1.00  0.00    -0.387 OA
ATOM     34  H   UNL     1     -11.494 -13.544  19.743  1.00  0.00     0.211 HD
ENDBRANCH  28  33
BRANCH  29  35
ATOM     35  C   UNL     1     -11.022 -18.521  19.688  1.00  0.00     0.191 C 
BRANCH  35  36
ATOM     36  O   UNL     1     -11.689 -19.700  20.043  1.00  0.00    -0.394 OA
ATOM     37  H   UNL     1     -11.330 -20.410  19.450  1.00  0.00     0.210 HD
ENDBRANCH  35  36
ENDBRANCH  29  35
BRANCH  30  38
ATOM     38  O   UNL     1     -10.788 -15.159  21.366  1.00  0.00    -0.387 OA
ATOM     39  H   UNL     1     -10.811 -14.228  21.021  1.00  0.00     0.211 HD
ENDBRANCH  30  38
ENDBRANCH   1  25
TORSDOF 11
ENDMDL
MODEL 3
REMARK VINA RESULT:    -6.616      2.062      6.374
REMARK INTER + INTRA:         -10.606
REMARK INTER:                  -9.378
REMARK INTRA:                  -1.228
REMARK UNBOUND:                -1.090
REMARK SMILES O=c1c(O[C@H]2O[C@@H](CO)[C@H](O)[C@H](O)[C@H]2O)c(-c2ccc(O)cc2)oc2cc(O)cc(O)c12
REMARK SMILES IDX 4 1 3 2 16 3 24 4 2 5 25 6 1 7 32 8 26 9 30 10 27 11 29 12
REMARK SMILES IDX 17 13 18 14 19 15 20 16 23 17 22 18 21 19 31 21 28 23 5 25
REMARK SMILES IDX 14 26 6 27 12 28 7 29 10 30 15 31 13 33 8 35 9 36 11 38
REMARK H PARENT 21 20 31 22 28 24 15 32 13 34 9 37 11 39
REMARK Flexibility Score: inf
ROOT
ATOM      1  O   UNL     1     -11.639 -17.616  20.580  1.00  0.00    -0.454 OA
ENDROOT
BRANCH   1   2
ATOM      2  C   UNL     1     -12.930 -17.597  20.018  1.00  0.00     0.214 A 
ATOM      3  C   UNL     1     -13.329 -16.459  19.289  1.00  0.00     0.180 A 
ATOM      4  O   UNL     1     -14.551 -16.392  18.770  1.00  0.00    -0.452 OA
ATOM      5  C   UNL     1     -13.851 -18.657  20.162  1.00  0.00     0.239 A 
ATOM      6  C   UNL     1     -15.446 -17.364  18.882  1.00  0.00     0.146 A 
ATOM      7  O   UNL     1     -13.525 -19.699  20.789  1.00  0.00    -0.285 OA
ATOM      8  C   UNL     1     -15.136 -18.548  19.589  1.00  0.00     0.111 A 
ATOM      9  C   UNL     1     -16.702 -17.203  18.291  1.00  0.00     0.094 A 
ATOM     10  C   UNL     1     -16.119 -19.564  19.691  1.00  0.00     0.134 A 
ATOM     11  C   UNL     1     -17.666 -18.210  18.393  1.00  0.00     0.123 A 
ATOM     12  C   UNL     1     -17.373 -19.383  19.092  1.00  0.00     0.093 A 
BRANCH   3  13
ATOM     13  C   UNL     1     -12.442 -15.286  19.122  1.00  0.00     0.021 A 
ATOM     14  C   UNL     1     -12.206 -14.438  20.216  1.00  0.00     0.016 A 
ATOM     15  C   UNL     1     -11.367 -13.328  20.084  1.00  0.00     0.047 A 
ATOM     16  C   UNL     1     -10.765 -13.044  18.855  1.00  0.00     0.115 A 
ATOM     17  C   UNL     1     -11.855 -14.980  17.883  1.00  0.00     0.016 A 
ATOM     18  C   UNL     1     -11.014 -13.871  17.752  1.00  0.00     0.047 A 
BRANCH  16  19
ATOM     19  O   UNL     1      -9.925 -11.938  18.738  1.00  0.00    -0.508 OA
ATOM     20  H   UNL     1     -10.118 -11.074  19.230  1.00  0.00     0.293 HD
ENDBRANCH  16  19
ENDBRANCH   3  13
BRANCH  10  21
ATOM     21  O   UNL     1     -15.860 -20.747  20.385  1.00  0.00    -0.507 OA
ATOM     22  H   UNL     1     -14.952 -21.195  20.357  1.00  0.00     0.293 HD
ENDBRANCH  10  21
BRANCH  11  23
ATOM     23  O   UNL     1     -18.919 -18.057  17.802  1.00  0.00    -0.508 OA
ATOM     24  H   UNL     1     -19.374 -17.154  17.753  1.00  0.00     0.293 HD
ENDBRANCH  11  23
ENDBRANCH   1   2
BRANCH   1  25
ATOM     25  C   UNL     1     -10.403 -17.718  19.868  1.00  0.00     0.339 C 
ATOM     26  C   UNL     1      -9.849 -19.154  19.949  1.00  0.00     0.214 C 
ATOM     27  O   UNL     1      -9.457 -16.749  20.306  1.00  0.00    -0.332 OA
ATOM     28  C   UNL     1      -9.372 -19.468  21.376  1.00  0.00     0.180 C 
ATOM     29  C   UNL     1      -8.936 -16.974  21.614  1.00  0.00     0.179 C 
ATOM     30  C   UNL     1      -8.362 -18.400  21.814  1.00  0.00     0.177 C 
BRANCH  26  31
ATOM     31  O   UNL     1     -10.806 -20.087  19.509  1.00  0.00    -0.384 OA
ATOM     32  H   UNL     1     -10.597 -20.964  19.923  1.00  0.00     0.211 HD
ENDBRANCH  26  31
BRANCH  28  33
ATOM     33  O   UNL     1      -8.762 -20.732  21.419  1.00  0.00    -0.387 OA
ATOM     34  H   UNL     1      -8.577 -20.994  20.480  1.00  0.00     0.211 HD
ENDBRANCH  28  33
BRANCH  29  35
ATOM     35  C   UNL     1      -9.910 -16.552  22.728  1.00  0.00     0.191 C 
BRANCH  35  36
ATOM     36  O   UNL     1      -9.492 -17.084  23.955  1.00  0.00    -0.394 OA
ATOM     37  H   UNL     1      -9.925 -16.532  24.657  1.00  0.00     0.210 HD
ENDBRANCH  35  36
ENDBRANCH  29  35
BRANCH  30  38
ATOM     38  O   UNL     1      -7.179 -18.540  21.066  1.00  0.00    -0.387 OA
ATOM     39  H   UNL     1      -6.936 -19.502  21.088  1.00  0.00     0.211 HD
ENDBRANCH  30  38
ENDBRANCH   1  25
TORSDOF 11
ENDMDL
MODEL 4
REMARK VINA RESULT:    -6.605      2.035      6.972
REMARK INTER + INTRA:         -10.591
REMARK INTER:                  -9.207
REMARK INTRA:                  -1.384
REMARK UNBOUND:                -1.090
REMARK SMILES O=c1c(O[C@H]2O[C@@H](CO)[C@H](O)[C@H](O)[C@H]2O)c(-c2ccc(O)cc2)oc2cc(O)cc(O)c12
REMARK SMILES IDX 4 1 3 2 16 3 24 4 2 5 25 6 1 7 32 8 26 9 30 10 27 11 29 12
REMARK SMILES IDX 17 13 18 14 19 15 20 16 23 17 22 18 21 19 31 21 28 23 5 25
REMARK SMILES IDX 14 26 6 27 12 28 7 29 10 30 15 31 13 33 8 35 9 36 11 38
REMARK H PARENT 21 20 31 22 28 24 15 32 13 34 9 37 11 39
REMARK Flexibility Score: inf
ROOT
ATOM      1  O   UNL     1     -10.789 -16.573  19.954  1.00  0.00    -0.454 OA
ENDROOT
BRANCH   1   2
ATOM      2  C   UNL     1      -9.819 -15.720  20.512  1.00  0.00     0.214 A 
ATOM      3  C   UNL     1      -8.467 -16.118  20.468  1.00  0.00     0.180 A 
ATOM      4  O   UNL     1      -7.527 -15.352  21.012  1.00  0.00    -0.452 OA
ATOM      5  C   UNL     1     -10.134 -14.490  21.130  1.00  0.00     0.239 A 
ATOM      6  C   UNL     1      -7.780 -14.192  21.600  1.00  0.00     0.146 A 
ATOM      7  O   UNL     1     -11.327 -14.089  21.172  1.00  0.00    -0.285 OA
ATOM      8  C   UNL     1      -9.104 -13.704  21.689  1.00  0.00     0.111 A 
ATOM      9  C   UNL     1      -6.719 -13.454  22.133  1.00  0.00     0.094 A 
ATOM     10  C   UNL     1      -9.336 -12.461  22.327  1.00  0.00     0.134 A 
ATOM     11  C   UNL     1      -6.956 -12.226  22.760  1.00  0.00     0.123 A 
ATOM     12  C   UNL     1      -8.259 -11.736  22.857  1.00  0.00     0.093 A 
BRANCH   3  13
ATOM     13  C   UNL     1      -8.052 -17.409  19.876  1.00  0.00     0.021 A 
ATOM     14  C   UNL     1      -7.640 -18.454  20.719  1.00  0.00     0.016 A 
ATOM     15  C   UNL     1      -7.248 -19.684  20.183  1.00  0.00     0.047 A 
ATOM     16  C   UNL     1      -7.251 -19.880  18.799  1.00  0.00     0.115 A 
ATOM     17  C   UNL     1      -8.027 -17.604  18.485  1.00  0.00     0.016 A 
ATOM     18  C   UNL     1      -7.637 -18.835  17.950  1.00  0.00     0.047 A 
BRANCH  16  19
ATOM     19  O   UNL     1      -6.865 -21.114  18.278  1.00  0.00    -0.508 OA
ATOM     20  H   UNL     1      -7.439 -21.606  17.604  1.00  0.00     0.293 HD
ENDBRANCH  16  19
ENDBRANCH   3  13
BRANCH  10  21
ATOM     21  O   UNL     1     -10.628 -11.943  22.444  1.00  0.00    -0.507 OA
ATOM     22  H   UNL     1     -10.987 -11.599  23.327  1.00  0.00     0.293 HD
ENDBRANCH  10  21
BRANCH  11  23
ATOM     23  O   UNL     1      -5.901 -11.485  23.290  1.00  0.00    -0.508 OA
ATOM     24  H   UNL     1      -4.945 -11.812  23.237  1.00  0.00     0.293 HD
ENDBRANCH  11  23
ENDBRANCH   1   2
BRANCH   1  25
ATOM     25  C   UNL     1     -11.754 -17.347  20.671  1.00  0.00     0.339 C 
ATOM     26  C   UNL     1     -11.959 -18.717  19.994  1.00  0.00     0.214 C 
ATOM     27  O   UNL     1     -12.979 -16.641  20.843  1.00  0.00    -0.332 OA
ATOM     28  C   UNL     1     -12.683 -18.549  18.649  1.00  0.00     0.180 C 
ATOM     29  C   UNL     1     -13.735 -16.461  19.648  1.00  0.00     0.179 C 
ATOM     30  C   UNL     1     -13.991 -17.779  18.874  1.00  0.00     0.177 C 
BRANCH  26  31
ATOM     31  O   UNL     1     -10.733 -19.389  19.839  1.00  0.00    -0.384 OA
ATOM     32  H   UNL     1     -10.031 -18.861  20.299  1.00  0.00     0.211 HD
ENDBRANCH  26  31
BRANCH  28  33
ATOM     33  O   UNL     1     -12.972 -19.806  18.092  1.00  0.00    -0.387 OA
ATOM     34  H   UNL     1     -12.422 -19.890  17.270  1.00  0.00     0.211 HD
ENDBRANCH  28  33
BRANCH  29  35
ATOM     35  C   UNL     1     -13.190 -15.332  18.757  1.00  0.00     0.191 C 
BRANCH  35  36
ATOM     36  O   UNL     1     -13.529 -14.087  19.303  1.00  0.00    -0.394 OA
ATOM     37  H   UNL     1     -13.152 -13.404  18.689  1.00  0.00     0.210 HD
ENDBRANCH  35  36
ENDBRANCH  29  35
BRANCH  30  38
ATOM     38  O   UNL     1     -14.889 -18.584  19.599  1.00  0.00    -0.387 OA
ATOM     39  H   UNL     1     -15.657 -18.007  19.848  1.00  0.00     0.211 HD
ENDBRANCH  30  38
ENDBRANCH   1  25
TORSDOF 11
ENDMDL
MODEL 5
REMARK VINA RESULT:    -6.603      1.751      4.863
REMARK INTER + INTRA:         -10.588
REMARK INTER:                  -9.718
REMARK INTRA:                  -0.870
REMARK UNBOUND:                -1.090
REMARK SMILES O=c1c(O[C@H]2O[C@@H](CO)[C@H](O)[C@H](O)[C@H]2O)c(-c2ccc(O)cc2)oc2cc(O)cc(O)c12
REMARK SMILES IDX 4 1 3 2 16 3 24 4 2 5 25 6 1 7 32 8 26 9 30 10 27 11 29 12
REMARK SMILES IDX 17 13 18 14 19 15 20 16 23 17 22 18 21 19 31 21 28 23 5 25
REMARK SMILES IDX 14 26 6 27 12 28 7 29 10 30 15 31 13 33 8 35 9 36 11 38
REMARK H PARENT 21 20 31 22 28 24 15 32 13 34 9 37 11 39
REMARK Flexibility Score: inf
ROOT
ATOM      1  O   UNL     1     -11.547 -18.918  20.217  1.00  0.00    -0.454 OA
ENDROOT
BRANCH   1   2
ATOM      2  C   UNL     1     -10.411 -19.750  20.201  1.00  0.00     0.214 A 
ATOM      3  C   UNL     1      -9.276 -19.353  20.935  1.00  0.00     0.180 A 
ATOM      4  O   UNL     1      -8.176 -20.098  20.919  1.00  0.00    -0.452 OA
ATOM      5  C   UNL     1     -10.349 -20.957  19.471  1.00  0.00     0.239 A 
ATOM      6  C   UNL     1      -8.074 -21.237  20.248  1.00  0.00     0.146 A 
ATOM      7  O   UNL     1     -11.349 -21.357  18.819  1.00  0.00    -0.285 OA
ATOM      8  C   UNL     1      -9.163 -21.722  19.487  1.00  0.00     0.111 A 
ATOM      9  C   UNL     1      -6.876 -21.954  20.303  1.00  0.00     0.094 A 
ATOM     10  C   UNL     1      -9.017 -22.942  18.781  1.00  0.00     0.134 A 
ATOM     11  C   UNL     1      -6.740 -23.159  19.605  1.00  0.00     0.123 A 
ATOM     12  C   UNL     1      -7.807 -23.646  18.848  1.00  0.00     0.093 A 
BRANCH   3  13
ATOM     13  C   UNL     1      -9.241 -18.083  21.695  1.00  0.00     0.021 A 
ATOM     14  C   UNL     1      -8.787 -16.914  21.064  1.00  0.00     0.016 A 
ATOM     15  C   UNL     1      -8.751 -15.702  21.760  1.00  0.00     0.047 A 
ATOM     16  C   UNL     1      -9.154 -15.647  23.097  1.00  0.00     0.115 A 
ATOM     17  C   UNL     1      -9.620 -18.027  23.047  1.00  0.00     0.016 A 
ATOM     18  C   UNL     1      -9.585 -16.814  23.741  1.00  0.00     0.047 A 
BRANCH  16  19
ATOM     19  O   UNL     1      -9.120 -14.432  23.778  1.00  0.00    -0.508 OA
ATOM     20  H   UNL     1      -8.938 -14.388  24.773  1.00  0.00     0.293 HD
ENDBRANCH  16  19
ENDBRANCH   3  13
BRANCH  10  21
ATOM     21  O   UNL     1     -10.062 -23.456  18.011  1.00  0.00    -0.507 OA
ATOM     22  H   UNL     1     -10.808 -24.004  18.422  1.00  0.00     0.293 HD
ENDBRANCH  10  21
BRANCH  11  23
ATOM     23  O   UNL     1      -5.549 -23.880  19.660  1.00  0.00    -0.508 OA
ATOM     24  H   UNL     1      -5.043 -24.131  18.820  1.00  0.00     0.293 HD
ENDBRANCH  11  23
ENDBRANCH   1   2
BRANCH   1  25
ATOM     25  C   UNL     1     -12.402 -18.625  19.109  1.00  0.00     0.339 C 
ATOM     26  C   UNL     1     -12.492 -17.103  18.883  1.00  0.00     0.214 C 
ATOM     27  O   UNL     1     -13.685 -19.225  19.256  1.00  0.00    -0.332 OA
ATOM     28  C   UNL     1     -13.277 -16.435  20.022  1.00  0.00     0.180 C 
ATOM     29  C   UNL     1     -14.498 -18.650  20.277  1.00  0.00     0.179 C 
ATOM     30  C   UNL     1     -14.647 -17.112  20.154  1.00  0.00     0.177 C 
BRANCH  26  31
ATOM     31  O   UNL     1     -11.210 -16.540  18.741  1.00  0.00    -0.384 OA
ATOM     32  H   UNL     1     -11.316 -15.564  18.600  1.00  0.00     0.211 HD
ENDBRANCH  26  31
BRANCH  28  33
ATOM     33  O   UNL     1     -13.457 -15.068  19.753  1.00  0.00    -0.387 OA
ATOM     34  H   UNL     1     -13.992 -14.695  20.501  1.00  0.00     0.211 HD
ENDBRANCH  28  33
BRANCH  29  35
ATOM     35  C   UNL     1     -14.102 -19.110  21.690  1.00  0.00     0.191 C 
BRANCH  35  36
ATOM     36  O   UNL     1     -14.733 -18.306  22.648  1.00  0.00    -0.394 OA
ATOM     37  H   UNL     1     -15.221 -17.605  22.143  1.00  0.00     0.210 HD
ENDBRANCH  35  36
ENDBRANCH  29  35
BRANCH  30  38
ATOM     38  O   UNL     1     -15.432 -16.804  19.029  1.00  0.00    -0.387 OA
ATOM     39  H   UNL     1     -15.584 -15.823  19.043  1.00  0.00     0.211 HD
ENDBRANCH  30  38
ENDBRANCH   1  25
TORSDOF 11
ENDMDL
MODEL 6
REMARK VINA RESULT:    -6.586      1.722      5.019
REMARK INTER + INTRA:         -10.564
REMARK INTER:                  -9.056
REMARK INTRA:                  -1.508
REMARK UNBOUND:                -1.090
REMARK SMILES O=c1c(O[C@H]2O[C@@H](CO)[C@H](O)[C@H](O)[C@H]2O)c(-c2ccc(O)cc2)oc2cc(O)cc(O)c12
REMARK SMILES IDX 4 1 3 2 16 3 24 4 2 5 25 6 1 7 32 8 26 9 30 10 27 11 29 12
REMARK SMILES IDX 17 13 18 14 19 15 20 16 23 17 22 18 21 19 31 21 28 23 5 25
REMARK SMILES IDX 14 26 6 27 12 28 7 29 10 30 15 31 13 33 8 35 9 36 11 38
REMARK H PARENT 21 20 31 22 28 24 15 32 13 34 9 37 11 39
REMARK Flexibility Score: inf
ROOT
ATOM      1  O   UNL     1     -11.256 -18.957  19.792  1.00  0.00    -0.454 OA
ENDROOT
BRANCH   1   2
ATOM      2  C   UNL     1     -10.170 -19.842  19.929  1.00  0.00     0.214 A 
ATOM      3  C   UNL     1      -9.144 -19.513  20.838  1.00  0.00     0.180 A 
ATOM      4  O   UNL     1      -8.089 -20.310  20.972  1.00  0.00    -0.452 OA
ATOM      5  C   UNL     1     -10.050 -21.038  19.189  1.00  0.00     0.239 A 
ATOM      6  C   UNL     1      -7.937 -21.440  20.296  1.00  0.00     0.146 A 
ATOM      7  O   UNL     1     -10.956 -21.378  18.382  1.00  0.00    -0.285 OA
ATOM      8  C   UNL     1      -8.916 -21.860  19.366  1.00  0.00     0.111 A 
ATOM      9  C   UNL     1      -6.795 -22.216  20.516  1.00  0.00     0.094 A 
ATOM     10  C   UNL     1      -8.719 -23.072  18.661  1.00  0.00     0.134 A 
ATOM     11  C   UNL     1      -6.608 -23.413  19.818  1.00  0.00     0.123 A 
ATOM     12  C   UNL     1      -7.566 -23.835  18.895  1.00  0.00     0.093 A 
BRANCH   3  13
ATOM     13  C   UNL     1      -9.169 -18.260  21.625  1.00  0.00     0.021 A 
ATOM     14  C   UNL     1      -8.749 -17.061  21.028  1.00  0.00     0.016 A 
ATOM     15  C   UNL     1      -8.770 -15.865  21.750  1.00  0.00     0.047 A 
ATOM     16  C   UNL     1      -9.198 -15.854  23.081  1.00  0.00     0.115 A 
ATOM     17  C   UNL     1      -9.573 -18.248  22.971  1.00  0.00     0.016 A 
ATOM     18  C   UNL     1      -9.595 -17.050  23.692  1.00  0.00     0.047 A 
BRANCH  16  19
ATOM     19  O   UNL     1      -9.220 -14.653  23.787  1.00  0.00    -0.508 OA
ATOM     20  H   UNL     1      -8.377 -14.113  23.939  1.00  0.00     0.293 HD
ENDBRANCH  16  19
ENDBRANCH   3  13
BRANCH  10  21
ATOM     21  O   UNL     1      -9.655 -23.522  17.728  1.00  0.00    -0.507 OA
ATOM     22  H   UNL     1      -9.400 -23.716  16.767  1.00  0.00     0.293 HD
ENDBRANCH  10  21
BRANCH  11  23
ATOM     23  O   UNL     1      -5.473 -24.191  20.036  1.00  0.00    -0.508 OA
ATOM     24  H   UNL     1      -5.542 -25.160  20.320  1.00  0.00     0.293 HD
ENDBRANCH  11  23
ENDBRANCH   1   2
BRANCH   1  25
ATOM     25  C   UNL     1     -12.426 -18.912  20.613  1.00  0.00     0.339 C 
ATOM     26  C   UNL     1     -13.663 -19.371  19.817  1.00  0.00     0.214 C 
ATOM     27  O   UNL     1     -12.610 -17.631  21.206  1.00  0.00    -0.332 OA
ATOM     28  C   UNL     1     -14.034 -18.329  18.751  1.00  0.00     0.180 C 
ATOM     29  C   UNL     1     -12.984 -16.601  20.293  1.00  0.00     0.179 C 
ATOM     30  C   UNL     1     -14.216 -16.962  19.425  1.00  0.00     0.177 C 
BRANCH  26  31
ATOM     31  O   UNL     1     -13.450 -20.639  19.245  1.00  0.00    -0.384 OA
ATOM     32  H   UNL     1     -12.946 -21.192  19.897  1.00  0.00     0.211 HD
ENDBRANCH  26  31
BRANCH  28  33
ATOM     33  O   UNL     1     -15.228 -18.694  18.107  1.00  0.00    -0.387 OA
ATOM     34  H   UNL     1     -15.250 -18.207  17.243  1.00  0.00     0.211 HD
ENDBRANCH  28  33
BRANCH  29  35
ATOM     35  C   UNL     1     -11.799 -16.069  19.469  1.00  0.00     0.191 C 
BRANCH  35  36
ATOM     36  O   UNL     1     -11.531 -14.740  19.821  1.00  0.00    -0.394 OA
ATOM     37  H   UNL     1     -10.622 -14.540  19.476  1.00  0.00     0.210 HD
ENDBRANCH  35  36
ENDBRANCH  29  35
BRANCH  30  38
ATOM     38  O   UNL     1     -15.368 -16.989  20.231  1.00  0.00    -0.387 OA
ATOM     39  H   UNL     1     -15.086 -16.726  21.146  1.00  0.00     0.211 HD
ENDBRANCH  30  38
ENDBRANCH   1  25
TORSDOF 11
ENDMDL
MODEL 7
REMARK VINA RESULT:    -6.568      3.097      5.390
REMARK INTER + INTRA:         -10.538
REMARK INTER:                  -9.741
REMARK INTRA:                  -0.797
REMARK UNBOUND:                -1.090
REMARK SMILES O=c1c(O[C@H]2O[C@@H](CO)[C@H](O)[C@H](O)[C@H]2O)c(-c2ccc(O)cc2)oc2cc(O)cc(O)c12
REMARK SMILES IDX 4 1 3 2 16 3 24 4 2 5 25 6 1 7 32 8 26 9 30 10 27 11 29 12
REMARK SMILES IDX 17 13 18 14 19 15 20 16 23 17 22 18 21 19 31 21 28 23 5 25
REMARK SMILES IDX 14 26 6 27 12 28 7 29 10 30 15 31 13 33 8 35 9 36 11 38
REMARK H PARENT 21 20 31 22 28 24 15 32 13 34 9 37 11 39
REMARK Flexibility Score: inf
ROOT
ATOM      1  O   UNL     1      -8.421 -15.171  20.438  1.00  0.00    -0.454 OA
ENDROOT
BRANCH   1   2
ATOM      2  C   UNL     1      -8.018 -16.412  19.910  1.00  0.00     0.214 A 
ATOM      3  C   UNL     1      -7.281 -16.426  18.708  1.00  0.00     0.180 A 
ATOM      4  O   UNL     1      -6.910 -17.580  18.165  1.00  0.00    -0.452 OA
ATOM      5  C   UNL     1      -8.330 -17.648  20.517  1.00  0.00     0.239 A 
ATOM      6  C   UNL     1      -7.182 -18.761  18.701  1.00  0.00     0.146 A 
ATOM      7  O   UNL     1      -8.970 -17.678  21.602  1.00  0.00    -0.285 OA
ATOM      8  C   UNL     1      -7.911 -18.851  19.910  1.00  0.00     0.111 A 
ATOM      9  C   UNL     1      -6.739 -19.919  18.057  1.00  0.00     0.094 A 
ATOM     10  C   UNL     1      -8.186 -20.131  20.452  1.00  0.00     0.134 A 
ATOM     11  C   UNL     1      -7.011 -21.179  18.599  1.00  0.00     0.123 A 
ATOM     12  C   UNL     1      -7.733 -21.280  19.790  1.00  0.00     0.093 A 
BRANCH   3  13
ATOM     13  C   UNL     1      -6.944 -15.179  17.984  1.00  0.00     0.021 A 
ATOM     14  C   UNL     1      -7.511 -14.940  16.722  1.00  0.00     0.016 A 
ATOM     15  C   UNL     1      -7.212 -13.768  16.022  1.00  0.00     0.047 A 
ATOM     16  C   UNL     1      -6.334 -12.827  16.569  1.00  0.00     0.115 A 
ATOM     17  C   UNL     1      -6.042 -14.243  18.516  1.00  0.00     0.016 A 
ATOM     18  C   UNL     1      -5.746 -13.070  17.816  1.00  0.00     0.047 A 
BRANCH  16  19
ATOM     19  O   UNL     1      -6.050 -11.660  15.864  1.00  0.00    -0.508 OA
ATOM     20  H   UNL     1      -6.107 -10.749  16.303  1.00  0.00     0.293 HD
ENDBRANCH  16  19
ENDBRANCH   3  13
BRANCH  10  21
ATOM     21  O   UNL     1      -8.908 -20.269  21.639  1.00  0.00    -0.507 OA
ATOM     22  H   UNL     1      -8.537 -19.955  22.528  1.00  0.00     0.293 HD
ENDBRANCH  10  21
BRANCH  11  23
ATOM     23  O   UNL     1      -6.568 -22.337  17.963  1.00  0.00    -0.508 OA
ATOM     24  H   UNL     1      -7.160 -23.153  17.876  1.00  0.00     0.293 HD
ENDBRANCH  11  23
ENDBRANCH   1   2
BRANCH   1  25
ATOM     25  C   UNL     1      -9.457 -14.951  21.397  1.00  0.00     0.339 C 
ATOM     26  C   UNL     1     -10.509 -13.971  20.842  1.00  0.00     0.214 C 
ATOM     27  O   UNL     1      -8.937 -14.529  22.654  1.00  0.00    -0.332 OA
ATOM     28  C   UNL     1      -9.923 -12.554  20.739  1.00  0.00     0.180 C 
ATOM     29  C   UNL     1      -8.394 -13.211  22.661  1.00  0.00     0.179 C 
ATOM     30  C   UNL     1      -9.367 -12.139  22.107  1.00  0.00     0.177 C 
BRANCH  26  31
ATOM     31  O   UNL     1     -11.004 -14.414  19.601  1.00  0.00    -0.384 OA
ATOM     32  H   UNL     1     -10.275 -14.338  18.933  1.00  0.00     0.211 HD
ENDBRANCH  26  31
BRANCH  28  33
ATOM     33  O   UNL     1     -10.917 -11.643  20.344  1.00  0.00    -0.387 OA
ATOM     34  H   UNL     1     -11.160 -11.869  19.409  1.00  0.00     0.211 HD
ENDBRANCH  28  33
BRANCH  29  35
ATOM     35  C   UNL     1      -6.991 -13.137  22.036  1.00  0.00     0.191 C 
BRANCH  35  36
ATOM     36  O   UNL     1      -6.292 -14.325  22.287  1.00  0.00    -0.394 OA
ATOM     37  H   UNL     1      -6.907 -15.064  22.042  1.00  0.00     0.210 HD
ENDBRANCH  35  36
ENDBRANCH  29  35
BRANCH  30  38
ATOM     38  O   UNL     1     -10.431 -11.958  23.009  1.00  0.00    -0.387 OA
ATOM     39  H   UNL     1     -10.800 -11.052  22.841  1.00  0.00     0.211 HD
ENDBRANCH  30  38
ENDBRANCH   1  25
TORSDOF 11
ENDMDL
MODEL 8
REMARK VINA RESULT:    -6.548      1.896      6.627
REMARK INTER + INTRA:         -10.508
REMARK INTER:                  -9.184
REMARK INTRA:                  -1.324
REMARK UNBOUND:                -1.090
REMARK SMILES O=c1c(O[C@H]2O[C@@H](CO)[C@H](O)[C@H](O)[C@H]2O)c(-c2ccc(O)cc2)oc2cc(O)cc(O)c12
REMARK SMILES IDX 4 1 3 2 16 3 24 4 2 5 25 6 1 7 32 8 26 9 30 10 27 11 29 12
REMARK SMILES IDX 17 13 18 14 19 15 20 16 23 17 22 18 21 19 31 21 28 23 5 25
REMARK SMILES IDX 14 26 6 27 12 28 7 29 10 30 15 31 13 33 8 35 9 36 11 38
REMARK H PARENT 21 20 31 22 28 24 15 32 13 34 9 37 11 39
REMARK Flexibility Score: inf
ROOT
ATOM      1  O   UNL     1     -10.050 -18.731  19.973  1.00  0.00    -0.454 OA
ENDROOT
BRANCH   1   2
ATOM      2  C   UNL     1     -10.353 -17.358  20.051  1.00  0.00     0.214 A 
ATOM      3  C   UNL     1     -11.663 -16.977  20.403  1.00  0.00     0.180 A 
ATOM      4  O   UNL     1     -11.994 -15.691  20.457  1.00  0.00    -0.452 OA
ATOM      5  C   UNL     1      -9.411 -16.342  19.778  1.00  0.00     0.239 A 
ATOM      6  C   UNL     1     -11.142 -14.707  20.208  1.00  0.00     0.146 A 
ATOM      7  O   UNL     1      -8.225 -16.641  19.480  1.00  0.00    -0.285 OA
ATOM      8  C   UNL     1      -9.802 -14.988  19.854  1.00  0.00     0.111 A 
ATOM      9  C   UNL     1     -11.584 -13.384  20.302  1.00  0.00     0.094 A 
ATOM     10  C   UNL     1      -8.921 -13.911  19.592  1.00  0.00     0.134 A 
ATOM     11  C   UNL     1     -10.707 -12.325  20.045  1.00  0.00     0.123 A 
ATOM     12  C   UNL     1      -9.384 -12.591  19.691  1.00  0.00     0.093 A 
BRANCH   3  13
ATOM     13  C   UNL     1     -12.723 -17.976  20.666  1.00  0.00     0.021 A 
ATOM     14  C   UNL     1     -13.647 -18.285  19.655  1.00  0.00     0.016 A 
ATOM     15  C   UNL     1     -14.653 -19.229  19.879  1.00  0.00     0.047 A 
ATOM     16  C   UNL     1     -14.756 -19.866  21.119  1.00  0.00     0.115 A 
ATOM     17  C   UNL     1     -12.849 -18.599  21.920  1.00  0.00     0.016 A 
ATOM     18  C   UNL     1     -13.854 -19.545  22.142  1.00  0.00     0.047 A 
BRANCH  16  19
ATOM     19  O   UNL     1     -15.760 -20.810  21.328  1.00  0.00    -0.508 OA
ATOM     20  H   UNL     1     -15.594 -21.799  21.183  1.00  0.00     0.293 HD
ENDBRANCH  16  19
ENDBRANCH   3  13
BRANCH  10  21
ATOM     21  O   UNL     1      -7.591 -14.140  19.232  1.00  0.00    -0.507 OA
ATOM     22  H   UNL     1      -6.936 -14.586  19.863  1.00  0.00     0.293 HD
ENDBRANCH  10  21
BRANCH  11  23
ATOM     23  O   UNL     1     -11.142 -11.005  20.141  1.00  0.00    -0.508 OA
ATOM     24  H   UNL     1     -11.040 -10.474  20.997  1.00  0.00     0.293 HD
ENDBRANCH  11  23
ENDBRANCH   1   2
BRANCH   1  25
ATOM     25  C   UNL     1      -9.737 -19.467  18.788  1.00  0.00     0.339 C 
ATOM     26  C   UNL     1     -10.314 -20.893  18.869  1.00  0.00     0.214 C 
ATOM     27  O   UNL     1      -8.340 -19.464  18.515  1.00  0.00    -0.332 OA
ATOM     28  C   UNL     1      -9.555 -21.722  19.917  1.00  0.00     0.180 C 
ATOM     29  C   UNL     1      -7.554 -20.233  19.423  1.00  0.00     0.179 C 
ATOM     30  C   UNL     1      -8.055 -21.690  19.594  1.00  0.00     0.177 C 
BRANCH  26  31
ATOM     31  O   UNL     1     -11.695 -20.862  19.139  1.00  0.00    -0.384 OA
ATOM     32  H   UNL     1     -11.852 -20.211  19.870  1.00  0.00     0.211 HD
ENDBRANCH  26  31
BRANCH  28  33
ATOM     33  O   UNL     1     -10.005 -23.053  19.905  1.00  0.00    -0.387 OA
ATOM     34  H   UNL     1     -10.917 -23.052  20.298  1.00  0.00     0.211 HD
ENDBRANCH  28  33
BRANCH  29  35
ATOM     35  C   UNL     1      -7.312 -19.515  20.762  1.00  0.00     0.191 C 
BRANCH  35  36
ATOM     36  O   UNL     1      -6.417 -18.453  20.579  1.00  0.00    -0.394 OA
ATOM     37  H   UNL     1      -5.907 -18.661  19.753  1.00  0.00     0.210 HD
ENDBRANCH  35  36
ENDBRANCH  29  35
BRANCH  30  38
ATOM     38  O   UNL     1      -7.816 -22.411  18.411  1.00  0.00    -0.387 OA
ATOM     39  H   UNL     1      -7.042 -23.008  18.588  1.00  0.00     0.211 HD
ENDBRANCH  30  38
ENDBRANCH   1  25
TORSDOF 11
ENDMDL
MODEL 9
REMARK VINA RESULT:    -6.538      1.864      6.837
REMARK INTER + INTRA:         -10.494
REMARK INTER:                  -8.951
REMARK INTRA:                  -1.542
REMARK UNBOUND:                -1.090
REMARK SMILES O=c1c(O[C@H]2O[C@@H](CO)[C@H](O)[C@H](O)[C@H]2O)c(-c2ccc(O)cc2)oc2cc(O)cc(O)c12
REMARK SMILES IDX 4 1 3 2 16 3 24 4 2 5 25 6 1 7 32 8 26 9 30 10 27 11 29 12
REMARK SMILES IDX 17 13 18 14 19 15 20 16 23 17 22 18 21 19 31 21 28 23 5 25
REMARK SMILES IDX 14 26 6 27 12 28 7 29 10 30 15 31 13 33 8 35 9 36 11 38
REMARK H PARENT 21 20 31 22 28 24 15 32 13 34 9 37 11 39
REMARK Flexibility Score: inf
ROOT
ATOM      1  O   UNL     1     -11.497 -16.538  20.149  1.00  0.00    -0.454 OA
ENDROOT
BRANCH   1   2
ATOM      2  C   UNL     1     -10.401 -15.795  20.628  1.00  0.00     0.214 A 
ATOM      3  C   UNL     1      -9.125 -16.393  20.616  1.00  0.00     0.180 A 
ATOM      4  O   UNL     1      -8.073 -15.733  21.088  1.00  0.00    -0.452 OA
ATOM      5  C   UNL     1     -10.520 -14.482  21.136  1.00  0.00     0.239 A 
ATOM      6  C   UNL     1      -8.141 -14.502  21.573  1.00  0.00     0.146 A 
ATOM      7  O   UNL     1     -11.639 -13.905  21.145  1.00  0.00    -0.285 OA
ATOM      8  C   UNL     1      -9.376 -13.815  21.621  1.00  0.00     0.111 A 
ATOM      9  C   UNL     1      -6.973 -13.888  22.037  1.00  0.00     0.094 A 
ATOM     10  C   UNL     1      -9.410 -12.500  22.149  1.00  0.00     0.134 A 
ATOM     11  C   UNL     1      -7.014 -12.590  22.554  1.00  0.00     0.123 A 
ATOM     12  C   UNL     1      -8.229 -11.903  22.610  1.00  0.00     0.093 A 
BRANCH   3  13
ATOM     13  C   UNL     1      -8.916 -17.778  20.138  1.00  0.00     0.021 A 
ATOM     14  C   UNL     1      -8.850 -18.827  21.070  1.00  0.00     0.016 A 
ATOM     15  C   UNL     1      -8.659 -20.144  20.642  1.00  0.00     0.047 A 
ATOM     16  C   UNL     1      -8.519 -20.427  19.280  1.00  0.00     0.115 A 
ATOM     17  C   UNL     1      -8.748 -18.066  18.773  1.00  0.00     0.016 A 
ATOM     18  C   UNL     1      -8.560 -19.384  18.346  1.00  0.00     0.047 A 
BRANCH  16  19
ATOM     19  O   UNL     1      -8.336 -21.745  18.867  1.00  0.00    -0.508 OA
ATOM     20  H   UNL     1      -8.379 -22.516  19.522  1.00  0.00     0.293 HD
ENDBRANCH  16  19
ENDBRANCH   3  13
BRANCH  10  21
ATOM     21  O   UNL     1     -10.607 -11.786  22.223  1.00  0.00    -0.507 OA
ATOM     22  H   UNL     1     -11.481 -12.172  21.882  1.00  0.00     0.293 HD
ENDBRANCH  10  21
BRANCH  11  23
ATOM     23  O   UNL     1      -5.853 -11.972  23.015  1.00  0.00    -0.508 OA
ATOM     24  H   UNL     1      -5.020 -12.505  23.231  1.00  0.00     0.293 HD
ENDBRANCH  11  23
ENDBRANCH   1   2
BRANCH   1  25
ATOM     25  C   UNL     1     -12.085 -16.444  18.849  1.00  0.00     0.339 C 
ATOM     26  C   UNL     1     -13.549 -15.974  18.950  1.00  0.00     0.214 C 
ATOM     27  O   UNL     1     -11.957 -17.660  18.120  1.00  0.00    -0.332 OA
ATOM     28  C   UNL     1     -14.425 -17.074  19.571  1.00  0.00     0.180 C 
ATOM     29  C   UNL     1     -12.757 -18.734  18.608  1.00  0.00     0.179 C 
ATOM     30  C   UNL     1     -14.255 -18.368  18.764  1.00  0.00     0.177 C 
BRANCH  26  31
ATOM     31  O   UNL     1     -13.642 -14.772  19.675  1.00  0.00    -0.384 OA
ATOM     32  H   UNL     1     -14.383 -14.236  19.290  1.00  0.00     0.211 HD
ENDBRANCH  26  31
BRANCH  28  33
ATOM     33  O   UNL     1     -15.776 -16.689  19.554  1.00  0.00    -0.387 OA
ATOM     34  H   UNL     1     -16.262 -17.317  20.148  1.00  0.00     0.211 HD
ENDBRANCH  28  33
BRANCH  29  35
ATOM     35  C   UNL     1     -12.164 -19.402  19.860  1.00  0.00     0.191 C 
BRANCH  35  36
ATOM     36  O   UNL     1     -11.976 -20.771  19.627  1.00  0.00    -0.394 OA
ATOM     37  H   UNL     1     -11.476 -21.119  20.410  1.00  0.00     0.210 HD
ENDBRANCH  35  36
ENDBRANCH  29  35
BRANCH  30  38
ATOM     38  O   UNL     1     -14.834 -18.206  17.492  1.00  0.00    -0.387 OA
ATOM     39  H   UNL     1     -15.624 -18.806  17.456  1.00  0.00     0.211 HD
ENDBRANCH  30  38
ENDBRANCH   1  25
TORSDOF 11
ENDMDL
