MODEL 1
REMARK VINA RESULT:    -5.866      0.000      0.000
REMARK INTER + INTRA:         -10.922
REMARK INTER:                  -8.953
REMARK INTRA:                  -1.969
REMARK UNBOUND:                -1.969
REMARK SMILES CC(=O)CCC=C(C)CCC=C(C)CCC=C(C)C
REMARK SMILES IDX 10 1 11 2 12 3 13 4 14 5 15 6 16 7 18 8 17 9 19 10 9 11 7 12
REMARK SMILES IDX 6 13 8 14 5 15 4 16 2 17 3 18 1 19
REMARK H PARENT
REMARK Flexibility Score: inf
ROOT
ATOM      1  C   UNL     1      19.932  28.040 -16.160  1.00  0.00     0.032 C 
ENDROOT
BRANCH   1   2
ATOM      2  C   UNL     1      20.965  29.086 -16.492  1.00  0.00    -0.028 C 
ATOM      3  C   UNL     1      22.301  28.905 -16.378  1.00  0.00    -0.077 C 
ATOM      4  C   UNL     1      22.894  27.580 -15.957  1.00  0.00     0.039 C 
BRANCH   3   5
ATOM      5  C   UNL     1      23.229  30.052 -16.707  1.00  0.00     0.034 C 
BRANCH   5   6
ATOM      6  C   UNL     1      23.777  29.917 -18.132  1.00  0.00     0.032 C 
BRANCH   6   7
ATOM      7  C   UNL     1      22.862  30.591 -19.124  1.00  0.00    -0.028 C 
ATOM      8  C   UNL     1      22.055  28.427 -20.093  1.00  0.00     0.039 C 
ATOM      9  C   UNL     1      22.100  29.935 -20.028  1.00  0.00    -0.080 C 
ATOM     10  C   UNL     1      21.262  30.746 -20.984  1.00  0.00     0.039 C 
ENDBRANCH   6   7
ENDBRANCH   5   6
ENDBRANCH   3   5
ENDBRANCH   1   2
BRANCH   1  11
ATOM     11  C   UNL     1      18.784  28.648 -15.348  1.00  0.00     0.034 C 
BRANCH  11  12
ATOM     12  C   UNL     1      18.488  27.803 -14.124  1.00  0.00    -0.077 C 
ATOM     13  C   UNL     1      19.002  28.079 -12.905  1.00  0.00    -0.028 C 
ATOM     14  C   UNL     1      17.534  26.645 -14.259  1.00  0.00     0.039 C 
BRANCH  13  15
ATOM     15  C   UNL     1      19.958  29.216 -12.636  1.00  0.00     0.035 C 
BRANCH  15  16
ATOM     16  C   UNL     1      21.414  28.755 -12.754  1.00  0.00     0.079 C 
BRANCH  16  17
ATOM     17  C   UNL     1      22.348  29.781 -12.174  1.00  0.00     0.130 C 
ATOM     18  O   UNL     1      22.359  29.979 -10.968  1.00  0.00    -0.300 OA
ATOM     19  C   UNL     1      23.254  30.575 -13.065  1.00  0.00     0.087 C 
ENDBRANCH  16  17
ENDBRANCH  15  16
ENDBRANCH  13  15
ENDBRANCH  11  12
ENDBRANCH   1  11
TORSDOF 9
ENDMDL
MODEL 2
REMARK VINA RESULT:    -5.813      5.001      8.141
REMARK INTER + INTRA:         -10.841
REMARK INTER:                  -9.269
REMARK INTRA:                  -1.571
REMARK UNBOUND:                -1.969
REMARK SMILES CC(=O)CCC=C(C)CCC=C(C)CCC=C(C)C
REMARK SMILES IDX 10 1 11 2 12 3 13 4 14 5 15 6 16 7 18 8 17 9 19 10 9 11 7 12
REMARK SMILES IDX 6 13 8 14 5 15 4 16 2 17 3 18 1 19
REMARK H PARENT
REMARK Flexibility Score: inf
ROOT
ATOM      1  C   UNL     1      22.698  26.942 -22.374  1.00  0.00     0.032 C 
ENDROOT
BRANCH   1   2
ATOM      2  C   UNL     1      22.030  25.634 -22.714  1.00  0.00    -0.028 C 
ATOM      3  C   UNL     1      21.346  25.399 -23.858  1.00  0.00    -0.077 C 
ATOM      4  C   UNL     1      21.243  26.434 -24.953  1.00  0.00     0.039 C 
BRANCH   3   5
ATOM      5  C   UNL     1      20.689  24.052 -24.057  1.00  0.00     0.034 C 
BRANCH   5   6
ATOM      6  C   UNL     1      21.742  22.943 -24.157  1.00  0.00     0.032 C 
BRANCH   6   7
ATOM      7  C   UNL     1      22.617  23.143 -25.369  1.00  0.00    -0.028 C 
ATOM      8  C   UNL     1      24.696  23.475 -24.011  1.00  0.00     0.039 C 
ATOM      9  C   UNL     1      23.942  23.408 -25.318  1.00  0.00    -0.080 C 
ATOM     10  C   UNL     1      24.681  23.624 -26.615  1.00  0.00     0.039 C 
ENDBRANCH   6   7
ENDBRANCH   5   6
ENDBRANCH   3   5
ENDBRANCH   1   2
BRANCH   1  11
ATOM     11  C   UNL     1      21.989  27.626 -21.201  1.00  0.00     0.034 C 
BRANCH  11  12
ATOM     12  C   UNL     1      21.787  29.102 -21.485  1.00  0.00    -0.077 C 
ATOM     13  C   UNL     1      21.854  30.047 -20.522  1.00  0.00    -0.028 C 
ATOM     14  C   UNL     1      21.562  29.539 -22.909  1.00  0.00     0.039 C 
BRANCH  13  15
ATOM     15  C   UNL     1      22.086  29.740 -19.062  1.00  0.00     0.035 C 
BRANCH  15  16
ATOM     16  C   UNL     1      23.327  30.469 -18.534  1.00  0.00     0.079 C 
BRANCH  16  17
ATOM     17  C   UNL     1      24.478  29.514 -18.372  1.00  0.00     0.130 C 
ATOM     18  O   UNL     1      25.606  29.866 -18.685  1.00  0.00    -0.300 OA
ATOM     19  C   UNL     1      24.250  28.131 -17.845  1.00  0.00     0.087 C 
ENDBRANCH  16  17
ENDBRANCH  15  16
ENDBRANCH  13  15
ENDBRANCH  11  12
ENDBRANCH   1  11
TORSDOF 9
ENDMDL
MODEL 3
REMARK VINA RESULT:    -5.808      2.446      6.309
REMARK INTER + INTRA:         -10.832
REMARK INTER:                  -9.280
REMARK INTRA:                  -1.552
REMARK UNBOUND:                -1.969
REMARK SMILES CC(=O)CCC=C(C)CCC=C(C)CCC=C(C)C
REMARK SMILES IDX 10 1 11 2 12 3 13 4 14 5 15 6 16 7 18 8 17 9 19 10 9 11 7 12
REMARK SMILES IDX 6 13 8 14 5 15 4 16 2 17 3 18 1 19
REMARK H PARENT
REMARK Flexibility Score: inf
ROOT
ATOM      1  C   UNL     1      22.863  29.194 -14.763  1.00  0.00     0.032 C 
ENDROOT
BRANCH   1   2
ATOM      2  C   UNL     1      21.834  29.015 -13.677  1.00  0.00    -0.028 C 
ATOM      3  C   UNL     1      22.107  28.567 -12.429  1.00  0.00    -0.077 C 
ATOM      4  C   UNL     1      23.518  28.260 -11.984  1.00  0.00     0.039 C 
BRANCH   3   5
ATOM      5  C   UNL     1      20.973  28.395 -11.445  1.00  0.00     0.034 C 
BRANCH   5   6
ATOM      6  C   UNL     1      19.634  28.777 -12.086  1.00  0.00     0.032 C 
BRANCH   6   7
ATOM      7  C   UNL     1      18.728  27.575 -12.190  1.00  0.00    -0.028 C 
ATOM      8  C   UNL     1      17.665  28.359 -14.318  1.00  0.00     0.039 C 
ATOM      9  C   UNL     1      17.821  27.385 -13.174  1.00  0.00    -0.080 C 
ATOM     10  C   UNL     1      16.956  26.152 -13.125  1.00  0.00     0.039 C 
ENDBRANCH   6   7
ENDBRANCH   5   6
ENDBRANCH   3   5
ENDBRANCH   1   2
BRANCH   1  11
ATOM     11  C   UNL     1      22.806  28.035 -15.762  1.00  0.00     0.034 C 
BRANCH  11  12
ATOM     12  C   UNL     1      21.483  28.032 -16.504  1.00  0.00    -0.077 C 
ATOM     13  C   UNL     1      21.212  28.884 -17.517  1.00  0.00    -0.028 C 
ATOM     14  C   UNL     1      20.452  26.997 -16.137  1.00  0.00     0.039 C 
BRANCH  13  15
ATOM     15  C   UNL     1      22.165  29.956 -17.988  1.00  0.00     0.035 C 
BRANCH  15  16
ATOM     16  C   UNL     1      22.854  29.549 -19.295  1.00  0.00     0.079 C 
BRANCH  16  17
ATOM     17  C   UNL     1      24.178  28.890 -19.018  1.00  0.00     0.130 C 
ATOM     18  O   UNL     1      24.358  27.728 -19.348  1.00  0.00    -0.300 OA
ATOM     19  C   UNL     1      25.271  29.644 -18.325  1.00  0.00     0.087 C 
ENDBRANCH  16  17
ENDBRANCH  15  16
ENDBRANCH  13  15
ENDBRANCH  11  12
ENDBRANCH   1  11
TORSDOF 9
ENDMDL
MODEL 4
REMARK VINA RESULT:    -5.745      1.860      4.501
REMARK INTER + INTRA:         -10.737
REMARK INTER:                  -8.863
REMARK INTRA:                  -1.875
REMARK UNBOUND:                -1.969
REMARK SMILES CC(=O)CCC=C(C)CCC=C(C)CCC=C(C)C
REMARK SMILES IDX 10 1 11 2 12 3 13 4 14 5 15 6 16 7 18 8 17 9 19 10 9 11 7 12
REMARK SMILES IDX 6 13 8 14 5 15 4 16 2 17 3 18 1 19
REMARK H PARENT
REMARK Flexibility Score: inf
ROOT
ATOM      1  C   UNL     1      20.071  29.206 -11.516  1.00  0.00     0.032 C 
ENDROOT
BRANCH   1   2
ATOM      2  C   UNL     1      19.708  29.137 -12.977  1.00  0.00    -0.028 C 
ATOM      3  C   UNL     1      18.789  28.292 -13.498  1.00  0.00    -0.077 C 
ATOM      4  C   UNL     1      17.977  27.361 -12.628  1.00  0.00     0.039 C 
BRANCH   3   5
ATOM      5  C   UNL     1      18.548  28.298 -14.991  1.00  0.00     0.034 C 
BRANCH   5   6
ATOM      6  C   UNL     1      19.676  27.567 -15.726  1.00  0.00     0.032 C 
BRANCH   6   7
ATOM      7  C   UNL     1      20.490  28.531 -16.553  1.00  0.00    -0.028 C 
ATOM      8  C   UNL     1      22.629  27.995 -15.365  1.00  0.00     0.039 C 
ATOM      9  C   UNL     1      21.813  28.753 -16.385  1.00  0.00    -0.080 C 
ATOM     10  C   UNL     1      22.486  29.778 -17.262  1.00  0.00     0.039 C 
ENDBRANCH   6   7
ENDBRANCH   5   6
ENDBRANCH   3   5
ENDBRANCH   1   2
BRANCH   1  11
ATOM     11  C   UNL     1      21.109  28.135 -11.162  1.00  0.00     0.034 C 
BRANCH  11  12
ATOM     12  C   UNL     1      21.551  28.275  -9.718  1.00  0.00    -0.077 C 
ATOM     13  C   UNL     1      22.713  28.868  -9.365  1.00  0.00    -0.028 C 
ATOM     14  C   UNL     1      20.630  27.788  -8.630  1.00  0.00     0.039 C 
BRANCH  13  15
ATOM     15  C   UNL     1      23.714  29.408 -10.357  1.00  0.00     0.035 C 
BRANCH  15  16
ATOM     16  C   UNL     1      23.645  30.937 -10.437  1.00  0.00     0.079 C 
BRANCH  16  17
ATOM     17  C   UNL     1      22.999  31.376 -11.722  1.00  0.00     0.130 C 
ATOM     18  O   UNL     1      22.179  32.282 -11.711  1.00  0.00    -0.300 OA
ATOM     19  C   UNL     1      23.341  30.699 -13.014  1.00  0.00     0.087 C 
ENDBRANCH  16  17
ENDBRANCH  15  16
ENDBRANCH  13  15
ENDBRANCH  11  12
ENDBRANCH   1  11
TORSDOF 9
ENDMDL
MODEL 5
REMARK VINA RESULT:    -5.604      1.467      2.268
REMARK INTER + INTRA:         -10.521
REMARK INTER:                  -8.649
REMARK INTRA:                  -1.873
REMARK UNBOUND:                -1.969
REMARK SMILES CC(=O)CCC=C(C)CCC=C(C)CCC=C(C)C
REMARK SMILES IDX 10 1 11 2 12 3 13 4 14 5 15 6 16 7 18 8 17 9 19 10 9 11 7 12
REMARK SMILES IDX 6 13 8 14 5 15 4 16 2 17 3 18 1 19
REMARK H PARENT
REMARK Flexibility Score: inf
ROOT
ATOM      1  C   UNL     1      18.492  28.430 -14.909  1.00  0.00     0.032 C 
ENDROOT
BRANCH   1   2
ATOM      2  C   UNL     1      19.995  28.427 -14.798  1.00  0.00    -0.028 C 
ATOM      3  C   UNL     1      20.823  27.767 -15.641  1.00  0.00    -0.077 C 
ATOM      4  C   UNL     1      20.303  27.005 -16.837  1.00  0.00     0.039 C 
BRANCH   3   5
ATOM      5  C   UNL     1      22.314  27.815 -15.393  1.00  0.00     0.034 C 
BRANCH   5   6
ATOM      6  C   UNL     1      22.830  29.256 -15.461  1.00  0.00     0.032 C 
BRANCH   6   7
ATOM      7  C   UNL     1      22.479  29.889 -16.784  1.00  0.00    -0.028 C 
ATOM      8  C   UNL     1      24.778  29.576 -17.727  1.00  0.00     0.039 C 
ATOM      9  C   UNL     1      23.350  30.062 -17.803  1.00  0.00    -0.080 C 
ATOM     10  C   UNL     1      22.864  30.748 -19.055  1.00  0.00     0.039 C 
ENDBRANCH   6   7
ENDBRANCH   5   6
ENDBRANCH   3   5
ENDBRANCH   1   2
BRANCH   1  11
ATOM     11  C   UNL     1      17.846  28.619 -13.533  1.00  0.00     0.034 C 
BRANCH  11  12
ATOM     12  C   UNL     1      17.921  27.337 -12.726  1.00  0.00    -0.077 C 
ATOM     13  C   UNL     1      18.672  27.221 -11.608  1.00  0.00    -0.028 C 
ATOM     14  C   UNL     1      17.076  26.165 -13.152  1.00  0.00     0.039 C 
BRANCH  13  15
ATOM     15  C   UNL     1      19.551  28.324 -11.070  1.00  0.00     0.035 C 
BRANCH  15  16
ATOM     16  C   UNL     1      20.996  27.845 -10.895  1.00  0.00     0.079 C 
BRANCH  16  17
ATOM     17  C   UNL     1      21.950  28.749 -11.626  1.00  0.00     0.130 C 
ATOM     18  O   UNL     1      23.065  28.343 -11.920  1.00  0.00    -0.300 OA
ATOM     19  C   UNL     1      21.550  30.148 -11.982  1.00  0.00     0.087 C 
ENDBRANCH  16  17
ENDBRANCH  15  16
ENDBRANCH  13  15
ENDBRANCH  11  12
ENDBRANCH   1  11
TORSDOF 9
ENDMDL
MODEL 6
REMARK VINA RESULT:    -5.584      6.086      9.688
REMARK INTER + INTRA:         -10.492
REMARK INTER:                  -8.867
REMARK INTRA:                  -1.625
REMARK UNBOUND:                -1.969
REMARK SMILES CC(=O)CCC=C(C)CCC=C(C)CCC=C(C)C
REMARK SMILES IDX 10 1 11 2 12 3 13 4 14 5 15 6 16 7 18 8 17 9 19 10 9 11 7 12
REMARK SMILES IDX 6 13 8 14 5 15 4 16 2 17 3 18 1 19
REMARK H PARENT
REMARK Flexibility Score: inf
ROOT
ATOM      1  C   UNL     1      22.493  26.210 -22.897  1.00  0.00     0.032 C 
ENDROOT
BRANCH   1   2
ATOM      2  C   UNL     1      22.215  27.383 -21.993  1.00  0.00    -0.028 C 
ATOM      3  C   UNL     1      21.943  28.636 -22.426  1.00  0.00    -0.077 C 
ATOM      4  C   UNL     1      21.828  28.965 -23.896  1.00  0.00     0.039 C 
BRANCH   3   5
ATOM      5  C   UNL     1      21.721  29.733 -21.409  1.00  0.00     0.034 C 
BRANCH   5   6
ATOM      6  C   UNL     1      21.792  29.176 -19.984  1.00  0.00     0.032 C 
BRANCH   6   7
ATOM      7  C   UNL     1      22.952  29.778 -19.231  1.00  0.00    -0.028 C 
ATOM      8  C   UNL     1      24.187  27.605 -19.073  1.00  0.00     0.039 C 
ATOM      9  C   UNL     1      24.024  29.080 -18.793  1.00  0.00    -0.080 C 
ATOM     10  C   UNL     1      25.090  29.812 -18.019  1.00  0.00     0.039 C 
ENDBRANCH   6   7
ENDBRANCH   5   6
ENDBRANCH   3   5
ENDBRANCH   1   2
BRANCH   1  11
ATOM     11  C   UNL     1      21.460  25.100 -22.679  1.00  0.00     0.034 C 
BRANCH  11  12
ATOM     12  C   UNL     1      20.600  24.918 -23.916  1.00  0.00    -0.077 C 
ATOM     13  C   UNL     1      20.831  23.950 -24.830  1.00  0.00    -0.028 C 
ATOM     14  C   UNL     1      19.404  25.815 -24.102  1.00  0.00     0.039 C 
BRANCH  13  15
ATOM     15  C   UNL     1      21.986  22.981 -24.751  1.00  0.00     0.035 C 
BRANCH  15  16
ATOM     16  C   UNL     1      22.942  23.164 -25.935  1.00  0.00     0.079 C 
BRANCH  16  17
ATOM     17  C   UNL     1      24.350  23.387 -25.454  1.00  0.00     0.130 C 
ATOM     18  O   UNL     1      25.244  23.581 -26.265  1.00  0.00    -0.300 OA
ATOM     19  C   UNL     1      24.667  23.359 -23.990  1.00  0.00     0.087 C 
ENDBRANCH  16  17
ENDBRANCH  15  16
ENDBRANCH  13  15
ENDBRANCH  11  12
ENDBRANCH   1  11
TORSDOF 9
ENDMDL
MODEL 7
REMARK VINA RESULT:    -5.535      1.984      4.109
REMARK INTER + INTRA:         -10.416
REMARK INTER:                  -8.474
REMARK INTRA:                  -1.942
REMARK UNBOUND:                -1.969
REMARK SMILES CC(=O)CCC=C(C)CCC=C(C)CCC=C(C)C
REMARK SMILES IDX 10 1 11 2 12 3 13 4 14 5 15 6 16 7 18 8 17 9 19 10 9 11 7 12
REMARK SMILES IDX 6 13 8 14 5 15 4 16 2 17 3 18 1 19
REMARK H PARENT
REMARK Flexibility Score: inf
ROOT
ATOM      1  C   UNL     1      23.596  28.998 -12.382  1.00  0.00     0.032 C 
ENDROOT
BRANCH   1   2
ATOM      2  C   UNL     1      23.022  28.313 -13.595  1.00  0.00    -0.028 C 
ATOM      3  C   UNL     1      22.831  28.912 -14.794  1.00  0.00    -0.077 C 
ATOM      4  C   UNL     1      23.247  30.342 -15.047  1.00  0.00     0.039 C 
BRANCH   3   5
ATOM      5  C   UNL     1      22.209  28.118 -15.921  1.00  0.00     0.034 C 
BRANCH   5   6
ATOM      6  C   UNL     1      21.231  28.986 -16.721  1.00  0.00     0.032 C 
BRANCH   6   7
ATOM      7  C   UNL     1      21.355  28.709 -18.199  1.00  0.00    -0.028 C 
ATOM      8  C   UNL     1      22.874  30.660 -18.600  1.00  0.00     0.039 C 
ATOM      9  C   UNL     1      22.070  29.467 -19.060  1.00  0.00    -0.080 C 
ATOM     10  C   UNL     1      22.070  29.088 -20.519  1.00  0.00     0.039 C 
ENDBRANCH   6   7
ENDBRANCH   5   6
ENDBRANCH   3   5
ENDBRANCH   1   2
BRANCH   1  11
ATOM     11  C   UNL     1      22.520  29.191 -11.308  1.00  0.00     0.034 C 
BRANCH  11  12
ATOM     12  C   UNL     1      21.527  30.257 -11.731  1.00  0.00    -0.077 C 
ATOM     13  C   UNL     1      20.244  29.974 -12.047  1.00  0.00    -0.028 C 
ATOM     14  C   UNL     1      21.972  31.696 -11.740  1.00  0.00     0.039 C 
BRANCH  13  15
ATOM     15  C   UNL     1      19.673  28.577 -12.065  1.00  0.00     0.035 C 
BRANCH  15  16
ATOM     16  C   UNL     1      19.398  28.109 -13.498  1.00  0.00     0.079 C 
BRANCH  16  17
ATOM     17  C   UNL     1      18.039  27.474 -13.601  1.00  0.00     0.130 C 
ATOM     18  O   UNL     1      17.530  27.305 -14.699  1.00  0.00    -0.300 OA
ATOM     19  C   UNL     1      17.297  27.062 -12.366  1.00  0.00     0.087 C 
ENDBRANCH  16  17
ENDBRANCH  15  16
ENDBRANCH  13  15
ENDBRANCH  11  12
ENDBRANCH   1  11
TORSDOF 9
ENDMDL
MODEL 8
REMARK VINA RESULT:    -5.534      2.563      7.003
REMARK INTER + INTRA:         -10.415
REMARK INTER:                  -8.681
REMARK INTRA:                  -1.735
REMARK UNBOUND:                -1.969
REMARK SMILES CC(=O)CCC=C(C)CCC=C(C)CCC=C(C)C
REMARK SMILES IDX 10 1 11 2 12 3 13 4 14 5 15 6 16 7 18 8 17 9 19 10 9 11 7 12
REMARK SMILES IDX 6 13 8 14 5 15 4 16 2 17 3 18 1 19
REMARK H PARENT
REMARK Flexibility Score: inf
ROOT
ATOM      1  C   UNL     1      20.674  27.750 -16.646  1.00  0.00     0.032 C 
ENDROOT
BRANCH   1   2
ATOM      2  C   UNL     1      19.668  27.023 -15.790  1.00  0.00    -0.028 C 
ATOM      3  C   UNL     1      18.625  27.617 -15.165  1.00  0.00    -0.077 C 
ATOM      4  C   UNL     1      18.331  29.090 -15.327  1.00  0.00     0.039 C 
BRANCH   3   5
ATOM      5  C   UNL     1      17.711  26.776 -14.303  1.00  0.00     0.034 C 
BRANCH   5   6
ATOM      6  C   UNL     1      17.392  27.495 -12.987  1.00  0.00     0.032 C 
BRANCH   6   7
ATOM      7  C   UNL     1      18.303  27.021 -11.883  1.00  0.00    -0.028 C 
ATOM      8  C   UNL     1      19.667  29.121 -11.887  1.00  0.00     0.039 C 
ATOM      9  C   UNL     1      19.345  27.730 -11.395  1.00  0.00    -0.080 C 
ATOM     10  C   UNL     1      20.194  27.109 -10.315  1.00  0.00     0.039 C 
ENDBRANCH   6   7
ENDBRANCH   5   6
ENDBRANCH   3   5
ENDBRANCH   1   2
BRANCH   1  11
ATOM     11  C   UNL     1      22.094  27.542 -16.110  1.00  0.00     0.034 C 
BRANCH  11  12
ATOM     12  C   UNL     1      22.661  28.844 -15.577  1.00  0.00    -0.077 C 
ATOM     13  C   UNL     1      23.260  29.759 -16.372  1.00  0.00    -0.028 C 
ATOM     14  C   UNL     1      22.494  29.160 -14.114  1.00  0.00     0.039 C 
BRANCH  13  15
ATOM     15  C   UNL     1      23.477  29.568 -17.853  1.00  0.00     0.035 C 
BRANCH  15  16
ATOM     16  C   UNL     1      22.654  30.573 -18.667  1.00  0.00     0.079 C 
BRANCH  16  17
ATOM     17  C   UNL     1      22.107  29.931 -19.912  1.00  0.00     0.130 C 
ATOM     18  O   UNL     1      21.765  30.629 -20.855  1.00  0.00    -0.300 OA
ATOM     19  C   UNL     1      21.962  28.442 -19.999  1.00  0.00     0.087 C 
ENDBRANCH  16  17
ENDBRANCH  15  16
ENDBRANCH  13  15
ENDBRANCH  11  12
ENDBRANCH   1  11
TORSDOF 9
ENDMDL
MODEL 9
REMARK VINA RESULT:    -5.467      3.379      7.804
REMARK INTER + INTRA:         -10.313
REMARK INTER:                  -8.786
REMARK INTRA:                  -1.527
REMARK UNBOUND:                -1.969
REMARK SMILES CC(=O)CCC=C(C)CCC=C(C)CCC=C(C)C
REMARK SMILES IDX 10 1 11 2 12 3 13 4 14 5 15 6 16 7 18 8 17 9 19 10 9 11 7 12
REMARK SMILES IDX 6 13 8 14 5 15 4 16 2 17 3 18 1 19
REMARK H PARENT
REMARK Flexibility Score: inf
ROOT
ATOM      1  C   UNL     1      22.441  30.008 -17.780  1.00  0.00     0.032 C 
ENDROOT
BRANCH   1   2
ATOM      2  C   UNL     1      21.272  29.217 -17.250  1.00  0.00    -0.028 C 
ATOM      3  C   UNL     1      21.382  28.153 -16.421  1.00  0.00    -0.077 C 
ATOM      4  C   UNL     1      22.718  27.690 -15.889  1.00  0.00     0.039 C 
BRANCH   3   5
ATOM      5  C   UNL     1      20.129  27.422 -15.994  1.00  0.00     0.034 C 
BRANCH   5   6
ATOM      6  C   UNL     1      19.116  28.394 -15.378  1.00  0.00     0.032 C 
BRANCH   6   7
ATOM      7  C   UNL     1      18.660  27.906 -14.025  1.00  0.00    -0.028 C 
ATOM      8  C   UNL     1      20.621  28.901 -12.826  1.00  0.00     0.039 C 
ATOM      9  C   UNL     1      19.338  28.105 -12.873  1.00  0.00    -0.080 C 
ATOM     10  C   UNL     1      18.778  27.523 -11.600  1.00  0.00     0.039 C 
ENDBRANCH   6   7
ENDBRANCH   5   6
ENDBRANCH   3   5
ENDBRANCH   1   2
BRANCH   1  11
ATOM     11  C   UNL     1      22.513  29.912 -19.307  1.00  0.00     0.034 C 
BRANCH  11  12
ATOM     12  C   UNL     1      23.095  28.577 -19.732  1.00  0.00    -0.077 C 
ATOM     13  C   UNL     1      22.524  27.801 -20.680  1.00  0.00    -0.028 C 
ATOM     14  C   UNL     1      24.393  28.126 -19.116  1.00  0.00     0.039 C 
BRANCH  13  15
ATOM     15  C   UNL     1      21.232  28.146 -21.380  1.00  0.00     0.035 C 
BRANCH  15  16
ATOM     16  C   UNL     1      20.418  26.886 -21.692  1.00  0.00     0.079 C 
BRANCH  16  17
ATOM     17  C   UNL     1      21.101  26.055 -22.743  1.00  0.00     0.130 C 
ATOM     18  O   UNL     1      21.427  24.904 -22.490  1.00  0.00    -0.300 OA
ATOM     19  C   UNL     1      21.400  26.633 -24.093  1.00  0.00     0.087 C 
ENDBRANCH  16  17
ENDBRANCH  15  16
ENDBRANCH  13  15
ENDBRANCH  11  12
ENDBRANCH   1  11
TORSDOF 9
ENDMDL
