MODEL 1
REMARK VINA RESULT:   114.666      0.000      0.000
REMARK INTER + INTRA:         125.648
REMARK INTER:                 124.721
REMARK INTRA:                   0.927
REMARK UNBOUND:                 0.927
REMARK SMILES C=C(C)[C@H]1CC[C@@]2(C)CC[C@@]3(C)[C@@H](CC[C@H]4[C@]5(C)CC[C@@H](O)C(C)(C)[C@@H]5CC[C@]43C)[C@H]12
REMARK SMILES IDX 4 1 5 2 6 3 7 4 31 5 13 6 14 7 15 8 16 9 17 10 19 11 20 12
REMARK SMILES IDX 21 13 23 14 26 15 27 16 28 17 29 18 11 19 10 20 9 21 12 22
REMARK SMILES IDX 30 23 24 24 25 25 18 26 8 27 2 28 3 29 1 30 22 31
REMARK H PARENT 22 32
REMARK Flexibility Score: inf
ROOT
ATOM      1  C   UNL     1     -16.823  -9.804  16.531  1.00  0.00     0.018 C 
ATOM      2  C   UNL     1     -16.269  -9.581  17.961  1.00  0.00     0.009 C 
ATOM      3  C   UNL     1     -16.102 -10.974  18.593  1.00  0.00     0.008 C 
ATOM      4  C   UNL     1     -16.074 -11.938  17.401  1.00  0.00    -0.029 C 
ATOM      5  C   UNL     1     -17.136 -11.313  16.485  1.00  0.00     0.006 C 
ATOM      6  C   UNL     1     -17.217 -12.070  15.132  1.00  0.00    -0.000 C 
ATOM      7  C   UNL     1     -18.129 -11.388  14.124  1.00  0.00     0.005 C 
ATOM      8  C   UNL     1     -18.039 -12.087  12.774  1.00  0.00     0.005 C 
ATOM      9  C   UNL     1     -18.408 -13.620  12.785  1.00  0.00     0.002 C 
ATOM     10  C   UNL     1     -18.345 -14.222  11.286  1.00  0.00    -0.026 C 
ATOM     11  C   UNL     1     -19.069 -15.587  11.120  1.00  0.00     0.010 C 
ATOM     12  C   UNL     1     -19.125 -16.114   9.665  1.00  0.00     0.033 C 
ATOM     13  C   UNL     1     -18.005 -15.613   8.706  1.00  0.00     0.120 C 
ATOM     14  C   UNL     1     -16.659 -15.223   9.424  1.00  0.00    -0.006 C 
ATOM     15  C   UNL     1     -16.851 -14.437  10.825  1.00  0.00     0.003 C 
ATOM     16  C   UNL     1     -15.973 -15.069  11.954  1.00  0.00     0.005 C 
ATOM     17  C   UNL     1     -16.096 -14.464  13.358  1.00  0.00     0.008 C 
ATOM     18  C   UNL     1     -17.557 -14.376  13.902  1.00  0.00    -0.024 C 
ATOM     19  C   UNL     1     -17.631 -13.589  15.328  1.00  0.00    -0.024 C 
ATOM     20  C   UNL     1     -16.687 -14.224  16.436  1.00  0.00     0.008 C 
ATOM     21  C   UNL     1     -16.512 -13.378  17.727  1.00  0.00     0.007 C 
ATOM     22  C   UNL     1     -19.096 -13.698  15.894  1.00  0.00     0.012 C 
ATOM     23  C   UNL     1     -18.101 -15.832  14.126  1.00  0.00     0.012 C 
ATOM     24  C   UNL     1     -15.822 -14.318   8.481  1.00  0.00     0.014 C 
ATOM     25  C   UNL     1     -15.850 -16.556   9.544  1.00  0.00     0.014 C 
ATOM     26  C   UNL     1     -19.119 -13.201  10.373  1.00  0.00     0.012 C 
ATOM     27  C   UNL     1     -14.620 -11.942  16.828  1.00  0.00     0.011 C 
ENDROOT
BRANCH   1  28
ATOM     28  C   UNL     1     -18.025  -8.904  16.252  1.00  0.00    -0.077 C 
ATOM     29  C   UNL     1     -19.101  -9.301  15.270  1.00  0.00     0.039 C 
ATOM     30  C   UNL     1     -18.171  -7.752  16.927  1.00  0.00     0.008 C 
ENDBRANCH   1  28
BRANCH  13  31
ATOM     31  O   UNL     1     -18.463 -14.569   7.879  1.00  0.00    -0.393 OA
ATOM     32  H   UNL     1     -17.860 -13.792   8.018  1.00  0.00     0.210 HD
ENDBRANCH  13  31
TORSDOF 2
ENDMDL
MODEL 2
REMARK VINA RESULT:   114.766     14.965     18.765
REMARK INTER + INTRA:         125.757
REMARK INTER:                 125.727
REMARK INTRA:                   0.030
REMARK UNBOUND:                 0.927
REMARK SMILES C=C(C)[C@H]1CC[C@@]2(C)CC[C@@]3(C)[C@@H](CC[C@H]4[C@]5(C)CC[C@@H](O)C(C)(C)[C@@H]5CC[C@]43C)[C@H]12
REMARK SMILES IDX 4 1 5 2 6 3 7 4 31 5 13 6 14 7 15 8 16 9 17 10 19 11 20 12
REMARK SMILES IDX 21 13 23 14 26 15 27 16 28 17 29 18 11 19 10 20 9 21 12 22
REMARK SMILES IDX 30 23 24 24 25 25 18 26 8 27 2 28 3 29 1 30 22 31
REMARK H PARENT 22 32
REMARK Flexibility Score: inf
ROOT
ATOM      1  C   UNL     1      -7.782  -0.238  16.202  1.00  0.00     0.018 C 
ATOM      2  C   UNL     1      -8.741   0.978  16.245  1.00  0.00     0.009 C 
ATOM      3  C   UNL     1      -8.518   1.669  17.603  1.00  0.00     0.008 C 
ATOM      4  C   UNL     1      -7.146   1.169  18.069  1.00  0.00    -0.029 C 
ATOM      5  C   UNL     1      -7.196  -0.300  17.626  1.00  0.00     0.006 C 
ATOM      6  C   UNL     1      -5.841  -1.009  17.901  1.00  0.00    -0.000 C 
ATOM      7  C   UNL     1      -5.779  -2.415  17.326  1.00  0.00     0.005 C 
ATOM      8  C   UNL     1      -4.379  -2.991  17.488  1.00  0.00     0.005 C 
ATOM      9  C   UNL     1      -3.850  -3.063  18.972  1.00  0.00     0.002 C 
ATOM     10  C   UNL     1      -2.391  -3.758  19.013  1.00  0.00    -0.026 C 
ATOM     11  C   UNL     1      -1.960  -4.243  20.424  1.00  0.00     0.010 C 
ATOM     12  C   UNL     1      -0.622  -5.022  20.457  1.00  0.00     0.033 C 
ATOM     13  C   UNL     1       0.385  -4.712  19.311  1.00  0.00     0.120 C 
ATOM     14  C   UNL     1       0.250  -3.268  18.697  1.00  0.00    -0.006 C 
ATOM     15  C   UNL     1      -1.275  -2.760  18.512  1.00  0.00     0.003 C 
ATOM     16  C   UNL     1      -1.468  -1.322  19.094  1.00  0.00     0.005 C 
ATOM     17  C   UNL     1      -2.882  -0.730  19.042  1.00  0.00     0.008 C 
ATOM     18  C   UNL     1      -3.989  -1.635  19.669  1.00  0.00    -0.024 C 
ATOM     19  C   UNL     1      -5.482  -1.017  19.446  1.00  0.00    -0.024 C 
ATOM     20  C   UNL     1      -5.627   0.464  20.000  1.00  0.00     0.008 C 
ATOM     21  C   UNL     1      -6.932   1.202  19.593  1.00  0.00     0.007 C 
ATOM     22  C   UNL     1      -6.517  -1.885  20.254  1.00  0.00     0.012 C 
ATOM     23  C   UNL     1      -3.738  -1.744  21.215  1.00  0.00     0.012 C 
ATOM     24  C   UNL     1       0.934  -3.240  17.304  1.00  0.00     0.014 C 
ATOM     25  C   UNL     1       1.125  -2.345  19.607  1.00  0.00     0.014 C 
ATOM     26  C   UNL     1      -2.496  -5.047  18.118  1.00  0.00     0.012 C 
ATOM     27  C   UNL     1      -6.057   2.040  17.361  1.00  0.00     0.011 C 
ENDROOT
BRANCH   1  28
ATOM     28  C   UNL     1      -8.510  -1.508  15.766  1.00  0.00    -0.077 C 
ATOM     29  C   UNL     1      -8.911  -1.738  14.329  1.00  0.00     0.039 C 
ATOM     30  C   UNL     1      -8.759  -2.479  16.661  1.00  0.00     0.008 C 
ENDBRANCH   1  28
BRANCH  13  31
ATOM     31  O   UNL     1       0.343  -5.698  18.306  1.00  0.00    -0.393 OA
ATOM     32  H   UNL     1       0.542  -6.571  18.736  1.00  0.00     0.210 HD
ENDBRANCH  13  31
TORSDOF 2
ENDMDL
MODEL 3
REMARK VINA RESULT:   117.029     15.333     19.009
REMARK INTER + INTRA:         128.219
REMARK INTER:                 128.760
REMARK INTRA:                  -0.541
REMARK UNBOUND:                 0.927
REMARK SMILES C=C(C)[C@H]1CC[C@@]2(C)CC[C@@]3(C)[C@@H](CC[C@H]4[C@]5(C)CC[C@@H](O)C(C)(C)[C@@H]5CC[C@]43C)[C@H]12
REMARK SMILES IDX 4 1 5 2 6 3 7 4 31 5 13 6 14 7 15 8 16 9 17 10 19 11 20 12
REMARK SMILES IDX 21 13 23 14 26 15 27 16 28 17 29 18 11 19 10 20 9 21 12 22
REMARK SMILES IDX 30 23 24 24 25 25 18 26 8 27 2 28 3 29 1 30 22 31
REMARK H PARENT 22 32
REMARK Flexibility Score: inf
ROOT
ATOM      1  C   UNL     1       0.144  -2.516  18.109  1.00  0.00     0.018 C 
ATOM      2  C   UNL     1       1.114  -3.590  18.662  1.00  0.00     0.009 C 
ATOM      3  C   UNL     1       0.365  -4.322  19.791  1.00  0.00     0.008 C 
ATOM      4  C   UNL     1      -1.115  -4.019  19.531  1.00  0.00    -0.029 C 
ATOM      5  C   UNL     1      -1.048  -2.551  19.085  1.00  0.00     0.006 C 
ATOM      6  C   UNL     1      -2.448  -2.038  18.654  1.00  0.00    -0.000 C 
ATOM      7  C   UNL     1      -2.407  -0.645  18.042  1.00  0.00     0.005 C 
ATOM      8  C   UNL     1      -3.778  -0.268  17.497  1.00  0.00     0.005 C 
ATOM      9  C   UNL     1      -4.949  -0.286  18.553  1.00  0.00     0.002 C 
ATOM     10  C   UNL     1      -6.329   0.202  17.866  1.00  0.00    -0.026 C 
ATOM     11  C   UNL     1      -7.433   0.608  18.882  1.00  0.00     0.010 C 
ATOM     12  C   UNL     1      -8.714   1.196  18.241  1.00  0.00     0.033 C 
ATOM     13  C   UNL     1      -9.011   0.766  16.775  1.00  0.00     0.120 C 
ATOM     14  C   UNL     1      -8.422  -0.639  16.375  1.00  0.00    -0.006 C 
ATOM     15  C   UNL     1      -6.940  -0.932  16.955  1.00  0.00     0.003 C 
ATOM     16  C   UNL     1      -6.866  -2.337  17.636  1.00  0.00     0.005 C 
ATOM     17  C   UNL     1      -5.534  -2.730  18.286  1.00  0.00     0.008 C 
ATOM     18  C   UNL     1      -4.978  -1.691  19.309  1.00  0.00    -0.024 C 
ATOM     19  C   UNL     1      -3.493  -2.097  19.847  1.00  0.00    -0.024 C 
ATOM     20  C   UNL     1      -3.441  -3.551  20.483  1.00  0.00     0.008 C 
ATOM     21  C   UNL     1      -2.018  -4.099  20.777  1.00  0.00     0.007 C 
ATOM     22  C   UNL     1      -3.080  -1.106  20.998  1.00  0.00     0.012 C 
ATOM     23  C   UNL     1      -5.941  -1.636  20.548  1.00  0.00     0.012 C 
ATOM     24  C   UNL     1      -8.358  -0.743  14.828  1.00  0.00     0.014 C 
ATOM     25  C   UNL     1      -9.499  -1.683  16.816  1.00  0.00     0.014 C 
ATOM     26  C   UNL     1      -5.977   1.505  17.058  1.00  0.00     0.012 C 
ATOM     27  C   UNL     1      -1.621  -5.022  18.444  1.00  0.00     0.011 C 
ENDROOT
BRANCH   1  28
ATOM     28  C   UNL     1       0.826  -1.153  17.998  1.00  0.00    -0.077 C 
ATOM     29  C   UNL     1       1.125  -0.523  16.659  1.00  0.00     0.039 C 
ATOM     30  C   UNL     1       1.124  -0.461  19.110  1.00  0.00     0.008 C 
ENDBRANCH   1  28
BRANCH  13  31
ATOM     31  O   UNL     1      -8.624   1.761  15.856  1.00  0.00    -0.393 OA
ATOM     32  H   UNL     1      -7.753   2.126  16.162  1.00  0.00     0.210 HD
ENDBRANCH  13  31
TORSDOF 2
ENDMDL
