MODEL 1
REMARK VINA RESULT:    -3.597      0.000      0.000
REMARK INTER + INTRA:          -5.605
REMARK INTER:                  -4.859
REMARK INTRA:                  -0.747
REMARK UNBOUND:                -0.747
REMARK SMILES CC(=O)CCC=C(C)CCC=C(C)C
REMARK SMILES IDX 7 1 6 2 8 3 9 4 10 5 11 6 13 7 12 8 14 9 5 10 4 11 2 12 3 13
REMARK SMILES IDX 1 14
REMARK H PARENT
REMARK Flexibility Score: inf
ROOT
ATOM      1  C   UNL     1      27.282  12.190  24.304  1.00  0.00    -0.077 C 
ATOM      2  C   UNL     1      28.317  11.393  24.654  1.00  0.00    -0.028 C 
ATOM      3  C   UNL     1      26.236  12.626  25.304  1.00  0.00     0.039 C 
ENDROOT
BRANCH   1   4
ATOM      4  C   UNL     1      27.177  12.668  22.872  1.00  0.00     0.034 C 
BRANCH   4   5
ATOM      5  C   UNL     1      28.510  12.486  22.137  1.00  0.00     0.032 C 
BRANCH   5   6
ATOM      6  C   UNL     1      28.984  13.796  21.559  1.00  0.00    -0.028 C 
ATOM      7  C   UNL     1      30.125  15.972  21.528  1.00  0.00     0.039 C 
ATOM      8  C   UNL     1      29.681  14.726  22.249  1.00  0.00    -0.080 C 
ATOM      9  C   UNL     1      30.006  14.559  23.715  1.00  0.00     0.039 C 
ENDBRANCH   5   6
ENDBRANCH   4   5
ENDBRANCH   1   4
BRANCH   2  10
ATOM     10  C   UNL     1      28.521  10.813  26.032  1.00  0.00     0.035 C 
BRANCH  10  11
ATOM     11  C   UNL     1      27.957   9.391  26.109  1.00  0.00     0.079 C 
BRANCH  11  12
ATOM     12  C   UNL     1      28.725   8.465  25.202  1.00  0.00     0.130 C 
ATOM     13  O   UNL     1      28.219   8.097  24.152  1.00  0.00    -0.300 OA
ATOM     14  C   UNL     1      30.096   7.976  25.564  1.00  0.00     0.087 C 
ENDBRANCH  11  12
ENDBRANCH  10  11
ENDBRANCH   2  10
TORSDOF 6
ENDMDL
MODEL 2
REMARK VINA RESULT:    -3.410      1.890      5.348
REMARK INTER + INTRA:          -5.352
REMARK INTER:                  -4.304
REMARK INTRA:                  -1.048
REMARK UNBOUND:                -0.747
REMARK SMILES CC(=O)CCC=C(C)CCC=C(C)C
REMARK SMILES IDX 7 1 6 2 8 3 9 4 10 5 11 6 13 7 12 8 14 9 5 10 4 11 2 12 3 13
REMARK SMILES IDX 1 14
REMARK H PARENT
REMARK Flexibility Score: inf
ROOT
ATOM      1  C   UNL     1      29.251  12.877  25.257  1.00  0.00    -0.077 C 
ATOM      2  C   UNL     1      29.853  13.517  24.230  1.00  0.00    -0.028 C 
ATOM      3  C   UNL     1      27.782  13.062  25.562  1.00  0.00     0.039 C 
ENDROOT
BRANCH   1   4
ATOM      4  C   UNL     1      30.069  11.941  26.119  1.00  0.00     0.034 C 
BRANCH   4   5
ATOM      5  C   UNL     1      30.125  10.539  25.501  1.00  0.00     0.032 C 
BRANCH   5   6
ATOM      6  C   UNL     1      29.037   9.661  26.070  1.00  0.00    -0.028 C 
ATOM      7  C   UNL     1      27.023   8.254  26.045  1.00  0.00     0.039 C 
ATOM      8  C   UNL     1      28.015   9.150  25.349  1.00  0.00    -0.080 C 
ATOM      9  C   UNL     1      27.832   9.466  23.884  1.00  0.00     0.039 C 
ENDBRANCH   5   6
ENDBRANCH   4   5
ENDBRANCH   1   4
BRANCH   2  10
ATOM     10  C   UNL     1      29.169  14.507  23.319  1.00  0.00     0.035 C 
BRANCH  10  11
ATOM     11  C   UNL     1      29.298  14.074  21.856  1.00  0.00     0.079 C 
BRANCH  11  12
ATOM     12  C   UNL     1      28.914  12.627  21.693  1.00  0.00     0.130 C 
ATOM     13  O   UNL     1      27.759  12.285  21.898  1.00  0.00    -0.300 OA
ATOM     14  C   UNL     1      29.922  11.591  21.294  1.00  0.00     0.087 C 
ENDBRANCH  11  12
ENDBRANCH  10  11
ENDBRANCH   2  10
TORSDOF 6
ENDMDL
MODEL 3
REMARK VINA RESULT:    -3.371      1.664      5.090
REMARK INTER + INTRA:          -5.301
REMARK INTER:                  -4.598
REMARK INTRA:                  -0.702
REMARK UNBOUND:                -0.747
REMARK SMILES CC(=O)CCC=C(C)CCC=C(C)C
REMARK SMILES IDX 7 1 6 2 8 3 9 4 10 5 11 6 13 7 12 8 14 9 5 10 4 11 2 12 3 13
REMARK SMILES IDX 1 14
REMARK H PARENT
REMARK Flexibility Score: inf
ROOT
ATOM      1  C   UNL     1      27.307  12.789  24.006  1.00  0.00    -0.077 C 
ATOM      2  C   UNL     1      28.113  13.778  23.557  1.00  0.00    -0.028 C 
ATOM      3  C   UNL     1      26.908  11.624  23.130  1.00  0.00     0.039 C 
ENDROOT
BRANCH   1   4
ATOM      4  C   UNL     1      26.800  12.847  25.430  1.00  0.00     0.034 C 
BRANCH   4   5
ATOM      5  C   UNL     1      26.919  11.477  26.109  1.00  0.00     0.032 C 
BRANCH   5   6
ATOM      6  C   UNL     1      28.335  10.962  26.027  1.00  0.00    -0.028 C 
ATOM      7  C   UNL     1      30.124   9.294  25.790  1.00  0.00     0.039 C 
ATOM      8  C   UNL     1      28.666   9.658  25.901  1.00  0.00    -0.080 C 
ATOM      9  C   UNL     1      27.623   8.565  25.889  1.00  0.00     0.039 C 
ENDBRANCH   5   6
ENDBRANCH   4   5
ENDBRANCH   1   4
BRANCH   2  10
ATOM     10  C   UNL     1      28.655  13.867  22.152  1.00  0.00     0.035 C 
BRANCH  10  11
ATOM     11  C   UNL     1      30.089  13.332  22.090  1.00  0.00     0.079 C 
BRANCH  11  12
ATOM     12  C   UNL     1      30.106  11.914  21.584  1.00  0.00     0.130 C 
ATOM     13  O   UNL     1      30.124  10.990  22.384  1.00  0.00    -0.300 OA
ATOM     14  C   UNL     1      30.112  11.608  20.115  1.00  0.00     0.087 C 
ENDBRANCH  11  12
ENDBRANCH  10  11
ENDBRANCH   2  10
TORSDOF 6
ENDMDL
MODEL 4
REMARK VINA RESULT:    -3.045      1.945      3.080
REMARK INTER + INTRA:          -4.860
REMARK INTER:                  -4.327
REMARK INTRA:                  -0.533
REMARK UNBOUND:                -0.747
REMARK SMILES CC(=O)CCC=C(C)CCC=C(C)C
REMARK SMILES IDX 7 1 6 2 8 3 9 4 10 5 11 6 13 7 12 8 14 9 5 10 4 11 2 12 3 13
REMARK SMILES IDX 1 14
REMARK H PARENT
REMARK Flexibility Score: inf
ROOT
ATOM      1  C   UNL     1      28.856  11.217  22.629  1.00  0.00    -0.077 C 
ATOM      2  C   UNL     1      29.004  10.504  23.768  1.00  0.00    -0.028 C 
ATOM      3  C   UNL     1      27.495  11.605  22.100  1.00  0.00     0.039 C 
ENDROOT
BRANCH   1   4
ATOM      4  C   UNL     1      30.091  11.646  21.868  1.00  0.00     0.034 C 
BRANCH   4   5
ATOM      5  C   UNL     1      29.981  13.111  21.428  1.00  0.00     0.032 C 
BRANCH   5   6
ATOM      6  C   UNL     1      30.058  14.033  22.619  1.00  0.00    -0.028 C 
ATOM      7  C   UNL     1      30.125  16.178  23.817  1.00  0.00     0.039 C 
ATOM      8  C   UNL     1      30.089  15.382  22.538  1.00  0.00    -0.080 C 
ATOM      9  C   UNL     1      30.110  16.104  21.212  1.00  0.00     0.039 C 
ENDBRANCH   5   6
ENDBRANCH   4   5
ENDBRANCH   1   4
BRANCH   2  10
ATOM     10  C   UNL     1      27.861   9.978  24.601  1.00  0.00     0.035 C 
BRANCH  10  11
ATOM     11  C   UNL     1      27.845  10.645  25.980  1.00  0.00     0.079 C 
BRANCH  11  12
ATOM     12  C   UNL     1      27.898  12.145  25.845  1.00  0.00     0.130 C 
ATOM     13  O   UNL     1      28.979  12.714  25.895  1.00  0.00    -0.300 OA
ATOM     14  C   UNL     1      26.652  12.958  25.661  1.00  0.00     0.087 C 
ENDBRANCH  11  12
ENDBRANCH  10  11
ENDBRANCH   2  10
TORSDOF 6
ENDMDL
MODEL 5
REMARK VINA RESULT:    -2.357      1.202      1.891
REMARK INTER + INTRA:          -3.930
REMARK INTER:                  -3.868
REMARK INTRA:                  -0.062
REMARK UNBOUND:                -0.747
REMARK SMILES CC(=O)CCC=C(C)CCC=C(C)C
REMARK SMILES IDX 7 1 6 2 8 3 9 4 10 5 11 6 13 7 12 8 14 9 5 10 4 11 2 12 3 13
REMARK SMILES IDX 1 14
REMARK H PARENT
REMARK Flexibility Score: inf
ROOT
ATOM      1  C   UNL     1      27.506  11.735  24.132  1.00  0.00    -0.077 C 
ATOM      2  C   UNL     1      27.415  10.723  25.025  1.00  0.00    -0.028 C 
ATOM      3  C   UNL     1      27.279  11.519  22.654  1.00  0.00     0.039 C 
ENDROOT
BRANCH   1   4
ATOM      4  C   UNL     1      27.833  13.125  24.631  1.00  0.00     0.034 C 
BRANCH   4   5
ATOM      5  C   UNL     1      29.344  13.383  24.578  1.00  0.00     0.032 C 
BRANCH   5   6
ATOM      6  C   UNL     1      29.655  14.549  23.673  1.00  0.00    -0.028 C 
ATOM      7  C   UNL     1      30.125  15.705  21.556  1.00  0.00     0.039 C 
ATOM      8  C   UNL     1      29.864  14.446  22.341  1.00  0.00    -0.080 C 
ATOM      9  C   UNL     1      29.864  13.113  21.632  1.00  0.00     0.039 C 
ENDBRANCH   5   6
ENDBRANCH   4   5
ENDBRANCH   1   4
BRANCH   2  10
ATOM     10  C   UNL     1      27.137   9.285  24.661  1.00  0.00     0.035 C 
BRANCH  10  11
ATOM     11  C   UNL     1      27.871   8.335  25.612  1.00  0.00     0.079 C 
BRANCH  11  12
ATOM     12  C   UNL     1      29.360   8.547  25.531  1.00  0.00     0.130 C 
ATOM     13  O   UNL     1      30.058   7.710  24.977  1.00  0.00    -0.300 OA
ATOM     14  C   UNL     1      30.010   9.762  26.124  1.00  0.00     0.087 C 
ENDBRANCH  11  12
ENDBRANCH  10  11
ENDBRANCH   2  10
TORSDOF 6
ENDMDL
MODEL 6
REMARK VINA RESULT:    -2.297      1.506      3.193
REMARK INTER + INTRA:          -3.849
REMARK INTER:                  -3.890
REMARK INTRA:                   0.041
REMARK UNBOUND:                -0.747
REMARK SMILES CC(=O)CCC=C(C)CCC=C(C)C
REMARK SMILES IDX 7 1 6 2 8 3 9 4 10 5 11 6 13 7 12 8 14 9 5 10 4 11 2 12 3 13
REMARK SMILES IDX 1 14
REMARK H PARENT
REMARK Flexibility Score: inf
ROOT
ATOM      1  C   UNL     1      30.105  12.122  24.449  1.00  0.00    -0.077 C 
ATOM      2  C   UNL     1      30.123  10.800  24.730  1.00  0.00    -0.028 C 
ATOM      3  C   UNL     1      30.125  13.170  25.538  1.00  0.00     0.039 C 
ENDROOT
BRANCH   1   4
ATOM      4  C   UNL     1      30.076  12.564  23.003  1.00  0.00     0.034 C 
BRANCH   4   5
ATOM      5  C   UNL     1      28.761  13.283  22.678  1.00  0.00     0.032 C 
BRANCH   5   6
ATOM      6  C   UNL     1      27.888  13.380  23.904  1.00  0.00    -0.028 C 
ATOM      7  C   UNL     1      26.108  12.734  25.470  1.00  0.00     0.039 C 
ATOM      8  C   UNL     1      26.868  12.538  24.184  1.00  0.00    -0.080 C 
ATOM      9  C   UNL     1      26.463  11.431  23.240  1.00  0.00     0.039 C 
ENDBRANCH   5   6
ENDBRANCH   4   5
ENDBRANCH   1   4
BRANCH   2  10
ATOM     10  C   UNL     1      30.111  10.222  26.124  1.00  0.00     0.035 C 
BRANCH  10  11
ATOM     11  C   UNL     1      29.527   8.806  26.118  1.00  0.00     0.079 C 
BRANCH  11  12
ATOM     12  C   UNL     1      28.194   8.784  25.418  1.00  0.00     0.130 C 
ATOM     13  O   UNL     1      28.102   8.268  24.314  1.00  0.00    -0.300 OA
ATOM     14  C   UNL     1      26.974   9.394  26.043  1.00  0.00     0.087 C 
ENDBRANCH  11  12
ENDBRANCH  10  11
ENDBRANCH   2  10
TORSDOF 6
ENDMDL
