MODEL 1
REMARK VINA RESULT:    -1.955      0.000      0.000
REMARK INTER + INTRA:          -2.222
REMARK INTER:                  -2.126
REMARK INTRA:                  -0.096
REMARK UNBOUND:                -0.096
REMARK SMILES C=C(C)[C@@H]1CC=C(C)[C@@H](O)C1
REMARK SMILES IDX 8 1 7 2 6 3 5 4 4 5 11 6 9 7 10 8 2 10 1 11 3 12
REMARK H PARENT 10 9
REMARK Flexibility Score: inf
ROOT
ATOM      1  C   UNL     1     -39.124  32.502 -11.191  1.00  0.00     0.042 C 
ATOM      2  C   UNL     1     -37.757  33.120 -11.313  1.00  0.00    -0.049 C 
ATOM      3  C   UNL     1     -36.714  32.333 -11.658  1.00  0.00    -0.025 C 
ATOM      4  C   UNL     1     -35.318  32.862 -11.872  1.00  0.00     0.035 C 
ATOM      5  C   UNL     1     -35.085  34.201 -11.153  1.00  0.00     0.021 C 
ATOM      6  C   UNL     1     -36.248  35.161 -11.448  1.00  0.00     0.044 C 
ATOM      7  C   UNL     1     -37.575  34.578 -10.927  1.00  0.00     0.140 C 
ENDROOT
BRANCH   7   8
ATOM      8  O   UNL     1     -37.630  34.681  -9.528  1.00  0.00    -0.389 OA
ATOM      9  H   UNL     1     -36.768  35.076  -9.234  1.00  0.00     0.211 HD
ENDBRANCH   7   8
BRANCH   5  10
ATOM     10  C   UNL     1     -33.744  34.812 -11.538  1.00  0.00    -0.077 C 
ATOM     11  C   UNL     1     -33.522  36.123 -11.348  1.00  0.00     0.008 C 
ATOM     12  C   UNL     1     -32.636  33.972 -12.124  1.00  0.00     0.039 C 
ENDBRANCH   5  10
TORSDOF 2
ENDMDL
MODEL 2
REMARK VINA RESULT:    -0.758     19.746     20.874
REMARK INTER + INTRA:          -0.921
REMARK INTER:                  -0.827
REMARK INTRA:                  -0.093
REMARK UNBOUND:                -0.096
REMARK SMILES C=C(C)[C@@H]1CC=C(C)[C@@H](O)C1
REMARK SMILES IDX 8 1 7 2 6 3 5 4 4 5 11 6 9 7 10 8 2 10 1 11 3 12
REMARK H PARENT 10 9
REMARK Flexibility Score: inf
ROOT
ATOM      1  C   UNL     1     -38.691  20.257   8.117  1.00  0.00     0.042 C 
ATOM      2  C   UNL     1     -38.771  21.452   7.206  1.00  0.00    -0.049 C 
ATOM      3  C   UNL     1     -38.963  21.253   5.884  1.00  0.00    -0.025 C 
ATOM      4  C   UNL     1     -39.124  22.380   4.895  1.00  0.00     0.035 C 
ATOM      5  C   UNL     1     -38.522  23.698   5.409  1.00  0.00     0.021 C 
ATOM      6  C   UNL     1     -38.991  23.960   6.850  1.00  0.00     0.044 C 
ATOM      7  C   UNL     1     -38.515  22.833   7.785  1.00  0.00     0.140 C 
ENDROOT
BRANCH   7   8
ATOM      8  O   UNL     1     -37.140  22.965   8.037  1.00  0.00    -0.389 OA
ATOM      9  H   UNL     1     -36.951  22.470   8.876  1.00  0.00     0.211 HD
ENDBRANCH   7   8
BRANCH   5  10
ATOM     10  C   UNL     1     -38.865  24.863   4.489  1.00  0.00    -0.077 C 
ATOM     11  C   UNL     1     -38.961  24.668   3.164  1.00  0.00     0.008 C 
ATOM     12  C   UNL     1     -39.115  26.248   5.033  1.00  0.00     0.039 C 
ENDBRANCH   5  10
TORSDOF 2
ENDMDL
MODEL 3
REMARK VINA RESULT:     0.915     19.664     20.791
REMARK INTER + INTRA:           0.899
REMARK INTER:                   0.996
REMARK INTRA:                  -0.097
REMARK UNBOUND:                -0.096
REMARK SMILES C=C(C)[C@@H]1CC=C(C)[C@@H](O)C1
REMARK SMILES IDX 8 1 7 2 6 3 5 4 4 5 11 6 9 7 10 8 2 10 1 11 3 12
REMARK H PARENT 10 9
REMARK Flexibility Score: inf
ROOT
ATOM      1  C   UNL     1     -37.910  20.429   8.071  1.00  0.00     0.042 C 
ATOM      2  C   UNL     1     -38.172  21.647   7.227  1.00  0.00    -0.049 C 
ATOM      3  C   UNL     1     -38.864  22.676   7.764  1.00  0.00    -0.025 C 
ATOM      4  C   UNL     1     -39.124  23.967   7.030  1.00  0.00     0.035 C 
ATOM      5  C   UNL     1     -39.026  23.801   5.505  1.00  0.00     0.021 C 
ATOM      6  C   UNL     1     -37.740  23.039   5.144  1.00  0.00     0.044 C 
ATOM      7  C   UNL     1     -37.756  21.630   5.766  1.00  0.00     0.140 C 
ENDROOT
BRANCH   7   8
ATOM      8  O   UNL     1     -38.640  20.801   5.058  1.00  0.00    -0.389 OA
ATOM      9  H   UNL     1     -39.329  21.391   4.655  1.00  0.00     0.211 HD
ENDBRANCH   7   8
BRANCH   5  10
ATOM     10  C   UNL     1     -39.096  25.146   4.794  1.00  0.00    -0.077 C 
ATOM     11  C   UNL     1     -39.125  26.284   5.506  1.00  0.00     0.008 C 
ATOM     12  C   UNL     1     -39.125  25.239   3.287  1.00  0.00     0.039 C 
ENDBRANCH   5  10
TORSDOF 2
ENDMDL
