MODEL 1
REMARK VINA RESULT:    -3.607      0.000      0.000
REMARK INTER + INTRA:          -6.099
REMARK INTER:                  -5.294
REMARK INTRA:                  -0.805
REMARK UNBOUND:                -0.805
REMARK SMILES O=C([O-])CCCCCCCC(=O)[O-]
REMARK SMILES IDX 7 1 6 2 5 3 4 4 2 5 1 6 3 7 8 8 9 9 10 10 11 11 12 12 13 13
REMARK H PARENT
REMARK Flexibility Score: inf
ROOT
ATOM      1  C   UNL     1     -16.902  -9.208 -21.087  1.00  0.00     0.000 C 
ENDROOT
BRANCH   1   2
ATOM      2  C   UNL     1     -18.053  -8.689 -21.967  1.00  0.00     0.000 C 
BRANCH   2   3
ATOM      3  C   UNL     1     -18.018  -9.272 -23.388  1.00  0.00     0.006 C 
BRANCH   3   4
ATOM      4  C   UNL     1     -17.367  -8.320 -24.400  1.00  0.00     0.053 C 
BRANCH   4   5
ATOM      5  C   UNL     1     -15.915  -8.641 -24.559  1.00  0.00     0.041 C 
ATOM      6  O   UNL     1     -15.144  -7.822 -25.124  1.00  0.00    -0.550 OA
ATOM      7  O   UNL     1     -15.403  -9.823 -24.039  1.00  0.00    -0.550 OA
ENDBRANCH   4   5
ENDBRANCH   3   4
ENDBRANCH   2   3
ENDBRANCH   1   2
BRANCH   1   8
ATOM      8  C   UNL     1     -15.888  -8.108 -20.734  1.00  0.00     0.000 C 
BRANCH   8   9
ATOM      9  C   UNL     1     -16.405  -6.698 -21.071  1.00  0.00     0.006 C 
BRANCH   9  10
ATOM     10  C   UNL     1     -15.476  -5.957 -22.041  1.00  0.00     0.053 C 
BRANCH  10  11
ATOM     11  C   UNL     1     -16.198  -4.878 -22.787  1.00  0.00     0.041 C 
ATOM     12  O   UNL     1     -16.588  -5.076 -23.967  1.00  0.00    -0.550 OA
ATOM     13  O   UNL     1     -16.409  -3.641 -22.190  1.00  0.00    -0.550 OA
ENDBRANCH  10  11
ENDBRANCH   9  10
ENDBRANCH   8   9
ENDBRANCH   1   8
TORSDOF 8
ENDMDL
MODEL 2
REMARK VINA RESULT:    -3.569      0.165      4.038
REMARK INTER + INTRA:          -6.043
REMARK INTER:                  -5.212
REMARK INTRA:                  -0.831
REMARK UNBOUND:                -0.805
REMARK SMILES O=C([O-])CCCCCCCC(=O)[O-]
REMARK SMILES IDX 7 1 6 2 5 3 4 4 2 5 1 6 3 7 8 8 9 9 10 10 11 11 12 12 13 13
REMARK H PARENT
REMARK Flexibility Score: inf
ROOT
ATOM      1  C   UNL     1     -16.740  -9.164 -20.955  1.00  0.00     0.000 C 
ENDROOT
BRANCH   1   2
ATOM      2  C   UNL     1     -15.809  -7.980 -20.642  1.00  0.00     0.000 C 
BRANCH   2   3
ATOM      3  C   UNL     1     -16.387  -6.635 -21.110  1.00  0.00     0.006 C 
BRANCH   3   4
ATOM      4  C   UNL     1     -15.456  -5.899 -22.081  1.00  0.00     0.053 C 
BRANCH   4   5
ATOM      5  C   UNL     1     -16.201  -4.821 -22.804  1.00  0.00     0.041 C 
ATOM      6  O   UNL     1     -16.656  -5.032 -23.959  1.00  0.00    -0.550 OA
ATOM      7  O   UNL     1     -16.436  -3.602 -22.182  1.00  0.00    -0.550 OA
ENDBRANCH   4   5
ENDBRANCH   3   4
ENDBRANCH   2   3
ENDBRANCH   1   2
BRANCH   1   8
ATOM      8  C   UNL     1     -17.926  -8.762 -21.844  1.00  0.00     0.000 C 
BRANCH   8   9
ATOM      9  C   UNL     1     -17.874  -9.422 -23.234  1.00  0.00     0.006 C 
BRANCH   9  10
ATOM     10  C   UNL     1     -17.345  -8.463 -24.309  1.00  0.00     0.053 C 
BRANCH  10  11
ATOM     11  C   UNL     1     -15.861  -8.576 -24.472  1.00  0.00     0.041 C 
ATOM     12  O   UNL     1     -15.227  -7.705 -25.124  1.00  0.00    -0.550 OA
ATOM     13  O   UNL     1     -15.181  -9.662 -23.934  1.00  0.00    -0.550 OA
ENDBRANCH  10  11
ENDBRANCH   9  10
ENDBRANCH   8   9
ENDBRANCH   1   8
TORSDOF 8
ENDMDL
MODEL 3
REMARK VINA RESULT:    -3.374      2.015      3.842
REMARK INTER + INTRA:          -5.757
REMARK INTER:                  -5.615
REMARK INTRA:                  -0.143
REMARK UNBOUND:                -0.805
REMARK SMILES O=C([O-])CCCCCCCC(=O)[O-]
REMARK SMILES IDX 7 1 6 2 5 3 4 4 2 5 1 6 3 7 8 8 9 9 10 10 11 11 12 12 13 13
REMARK H PARENT
REMARK Flexibility Score: inf
ROOT
ATOM      1  C   UNL     1     -16.134  -6.330 -21.424  1.00  0.00     0.000 C 
ENDROOT
BRANCH   1   2
ATOM      2  C   UNL     1     -16.140  -7.498 -20.422  1.00  0.00     0.000 C 
BRANCH   2   3
ATOM      3  C   UNL     1     -15.997  -8.865 -21.110  1.00  0.00     0.006 C 
BRANCH   3   4
ATOM      4  C   UNL     1     -17.305  -9.666 -21.109  1.00  0.00     0.053 C 
BRANCH   4   5
ATOM      5  C   UNL     1     -18.292  -9.055 -22.054  1.00  0.00     0.041 C 
ATOM      6  O   UNL     1     -18.517  -9.593 -23.169  1.00  0.00    -0.550 OA
ATOM      7  O   UNL     1     -18.999  -7.920 -21.681  1.00  0.00    -0.550 OA
ENDBRANCH   4   5
ENDBRANCH   3   4
ENDBRANCH   2   3
ENDBRANCH   1   2
BRANCH   1   8
ATOM      8  C   UNL     1     -15.539  -6.724 -22.785  1.00  0.00     0.000 C 
BRANCH   8   9
ATOM      9  C   UNL     1     -16.467  -6.369 -23.960  1.00  0.00     0.006 C 
BRANCH   9  10
ATOM     10  C   UNL     1     -16.611  -7.529 -24.954  1.00  0.00     0.053 C 
BRANCH  10  11
ATOM     11  C   UNL     1     -15.496  -8.520 -24.815  1.00  0.00     0.041 C 
ATOM     12  O   UNL     1     -15.731  -9.681 -24.389  1.00  0.00    -0.550 OA
ATOM     13  O   UNL     1     -14.193  -8.151 -25.124  1.00  0.00    -0.550 OA
ENDBRANCH  10  11
ENDBRANCH   9  10
ENDBRANCH   8   9
ENDBRANCH   1   8
TORSDOF 8
ENDMDL
MODEL 4
REMARK VINA RESULT:    -3.257      1.355      2.045
REMARK INTER + INTRA:          -5.585
REMARK INTER:                  -5.429
REMARK INTRA:                  -0.156
REMARK UNBOUND:                -0.805
REMARK SMILES O=C([O-])CCCCCCCC(=O)[O-]
REMARK SMILES IDX 7 1 6 2 5 3 4 4 2 5 1 6 3 7 8 8 9 9 10 10 11 11 12 12 13 13
REMARK H PARENT
REMARK Flexibility Score: inf
ROOT
ATOM      1  C   UNL     1     -15.449  -8.442 -20.722  1.00  0.00     0.000 C 
ENDROOT
BRANCH   1   2
ATOM      2  C   UNL     1     -16.056  -9.213 -21.908  1.00  0.00     0.000 C 
BRANCH   2   3
ATOM      3  C   UNL     1     -15.135  -9.224 -23.138  1.00  0.00     0.006 C 
BRANCH   3   4
ATOM      4  C   UNL     1     -15.913  -9.318 -24.457  1.00  0.00     0.053 C 
BRANCH   4   5
ATOM      5  C   UNL     1     -17.005  -8.297 -24.493  1.00  0.00     0.041 C 
ATOM      6  O   UNL     1     -18.100  -8.520 -23.912  1.00  0.00    -0.550 OA
ATOM      7  O   UNL     1     -16.796  -7.078 -25.125  1.00  0.00    -0.550 OA
ENDBRANCH   4   5
ENDBRANCH   3   4
ENDBRANCH   2   3
ENDBRANCH   1   2
BRANCH   1   8
ATOM      8  C   UNL     1     -16.324  -7.260 -20.277  1.00  0.00     0.000 C 
BRANCH   8   9
ATOM      9  C   UNL     1     -16.855  -6.438 -21.464  1.00  0.00     0.006 C 
BRANCH   9  10
ATOM     10  C   UNL     1     -15.752  -5.603 -22.129  1.00  0.00     0.053 C 
BRANCH  10  11
ATOM     11  C   UNL     1     -16.286  -4.318 -22.682  1.00  0.00     0.041 C 
ATOM     12  O   UNL     1     -16.316  -3.283 -21.965  1.00  0.00    -0.550 OA
ATOM     13  O   UNL     1     -16.783  -4.270 -23.979  1.00  0.00    -0.550 OA
ENDBRANCH  10  11
ENDBRANCH   9  10
ENDBRANCH   8   9
ENDBRANCH   1   8
TORSDOF 8
ENDMDL
MODEL 5
REMARK VINA RESULT:    -3.213     16.338     17.771
REMARK INTER + INTRA:          -5.521
REMARK INTER:                  -5.328
REMARK INTRA:                  -0.193
REMARK UNBOUND:                -0.805
REMARK SMILES O=C([O-])CCCCCCCC(=O)[O-]
REMARK SMILES IDX 7 1 6 2 5 3 4 4 2 5 1 6 3 7 8 8 9 9 10 10 11 11 12 12 13 13
REMARK H PARENT
REMARK Flexibility Score: inf
ROOT
ATOM      1  C   UNL     1      -9.114 -10.010  -6.790  1.00  0.00     0.000 C 
ENDROOT
BRANCH   1   2
ATOM      2  C   UNL     1      -7.595 -10.062  -6.545  1.00  0.00     0.000 C 
BRANCH   2   3
ATOM      3  C   UNL     1      -6.834 -10.737  -7.697  1.00  0.00     0.006 C 
BRANCH   3   4
ATOM      4  C   UNL     1      -5.312 -10.633  -7.539  1.00  0.00     0.053 C 
BRANCH   4   5
ATOM      5  C   UNL     1      -4.722  -9.853  -8.671  1.00  0.00     0.041 C 
ATOM      6  O   UNL     1      -4.819  -8.598  -8.694  1.00  0.00    -0.550 OA
ATOM      7  O   UNL     1      -4.021 -10.508  -9.675  1.00  0.00    -0.550 OA
ENDBRANCH   4   5
ENDBRANCH   3   4
ENDBRANCH   2   3
ENDBRANCH   1   2
BRANCH   1   8
ATOM      8  C   UNL     1      -9.660  -8.574  -6.808  1.00  0.00     0.000 C 
BRANCH   8   9
ATOM      9  C   UNL     1     -11.075  -8.487  -7.406  1.00  0.00     0.006 C 
BRANCH   9  10
ATOM     10  C   UNL     1     -12.163  -8.519  -6.324  1.00  0.00     0.053 C 
BRANCH  10  11
ATOM     11  C   UNL     1     -13.066  -7.327  -6.409  1.00  0.00     0.041 C 
ATOM     12  O   UNL     1     -13.255  -6.602  -5.398  1.00  0.00    -0.550 OA
ATOM     13  O   UNL     1     -13.727  -7.038  -7.597  1.00  0.00    -0.550 OA
ENDBRANCH  10  11
ENDBRANCH   9  10
ENDBRANCH   8   9
ENDBRANCH   1   8
TORSDOF 8
ENDMDL
MODEL 6
REMARK VINA RESULT:    -3.186     17.872     19.301
REMARK INTER + INTRA:          -5.481
REMARK INTER:                  -4.981
REMARK INTRA:                  -0.501
REMARK UNBOUND:                -0.805
REMARK SMILES O=C([O-])CCCCCCCC(=O)[O-]
REMARK SMILES IDX 7 1 6 2 5 3 4 4 2 5 1 6 3 7 8 8 9 9 10 10 11 11 12 12 13 13
REMARK H PARENT
REMARK Flexibility Score: inf
ROOT
ATOM      1  C   UNL     1      -5.618 -10.724  -7.439  1.00  0.00     0.000 C 
ENDROOT
BRANCH   1   2
ATOM      2  C   UNL     1      -7.136 -10.940  -7.575  1.00  0.00     0.000 C 
BRANCH   2   3
ATOM      3  C   UNL     1      -7.933 -10.254  -6.455  1.00  0.00     0.006 C 
BRANCH   3   4
ATOM      4  C   UNL     1      -9.257  -9.660  -6.951  1.00  0.00     0.053 C 
BRANCH   4   5
ATOM      5  C   UNL     1      -9.415  -8.255  -6.461  1.00  0.00     0.041 C 
ATOM      6  O   UNL     1     -10.528  -7.858  -6.027  1.00  0.00    -0.550 OA
ATOM      7  O   UNL     1      -8.321  -7.400  -6.437  1.00  0.00    -0.550 OA
ENDBRANCH   4   5
ENDBRANCH   3   4
ENDBRANCH   2   3
ENDBRANCH   1   2
BRANCH   1   8
ATOM      8  C   UNL     1      -5.030  -9.920  -8.608  1.00  0.00     0.000 C 
BRANCH   8   9
ATOM      9  C   UNL     1      -4.777  -8.447  -8.245  1.00  0.00     0.006 C 
BRANCH   9  10
ATOM     10  C   UNL     1      -4.786  -8.215  -6.728  1.00  0.00     0.053 C 
BRANCH  10  11
ATOM     11  C   UNL     1      -3.631  -7.370  -6.288  1.00  0.00     0.041 C 
ATOM     12  O   UNL     1      -2.883  -7.756  -5.352  1.00  0.00    -0.550 OA
ATOM     13  O   UNL     1      -3.401  -6.138  -6.889  1.00  0.00    -0.550 OA
ENDBRANCH  10  11
ENDBRANCH   9  10
ENDBRANCH   8   9
ENDBRANCH   1   8
TORSDOF 8
ENDMDL
MODEL 7
REMARK VINA RESULT:    -3.156     16.447     18.027
REMARK INTER + INTRA:          -5.437
REMARK INTER:                  -5.079
REMARK INTRA:                  -0.358
REMARK UNBOUND:                -0.805
REMARK SMILES O=C([O-])CCCCCCCC(=O)[O-]
REMARK SMILES IDX 7 1 6 2 5 3 4 4 2 5 1 6 3 7 8 8 9 9 10 10 11 11 12 12 13 13
REMARK H PARENT
REMARK Flexibility Score: inf
ROOT
ATOM      1  C   UNL     1      -8.458  -8.728  -6.419  1.00  0.00     0.000 C 
ENDROOT
BRANCH   1   2
ATOM      2  C   UNL     1      -9.839  -8.119  -6.117  1.00  0.00     0.000 C 
BRANCH   2   3
ATOM      3  C   UNL     1     -10.905  -8.538  -7.142  1.00  0.00     0.006 C 
BRANCH   3   4
ATOM      4  C   UNL     1     -12.294  -8.708  -6.512  1.00  0.00     0.053 C 
BRANCH   4   5
ATOM      5  C   UNL     1     -13.049  -7.417  -6.558  1.00  0.00     0.041 C 
ATOM      6  O   UNL     1     -13.067  -6.658  -5.554  1.00  0.00    -0.550 OA
ATOM      7  O   UNL     1     -13.691  -7.029  -7.727  1.00  0.00    -0.550 OA
ENDBRANCH   4   5
ENDBRANCH   3   4
ENDBRANCH   2   3
ENDBRANCH   1   2
BRANCH   1   8
ATOM      8  C   UNL     1      -8.554 -10.152  -6.987  1.00  0.00     0.000 C 
BRANCH   8   9
ATOM      9  C   UNL     1      -7.187 -10.705  -7.428  1.00  0.00     0.006 C 
BRANCH   9  10
ATOM     10  C   UNL     1      -6.035  -9.761  -7.060  1.00  0.00     0.053 C 
BRANCH  10  11
ATOM     11  C   UNL     1      -5.130  -9.509  -8.226  1.00  0.00     0.041 C 
ATOM     12  O   UNL     1      -4.728 -10.468  -8.936  1.00  0.00    -0.550 OA
ATOM     13  O   UNL     1      -4.702  -8.217  -8.509  1.00  0.00    -0.550 OA
ENDBRANCH  10  11
ENDBRANCH   9  10
ENDBRANCH   8   9
ENDBRANCH   1   8
TORSDOF 8
ENDMDL
MODEL 8
REMARK VINA RESULT:    -3.149     17.650     19.291
REMARK INTER + INTRA:          -5.426
REMARK INTER:                  -4.890
REMARK INTRA:                  -0.536
REMARK UNBOUND:                -0.805
REMARK SMILES O=C([O-])CCCCCCCC(=O)[O-]
REMARK SMILES IDX 7 1 6 2 5 3 4 4 2 5 1 6 3 7 8 8 9 9 10 10 11 11 12 12 13 13
REMARK H PARENT
REMARK Flexibility Score: inf
ROOT
ATOM      1  C   UNL     1      -5.885 -10.704  -7.384  1.00  0.00     0.000 C 
ENDROOT
BRANCH   1   2
ATOM      2  C   UNL     1      -5.083 -10.038  -8.517  1.00  0.00     0.000 C 
BRANCH   2   3
ATOM      3  C   UNL     1      -4.706  -8.583  -8.196  1.00  0.00     0.006 C 
BRANCH   3   4
ATOM      4  C   UNL     1      -4.729  -8.285  -6.692  1.00  0.00     0.053 C 
BRANCH   4   5
ATOM      5  C   UNL     1      -3.525  -7.488  -6.299  1.00  0.00     0.041 C 
ATOM      6  O   UNL     1      -3.486  -6.250  -6.521  1.00  0.00    -0.550 OA
ATOM      7  O   UNL     1      -2.469  -8.104  -5.641  1.00  0.00    -0.550 OA
ENDBRANCH   4   5
ENDBRANCH   3   4
ENDBRANCH   2   3
ENDBRANCH   1   2
BRANCH   1   8
ATOM      8  C   UNL     1      -7.368 -10.887  -7.742  1.00  0.00     0.000 C 
BRANCH   8   9
ATOM      9  C   UNL     1      -8.309 -10.388  -6.632  1.00  0.00     0.006 C 
BRANCH   9  10
ATOM     10  C   UNL     1      -8.300  -8.858  -6.510  1.00  0.00     0.053 C 
BRANCH  10  11
ATOM     11  C   UNL     1      -9.687  -8.292  -6.513  1.00  0.00     0.041 C 
ATOM     12  O   UNL     1     -10.462  -8.519  -7.479  1.00  0.00    -0.550 OA
ATOM     13  O   UNL     1     -10.112  -7.485  -5.465  1.00  0.00    -0.550 OA
ENDBRANCH  10  11
ENDBRANCH   9  10
ENDBRANCH   8   9
ENDBRANCH   1   8
TORSDOF 8
ENDMDL
