MODEL 1
REMARK VINA RESULT:    -4.364      0.000      0.000
REMARK INTER + INTRA:         -16.850
REMARK INTER:                 -11.508
REMARK INTRA:                  -5.342
REMARK UNBOUND:                -5.342
REMARK SMILES CCCCCCCCCCCCCCCCCCCCCCCCCCCCCC(=O)[O-]
REMARK SMILES IDX 16 1 17 2 18 3 19 4 20 5 21 6 22 7 23 8 24 9 25 10 26 11
REMARK SMILES IDX 27 12 28 13 29 14 30 15 31 16 32 17 15 18 14 19 13 20 12 21
REMARK SMILES IDX 11 22 10 23 9 24 8 25 7 26 6 27 5 28 4 29 3 30 2 31 1 32
REMARK H PARENT
REMARK Flexibility Score: inf
ROOT
ATOM      1  C   UNL     1      -6.575  -4.966   8.848  1.00  0.00     0.000 C 
ENDROOT
BRANCH   1   2
ATOM      2  C   UNL     1      -7.347  -3.652   9.057  1.00  0.00     0.000 C 
BRANCH   2   3
ATOM      3  C   UNL     1      -8.822  -3.688   8.617  1.00  0.00     0.000 C 
BRANCH   3   4
ATOM      4  C   UNL     1      -9.621  -2.468   9.100  1.00  0.00     0.000 C 
BRANCH   4   5
ATOM      5  C   UNL     1      -9.487  -2.288  10.618  1.00  0.00     0.000 C 
BRANCH   5   6
ATOM      6  C   UNL     1      -9.052  -0.857  10.969  1.00  0.00     0.000 C 
BRANCH   6   7
ATOM      7  C   UNL     1      -8.824   0.025   9.728  1.00  0.00     0.000 C 
BRANCH   7   8
ATOM      8  C   UNL     1      -7.348   0.303   9.386  1.00  0.00     0.000 C 
BRANCH   8   9
ATOM      9  C   UNL     1      -6.997  -0.035   7.926  1.00  0.00     0.000 C 
BRANCH   9  10
ATOM     10  C   UNL     1      -8.104   0.394   6.944  1.00  0.00     0.000 C 
BRANCH  10  11
ATOM     11  C   UNL     1      -8.389  -0.639   5.837  1.00  0.00     0.000 C 
BRANCH  11  12
ATOM     12  C   UNL     1      -7.108  -1.083   5.110  1.00  0.00     0.000 C 
BRANCH  12  13
ATOM     13  C   UNL     1      -7.272  -2.433   4.394  1.00  0.00     0.006 C 
BRANCH  13  14
ATOM     14  C   UNL     1      -6.998  -3.630   5.313  1.00  0.00     0.053 C 
BRANCH  14  15
ATOM     15  C   UNL     1      -8.014  -4.706   5.094  1.00  0.00     0.041 C 
ATOM     16  O   UNL     1      -7.843  -5.849   5.597  1.00  0.00    -0.550 OA
ATOM     17  O   UNL     1      -9.136  -4.456   4.314  1.00  0.00    -0.550 OA
ENDBRANCH  14  15
ENDBRANCH  13  14
ENDBRANCH  12  13
ENDBRANCH  11  12
ENDBRANCH  10  11
ENDBRANCH   9  10
ENDBRANCH   8   9
ENDBRANCH   7   8
ENDBRANCH   6   7
ENDBRANCH   5   6
ENDBRANCH   4   5
ENDBRANCH   3   4
ENDBRANCH   2   3
ENDBRANCH   1   2
BRANCH   1  18
ATOM     18  C   UNL     1      -5.152  -4.748   8.315  1.00  0.00     0.000 C 
BRANCH  18  19
ATOM     19  C   UNL     1      -4.118  -4.900   9.441  1.00  0.00     0.000 C 
BRANCH  19  20
ATOM     20  C   UNL     1      -2.668  -4.940   8.927  1.00  0.00     0.000 C 
BRANCH  20  21
ATOM     21  C   UNL     1      -1.697  -3.970   9.625  1.00  0.00     0.000 C 
BRANCH  21  22
ATOM     22  C   UNL     1      -2.289  -2.564   9.816  1.00  0.00     0.000 C 
BRANCH  22  23
ATOM     23  C   UNL     1      -1.960  -1.610   8.653  1.00  0.00     0.000 C 
BRANCH  23  24
ATOM     24  C   UNL     1      -3.173  -0.879   8.041  1.00  0.00    -0.000 C 
BRANCH  24  25
ATOM     25  C   UNL     1      -4.058  -1.738   7.114  1.00  0.00    -0.000 C 
BRANCH  25  26
ATOM     26  C   UNL     1      -3.295  -2.545   6.047  1.00  0.00    -0.000 C 
BRANCH  26  27
ATOM     27  C   UNL     1      -2.808  -1.673   4.877  1.00  0.00    -0.000 C 
BRANCH  27  28
ATOM     28  C   UNL     1      -3.355  -2.145   3.520  1.00  0.00    -0.000 C 
BRANCH  28  29
ATOM     29  C   UNL     1      -3.584  -0.985   2.534  1.00  0.00    -0.000 C 
BRANCH  29  30
ATOM     30  C   UNL     1      -4.452  -1.392   1.333  1.00  0.00    -0.000 C 
BRANCH  30  31
ATOM     31  C   UNL     1      -5.178  -2.727   1.554  1.00  0.00    -0.003 C 
ATOM     32  C   UNL     1      -5.976  -3.129   0.317  1.00  0.00     0.004 C 
ENDBRANCH  30  31
ENDBRANCH  29  30
ENDBRANCH  28  29
ENDBRANCH  27  28
ENDBRANCH  26  27
ENDBRANCH  25  26
ENDBRANCH  24  25
ENDBRANCH  23  24
ENDBRANCH  22  23
ENDBRANCH  21  22
ENDBRANCH  20  21
ENDBRANCH  19  20
ENDBRANCH  18  19
ENDBRANCH   1  18
TORSDOF 28
ENDMDL
MODEL 2
REMARK VINA RESULT:    -4.253      1.635      6.191
REMARK INTER + INTRA:         -16.557
REMARK INTER:                 -10.787
REMARK INTRA:                  -5.770
REMARK UNBOUND:                -5.342
REMARK SMILES CCCCCCCCCCCCCCCCCCCCCCCCCCCCCC(=O)[O-]
REMARK SMILES IDX 16 1 17 2 18 3 19 4 20 5 21 6 22 7 23 8 24 9 25 10 26 11
REMARK SMILES IDX 27 12 28 13 29 14 30 15 31 16 32 17 15 18 14 19 13 20 12 21
REMARK SMILES IDX 11 22 10 23 9 24 8 25 7 26 6 27 5 28 4 29 3 30 2 31 1 32
REMARK H PARENT
REMARK Flexibility Score: inf
ROOT
ATOM      1  C   UNL     1      -5.887  -3.605   9.127  1.00  0.00     0.000 C 
ENDROOT
BRANCH   1   2
ATOM      2  C   UNL     1      -4.431  -3.736   9.604  1.00  0.00     0.000 C 
BRANCH   2   3
ATOM      3  C   UNL     1      -3.743  -5.064   9.237  1.00  0.00     0.000 C 
BRANCH   3   4
ATOM      4  C   UNL     1      -2.295  -4.876   8.757  1.00  0.00     0.000 C 
BRANCH   4   5
ATOM      5  C   UNL     1      -1.759  -3.495   9.154  1.00  0.00     0.000 C 
BRANCH   5   6
ATOM      6  C   UNL     1      -1.063  -2.810   7.967  1.00  0.00     0.000 C 
BRANCH   6   7
ATOM      7  C   UNL     1      -1.916  -1.701   7.326  1.00  0.00     0.000 C 
BRANCH   7   8
ATOM      8  C   UNL     1      -2.544  -2.063   5.966  1.00  0.00     0.000 C 
BRANCH   8   9
ATOM      9  C   UNL     1      -3.872  -2.828   6.103  1.00  0.00     0.000 C 
BRANCH   9  10
ATOM     10  C   UNL     1      -5.060  -2.049   5.508  1.00  0.00     0.000 C 
BRANCH  10  11
ATOM     11  C   UNL     1      -5.258  -2.273   3.997  1.00  0.00     0.000 C 
BRANCH  11  12
ATOM     12  C   UNL     1      -6.522  -1.576   3.464  1.00  0.00     0.000 C 
BRANCH  12  13
ATOM     13  C   UNL     1      -7.756  -2.491   3.483  1.00  0.00     0.006 C 
BRANCH  13  14
ATOM     14  C   UNL     1      -7.402  -3.960   3.751  1.00  0.00     0.053 C 
BRANCH  14  15
ATOM     15  C   UNL     1      -8.631  -4.746   4.081  1.00  0.00     0.041 C 
ATOM     16  O   UNL     1      -9.690  -4.152   4.416  1.00  0.00    -0.550 OA
ATOM     17  O   UNL     1      -8.600  -6.135   4.046  1.00  0.00    -0.550 OA
ENDBRANCH  14  15
ENDBRANCH  13  14
ENDBRANCH  12  13
ENDBRANCH  11  12
ENDBRANCH  10  11
ENDBRANCH   9  10
ENDBRANCH   8   9
ENDBRANCH   7   8
ENDBRANCH   6   7
ENDBRANCH   5   6
ENDBRANCH   4   5
ENDBRANCH   3   4
ENDBRANCH   2   3
ENDBRANCH   1   2
BRANCH   1  18
ATOM     18  C   UNL     1      -6.387  -4.849   8.379  1.00  0.00     0.000 C 
BRANCH  18  19
ATOM     19  C   UNL     1      -7.749  -4.579   7.720  1.00  0.00     0.000 C 
BRANCH  19  20
ATOM     20  C   UNL     1      -7.962  -3.098   7.362  1.00  0.00     0.000 C 
BRANCH  20  21
ATOM     21  C   UNL     1      -9.229  -2.455   7.955  1.00  0.00     0.000 C 
BRANCH  21  22
ATOM     22  C   UNL     1      -9.952  -3.370   8.958  1.00  0.00     0.000 C 
BRANCH  22  23
ATOM     23  C   UNL     1     -10.038  -2.763  10.371  1.00  0.00     0.000 C 
BRANCH  23  24
ATOM     24  C   UNL     1      -8.991  -1.674  10.682  1.00  0.00    -0.000 C 
BRANCH  24  25
ATOM     25  C   UNL     1      -9.510  -0.223  10.609  1.00  0.00    -0.000 C 
BRANCH  25  26
ATOM     26  C   UNL     1      -8.448   0.831  10.246  1.00  0.00    -0.000 C 
BRANCH  26  27
ATOM     27  C   UNL     1      -7.026   0.247  10.184  1.00  0.00    -0.000 C 
BRANCH  27  28
ATOM     28  C   UNL     1      -6.509   0.100   8.743  1.00  0.00    -0.000 C 
BRANCH  28  29
ATOM     29  C   UNL     1      -4.995  -0.169   8.678  1.00  0.00    -0.000 C 
BRANCH  29  30
ATOM     30  C   UNL     1      -4.327  -0.130  10.061  1.00  0.00    -0.000 C 
BRANCH  30  31
ATOM     31  C   UNL     1      -2.975   0.599  10.042  1.00  0.00    -0.003 C 
ATOM     32  C   UNL     1      -1.912  -0.198  10.794  1.00  0.00     0.004 C 
ENDBRANCH  30  31
ENDBRANCH  29  30
ENDBRANCH  28  29
ENDBRANCH  27  28
ENDBRANCH  26  27
ENDBRANCH  25  26
ENDBRANCH  24  25
ENDBRANCH  23  24
ENDBRANCH  22  23
ENDBRANCH  21  22
ENDBRANCH  20  21
ENDBRANCH  19  20
ENDBRANCH  18  19
ENDBRANCH   1  18
TORSDOF 28
ENDMDL
MODEL 3
REMARK VINA RESULT:    -4.251      2.193      4.936
REMARK INTER + INTRA:         -16.551
REMARK INTER:                 -10.468
REMARK INTRA:                  -6.083
REMARK UNBOUND:                -5.342
REMARK SMILES CCCCCCCCCCCCCCCCCCCCCCCCCCCCCC(=O)[O-]
REMARK SMILES IDX 16 1 17 2 18 3 19 4 20 5 21 6 22 7 23 8 24 9 25 10 26 11
REMARK SMILES IDX 27 12 28 13 29 14 30 15 31 16 32 17 15 18 14 19 13 20 12 21
REMARK SMILES IDX 11 22 10 23 9 24 8 25 7 26 6 27 5 28 4 29 3 30 2 31 1 32
REMARK H PARENT
REMARK Flexibility Score: inf
ROOT
ATOM      1  C   UNL     1      -6.179  -3.425   9.004  1.00  0.00     0.000 C 
ENDROOT
BRANCH   1   2
ATOM      2  C   UNL     1      -7.560  -4.101   9.055  1.00  0.00     0.000 C 
BRANCH   2   3
ATOM      3  C   UNL     1      -8.584  -3.565   8.037  1.00  0.00     0.000 C 
BRANCH   3   4
ATOM      4  C   UNL     1      -9.780  -2.865   8.702  1.00  0.00     0.000 C 
BRANCH   4   5
ATOM      5  C   UNL     1      -9.701  -2.975  10.230  1.00  0.00     0.000 C 
BRANCH   5   6
ATOM      6  C   UNL     1      -9.495  -1.595  10.874  1.00  0.00     0.000 C 
BRANCH   6   7
ATOM      7  C   UNL     1      -9.261  -0.477   9.841  1.00  0.00     0.000 C 
BRANCH   7   8
ATOM      8  C   UNL     1      -7.843   0.125   9.842  1.00  0.00     0.000 C 
BRANCH   8   9
ATOM      9  C   UNL     1      -7.191   0.130   8.448  1.00  0.00     0.000 C 
BRANCH   9  10
ATOM     10  C   UNL     1      -8.232   0.217   7.316  1.00  0.00     0.000 C 
BRANCH  10  11
ATOM     11  C   UNL     1      -7.862  -0.603   6.066  1.00  0.00     0.000 C 
BRANCH  11  12
ATOM     12  C   UNL     1      -6.421  -1.137   6.123  1.00  0.00     0.000 C 
BRANCH  12  13
ATOM     13  C   UNL     1      -6.246  -2.452   5.347  1.00  0.00     0.006 C 
BRANCH  13  14
ATOM     14  C   UNL     1      -4.773  -2.819   5.125  1.00  0.00     0.053 C 
BRANCH  14  15
ATOM     15  C   UNL     1      -4.170  -1.958   4.060  1.00  0.00     0.041 C 
ATOM     16  O   UNL     1      -3.112  -1.314   4.291  1.00  0.00    -0.550 OA
ATOM     17  O   UNL     1      -4.791  -1.844   2.822  1.00  0.00    -0.550 OA
ENDBRANCH  14  15
ENDBRANCH  13  14
ENDBRANCH  12  13
ENDBRANCH  11  12
ENDBRANCH  10  11
ENDBRANCH   9  10
ENDBRANCH   8   9
ENDBRANCH   7   8
ENDBRANCH   6   7
ENDBRANCH   5   6
ENDBRANCH   4   5
ENDBRANCH   3   4
ENDBRANCH   2   3
ENDBRANCH   1   2
BRANCH   1  18
ATOM     18  C   UNL     1      -5.089  -4.331   8.416  1.00  0.00     0.000 C 
BRANCH  18  19
ATOM     19  C   UNL     1      -4.174  -4.874   9.524  1.00  0.00     0.000 C 
BRANCH  19  20
ATOM     20  C   UNL     1      -2.879  -4.059   9.688  1.00  0.00     0.000 C 
BRANCH  20  21
ATOM     21  C   UNL     1      -1.757  -4.401   8.690  1.00  0.00     0.000 C 
BRANCH  21  22
ATOM     22  C   UNL     1      -0.858  -3.196   8.363  1.00  0.00     0.000 C 
BRANCH  22  23
ATOM     23  C   UNL     1      -1.461  -2.268   7.293  1.00  0.00     0.000 C 
BRANCH  23  24
ATOM     24  C   UNL     1      -1.991  -0.918   7.818  1.00  0.00    -0.000 C 
BRANCH  24  25
ATOM     25  C   UNL     1      -3.511  -0.864   8.076  1.00  0.00    -0.000 C 
BRANCH  25  26
ATOM     26  C   UNL     1      -3.942   0.044   9.243  1.00  0.00    -0.000 C 
BRANCH  26  27
ATOM     27  C   UNL     1      -3.996  -0.701  10.588  1.00  0.00    -0.000 C 
BRANCH  27  28
ATOM     28  C   UNL     1      -3.138  -0.027  11.672  1.00  0.00    -0.000 C 
BRANCH  28  29
ATOM     29  C   UNL     1      -1.634  -0.309  11.503  1.00  0.00    -0.000 C 
BRANCH  29  30
ATOM     30  C   UNL     1      -1.068  -1.192  12.626  1.00  0.00    -0.000 C 
BRANCH  30  31
ATOM     31  C   UNL     1      -0.872  -2.651  12.187  1.00  0.00    -0.003 C 
ATOM     32  C   UNL     1       0.588  -2.928  11.838  1.00  0.00     0.004 C 
ENDBRANCH  30  31
ENDBRANCH  29  30
ENDBRANCH  28  29
ENDBRANCH  27  28
ENDBRANCH  26  27
ENDBRANCH  25  26
ENDBRANCH  24  25
ENDBRANCH  23  24
ENDBRANCH  22  23
ENDBRANCH  21  22
ENDBRANCH  20  21
ENDBRANCH  19  20
ENDBRANCH  18  19
ENDBRANCH   1  18
TORSDOF 28
ENDMDL
MODEL 4
REMARK VINA RESULT:    -4.207      2.128      4.682
REMARK INTER + INTRA:         -16.435
REMARK INTER:                 -10.864
REMARK INTRA:                  -5.572
REMARK UNBOUND:                -5.342
REMARK SMILES CCCCCCCCCCCCCCCCCCCCCCCCCCCCCC(=O)[O-]
REMARK SMILES IDX 16 1 17 2 18 3 19 4 20 5 21 6 22 7 23 8 24 9 25 10 26 11
REMARK SMILES IDX 27 12 28 13 29 14 30 15 31 16 32 17 15 18 14 19 13 20 12 21
REMARK SMILES IDX 11 22 10 23 9 24 8 25 7 26 6 27 5 28 4 29 3 30 2 31 1 32
REMARK H PARENT
REMARK Flexibility Score: inf
ROOT
ATOM      1  C   UNL     1      -6.609  -5.091   8.706  1.00  0.00     0.000 C 
ENDROOT
BRANCH   1   2
ATOM      2  C   UNL     1      -7.474  -3.864   9.041  1.00  0.00     0.000 C 
BRANCH   2   3
ATOM      3  C   UNL     1      -8.796  -3.768   8.258  1.00  0.00     0.000 C 
BRANCH   3   4
ATOM      4  C   UNL     1      -9.797  -2.788   8.890  1.00  0.00     0.000 C 
BRANCH   4   5
ATOM      5  C   UNL     1      -9.529  -2.620  10.391  1.00  0.00     0.000 C 
BRANCH   5   6
ATOM      6  C   UNL     1      -9.588  -1.140  10.802  1.00  0.00     0.000 C 
BRANCH   6   7
ATOM      7  C   UNL     1      -8.917  -0.204   9.779  1.00  0.00     0.000 C 
BRANCH   7   8
ATOM      8  C   UNL     1      -7.393  -0.050   9.937  1.00  0.00     0.000 C 
BRANCH   8   9
ATOM      9  C   UNL     1      -6.693   0.370   8.632  1.00  0.00     0.000 C 
BRANCH   9  10
ATOM     10  C   UNL     1      -6.727  -0.742   7.566  1.00  0.00     0.000 C 
BRANCH  10  11
ATOM     11  C   UNL     1      -7.176  -0.257   6.175  1.00  0.00     0.000 C 
BRANCH  11  12
ATOM     12  C   UNL     1      -8.642  -0.614   5.877  1.00  0.00     0.000 C 
BRANCH  12  13
ATOM     13  C   UNL     1      -8.805  -2.044   5.337  1.00  0.00     0.006 C 
BRANCH  13  14
ATOM     14  C   UNL     1      -7.609  -2.499   4.492  1.00  0.00     0.053 C 
BRANCH  14  15
ATOM     15  C   UNL     1      -6.954  -3.696   5.107  1.00  0.00     0.041 C 
ATOM     16  O   UNL     1      -5.806  -3.596   5.616  1.00  0.00    -0.550 OA
ATOM     17  O   UNL     1      -7.599  -4.926   5.095  1.00  0.00    -0.550 OA
ENDBRANCH  14  15
ENDBRANCH  13  14
ENDBRANCH  12  13
ENDBRANCH  11  12
ENDBRANCH  10  11
ENDBRANCH   9  10
ENDBRANCH   8   9
ENDBRANCH   7   8
ENDBRANCH   6   7
ENDBRANCH   5   6
ENDBRANCH   4   5
ENDBRANCH   3   4
ENDBRANCH   2   3
ENDBRANCH   1   2
BRANCH   1  18
ATOM     18  C   UNL     1      -5.120  -4.877   9.011  1.00  0.00     0.000 C 
BRANCH  18  19
ATOM     19  C   UNL     1      -4.825  -3.392   9.271  1.00  0.00     0.000 C 
BRANCH  19  20
ATOM     20  C   UNL     1      -3.692  -2.839   8.389  1.00  0.00     0.000 C 
BRANCH  20  21
ATOM     21  C   UNL     1      -2.790  -3.902   7.736  1.00  0.00     0.000 C 
BRANCH  21  22
ATOM     22  C   UNL     1      -1.353  -3.889   8.286  1.00  0.00     0.000 C 
BRANCH  22  23
ATOM     23  C   UNL     1      -0.981  -2.555   8.960  1.00  0.00     0.000 C 
BRANCH  23  24
ATOM     24  C   UNL     1       0.445  -2.492   9.544  1.00  0.00    -0.000 C 
BRANCH  24  25
ATOM     25  C   UNL     1       0.525  -2.472  11.084  1.00  0.00    -0.000 C 
BRANCH  25  26
ATOM     26  C   UNL     1      -0.538  -3.323  11.802  1.00  0.00    -0.000 C 
BRANCH  26  27
ATOM     27  C   UNL     1      -1.437  -2.492  12.734  1.00  0.00    -0.000 C 
BRANCH  27  28
ATOM     28  C   UNL     1      -2.848  -2.280  12.162  1.00  0.00    -0.000 C 
BRANCH  28  29
ATOM     29  C   UNL     1      -3.276  -0.802  12.162  1.00  0.00    -0.000 C 
BRANCH  29  30
ATOM     30  C   UNL     1      -3.075  -0.127  10.795  1.00  0.00    -0.000 C 
BRANCH  30  31
ATOM     31  C   UNL     1      -1.843   0.788  10.765  1.00  0.00    -0.003 C 
ATOM     32  C   UNL     1      -1.429   1.102   9.329  1.00  0.00     0.004 C 
ENDBRANCH  30  31
ENDBRANCH  29  30
ENDBRANCH  28  29
ENDBRANCH  27  28
ENDBRANCH  26  27
ENDBRANCH  25  26
ENDBRANCH  24  25
ENDBRANCH  23  24
ENDBRANCH  22  23
ENDBRANCH  21  22
ENDBRANCH  20  21
ENDBRANCH  19  20
ENDBRANCH  18  19
ENDBRANCH   1  18
TORSDOF 28
ENDMDL
MODEL 5
REMARK VINA RESULT:    -4.148      3.357      7.006
REMARK INTER + INTRA:         -16.278
REMARK INTER:                 -10.635
REMARK INTRA:                  -5.643
REMARK UNBOUND:                -5.342
REMARK SMILES CCCCCCCCCCCCCCCCCCCCCCCCCCCCCC(=O)[O-]
REMARK SMILES IDX 16 1 17 2 18 3 19 4 20 5 21 6 22 7 23 8 24 9 25 10 26 11
REMARK SMILES IDX 27 12 28 13 29 14 30 15 31 16 32 17 15 18 14 19 13 20 12 21
REMARK SMILES IDX 11 22 10 23 9 24 8 25 7 26 6 27 5 28 4 29 3 30 2 31 1 32
REMARK H PARENT
REMARK Flexibility Score: inf
ROOT
ATOM      1  C   UNL     1      -6.478  -0.167   9.440  1.00  0.00     0.000 C 
ENDROOT
BRANCH   1   2
ATOM      2  C   UNL     1      -5.863  -1.290   8.588  1.00  0.00     0.000 C 
BRANCH   2   3
ATOM      3  C   UNL     1      -5.290  -2.474   9.388  1.00  0.00     0.000 C 
BRANCH   3   4
ATOM      4  C   UNL     1      -5.626  -3.838   8.765  1.00  0.00     0.000 C 
BRANCH   4   5
ATOM      5  C   UNL     1      -4.581  -4.892   9.151  1.00  0.00     0.000 C 
BRANCH   5   6
ATOM      6  C   UNL     1      -3.428  -4.926   8.136  1.00  0.00     0.000 C 
BRANCH   6   7
ATOM      7  C   UNL     1      -2.039  -4.897   8.801  1.00  0.00     0.000 C 
BRANCH   7   8
ATOM      8  C   UNL     1      -1.513  -3.492   9.153  1.00  0.00     0.000 C 
BRANCH   8   9
ATOM      9  C   UNL     1      -1.140  -3.346  10.638  1.00  0.00     0.000 C 
BRANCH   9  10
ATOM     10  C   UNL     1      -2.138  -2.459  11.408  1.00  0.00     0.000 C 
BRANCH  10  11
ATOM     11  C   UNL     1      -1.815  -0.955  11.340  1.00  0.00     0.000 C 
BRANCH  11  12
ATOM     12  C   UNL     1      -2.865  -0.168  10.535  1.00  0.00     0.000 C 
BRANCH  12  13
ATOM     13  C   UNL     1      -2.271   0.507   9.289  1.00  0.00     0.006 C 
BRANCH  13  14
ATOM     14  C   UNL     1      -0.782   0.190   9.094  1.00  0.00     0.053 C 
BRANCH  14  15
ATOM     15  C   UNL     1      -0.017   1.433   8.767  1.00  0.00     0.041 C 
ATOM     16  O   UNL     1       1.007   1.371   8.036  1.00  0.00    -0.550 OA
ATOM     17  O   UNL     1      -0.418   2.656   9.290  1.00  0.00    -0.550 OA
ENDBRANCH  14  15
ENDBRANCH  13  14
ENDBRANCH  12  13
ENDBRANCH  11  12
ENDBRANCH  10  11
ENDBRANCH   9  10
ENDBRANCH   8   9
ENDBRANCH   7   8
ENDBRANCH   6   7
ENDBRANCH   5   6
ENDBRANCH   4   5
ENDBRANCH   3   4
ENDBRANCH   2   3
ENDBRANCH   1   2
BRANCH   1  18
ATOM     18  C   UNL     1      -7.698   0.489   8.778  1.00  0.00     0.000 C 
BRANCH  18  19
ATOM     19  C   UNL     1      -8.927   0.405   9.695  1.00  0.00     0.000 C 
BRANCH  19  20
ATOM     20  C   UNL     1      -8.735  -0.567  10.873  1.00  0.00     0.000 C 
BRANCH  20  21
ATOM     21  C   UNL     1      -9.638  -1.814  10.849  1.00  0.00     0.000 C 
BRANCH  21  22
ATOM     22  C   UNL     1      -9.094  -2.930   9.941  1.00  0.00     0.000 C 
BRANCH  22  23
ATOM     23  C   UNL     1      -9.792  -2.984   8.570  1.00  0.00     0.000 C 
BRANCH  23  24
ATOM     24  C   UNL     1      -8.853  -3.183   7.363  1.00  0.00    -0.000 C 
BRANCH  24  25
ATOM     25  C   UNL     1      -8.774  -1.990   6.387  1.00  0.00    -0.000 C 
BRANCH  25  26
ATOM     26  C   UNL     1      -8.256  -2.334   4.979  1.00  0.00    -0.000 C 
BRANCH  26  27
ATOM     27  C   UNL     1      -7.201  -3.453   4.990  1.00  0.00    -0.000 C 
BRANCH  27  28
ATOM     28  C   UNL     1      -5.782  -2.926   5.262  1.00  0.00    -0.000 C 
BRANCH  28  29
ATOM     29  C   UNL     1      -5.053  -2.486   3.980  1.00  0.00    -0.000 C 
BRANCH  29  30
ATOM     30  C   UNL     1      -3.585  -2.109   4.233  1.00  0.00    -0.000 C 
BRANCH  30  31
ATOM     31  C   UNL     1      -3.147  -2.382   5.679  1.00  0.00    -0.003 C 
ATOM     32  C   UNL     1      -1.967  -1.495   6.071  1.00  0.00     0.004 C 
ENDBRANCH  30  31
ENDBRANCH  29  30
ENDBRANCH  28  29
ENDBRANCH  27  28
ENDBRANCH  26  27
ENDBRANCH  25  26
ENDBRANCH  24  25
ENDBRANCH  23  24
ENDBRANCH  22  23
ENDBRANCH  21  22
ENDBRANCH  20  21
ENDBRANCH  19  20
ENDBRANCH  18  19
ENDBRANCH   1  18
TORSDOF 28
ENDMDL
MODEL 6
REMARK VINA RESULT:    -4.105      4.326      8.068
REMARK INTER + INTRA:         -16.165
REMARK INTER:                 -10.125
REMARK INTRA:                  -6.040
REMARK UNBOUND:                -5.342
REMARK SMILES CCCCCCCCCCCCCCCCCCCCCCCCCCCCCC(=O)[O-]
REMARK SMILES IDX 16 1 17 2 18 3 19 4 20 5 21 6 22 7 23 8 24 9 25 10 26 11
REMARK SMILES IDX 27 12 28 13 29 14 30 15 31 16 32 17 15 18 14 19 13 20 12 21
REMARK SMILES IDX 11 22 10 23 9 24 8 25 7 26 6 27 5 28 4 29 3 30 2 31 1 32
REMARK H PARENT
REMARK Flexibility Score: inf
ROOT
ATOM      1  C   UNL     1       0.047  -3.418  12.337  1.00  0.00     0.000 C 
ENDROOT
BRANCH   1   2
ATOM      2  C   UNL     1      -0.738  -3.353  13.659  1.00  0.00     0.000 C 
BRANCH   2   3
ATOM      3  C   UNL     1      -2.252  -3.118  13.504  1.00  0.00     0.000 C 
BRANCH   3   4
ATOM      4  C   UNL     1      -2.677  -2.889  12.045  1.00  0.00     0.000 C 
BRANCH   4   5
ATOM      5  C   UNL     1      -3.336  -1.514  11.875  1.00  0.00     0.000 C 
BRANCH   5   6
ATOM      6  C   UNL     1      -3.381  -1.102  10.395  1.00  0.00     0.000 C 
BRANCH   6   7
ATOM      7  C   UNL     1      -1.990  -1.076   9.734  1.00  0.00     0.000 C 
BRANCH   7   8
ATOM      8  C   UNL     1      -1.997  -1.154   8.196  1.00  0.00     0.000 C 
BRANCH   8   9
ATOM      9  C   UNL     1      -1.450  -2.489   7.660  1.00  0.00     0.000 C 
BRANCH   9  10
ATOM     10  C   UNL     1      -1.039  -3.450   8.792  1.00  0.00     0.000 C 
BRANCH  10  11
ATOM     11  C   UNL     1      -1.734  -4.822   8.727  1.00  0.00     0.000 C 
BRANCH  11  12
ATOM     12  C   UNL     1      -3.188  -4.718   8.233  1.00  0.00     0.000 C 
BRANCH  12  13
ATOM     13  C   UNL     1      -4.209  -4.811   9.377  1.00  0.00     0.006 C 
BRANCH  13  14
ATOM     14  C   UNL     1      -5.426  -3.901   9.162  1.00  0.00     0.053 C 
BRANCH  14  15
ATOM     15  C   UNL     1      -6.086  -4.204   7.854  1.00  0.00     0.041 C 
ATOM     16  O   UNL     1      -6.186  -3.308   6.975  1.00  0.00    -0.550 OA
ATOM     17  O   UNL     1      -6.615  -5.466   7.617  1.00  0.00    -0.550 OA
ENDBRANCH  14  15
ENDBRANCH  13  14
ENDBRANCH  12  13
ENDBRANCH  11  12
ENDBRANCH  10  11
ENDBRANCH   9  10
ENDBRANCH   8   9
ENDBRANCH   7   8
ENDBRANCH   6   7
ENDBRANCH   5   6
ENDBRANCH   4   5
ENDBRANCH   3   4
ENDBRANCH   2   3
ENDBRANCH   1   2
BRANCH   1  18
ATOM     18  C   UNL     1       1.196  -2.402  12.271  1.00  0.00     0.000 C 
BRANCH  18  19
ATOM     19  C   UNL     1       0.661  -0.966  12.390  1.00  0.00     0.000 C 
BRANCH  19  20
ATOM     20  C   UNL     1       1.346   0.013  11.420  1.00  0.00     0.000 C 
BRANCH  20  21
ATOM     21  C   UNL     1       1.337  -0.414   9.941  1.00  0.00     0.000 C 
BRANCH  21  22
ATOM     22  C   UNL     1       1.334   0.781   8.972  1.00  0.00     0.000 C 
BRANCH  22  23
ATOM     23  C   UNL     1       0.427   1.933   9.442  1.00  0.00     0.000 C 
BRANCH  23  24
ATOM     24  C   UNL     1       0.918   3.347   9.071  1.00  0.00    -0.000 C 
BRANCH  24  25
ATOM     25  C   UNL     1       1.499   4.169  10.239  1.00  0.00    -0.000 C 
BRANCH  25  26
ATOM     26  C   UNL     1       2.572   3.446  11.074  1.00  0.00    -0.000 C 
BRANCH  26  27
ATOM     27  C   UNL     1       2.374   3.633  12.588  1.00  0.00    -0.000 C 
BRANCH  27  28
ATOM     28  C   UNL     1       1.064   4.362  12.928  1.00  0.00    -0.000 C 
BRANCH  28  29
ATOM     29  C   UNL     1      -0.008   3.423  13.509  1.00  0.00    -0.000 C 
BRANCH  29  30
ATOM     30  C   UNL     1      -1.220   3.260  12.578  1.00  0.00    -0.000 C 
BRANCH  30  31
ATOM     31  C   UNL     1      -1.717   1.809  12.504  1.00  0.00    -0.003 C 
ATOM     32  C   UNL     1      -2.441   1.411  13.788  1.00  0.00     0.004 C 
ENDBRANCH  30  31
ENDBRANCH  29  30
ENDBRANCH  28  29
ENDBRANCH  27  28
ENDBRANCH  26  27
ENDBRANCH  25  26
ENDBRANCH  24  25
ENDBRANCH  23  24
ENDBRANCH  22  23
ENDBRANCH  21  22
ENDBRANCH  20  21
ENDBRANCH  19  20
ENDBRANCH  18  19
ENDBRANCH   1  18
TORSDOF 28
ENDMDL
MODEL 7
REMARK VINA RESULT:    -4.091      2.994      6.716
REMARK INTER + INTRA:         -16.128
REMARK INTER:                 -10.610
REMARK INTRA:                  -5.519
REMARK UNBOUND:                -5.342
REMARK SMILES CCCCCCCCCCCCCCCCCCCCCCCCCCCCCC(=O)[O-]
REMARK SMILES IDX 16 1 17 2 18 3 19 4 20 5 21 6 22 7 23 8 24 9 25 10 26 11
REMARK SMILES IDX 27 12 28 13 29 14 30 15 31 16 32 17 15 18 14 19 13 20 12 21
REMARK SMILES IDX 11 22 10 23 9 24 8 25 7 26 6 27 5 28 4 29 3 30 2 31 1 32
REMARK H PARENT
REMARK Flexibility Score: inf
ROOT
ATOM      1  C   UNL     1      -6.603  -5.008   8.457  1.00  0.00     0.000 C 
ENDROOT
BRANCH   1   2
ATOM      2  C   UNL     1      -5.092  -4.885   8.722  1.00  0.00     0.000 C 
BRANCH   2   3
ATOM      3  C   UNL     1      -4.672  -3.640   9.524  1.00  0.00     0.000 C 
BRANCH   3   4
ATOM      4  C   UNL     1      -3.201  -3.680   9.966  1.00  0.00     0.000 C 
BRANCH   4   5
ATOM      5  C   UNL     1      -2.328  -4.369   8.910  1.00  0.00     0.000 C 
BRANCH   5   6
ATOM      6  C   UNL     1      -0.988  -3.638   8.737  1.00  0.00     0.000 C 
BRANCH   6   7
ATOM      7  C   UNL     1      -0.763  -2.536   9.789  1.00  0.00     0.000 C 
BRANCH   7   8
ATOM      8  C   UNL     1       0.120  -2.943  10.983  1.00  0.00     0.000 C 
BRANCH   8   9
ATOM      9  C   UNL     1      -0.459  -2.498  12.338  1.00  0.00     0.000 C 
BRANCH   9  10
ATOM     10  C   UNL     1      -0.197  -1.008  12.626  1.00  0.00     0.000 C 
BRANCH  10  11
ATOM     11  C   UNL     1      -1.479  -0.176  12.818  1.00  0.00     0.000 C 
BRANCH  11  12
ATOM     12  C   UNL     1      -2.748  -0.967  12.456  1.00  0.00     0.000 C 
BRANCH  12  13
ATOM     13  C   UNL     1      -3.632  -0.232  11.436  1.00  0.00     0.006 C 
BRANCH  13  14
ATOM     14  C   UNL     1      -3.030   1.103  10.981  1.00  0.00     0.053 C 
BRANCH  14  15
ATOM     15  C   UNL     1      -2.521   1.001   9.578  1.00  0.00     0.041 C 
ATOM     16  O   UNL     1      -3.327   1.027   8.610  1.00  0.00    -0.550 OA
ATOM     17  O   UNL     1      -1.161   0.850   9.339  1.00  0.00    -0.550 OA
ENDBRANCH  14  15
ENDBRANCH  13  14
ENDBRANCH  12  13
ENDBRANCH  11  12
ENDBRANCH  10  11
ENDBRANCH   9  10
ENDBRANCH   8   9
ENDBRANCH   7   8
ENDBRANCH   6   7
ENDBRANCH   5   6
ENDBRANCH   4   5
ENDBRANCH   3   4
ENDBRANCH   2   3
ENDBRANCH   1   2
BRANCH   1  18
ATOM     18  C   UNL     1      -7.420  -3.886   9.112  1.00  0.00     0.000 C 
BRANCH  18  19
ATOM     19  C   UNL     1      -8.696  -3.598   8.305  1.00  0.00     0.000 C 
BRANCH  19  20
ATOM     20  C   UNL     1      -9.826  -2.997   9.160  1.00  0.00     0.000 C 
BRANCH  20  21
ATOM     21  C   UNL     1      -9.367  -2.036  10.272  1.00  0.00     0.000 C 
BRANCH  21  22
ATOM     22  C   UNL     1      -9.070  -0.618   9.755  1.00  0.00     0.000 C 
BRANCH  22  23
ATOM     23  C   UNL     1      -7.764  -0.033  10.322  1.00  0.00     0.000 C 
BRANCH  23  24
ATOM     24  C   UNL     1      -6.521  -0.211   9.426  1.00  0.00    -0.000 C 
BRANCH  24  25
ATOM     25  C   UNL     1      -6.816  -0.400   7.924  1.00  0.00    -0.000 C 
BRANCH  25  26
ATOM     26  C   UNL     1      -5.713  -1.124   7.129  1.00  0.00    -0.000 C 
BRANCH  26  27
ATOM     27  C   UNL     1      -6.275  -2.024   6.016  1.00  0.00    -0.000 C 
BRANCH  27  28
ATOM     28  C   UNL     1      -5.218  -2.980   5.438  1.00  0.00    -0.000 C 
BRANCH  28  29
ATOM     29  C   UNL     1      -3.815  -2.741   6.023  1.00  0.00    -0.000 C 
BRANCH  29  30
ATOM     30  C   UNL     1      -2.801  -2.281   4.963  1.00  0.00    -0.000 C 
BRANCH  30  31
ATOM     31  C   UNL     1      -3.378  -2.316   3.541  1.00  0.00    -0.003 C 
ATOM     32  C   UNL     1      -3.359  -0.927   2.907  1.00  0.00     0.004 C 
ENDBRANCH  30  31
ENDBRANCH  29  30
ENDBRANCH  28  29
ENDBRANCH  27  28
ENDBRANCH  26  27
ENDBRANCH  25  26
ENDBRANCH  24  25
ENDBRANCH  23  24
ENDBRANCH  22  23
ENDBRANCH  21  22
ENDBRANCH  20  21
ENDBRANCH  19  20
ENDBRANCH  18  19
ENDBRANCH   1  18
TORSDOF 28
ENDMDL
MODEL 8
REMARK VINA RESULT:    -4.068      4.126      7.879
REMARK INTER + INTRA:         -16.068
REMARK INTER:                 -10.886
REMARK INTRA:                  -5.182
REMARK UNBOUND:                -5.342
REMARK SMILES CCCCCCCCCCCCCCCCCCCCCCCCCCCCCC(=O)[O-]
REMARK SMILES IDX 16 1 17 2 18 3 19 4 20 5 21 6 22 7 23 8 24 9 25 10 26 11
REMARK SMILES IDX 27 12 28 13 29 14 30 15 31 16 32 17 15 18 14 19 13 20 12 21
REMARK SMILES IDX 11 22 10 23 9 24 8 25 7 26 6 27 5 28 4 29 3 30 2 31 1 32
REMARK H PARENT
REMARK Flexibility Score: inf
ROOT
ATOM      1  C   UNL     1      -5.286  -1.040   8.689  1.00  0.00     0.000 C 
ENDROOT
BRANCH   1   2
ATOM      2  C   UNL     1      -5.470  -2.345   9.482  1.00  0.00     0.000 C 
BRANCH   2   3
ATOM      3  C   UNL     1      -5.301  -3.635   8.659  1.00  0.00     0.000 C 
BRANCH   3   4
ATOM      4  C   UNL     1      -4.143  -4.515   9.154  1.00  0.00     0.000 C 
BRANCH   4   5
ATOM      5  C   UNL     1      -3.185  -4.859   8.006  1.00  0.00     0.000 C 
BRANCH   5   6
ATOM      6  C   UNL     1      -1.720  -4.677   8.435  1.00  0.00     0.000 C 
BRANCH   6   7
ATOM      7  C   UNL     1      -1.575  -4.095   9.853  1.00  0.00     0.000 C 
BRANCH   7   8
ATOM      8  C   UNL     1      -0.664  -2.858   9.960  1.00  0.00     0.000 C 
BRANCH   8   9
ATOM      9  C   UNL     1      -1.236  -1.770  10.887  1.00  0.00     0.000 C 
BRANCH   9  10
ATOM     10  C   UNL     1      -2.582  -2.183  11.513  1.00  0.00     0.000 C 
BRANCH  10  11
ATOM     11  C   UNL     1      -2.647  -1.978  13.038  1.00  0.00     0.000 C 
BRANCH  11  12
ATOM     12  C   UNL     1      -2.495  -3.299  13.812  1.00  0.00     0.000 C 
BRANCH  12  13
ATOM     13  C   UNL     1      -1.262  -3.310  14.729  1.00  0.00     0.006 C 
BRANCH  13  14
ATOM     14  C   UNL     1      -0.277  -4.436  14.387  1.00  0.00     0.053 C 
BRANCH  14  15
ATOM     15  C   UNL     1       0.553  -4.791  15.580  1.00  0.00     0.041 C 
ATOM     16  O   UNL     1       0.408  -5.909  16.141  1.00  0.00    -0.550 OA
ATOM     17  O   UNL     1       1.466  -3.877  16.090  1.00  0.00    -0.550 OA
ENDBRANCH  14  15
ENDBRANCH  13  14
ENDBRANCH  12  13
ENDBRANCH  11  12
ENDBRANCH  10  11
ENDBRANCH   9  10
ENDBRANCH   8   9
ENDBRANCH   7   8
ENDBRANCH   6   7
ENDBRANCH   5   6
ENDBRANCH   4   5
ENDBRANCH   3   4
ENDBRANCH   2   3
ENDBRANCH   1   2
BRANCH   1  18
ATOM     18  C   UNL     1      -6.538  -0.152   8.697  1.00  0.00     0.000 C 
BRANCH  18  19
ATOM     19  C   UNL     1      -6.840   0.354  10.116  1.00  0.00     0.000 C 
BRANCH  19  20
ATOM     20  C   UNL     1      -8.176  -0.170  10.670  1.00  0.00     0.000 C 
BRANCH  20  21
ATOM     21  C   UNL     1      -9.042  -0.954   9.666  1.00  0.00     0.000 C 
BRANCH  21  22
ATOM     22  C   UNL     1      -9.146  -2.450  10.006  1.00  0.00     0.000 C 
BRANCH  22  23
ATOM     23  C   UNL     1      -9.021  -3.358   8.768  1.00  0.00     0.000 C 
BRANCH  23  24
ATOM     24  C   UNL     1      -9.170  -2.640   7.411  1.00  0.00    -0.000 C 
BRANCH  24  25
ATOM     25  C   UNL     1      -7.987  -2.821   6.438  1.00  0.00    -0.000 C 
BRANCH  25  26
ATOM     26  C   UNL     1      -7.956  -1.831   5.259  1.00  0.00    -0.000 C 
BRANCH  26  27
ATOM     27  C   UNL     1      -6.526  -1.432   4.855  1.00  0.00    -0.000 C 
BRANCH  27  28
ATOM     28  C   UNL     1      -5.473  -2.451   5.321  1.00  0.00    -0.000 C 
BRANCH  28  29
ATOM     29  C   UNL     1      -4.359  -2.672   4.282  1.00  0.00    -0.000 C 
BRANCH  29  30
ATOM     30  C   UNL     1      -3.060  -1.932   4.640  1.00  0.00    -0.000 C 
BRANCH  30  31
ATOM     31  C   UNL     1      -2.965  -1.597   6.135  1.00  0.00    -0.003 C 
ATOM     32  C   UNL     1      -1.510  -1.527   6.590  1.00  0.00     0.004 C 
ENDBRANCH  30  31
ENDBRANCH  29  30
ENDBRANCH  28  29
ENDBRANCH  27  28
ENDBRANCH  26  27
ENDBRANCH  25  26
ENDBRANCH  24  25
ENDBRANCH  23  24
ENDBRANCH  22  23
ENDBRANCH  21  22
ENDBRANCH  20  21
ENDBRANCH  19  20
ENDBRANCH  18  19
ENDBRANCH   1  18
TORSDOF 28
ENDMDL
MODEL 9
REMARK VINA RESULT:    -4.046      6.776     10.572
REMARK INTER + INTRA:         -16.012
REMARK INTER:                 -10.245
REMARK INTRA:                  -5.767
REMARK UNBOUND:                -5.342
REMARK SMILES CCCCCCCCCCCCCCCCCCCCCCCCCCCCCC(=O)[O-]
REMARK SMILES IDX 16 1 17 2 18 3 19 4 20 5 21 6 22 7 23 8 24 9 25 10 26 11
REMARK SMILES IDX 27 12 28 13 29 14 30 15 31 16 32 17 15 18 14 19 13 20 12 21
REMARK SMILES IDX 11 22 10 23 9 24 8 25 7 26 6 27 5 28 4 29 3 30 2 31 1 32
REMARK H PARENT
REMARK Flexibility Score: inf
ROOT
ATOM      1  C   UNL     1       0.681   3.968  11.676  1.00  0.00     0.000 C 
ENDROOT
BRANCH   1   2
ATOM      2  C   UNL     1       2.205   3.778  11.774  1.00  0.00     0.000 C 
BRANCH   2   3
ATOM      3  C   UNL     1       2.654   2.499  12.504  1.00  0.00     0.000 C 
BRANCH   3   4
ATOM      4  C   UNL     1       3.314   1.474  11.567  1.00  0.00     0.000 C 
BRANCH   4   5
ATOM      5  C   UNL     1       3.295   1.967  10.114  1.00  0.00     0.000 C 
BRANCH   5   6
ATOM      6  C   UNL     1       2.607   0.948   9.193  1.00  0.00     0.000 C 
BRANCH   6   7
ATOM      7  C   UNL     1       1.489   1.569   8.335  1.00  0.00     0.000 C 
BRANCH   7   8
ATOM      8  C   UNL     1       1.876   2.865   7.598  1.00  0.00     0.000 C 
BRANCH   8   9
ATOM      9  C   UNL     1       1.001   4.067   7.997  1.00  0.00     0.000 C 
BRANCH   9  10
ATOM     10  C   UNL     1       1.841   5.296   8.395  1.00  0.00     0.000 C 
BRANCH  10  11
ATOM     11  C   UNL     1       3.290   5.253   7.877  1.00  0.00     0.000 C 
BRANCH  11  12
ATOM     12  C   UNL     1       4.319   5.241   9.020  1.00  0.00     0.000 C 
BRANCH  12  13
ATOM     13  C   UNL     1       5.633   4.547   8.627  1.00  0.00     0.006 C 
BRANCH  13  14
ATOM     14  C   UNL     1       5.640   4.073   7.168  1.00  0.00     0.053 C 
BRANCH  14  15
ATOM     15  C   UNL     1       5.632   2.579   7.099  1.00  0.00     0.041 C 
ATOM     16  O   UNL     1       5.163   1.995   6.086  1.00  0.00    -0.550 OA
ATOM     17  O   UNL     1       6.117   1.830   8.164  1.00  0.00    -0.550 OA
ENDBRANCH  14  15
ENDBRANCH  13  14
ENDBRANCH  12  13
ENDBRANCH  11  12
ENDBRANCH  10  11
ENDBRANCH   9  10
ENDBRANCH   8   9
ENDBRANCH   7   8
ENDBRANCH   6   7
ENDBRANCH   5   6
ENDBRANCH   4   5
ENDBRANCH   3   4
ENDBRANCH   2   3
ENDBRANCH   1   2
BRANCH   1  18
ATOM     18  C   UNL     1      -0.109   2.830  12.337  1.00  0.00     0.000 C 
BRANCH  18  19
ATOM     19  C   UNL     1      -0.706   1.893  11.276  1.00  0.00     0.000 C 
BRANCH  19  20
ATOM     20  C   UNL     1      -0.935   0.462  11.795  1.00  0.00     0.000 C 
BRANCH  20  21
ATOM     21  C   UNL     1       0.236  -0.512  11.573  1.00  0.00     0.000 C 
BRANCH  21  22
ATOM     22  C   UNL     1      -0.198  -1.829  10.907  1.00  0.00     0.000 C 
BRANCH  22  23
ATOM     23  C   UNL     1       0.336  -1.981   9.471  1.00  0.00     0.000 C 
BRANCH  23  24
ATOM     24  C   UNL     1      -0.358  -3.067   8.624  1.00  0.00    -0.000 C 
BRANCH  24  25
ATOM     25  C   UNL     1      -1.475  -3.849   9.345  1.00  0.00    -0.000 C 
BRANCH  25  26
ATOM     26  C   UNL     1      -2.213  -4.883   8.475  1.00  0.00    -0.000 C 
BRANCH  26  27
ATOM     27  C   UNL     1      -3.724  -4.934   8.764  1.00  0.00    -0.000 C 
BRANCH  27  28
ATOM     28  C   UNL     1      -4.477  -3.724   8.187  1.00  0.00    -0.000 C 
BRANCH  28  29
ATOM     29  C   UNL     1      -5.078  -2.820   9.278  1.00  0.00    -0.000 C 
BRANCH  29  30
ATOM     30  C   UNL     1      -4.872  -1.325   8.989  1.00  0.00    -0.000 C 
BRANCH  30  31
ATOM     31  C   UNL     1      -3.579  -0.777   9.611  1.00  0.00    -0.003 C 
ATOM     32  C   UNL     1      -2.707  -0.100   8.556  1.00  0.00     0.004 C 
ENDBRANCH  30  31
ENDBRANCH  29  30
ENDBRANCH  28  29
ENDBRANCH  27  28
ENDBRANCH  26  27
ENDBRANCH  25  26
ENDBRANCH  24  25
ENDBRANCH  23  24
ENDBRANCH  22  23
ENDBRANCH  21  22
ENDBRANCH  20  21
ENDBRANCH  19  20
ENDBRANCH  18  19
ENDBRANCH   1  18
TORSDOF 28
ENDMDL
