MODEL 1
REMARK VINA RESULT:    -5.034      0.000      0.000
REMARK INTER + INTRA:          -9.132
REMARK INTER:                  -7.683
REMARK INTRA:                  -1.449
REMARK UNBOUND:                -1.449
REMARK SMILES OC[C@@H]1O[C@H](O[C@@]2(CO)O[C@@H](CO)[C@@H](O)[C@@H]2O)[C@@H](O)[C@@H](O)[C@H]1O
REMARK SMILES IDX 6 1 5 2 3 3 22 4 4 5 20 6 18 7 2 8 1 9 23 11 21 13 19 15
REMARK SMILES IDX 7 17 16 18 10 19 14 20 11 21 8 22 9 23 17 25 15 27 12 29
REMARK SMILES IDX 13 30
REMARK H PARENT 1 10 23 12 21 14 19 16 9 24 17 26 15 28 13 31
REMARK Flexibility Score: inf
ROOT
ATOM      1  O   UNL     1       0.245 -15.053  -4.864  1.00  0.00    -0.313 OA
ENDROOT
BRANCH   1   2
ATOM      2  C   UNL     1      -0.918 -14.255  -4.699  1.00  0.00     0.285 C 
ATOM      3  C   UNL     1      -3.171 -14.207  -4.080  1.00  0.00     0.178 C 
ATOM      4  C   UNL     1      -2.975 -13.034  -3.088  1.00  0.00     0.177 C 
ATOM      5  O   UNL     1      -1.994 -15.000  -4.143  1.00  0.00    -0.341 OA
ATOM      6  C   UNL     1      -1.772 -12.184  -3.521  1.00  0.00     0.179 C 
ATOM      7  C   UNL     1      -0.550 -13.094  -3.755  1.00  0.00     0.202 C 
BRANCH   3   8
ATOM      8  C   UNL     1      -4.349 -15.102  -3.672  1.00  0.00     0.191 C 
BRANCH   8   9
ATOM      9  O   UNL     1      -5.124 -15.426  -4.793  1.00  0.00    -0.394 OA
ATOM     10  H   UNL     1      -4.524 -15.332  -5.579  1.00  0.00     0.210 HD
ENDBRANCH   8   9
ENDBRANCH   3   8
BRANCH   4  11
ATOM     11  O   UNL     1      -4.122 -12.220  -3.049  1.00  0.00    -0.387 OA
ATOM     12  H   UNL     1      -4.840 -12.696  -3.543  1.00  0.00     0.211 HD
ENDBRANCH   4  11
BRANCH   6  13
ATOM     13  O   UNL     1      -2.090 -11.473  -4.692  1.00  0.00    -0.387 OA
ATOM     14  H   UNL     1      -1.990 -12.105  -5.451  1.00  0.00     0.211 HD
ENDBRANCH   6  13
BRANCH   7  15
ATOM     15  O   UNL     1       0.515 -12.357  -4.303  1.00  0.00    -0.385 OA
ATOM     16  H   UNL     1       0.306 -11.399  -4.152  1.00  0.00     0.211 HD
ENDBRANCH   7  15
ENDBRANCH   1   2
BRANCH   1  17
ATOM     17  C   UNL     1       0.226 -16.019  -5.914  1.00  0.00     0.224 C 
ATOM     18  C   UNL     1      -0.202 -15.468  -7.295  1.00  0.00     0.208 C 
ATOM     19  O   UNL     1      -0.675 -17.062  -5.613  1.00  0.00    -0.337 OA
ATOM     20  C   UNL     1      -0.694 -16.714  -8.010  1.00  0.00     0.180 C 
ATOM     21  C   UNL     1      -1.048 -17.667  -6.841  1.00  0.00     0.179 C 
BRANCH  17  22
ATOM     22  C   UNL     1       1.657 -16.618  -5.959  1.00  0.00     0.225 C 
BRANCH  22  23
ATOM     23  O   UNL     1       2.621 -15.600  -5.900  1.00  0.00    -0.391 OA
ATOM     24  H   UNL     1       2.129 -14.737  -5.901  1.00  0.00     0.210 HD
ENDBRANCH  22  23
ENDBRANCH  17  22
BRANCH  18  25
ATOM     25  O   UNL     1       0.818 -14.775  -7.979  1.00  0.00    -0.385 OA
ATOM     26  H   UNL     1       1.176 -14.061  -7.392  1.00  0.00     0.211 HD
ENDBRANCH  18  25
BRANCH  20  27
ATOM     27  O   UNL     1      -1.793 -16.407  -8.833  1.00  0.00    -0.387 OA
ATOM     28  H   UNL     1      -2.284 -15.668  -8.385  1.00  0.00     0.211 HD
ENDBRANCH  20  27
BRANCH  21  29
ATOM     29  C   UNL     1      -2.525 -18.070  -6.781  1.00  0.00     0.191 C 
BRANCH  29  30
ATOM     30  O   UNL     1      -3.294 -16.989  -6.334  1.00  0.00    -0.394 OA
ATOM     31  H   UNL     1      -2.834 -16.641  -5.527  1.00  0.00     0.210 HD
ENDBRANCH  29  30
ENDBRANCH  21  29
ENDBRANCH   1  17
TORSDOF 13
ENDMDL
MODEL 2
REMARK VINA RESULT:    -4.940      2.667      4.795
REMARK INTER + INTRA:          -8.988
REMARK INTER:                  -7.406
REMARK INTRA:                  -1.582
REMARK UNBOUND:                -1.449
REMARK SMILES OC[C@@H]1O[C@H](O[C@@]2(CO)O[C@@H](CO)[C@@H](O)[C@@H]2O)[C@@H](O)[C@@H](O)[C@H]1O
REMARK SMILES IDX 6 1 5 2 3 3 22 4 4 5 20 6 18 7 2 8 1 9 23 11 21 13 19 15
REMARK SMILES IDX 7 17 16 18 10 19 14 20 11 21 8 22 9 23 17 25 15 27 12 29
REMARK SMILES IDX 13 30
REMARK H PARENT 1 10 23 12 21 14 19 16 9 24 17 26 15 28 13 31
REMARK Flexibility Score: inf
ROOT
ATOM      1  O   UNL     1       1.952 -16.441  -5.591  1.00  0.00    -0.313 OA
ENDROOT
BRANCH   1   2
ATOM      2  C   UNL     1       0.638 -16.097  -6.008  1.00  0.00     0.285 C 
ATOM      3  C   UNL     1      -1.123 -14.572  -5.822  1.00  0.00     0.178 C 
ATOM      4  C   UNL     1      -1.254 -14.387  -7.354  1.00  0.00     0.177 C 
ATOM      5  O   UNL     1       0.226 -14.845  -5.473  1.00  0.00    -0.341 OA
ATOM      6  C   UNL     1      -0.752 -15.647  -8.074  1.00  0.00     0.179 C 
ATOM      7  C   UNL     1       0.646 -16.026  -7.546  1.00  0.00     0.202 C 
BRANCH   3   8
ATOM      8  C   UNL     1      -1.588 -13.324  -5.060  1.00  0.00     0.191 C 
BRANCH   8   9
ATOM      9  O   UNL     1      -2.986 -13.230  -5.089  1.00  0.00    -0.394 OA
ATOM     10  H   UNL     1      -3.327 -14.111  -4.783  1.00  0.00     0.210 HD
ENDBRANCH   8   9
ENDBRANCH   3   8
BRANCH   4  11
ATOM     11  O   UNL     1      -2.594 -14.155  -7.714  1.00  0.00    -0.387 OA
ATOM     12  H   UNL     1      -2.604 -13.370  -8.322  1.00  0.00     0.211 HD
ENDBRANCH   4  11
BRANCH   6  13
ATOM     13  O   UNL     1      -1.660 -16.702  -7.869  1.00  0.00    -0.387 OA
ATOM     14  H   UNL     1      -1.736 -16.832  -6.888  1.00  0.00     0.211 HD
ENDBRANCH   6  13
BRANCH   7  15
ATOM     15  O   UNL     1       1.055 -17.262  -8.076  1.00  0.00    -0.385 OA
ATOM     16  H   UNL     1       1.719 -17.638  -7.442  1.00  0.00     0.211 HD
ENDBRANCH   7  15
ENDBRANCH   1   2
BRANCH   1  17
ATOM     17  C   UNL     1       2.124 -17.713  -4.969  1.00  0.00     0.224 C 
ATOM     18  C   UNL     1       3.594 -18.165  -4.808  1.00  0.00     0.208 C 
ATOM     19  O   UNL     1       1.484 -18.723  -5.720  1.00  0.00    -0.337 OA
ATOM     20  C   UNL     1       3.468 -19.674  -4.705  1.00  0.00     0.180 C 
ATOM     21  C   UNL     1       2.105 -19.954  -5.387  1.00  0.00     0.179 C 
BRANCH  17  22
ATOM     22  C   UNL     1       1.407 -17.609  -3.597  1.00  0.00     0.225 C 
BRANCH  22  23
ATOM     23  O   UNL     1       1.682 -16.375  -2.988  1.00  0.00    -0.391 OA
ATOM     24  H   UNL     1       2.206 -16.569  -2.168  1.00  0.00     0.210 HD
ENDBRANCH  22  23
ENDBRANCH  17  22
BRANCH  18  25
ATOM     25  O   UNL     1       4.264 -17.567  -3.721  1.00  0.00    -0.385 OA
ATOM     26  H   UNL     1       3.996 -18.024  -2.882  1.00  0.00     0.211 HD
ENDBRANCH  18  25
BRANCH  20  27
ATOM     27  O   UNL     1       4.552 -20.303  -5.345  1.00  0.00    -0.387 OA
ATOM     28  H   UNL     1       5.181 -20.580  -4.627  1.00  0.00     0.211 HD
ENDBRANCH  20  27
BRANCH  21  29
ATOM     29  C   UNL     1       2.195 -20.834  -6.639  1.00  0.00     0.191 C 
BRANCH  29  30
ATOM     30  O   UNL     1       2.564 -20.052  -7.741  1.00  0.00    -0.394 OA
ATOM     31  H   UNL     1       3.424 -20.423  -8.066  1.00  0.00     0.210 HD
ENDBRANCH  29  30
ENDBRANCH  21  29
ENDBRANCH   1  17
TORSDOF 13
ENDMDL
MODEL 3
REMARK VINA RESULT:    -4.872      1.849      2.590
REMARK INTER + INTRA:          -8.884
REMARK INTER:                  -6.988
REMARK INTRA:                  -1.896
REMARK UNBOUND:                -1.449
REMARK SMILES OC[C@@H]1O[C@H](O[C@@]2(CO)O[C@@H](CO)[C@@H](O)[C@@H]2O)[C@@H](O)[C@@H](O)[C@H]1O
REMARK SMILES IDX 6 1 5 2 3 3 22 4 4 5 20 6 18 7 2 8 1 9 23 11 21 13 19 15
REMARK SMILES IDX 7 17 16 18 10 19 14 20 11 21 8 22 9 23 17 25 15 27 12 29
REMARK SMILES IDX 13 30
REMARK H PARENT 1 10 23 12 21 14 19 16 9 24 17 26 15 28 13 31
REMARK Flexibility Score: inf
ROOT
ATOM      1  O   UNL     1      -0.363 -17.430  -6.306  1.00  0.00    -0.313 OA
ENDROOT
BRANCH   1   2
ATOM      2  C   UNL     1      -0.997 -16.166  -6.164  1.00  0.00     0.285 C 
ATOM      3  C   UNL     1      -2.585 -14.910  -4.998  1.00  0.00     0.178 C 
ATOM      4  C   UNL     1      -1.596 -13.756  -4.698  1.00  0.00     0.177 C 
ATOM      5  O   UNL     1      -1.892 -16.148  -5.059  1.00  0.00    -0.341 OA
ATOM      6  C   UNL     1      -0.505 -13.714  -5.779  1.00  0.00     0.179 C 
ATOM      7  C   UNL     1       0.110 -15.117  -5.951  1.00  0.00     0.202 C 
BRANCH   3   8
ATOM      8  C   UNL     1      -3.680 -15.008  -3.927  1.00  0.00     0.191 C 
BRANCH   8   9
ATOM      9  O   UNL     1      -4.596 -13.957  -4.070  1.00  0.00    -0.394 OA
ATOM     10  H   UNL     1      -5.495 -14.378  -4.093  1.00  0.00     0.210 HD
ENDBRANCH   8   9
ENDBRANCH   3   8
BRANCH   4  11
ATOM     11  O   UNL     1      -2.267 -12.520  -4.675  1.00  0.00    -0.387 OA
ATOM     12  H   UNL     1      -3.238 -12.709  -4.759  1.00  0.00     0.211 HD
ENDBRANCH   4  11
BRANCH   6  13
ATOM     13  O   UNL     1      -1.058 -13.265  -6.992  1.00  0.00    -0.387 OA
ATOM     14  H   UNL     1      -1.912 -13.754  -7.120  1.00  0.00     0.211 HD
ENDBRANCH   6  13
BRANCH   7  15
ATOM     15  O   UNL     1       0.997 -15.135  -7.042  1.00  0.00    -0.385 OA
ATOM     16  H   UNL     1       1.914 -15.128  -6.663  1.00  0.00     0.211 HD
ENDBRANCH   7  15
ENDBRANCH   1   2
BRANCH   1  17
ATOM     17  C   UNL     1      -0.627 -18.157  -7.506  1.00  0.00     0.224 C 
ATOM     18  C   UNL     1      -1.145 -17.300  -8.685  1.00  0.00     0.208 C 
ATOM     19  O   UNL     1      -1.608 -19.146  -7.280  1.00  0.00    -0.337 OA
ATOM     20  C   UNL     1      -1.869 -18.322  -9.543  1.00  0.00     0.180 C 
ATOM     21  C   UNL     1      -2.196 -19.451  -8.535  1.00  0.00     0.179 C 
BRANCH  17  22
ATOM     22  C   UNL     1       0.703 -18.872  -7.863  1.00  0.00     0.225 C 
BRANCH  22  23
ATOM     23  O   UNL     1       1.770 -17.962  -7.860  1.00  0.00    -0.391 OA
ATOM     24  H   UNL     1       2.501 -18.376  -7.330  1.00  0.00     0.210 HD
ENDBRANCH  22  23
ENDBRANCH  17  22
BRANCH  18  25
ATOM     25  O   UNL     1      -0.136 -16.587  -9.364  1.00  0.00    -0.385 OA
ATOM     26  H   UNL     1       0.352 -16.016  -8.716  1.00  0.00     0.211 HD
ENDBRANCH  18  25
BRANCH  20  27
ATOM     27  O   UNL     1      -3.011 -17.748 -10.131  1.00  0.00    -0.387 OA
ATOM     28  H   UNL     1      -3.249 -16.959  -9.575  1.00  0.00     0.211 HD
ENDBRANCH  20  27
BRANCH  21  29
ATOM     29  C   UNL     1      -3.695 -19.711  -8.344  1.00  0.00     0.191 C 
BRANCH  29  30
ATOM     30  O   UNL     1      -4.269 -18.659  -7.620  1.00  0.00    -0.394 OA
ATOM     31  H   UNL     1      -4.725 -19.077  -6.844  1.00  0.00     0.210 HD
ENDBRANCH  29  30
ENDBRANCH  21  29
ENDBRANCH   1  17
TORSDOF 13
ENDMDL
MODEL 4
REMARK VINA RESULT:    -4.846      2.718      4.044
REMARK INTER + INTRA:          -8.844
REMARK INTER:                  -6.920
REMARK INTRA:                  -1.924
REMARK UNBOUND:                -1.449
REMARK SMILES OC[C@@H]1O[C@H](O[C@@]2(CO)O[C@@H](CO)[C@@H](O)[C@@H]2O)[C@@H](O)[C@@H](O)[C@H]1O
REMARK SMILES IDX 6 1 5 2 3 3 22 4 4 5 20 6 18 7 2 8 1 9 23 11 21 13 19 15
REMARK SMILES IDX 7 17 16 18 10 19 14 20 11 21 8 22 9 23 17 25 15 27 12 29
REMARK SMILES IDX 13 30
REMARK H PARENT 1 10 23 12 21 14 19 16 9 24 17 26 15 28 13 31
REMARK Flexibility Score: inf
ROOT
ATOM      1  O   UNL     1       0.962 -16.559  -5.086  1.00  0.00    -0.313 OA
ENDROOT
BRANCH   1   2
ATOM      2  C   UNL     1      -0.117 -16.543  -6.011  1.00  0.00     0.285 C 
ATOM      3  C   UNL     1      -2.429 -16.713  -6.302  1.00  0.00     0.178 C 
ATOM      4  C   UNL     1      -2.523 -15.398  -7.115  1.00  0.00     0.177 C 
ATOM      5  O   UNL     1      -1.375 -16.632  -5.354  1.00  0.00    -0.341 OA
ATOM      6  C   UNL     1      -1.183 -15.125  -7.815  1.00  0.00     0.179 C 
ATOM      7  C   UNL     1      -0.033 -15.219  -6.793  1.00  0.00     0.202 C 
BRANCH   3   8
ATOM      8  C   UNL     1      -3.739 -17.014  -5.560  1.00  0.00     0.191 C 
BRANCH   8   9
ATOM      9  O   UNL     1      -4.481 -15.837  -5.389  1.00  0.00    -0.394 OA
ATOM     10  H   UNL     1      -3.842 -15.088  -5.519  1.00  0.00     0.210 HD
ENDBRANCH   8   9
ENDBRANCH   3   8
BRANCH   4  11
ATOM     11  O   UNL     1      -3.539 -15.484  -8.084  1.00  0.00    -0.387 OA
ATOM     12  H   UNL     1      -3.215 -15.010  -8.894  1.00  0.00     0.211 HD
ENDBRANCH   4  11
BRANCH   6  13
ATOM     13  O   UNL     1      -0.996 -16.052  -8.856  1.00  0.00    -0.387 OA
ATOM     14  H   UNL     1      -1.635 -15.812  -9.577  1.00  0.00     0.211 HD
ENDBRANCH   6  13
BRANCH   7  15
ATOM     15  O   UNL     1       1.211 -15.129  -7.442  1.00  0.00    -0.385 OA
ATOM     16  H   UNL     1       1.585 -16.047  -7.468  1.00  0.00     0.211 HD
ENDBRANCH   7  15
ENDBRANCH   1   2
BRANCH   1  17
ATOM     17  C   UNL     1       1.865 -17.662  -5.161  1.00  0.00     0.224 C 
ATOM     18  C   UNL     1       1.777 -18.486  -6.467  1.00  0.00     0.208 C 
ATOM     19  O   UNL     1       1.626 -18.570  -4.108  1.00  0.00    -0.337 OA
ATOM     20  C   UNL     1       2.344 -19.831  -6.048  1.00  0.00     0.180 C 
ATOM     21  C   UNL     1       2.137 -19.830  -4.513  1.00  0.00     0.179 C 
BRANCH  17  22
ATOM     22  C   UNL     1       3.280 -17.058  -4.963  1.00  0.00     0.225 C 
BRANCH  22  23
ATOM     23  O   UNL     1       3.398 -15.839  -5.646  1.00  0.00    -0.391 OA
ATOM     24  H   UNL     1       3.940 -15.237  -5.070  1.00  0.00     0.210 HD
ENDBRANCH  22  23
ENDBRANCH  17  22
BRANCH  18  25
ATOM     25  O   UNL     1       2.439 -17.897  -7.564  1.00  0.00    -0.385 OA
ATOM     26  H   UNL     1       3.126 -18.526  -7.906  1.00  0.00     0.211 HD
ENDBRANCH  18  25
BRANCH  20  27
ATOM     27  O   UNL     1       1.666 -20.875  -6.704  1.00  0.00    -0.387 OA
ATOM     28  H   UNL     1       1.937 -20.833  -7.659  1.00  0.00     0.211 HD
ENDBRANCH  20  27
BRANCH  21  29
ATOM     29  C   UNL     1       1.215 -20.942  -4.001  1.00  0.00     0.191 C 
BRANCH  29  30
ATOM     30  O   UNL     1      -0.109 -20.662  -4.360  1.00  0.00    -0.394 OA
ATOM     31  H   UNL     1      -0.399 -21.409  -4.946  1.00  0.00     0.210 HD
ENDBRANCH  29  30
ENDBRANCH  21  29
ENDBRANCH   1  17
TORSDOF 13
ENDMDL
MODEL 5
REMARK VINA RESULT:    -4.733      2.352      5.102
REMARK INTER + INTRA:          -8.672
REMARK INTER:                  -6.769
REMARK INTRA:                  -1.903
REMARK UNBOUND:                -1.449
REMARK SMILES OC[C@@H]1O[C@H](O[C@@]2(CO)O[C@@H](CO)[C@@H](O)[C@@H]2O)[C@@H](O)[C@@H](O)[C@H]1O
REMARK SMILES IDX 6 1 5 2 3 3 22 4 4 5 20 6 18 7 2 8 1 9 23 11 21 13 19 15
REMARK SMILES IDX 7 17 16 18 10 19 14 20 11 21 8 22 9 23 17 25 15 27 12 29
REMARK SMILES IDX 13 30
REMARK H PARENT 1 10 23 12 21 14 19 16 9 24 17 26 15 28 13 31
REMARK Flexibility Score: inf
ROOT
ATOM      1  O   UNL     1      -1.609 -17.099  -8.829  1.00  0.00    -0.313 OA
ENDROOT
BRANCH   1   2
ATOM      2  C   UNL     1      -1.244 -16.509  -7.590  1.00  0.00     0.285 C 
ATOM      3  C   UNL     1       0.446 -16.211  -6.003  1.00  0.00     0.178 C 
ATOM      4  C   UNL     1       0.294 -14.669  -5.987  1.00  0.00     0.177 C 
ATOM      5  O   UNL     1       0.130 -16.723  -7.289  1.00  0.00    -0.341 OA
ATOM      6  C   UNL     1      -1.138 -14.285  -6.387  1.00  0.00     0.179 C 
ATOM      7  C   UNL     1      -1.520 -14.998  -7.699  1.00  0.00     0.202 C 
BRANCH   3   8
ATOM      8  C   UNL     1       1.871 -16.642  -5.635  1.00  0.00     0.191 C 
BRANCH   8   9
ATOM      9  O   UNL     1       2.783 -15.624  -5.946  1.00  0.00    -0.394 OA
ATOM     10  H   UNL     1       2.623 -15.394  -6.898  1.00  0.00     0.210 HD
ENDBRANCH   8   9
ENDBRANCH   3   8
BRANCH   4  11
ATOM     11  O   UNL     1       0.566 -14.156  -4.706  1.00  0.00    -0.387 OA
ATOM     12  H   UNL     1       1.371 -14.627  -4.364  1.00  0.00     0.211 HD
ENDBRANCH   4  11
BRANCH   6  13
ATOM     13  O   UNL     1      -2.029 -14.636  -5.357  1.00  0.00    -0.387 OA
ATOM     14  H   UNL     1      -2.010 -13.898  -4.694  1.00  0.00     0.211 HD
ENDBRANCH   6  13
BRANCH   7  15
ATOM     15  O   UNL     1      -2.878 -14.785  -7.999  1.00  0.00    -0.385 OA
ATOM     16  H   UNL     1      -3.230 -15.644  -8.346  1.00  0.00     0.211 HD
ENDBRANCH   7  15
ENDBRANCH   1   2
BRANCH   1  17
ATOM     17  C   UNL     1      -2.541 -18.179  -8.785  1.00  0.00     0.224 C 
ATOM     18  C   UNL     1      -3.301 -18.326  -7.446  1.00  0.00     0.208 C 
ATOM     19  O   UNL     1      -1.886 -19.409  -9.000  1.00  0.00    -0.337 OA
ATOM     20  C   UNL     1      -3.718 -19.786  -7.461  1.00  0.00     0.180 C 
ATOM     21  C   UNL     1      -2.700 -20.426  -8.437  1.00  0.00     0.179 C 
BRANCH  17  22
ATOM     22  C   UNL     1      -3.515 -17.940  -9.969  1.00  0.00     0.225 C 
BRANCH  22  23
ATOM     23  O   UNL     1      -3.993 -16.621  -9.959  1.00  0.00    -0.391 OA
ATOM     24  H   UNL     1      -4.935 -16.658  -9.646  1.00  0.00     0.210 HD
ENDBRANCH  22  23
ENDBRANCH  17  22
BRANCH  18  25
ATOM     25  O   UNL     1      -4.373 -17.422  -7.290  1.00  0.00    -0.385 OA
ATOM     26  H   UNL     1      -5.069 -17.839  -6.720  1.00  0.00     0.211 HD
ENDBRANCH  18  25
BRANCH  20  27
ATOM     27  O   UNL     1      -3.662 -20.325  -6.162  1.00  0.00    -0.387 OA
ATOM     28  H   UNL     1      -3.264 -21.232  -6.249  1.00  0.00     0.211 HD
ENDBRANCH  20  27
BRANCH  21  29
ATOM     29  C   UNL     1      -1.808 -21.499  -7.803  1.00  0.00     0.191 C 
BRANCH  29  30
ATOM     30  O   UNL     1      -0.809 -20.891  -7.033  1.00  0.00    -0.394 OA
ATOM     31  H   UNL     1      -0.340 -21.627  -6.561  1.00  0.00     0.210 HD
ENDBRANCH  29  30
ENDBRANCH  21  29
ENDBRANCH   1  17
TORSDOF 13
ENDMDL
MODEL 6
REMARK VINA RESULT:    -4.730      2.421      6.136
REMARK INTER + INTRA:          -8.668
REMARK INTER:                  -6.771
REMARK INTRA:                  -1.897
REMARK UNBOUND:                -1.449
REMARK SMILES OC[C@@H]1O[C@H](O[C@@]2(CO)O[C@@H](CO)[C@@H](O)[C@@H]2O)[C@@H](O)[C@@H](O)[C@H]1O
REMARK SMILES IDX 6 1 5 2 3 3 22 4 4 5 20 6 18 7 2 8 1 9 23 11 21 13 19 15
REMARK SMILES IDX 7 17 16 18 10 19 14 20 11 21 8 22 9 23 17 25 15 27 12 29
REMARK SMILES IDX 13 30
REMARK H PARENT 1 10 23 12 21 14 19 16 9 24 17 26 15 28 13 31
REMARK Flexibility Score: inf
ROOT
ATOM      1  O   UNL     1      -1.370 -17.225  -6.667  1.00  0.00    -0.313 OA
ENDROOT
BRANCH   1   2
ATOM      2  C   UNL     1      -0.061 -17.760  -6.528  1.00  0.00     0.285 C 
ATOM      3  C   UNL     1       1.353 -19.134  -5.275  1.00  0.00     0.178 C 
ATOM      4  C   UNL     1       1.820 -19.946  -6.509  1.00  0.00     0.177 C 
ATOM      5  O   UNL     1       0.017 -18.690  -5.455  1.00  0.00    -0.341 OA
ATOM      6  C   UNL     1       1.701 -19.081  -7.773  1.00  0.00     0.179 C 
ATOM      7  C   UNL     1       0.291 -18.465  -7.852  1.00  0.00     0.202 C 
BRANCH   3   8
ATOM      8  C   UNL     1       1.428 -19.968  -3.989  1.00  0.00     0.191 C 
BRANCH   8   9
ATOM      9  O   UNL     1       2.736 -19.970  -3.486  1.00  0.00    -0.394 OA
ATOM     10  H   UNL     1       3.331 -19.823  -4.268  1.00  0.00     0.210 HD
ENDBRANCH   8   9
ENDBRANCH   3   8
BRANCH   4  11
ATOM     11  O   UNL     1       3.156 -20.357  -6.357  1.00  0.00    -0.387 OA
ATOM     12  H   UNL     1       3.145 -21.227  -5.879  1.00  0.00     0.211 HD
ENDBRANCH   4  11
BRANCH   6  13
ATOM     13  O   UNL     1       2.681 -18.072  -7.750  1.00  0.00    -0.387 OA
ATOM     14  H   UNL     1       2.261 -17.270  -7.343  1.00  0.00     0.211 HD
ENDBRANCH   6  13
BRANCH   7  15
ATOM     15  O   UNL     1       0.212 -17.547  -8.913  1.00  0.00    -0.385 OA
ATOM     16  H   UNL     1      -0.172 -18.037  -9.685  1.00  0.00     0.211 HD
ENDBRANCH   7  15
ENDBRANCH   1   2
BRANCH   1  17
ATOM     17  C   UNL     1      -1.527 -15.826  -6.434  1.00  0.00     0.224 C 
ATOM     18  C   UNL     1      -0.207 -15.022  -6.384  1.00  0.00     0.208 C 
ATOM     19  O   UNL     1      -2.171 -15.597  -5.199  1.00  0.00    -0.337 OA
ATOM     20  C   UNL     1      -0.595 -13.797  -5.576  1.00  0.00     0.180 C 
ATOM     21  C   UNL     1      -1.833 -14.284  -4.782  1.00  0.00     0.179 C 
BRANCH  17  22
ATOM     22  C   UNL     1      -2.462 -15.316  -7.563  1.00  0.00     0.225 C 
BRANCH  22  23
ATOM     23  O   UNL     1      -2.070 -15.840  -8.803  1.00  0.00    -0.391 OA
ATOM     24  H   UNL     1      -2.635 -16.640  -8.970  1.00  0.00     0.210 HD
ENDBRANCH  22  23
ENDBRANCH  17  22
BRANCH  18  25
ATOM     25  O   UNL     1       0.336 -14.729  -7.652  1.00  0.00    -0.385 OA
ATOM     26  H   UNL     1       0.860 -13.888  -7.595  1.00  0.00     0.211 HD
ENDBRANCH  18  25
BRANCH  20  27
ATOM     27  O   UNL     1       0.473 -13.393  -4.754  1.00  0.00    -0.387 OA
ATOM     28  H   UNL     1       0.902 -12.619  -5.206  1.00  0.00     0.211 HD
ENDBRANCH  20  27
BRANCH  21  29
ATOM     29  C   UNL     1      -1.654 -14.263  -3.260  1.00  0.00     0.191 C 
BRANCH  29  30
ATOM     30  O   UNL     1      -0.755 -15.265  -2.875  1.00  0.00    -0.394 OA
ATOM     31  H   UNL     1      -1.282 -16.104  -2.831  1.00  0.00     0.210 HD
ENDBRANCH  29  30
ENDBRANCH  21  29
ENDBRANCH   1  17
TORSDOF 13
ENDMDL
MODEL 7
REMARK VINA RESULT:    -4.709      1.626      5.963
REMARK INTER + INTRA:          -8.635
REMARK INTER:                  -7.196
REMARK INTRA:                  -1.439
REMARK UNBOUND:                -1.449
REMARK SMILES OC[C@@H]1O[C@H](O[C@@]2(CO)O[C@@H](CO)[C@@H](O)[C@@H]2O)[C@@H](O)[C@@H](O)[C@H]1O
REMARK SMILES IDX 6 1 5 2 3 3 22 4 4 5 20 6 18 7 2 8 1 9 23 11 21 13 19 15
REMARK SMILES IDX 7 17 16 18 10 19 14 20 11 21 8 22 9 23 17 25 15 27 12 29
REMARK SMILES IDX 13 30
REMARK H PARENT 1 10 23 12 21 14 19 16 9 24 17 26 15 28 13 31
REMARK Flexibility Score: inf
ROOT
ATOM      1  O   UNL     1      -2.878 -15.159  -5.289  1.00  0.00    -0.313 OA
ENDROOT
BRANCH   1   2
ATOM      2  C   UNL     1      -1.669 -15.501  -5.951  1.00  0.00     0.285 C 
ATOM      3  C   UNL     1      -0.007 -17.117  -6.248  1.00  0.00     0.178 C 
ATOM      4  C   UNL     1      -0.124 -17.094  -7.793  1.00  0.00     0.177 C 
ATOM      5  O   UNL     1      -1.266 -16.833  -5.656  1.00  0.00    -0.341 OA
ATOM      6  C   UNL     1      -0.643 -15.724  -8.254  1.00  0.00     0.179 C 
ATOM      7  C   UNL     1      -1.916 -15.359  -7.465  1.00  0.00     0.202 C 
BRANCH   3   8
ATOM      8  C   UNL     1       0.484 -18.478  -5.739  1.00  0.00     0.191 C 
BRANCH   8   9
ATOM      9  O   UNL     1       1.877 -18.571  -5.863  1.00  0.00    -0.394 OA
ATOM     10  H   UNL     1       2.162 -19.281  -5.231  1.00  0.00     0.210 HD
ENDBRANCH   8   9
ENDBRANCH   3   8
BRANCH   4  11
ATOM     11  O   UNL     1       1.127 -17.335  -8.390  1.00  0.00    -0.387 OA
ATOM     12  H   UNL     1       0.959 -17.609  -9.329  1.00  0.00     0.211 HD
ENDBRANCH   4  11
BRANCH   6  13
ATOM     13  O   UNL     1       0.354 -14.751  -8.062  1.00  0.00    -0.387 OA
ATOM     14  H   UNL     1       0.419 -14.591  -7.084  1.00  0.00     0.211 HD
ENDBRANCH   6  13
BRANCH   7  15
ATOM     15  O   UNL     1      -2.316 -14.043  -7.758  1.00  0.00    -0.385 OA
ATOM     16  H   UNL     1      -2.759 -14.072  -8.646  1.00  0.00     0.211 HD
ENDBRANCH   7  15
ENDBRANCH   1   2
BRANCH   1  17
ATOM     17  C   UNL     1      -2.764 -14.460  -4.050  1.00  0.00     0.224 C 
ATOM     18  C   UNL     1      -3.526 -13.115  -3.989  1.00  0.00     0.208 C 
ATOM     19  O   UNL     1      -1.414 -14.158  -3.773  1.00  0.00    -0.337 OA
ATOM     20  C   UNL     1      -2.787 -12.365  -2.896  1.00  0.00     0.180 C 
ATOM     21  C   UNL     1      -1.402 -13.060  -2.875  1.00  0.00     0.179 C 
BRANCH  17  22
ATOM     22  C   UNL     1      -3.267 -15.448  -2.965  1.00  0.00     0.225 C 
BRANCH  22  23
ATOM     23  O   UNL     1      -4.410 -16.130  -3.408  1.00  0.00    -0.391 OA
ATOM     24  H   UNL     1      -4.243 -16.390  -4.352  1.00  0.00     0.210 HD
ENDBRANCH  22  23
ENDBRANCH  17  22
BRANCH  18  25
ATOM     25  O   UNL     1      -4.911 -13.249  -3.762  1.00  0.00    -0.385 OA
ATOM     26  H   UNL     1      -5.316 -13.761  -4.510  1.00  0.00     0.211 HD
ENDBRANCH  18  25
BRANCH  20  27
ATOM     27  O   UNL     1      -2.720 -10.994  -3.200  1.00  0.00    -0.387 OA
ATOM     28  H   UNL     1      -1.790 -10.816  -3.502  1.00  0.00     0.211 HD
ENDBRANCH  20  27
BRANCH  21  29
ATOM     29  C   UNL     1      -0.228 -12.135  -3.217  1.00  0.00     0.191 C 
BRANCH  29  30
ATOM     30  O   UNL     1      -0.273 -11.796  -4.575  1.00  0.00    -0.394 OA
ATOM     31  H   UNL     1       0.534 -12.202  -4.986  1.00  0.00     0.210 HD
ENDBRANCH  29  30
ENDBRANCH  21  29
ENDBRANCH   1  17
TORSDOF 13
ENDMDL
MODEL 8
REMARK VINA RESULT:    -4.703      2.741      6.437
REMARK INTER + INTRA:          -8.626
REMARK INTER:                  -6.880
REMARK INTRA:                  -1.746
REMARK UNBOUND:                -1.449
REMARK SMILES OC[C@@H]1O[C@H](O[C@@]2(CO)O[C@@H](CO)[C@@H](O)[C@@H]2O)[C@@H](O)[C@@H](O)[C@H]1O
REMARK SMILES IDX 6 1 5 2 3 3 22 4 4 5 20 6 18 7 2 8 1 9 23 11 21 13 19 15
REMARK SMILES IDX 7 17 16 18 10 19 14 20 11 21 8 22 9 23 17 25 15 27 12 29
REMARK SMILES IDX 13 30
REMARK H PARENT 1 10 23 12 21 14 19 16 9 24 17 26 15 28 13 31
REMARK Flexibility Score: inf
ROOT
ATOM      1  O   UNL     1      -1.143 -16.802  -8.074  1.00  0.00    -0.313 OA
ENDROOT
BRANCH   1   2
ATOM      2  C   UNL     1      -0.473 -17.994  -7.690  1.00  0.00     0.285 C 
ATOM      3  C   UNL     1      -0.223 -20.288  -8.059  1.00  0.00     0.178 C 
ATOM      4  C   UNL     1       1.317 -20.198  -8.193  1.00  0.00     0.177 C 
ATOM      5  O   UNL     1      -0.828 -19.090  -8.523  1.00  0.00    -0.341 OA
ATOM      6  C   UNL     1       1.837 -18.987  -7.405  1.00  0.00     0.179 C 
ATOM      7  C   UNL     1       1.040 -17.728  -7.800  1.00  0.00     0.202 C 
BRANCH   3   8
ATOM      8  C   UNL     1      -0.792 -21.470  -8.855  1.00  0.00     0.191 C 
BRANCH   8   9
ATOM      9  O   UNL     1       0.088 -21.831  -9.884  1.00  0.00    -0.394 OA
ATOM     10  H   UNL     1      -0.471 -22.251 -10.589  1.00  0.00     0.210 HD
ENDBRANCH   8   9
ENDBRANCH   3   8
BRANCH   4  11
ATOM     11  O   UNL     1       1.928 -21.365  -7.699  1.00  0.00    -0.387 OA
ATOM     12  H   UNL     1       2.880 -21.146  -7.520  1.00  0.00     0.211 HD
ENDBRANCH   4  11
BRANCH   6  13
ATOM     13  O   UNL     1       1.718 -19.234  -6.025  1.00  0.00    -0.387 OA
ATOM     14  H   UNL     1       1.559 -18.357  -5.587  1.00  0.00     0.211 HD
ENDBRANCH   6  13
BRANCH   7  15
ATOM     15  O   UNL     1       1.392 -16.643  -6.977  1.00  0.00    -0.385 OA
ATOM     16  H   UNL     1       2.372 -16.522  -7.071  1.00  0.00     0.211 HD
ENDBRANCH   7  15
ENDBRANCH   1   2
BRANCH   1  17
ATOM     17  C   UNL     1      -1.849 -16.096  -7.054  1.00  0.00     0.224 C 
ATOM     18  C   UNL     1      -1.731 -14.556  -7.129  1.00  0.00     0.208 C 
ATOM     19  O   UNL     1      -1.373 -16.463  -5.777  1.00  0.00    -0.337 OA
ATOM     20  C   UNL     1      -2.025 -14.131  -5.701  1.00  0.00     0.180 C 
ATOM     21  C   UNL     1      -1.695 -15.407  -4.886  1.00  0.00     0.179 C 
BRANCH  17  22
ATOM     22  C   UNL     1      -3.325 -16.560  -7.168  1.00  0.00     0.225 C 
BRANCH  22  23
ATOM     23  O   UNL     1      -3.814 -16.339  -8.464  1.00  0.00    -0.391 OA
ATOM     24  H   UNL     1      -3.428 -17.047  -9.043  1.00  0.00     0.210 HD
ENDBRANCH  22  23
ENDBRANCH  17  22
BRANCH  18  25
ATOM     25  O   UNL     1      -2.572 -13.961  -8.092  1.00  0.00    -0.385 OA
ATOM     26  H   UNL     1      -3.443 -13.739  -7.672  1.00  0.00     0.211 HD
ENDBRANCH  18  25
BRANCH  20  27
ATOM     27  O   UNL     1      -1.236 -13.022  -5.346  1.00  0.00    -0.387 OA
ATOM     28  H   UNL     1      -1.309 -12.372  -6.094  1.00  0.00     0.211 HD
ENDBRANCH  20  27
BRANCH  21  29
ATOM     29  C   UNL     1      -0.558 -15.231  -3.873  1.00  0.00     0.191 C 
BRANCH  29  30
ATOM     30  O   UNL     1       0.668 -15.162  -4.545  1.00  0.00    -0.394 OA
ATOM     31  H   UNL     1       1.352 -14.978  -3.850  1.00  0.00     0.210 HD
ENDBRANCH  29  30
ENDBRANCH  21  29
ENDBRANCH   1  17
TORSDOF 13
ENDMDL
MODEL 9
REMARK VINA RESULT:    -4.681      2.645      5.880
REMARK INTER + INTRA:          -8.593
REMARK INTER:                  -7.084
REMARK INTRA:                  -1.509
REMARK UNBOUND:                -1.449
REMARK SMILES OC[C@@H]1O[C@H](O[C@@]2(CO)O[C@@H](CO)[C@@H](O)[C@@H]2O)[C@@H](O)[C@@H](O)[C@H]1O
REMARK SMILES IDX 6 1 5 2 3 3 22 4 4 5 20 6 18 7 2 8 1 9 23 11 21 13 19 15
REMARK SMILES IDX 7 17 16 18 10 19 14 20 11 21 8 22 9 23 17 25 15 27 12 29
REMARK SMILES IDX 13 30
REMARK H PARENT 1 10 23 12 21 14 19 16 9 24 17 26 15 28 13 31
REMARK Flexibility Score: inf
ROOT
ATOM      1  O   UNL     1       0.636 -17.332  -7.125  1.00  0.00    -0.313 OA
ENDROOT
BRANCH   1   2
ATOM      2  C   UNL     1       1.372 -17.738  -5.979  1.00  0.00     0.285 C 
ATOM      3  C   UNL     1       2.410 -19.510  -4.864  1.00  0.00     0.178 C 
ATOM      4  C   UNL     1       3.746 -18.745  -4.689  1.00  0.00     0.177 C 
ATOM      5  O   UNL     1       1.764 -19.102  -6.062  1.00  0.00    -0.341 OA
ATOM      6  C   UNL     1       3.480 -17.232  -4.673  1.00  0.00     0.179 C 
ATOM      7  C   UNL     1       2.623 -16.843  -5.894  1.00  0.00     0.202 C 
BRANCH   3   8
ATOM      8  C   UNL     1       2.630 -21.027  -4.913  1.00  0.00     0.191 C 
BRANCH   8   9
ATOM      9  O   UNL     1       3.907 -21.318  -5.413  1.00  0.00    -0.394 OA
ATOM     10  H   UNL     1       4.471 -21.525  -4.622  1.00  0.00     0.210 HD
ENDBRANCH   8   9
ENDBRANCH   3   8
BRANCH   4  11
ATOM     11  O   UNL     1       4.375 -19.113  -3.485  1.00  0.00    -0.387 OA
ATOM     12  H   UNL     1       4.333 -20.103  -3.421  1.00  0.00     0.211 HD
ENDBRANCH   4  11
BRANCH   6  13
ATOM     13  O   UNL     1       2.827 -16.878  -3.478  1.00  0.00    -0.387 OA
ATOM     14  H   UNL     1       2.993 -15.911  -3.334  1.00  0.00     0.211 HD
ENDBRANCH   6  13
BRANCH   7  15
ATOM     15  O   UNL     1       2.236 -15.494  -5.814  1.00  0.00    -0.385 OA
ATOM     16  H   UNL     1       2.992 -14.959  -6.171  1.00  0.00     0.211 HD
ENDBRANCH   7  15
ENDBRANCH   1   2
BRANCH   1  17
ATOM     17  C   UNL     1      -0.716 -16.924  -6.917  1.00  0.00     0.224 C 
ATOM     18  C   UNL     1      -1.331 -16.101  -8.073  1.00  0.00     0.208 C 
ATOM     19  O   UNL     1      -0.819 -16.118  -5.764  1.00  0.00    -0.337 OA
ATOM     20  C   UNL     1      -2.449 -15.342  -7.380  1.00  0.00     0.180 C 
ATOM     21  C   UNL     1      -1.996 -15.337  -5.898  1.00  0.00     0.179 C 
BRANCH  17  22
ATOM     22  C   UNL     1      -1.512 -18.231  -6.662  1.00  0.00     0.225 C 
BRANCH  22  23
ATOM     23  O   UNL     1      -1.103 -19.240  -7.546  1.00  0.00    -0.391 OA
ATOM     24  H   UNL     1      -0.434 -19.793  -7.064  1.00  0.00     0.210 HD
ENDBRANCH  22  23
ENDBRANCH  17  22
BRANCH  18  25
ATOM     25  O   UNL     1      -1.756 -16.879  -9.170  1.00  0.00    -0.385 OA
ATOM     26  H   UNL     1      -1.719 -17.839  -8.922  1.00  0.00     0.211 HD
ENDBRANCH  18  25
BRANCH  20  27
ATOM     27  O   UNL     1      -2.580 -14.053  -7.928  1.00  0.00    -0.387 OA
ATOM     28  H   UNL     1      -2.614 -13.421  -7.161  1.00  0.00     0.211 HD
ENDBRANCH  20  27
BRANCH  21  29
ATOM     29  C   UNL     1      -1.749 -13.940  -5.319  1.00  0.00     0.191 C 
BRANCH  29  30
ATOM     30  O   UNL     1      -2.971 -13.284  -5.126  1.00  0.00    -0.394 OA
ATOM     31  H   UNL     1      -2.762 -12.454  -4.626  1.00  0.00     0.210 HD
ENDBRANCH  29  30
ENDBRANCH  21  29
ENDBRANCH   1  17
TORSDOF 13
ENDMDL
