MODEL 1
REMARK VINA RESULT:    -3.536      0.000      0.000
REMARK INTER + INTRA:         -11.749
REMARK INTER:                  -7.671
REMARK INTRA:                  -4.079
REMARK UNBOUND:                -4.079
REMARK SMILES CCCCCCCCCCCCCCCCCCCCCC(=O)[O-]
REMARK SMILES IDX 12 1 11 2 10 3 9 4 8 5 7 6 6 7 5 8 4 9 3 10 2 11 1 12 13 13
REMARK SMILES IDX 14 14 15 15 16 16 17 17 18 18 19 19 20 20 21 21 22 22 23 23
REMARK SMILES IDX 24 24
REMARK H PARENT
REMARK Flexibility Score: inf
ROOT
ATOM      1  C   UNL     1     141.452 129.440 116.508  1.00  0.00     0.000 C 
ENDROOT
BRANCH   1   2
ATOM      2  C   UNL     1     141.948 128.144 115.832  1.00  0.00     0.000 C 
BRANCH   2   3
ATOM      3  C   UNL     1     142.880 127.273 116.693  1.00  0.00     0.000 C 
BRANCH   3   4
ATOM      4  C   UNL     1     144.326 127.252 116.175  1.00  0.00    -0.000 C 
BRANCH   4   5
ATOM      5  C   UNL     1     144.394 127.724 114.718  1.00  0.00    -0.000 C 
BRANCH   5   6
ATOM      6  C   UNL     1     145.437 128.840 114.550  1.00  0.00    -0.000 C 
BRANCH   6   7
ATOM      7  C   UNL     1     144.941 130.199 115.069  1.00  0.00    -0.000 C 
BRANCH   7   8
ATOM      8  C   UNL     1     145.741 130.692 116.287  1.00  0.00    -0.000 C 
BRANCH   8   9
ATOM      9  C   UNL     1     144.860 130.899 117.529  1.00  0.00    -0.000 C 
BRANCH   9  10
ATOM     10  C   UNL     1     145.129 129.859 118.628  1.00  0.00    -0.000 C 
BRANCH  10  11
ATOM     11  C   UNL     1     143.837 129.505 119.374  1.00  0.00    -0.003 C 
ATOM     12  C   UNL     1     144.134 128.721 120.650  1.00  0.00     0.004 C 
ENDBRANCH  10  11
ENDBRANCH   9  10
ENDBRANCH   8   9
ENDBRANCH   7   8
ENDBRANCH   6   7
ENDBRANCH   5   6
ENDBRANCH   4   5
ENDBRANCH   3   4
ENDBRANCH   2   3
ENDBRANCH   1   2
BRANCH   1  13
ATOM     13  C   UNL     1     141.058 130.571 115.542  1.00  0.00     0.000 C 
BRANCH  13  14
ATOM     14  C   UNL     1     141.194 130.223 114.047  1.00  0.00     0.000 C 
BRANCH  14  15
ATOM     15  C   UNL     1     139.934 130.553 113.217  1.00  0.00     0.000 C 
BRANCH  15  16
ATOM     16  C   UNL     1     138.719 129.702 113.622  1.00  0.00     0.000 C 
BRANCH  16  17
ATOM     17  C   UNL     1     138.869 128.223 113.230  1.00  0.00     0.000 C 
BRANCH  17  18
ATOM     18  C   UNL     1     138.581 127.247 114.390  1.00  0.00     0.000 C 
BRANCH  18  19
ATOM     19  C   UNL     1     138.124 127.976 115.662  1.00  0.00     0.000 C 
BRANCH  19  20
ATOM     20  C   UNL     1     138.564 127.216 116.922  1.00  0.00     0.006 C 
BRANCH  20  21
ATOM     21  C   UNL     1     138.403 128.056 118.195  1.00  0.00     0.053 C 
BRANCH  21  22
ATOM     22  C   UNL     1     139.383 127.653 119.254  1.00  0.00     0.041 C 
ATOM     23  O   UNL     1     140.334 126.876 118.976  1.00  0.00    -0.550 OA
ATOM     24  O   UNL     1     139.265 128.163 120.541  1.00  0.00    -0.550 OA
ENDBRANCH  21  22
ENDBRANCH  20  21
ENDBRANCH  19  20
ENDBRANCH  18  19
ENDBRANCH  17  18
ENDBRANCH  16  17
ENDBRANCH  15  16
ENDBRANCH  14  15
ENDBRANCH  13  14
ENDBRANCH   1  13
TORSDOF 20
ENDMDL
MODEL 2
REMARK VINA RESULT:    -3.501     10.219     12.983
REMARK INTER + INTRA:         -11.674
REMARK INTER:                  -7.602
REMARK INTRA:                  -4.072
REMARK UNBOUND:                -4.079
REMARK SMILES CCCCCCCCCCCCCCCCCCCCCC(=O)[O-]
REMARK SMILES IDX 12 1 11 2 10 3 9 4 8 5 7 6 6 7 5 8 4 9 3 10 2 11 1 12 13 13
REMARK SMILES IDX 14 14 15 15 16 16 17 17 18 18 19 19 20 20 21 21 22 22 23 23
REMARK SMILES IDX 24 24
REMARK H PARENT
REMARK Flexibility Score: inf
ROOT
ATOM      1  C   UNL     1     130.689 133.262 113.838  1.00  0.00     0.000 C 
ENDROOT
BRANCH   1   2
ATOM      2  C   UNL     1     129.555 132.543 113.078  1.00  0.00     0.000 C 
BRANCH   2   3
ATOM      3  C   UNL     1     128.292 132.253 113.910  1.00  0.00     0.000 C 
BRANCH   3   4
ATOM      4  C   UNL     1     127.951 130.757 113.975  1.00  0.00    -0.000 C 
BRANCH   4   5
ATOM      5  C   UNL     1     127.983 130.249 115.421  1.00  0.00    -0.000 C 
BRANCH   5   6
ATOM      6  C   UNL     1     128.235 131.403 116.404  1.00  0.00    -0.000 C 
BRANCH   6   7
ATOM      7  C   UNL     1     129.595 131.294 117.111  1.00  0.00    -0.000 C 
BRANCH   7   8
ATOM      8  C   UNL     1     129.740 132.298 118.267  1.00  0.00    -0.000 C 
BRANCH   8   9
ATOM      9  C   UNL     1     128.954 133.596 118.026  1.00  0.00    -0.000 C 
BRANCH   9  10
ATOM     10  C   UNL     1     129.714 134.596 117.140  1.00  0.00    -0.000 C 
BRANCH  10  11
ATOM     11  C   UNL     1     128.758 135.308 116.175  1.00  0.00    -0.003 C 
ATOM     12  C   UNL     1     127.312 134.884 116.418  1.00  0.00     0.004 C 
ENDBRANCH  10  11
ENDBRANCH   9  10
ENDBRANCH   8   9
ENDBRANCH   7   8
ENDBRANCH   6   7
ENDBRANCH   5   6
ENDBRANCH   4   5
ENDBRANCH   3   4
ENDBRANCH   2   3
ENDBRANCH   1   2
BRANCH   1  13
ATOM     13  C   UNL     1     131.696 132.333 114.540  1.00  0.00     0.000 C 
BRANCH  13  14
ATOM     14  C   UNL     1     131.725 130.887 114.008  1.00  0.00     0.000 C 
BRANCH  14  15
ATOM     15  C   UNL     1     132.451 129.896 114.943  1.00  0.00     0.000 C 
BRANCH  15  16
ATOM     16  C   UNL     1     132.074 128.432 114.662  1.00  0.00     0.000 C 
BRANCH  16  17
ATOM     17  C   UNL     1     130.576 128.153 114.859  1.00  0.00     0.000 C 
BRANCH  17  18
ATOM     18  C   UNL     1     130.287 127.045 115.894  1.00  0.00     0.000 C 
BRANCH  18  19
ATOM     19  C   UNL     1     131.347 127.000 117.006  1.00  0.00     0.000 C 
BRANCH  19  20
ATOM     20  C   UNL     1     130.946 127.895 118.187  1.00  0.00     0.006 C 
BRANCH  20  21
ATOM     21  C   UNL     1     129.438 127.855 118.463  1.00  0.00     0.053 C 
BRANCH  21  22
ATOM     22  C   UNL     1     129.054 128.777 119.580  1.00  0.00     0.041 C 
ATOM     23  O   UNL     1     129.934 129.240 120.352  1.00  0.00    -0.550 OA
ATOM     24  O   UNL     1     127.726 129.151 119.747  1.00  0.00    -0.550 OA
ENDBRANCH  21  22
ENDBRANCH  20  21
ENDBRANCH  19  20
ENDBRANCH  18  19
ENDBRANCH  17  18
ENDBRANCH  16  17
ENDBRANCH  15  16
ENDBRANCH  14  15
ENDBRANCH  13  14
ENDBRANCH   1  13
TORSDOF 20
ENDMDL
MODEL 3
REMARK VINA RESULT:    -3.462      2.016      5.903
REMARK INTER + INTRA:         -11.588
REMARK INTER:                  -7.796
REMARK INTRA:                  -3.792
REMARK UNBOUND:                -4.079
REMARK SMILES CCCCCCCCCCCCCCCCCCCCCC(=O)[O-]
REMARK SMILES IDX 12 1 11 2 10 3 9 4 8 5 7 6 6 7 5 8 4 9 3 10 2 11 1 12 13 13
REMARK SMILES IDX 14 14 15 15 16 16 17 17 18 18 19 19 20 20 21 21 22 22 23 23
REMARK SMILES IDX 24 24
REMARK H PARENT
REMARK Flexibility Score: inf
ROOT
ATOM      1  C   UNL     1     141.340 129.659 114.394  1.00  0.00     0.000 C 
ENDROOT
BRANCH   1   2
ATOM      2  C   UNL     1     139.800 129.740 114.453  1.00  0.00     0.000 C 
BRANCH   2   3
ATOM      3  C   UNL     1     139.058 128.746 113.542  1.00  0.00     0.000 C 
BRANCH   3   4
ATOM      4  C   UNL     1     138.709 127.430 114.252  1.00  0.00    -0.000 C 
BRANCH   4   5
ATOM      5  C   UNL     1     137.457 127.590 115.122  1.00  0.00    -0.000 C 
BRANCH   5   6
ATOM      6  C   UNL     1     137.737 127.167 116.572  1.00  0.00    -0.000 C 
BRANCH   6   7
ATOM      7  C   UNL     1     139.235 126.970 116.854  1.00  0.00    -0.000 C 
BRANCH   7   8
ATOM      8  C   UNL     1     139.669 127.592 118.193  1.00  0.00    -0.000 C 
BRANCH   8   9
ATOM      9  C   UNL     1     139.328 129.087 118.289  1.00  0.00    -0.000 C 
BRANCH   9  10
ATOM     10  C   UNL     1     140.562 129.962 118.561  1.00  0.00    -0.000 C 
BRANCH  10  11
ATOM     11  C   UNL     1     140.487 131.274 117.771  1.00  0.00    -0.003 C 
ATOM     12  C   UNL     1     141.776 132.080 117.916  1.00  0.00     0.004 C 
ENDBRANCH  10  11
ENDBRANCH   9  10
ENDBRANCH   8   9
ENDBRANCH   7   8
ENDBRANCH   6   7
ENDBRANCH   5   6
ENDBRANCH   4   5
ENDBRANCH   3   4
ENDBRANCH   2   3
ENDBRANCH   1   2
BRANCH   1  13
ATOM     13  C   UNL     1     141.991 128.792 115.487  1.00  0.00     0.000 C 
BRANCH  13  14
ATOM     14  C   UNL     1     142.591 127.463 114.990  1.00  0.00     0.000 C 
BRANCH  14  15
ATOM     15  C   UNL     1     144.049 127.232 115.445  1.00  0.00     0.000 C 
BRANCH  15  16
ATOM     16  C   UNL     1     145.073 127.611 114.363  1.00  0.00     0.000 C 
BRANCH  16  17
ATOM     17  C   UNL     1     145.356 129.121 114.311  1.00  0.00     0.000 C 
BRANCH  17  18
ATOM     18  C   UNL     1     145.990 129.673 115.605  1.00  0.00     0.000 C 
BRANCH  18  19
ATOM     19  C   UNL     1     145.069 130.671 116.323  1.00  0.00     0.000 C 
BRANCH  19  20
ATOM     20  C   UNL     1     145.202 130.546 117.848  1.00  0.00     0.006 C 
BRANCH  20  21
ATOM     21  C   UNL     1     144.351 129.403 118.415  1.00  0.00     0.053 C 
BRANCH  21  22
ATOM     22  C   UNL     1     145.199 128.333 119.033  1.00  0.00     0.041 C 
ATOM     23  O   UNL     1     145.037 127.128 118.706  1.00  0.00    -0.550 OA
ATOM     24  O   UNL     1     146.190 128.671 119.946  1.00  0.00    -0.550 OA
ENDBRANCH  21  22
ENDBRANCH  20  21
ENDBRANCH  19  20
ENDBRANCH  18  19
ENDBRANCH  17  18
ENDBRANCH  16  17
ENDBRANCH  15  16
ENDBRANCH  14  15
ENDBRANCH  13  14
ENDBRANCH   1  13
TORSDOF 20
ENDMDL
MODEL 4
REMARK VINA RESULT:    -3.438      1.537      3.023
REMARK INTER + INTRA:         -11.537
REMARK INTER:                  -8.329
REMARK INTRA:                  -3.208
REMARK UNBOUND:                -4.079
REMARK SMILES CCCCCCCCCCCCCCCCCCCCCC(=O)[O-]
REMARK SMILES IDX 12 1 11 2 10 3 9 4 8 5 7 6 6 7 5 8 4 9 3 10 2 11 1 12 13 13
REMARK SMILES IDX 14 14 15 15 16 16 17 17 18 18 19 19 20 20 21 21 22 22 23 23
REMARK SMILES IDX 24 24
REMARK H PARENT
REMARK Flexibility Score: inf
ROOT
ATOM      1  C   UNL     1     144.282 131.727 116.708  1.00  0.00     0.000 C 
ENDROOT
BRANCH   1   2
ATOM      2  C   UNL     1     145.333 130.647 117.042  1.00  0.00     0.000 C 
BRANCH   2   3
ATOM      3  C   UNL     1     146.131 130.118 115.837  1.00  0.00     0.000 C 
BRANCH   3   4
ATOM      4  C   UNL     1     145.232 129.561 114.723  1.00  0.00    -0.000 C 
BRANCH   4   5
ATOM      5  C   UNL     1     145.605 128.111 114.390  1.00  0.00    -0.000 C 
BRANCH   5   6
ATOM      6  C   UNL     1     144.485 127.146 114.808  1.00  0.00    -0.000 C 
BRANCH   6   7
ATOM      7  C   UNL     1     143.170 127.870 115.138  1.00  0.00    -0.000 C 
BRANCH   7   8
ATOM      8  C   UNL     1     142.685 127.588 116.570  1.00  0.00    -0.000 C 
BRANCH   8   9
ATOM      9  C   UNL     1     143.831 127.202 117.518  1.00  0.00    -0.000 C 
BRANCH   9  10
ATOM     10  C   UNL     1     143.436 127.301 119.000  1.00  0.00    -0.000 C 
BRANCH  10  11
ATOM     11  C   UNL     1     144.021 128.566 119.639  1.00  0.00    -0.003 C 
ATOM     12  C   UNL     1     142.945 129.359 120.377  1.00  0.00     0.004 C 
ENDBRANCH  10  11
ENDBRANCH   9  10
ENDBRANCH   8   9
ENDBRANCH   7   8
ENDBRANCH   6   7
ENDBRANCH   5   6
ENDBRANCH   4   5
ENDBRANCH   3   4
ENDBRANCH   2   3
ENDBRANCH   1   2
BRANCH   1  13
ATOM     13  C   UNL     1     142.819 131.311 116.949  1.00  0.00     0.000 C 
BRANCH  13  14
ATOM     14  C   UNL     1     141.828 131.768 115.862  1.00  0.00     0.000 C 
BRANCH  14  15
ATOM     15  C   UNL     1     140.808 130.681 115.457  1.00  0.00     0.000 C 
BRANCH  15  16
ATOM     16  C   UNL     1     140.930 130.277 113.978  1.00  0.00     0.000 C 
BRANCH  16  17
ATOM     17  C   UNL     1     139.610 130.435 113.206  1.00  0.00     0.000 C 
BRANCH  17  18
ATOM     18  C   UNL     1     138.559 129.362 113.558  1.00  0.00     0.000 C 
BRANCH  18  19
ATOM     19  C   UNL     1     139.158 127.948 113.581  1.00  0.00     0.000 C 
BRANCH  19  20
ATOM     20  C   UNL     1     138.811 127.222 114.889  1.00  0.00     0.006 C 
BRANCH  20  21
ATOM     21  C   UNL     1     137.321 127.330 115.237  1.00  0.00     0.053 C 
BRANCH  21  22
ATOM     22  C   UNL     1     137.092 127.297 116.718  1.00  0.00     0.041 C 
ATOM     23  O   UNL     1     135.920 127.277 117.178  1.00  0.00    -0.550 OA
ATOM     24  O   UNL     1     138.174 127.255 117.587  1.00  0.00    -0.550 OA
ENDBRANCH  21  22
ENDBRANCH  20  21
ENDBRANCH  19  20
ENDBRANCH  18  19
ENDBRANCH  17  18
ENDBRANCH  16  17
ENDBRANCH  15  16
ENDBRANCH  14  15
ENDBRANCH  13  14
ENDBRANCH   1  13
TORSDOF 20
ENDMDL
MODEL 5
REMARK VINA RESULT:    -3.372     10.581     13.286
REMARK INTER + INTRA:         -11.393
REMARK INTER:                  -7.287
REMARK INTRA:                  -4.106
REMARK UNBOUND:                -4.079
REMARK SMILES CCCCCCCCCCCCCCCCCCCCCC(=O)[O-]
REMARK SMILES IDX 12 1 11 2 10 3 9 4 8 5 7 6 6 7 5 8 4 9 3 10 2 11 1 12 13 13
REMARK SMILES IDX 14 14 15 15 16 16 17 17 18 18 19 19 20 20 21 21 22 22 23 23
REMARK SMILES IDX 24 24
REMARK H PARENT
REMARK Flexibility Score: inf
ROOT
ATOM      1  C   UNL     1     132.278 130.529 115.780  1.00  0.00     0.000 C 
ENDROOT
BRANCH   1   2
ATOM      2  C   UNL     1     132.142 132.050 115.563  1.00  0.00     0.000 C 
BRANCH   2   3
ATOM      3  C   UNL     1     131.812 132.478 114.122  1.00  0.00     0.000 C 
BRANCH   3   4
ATOM      4  C   UNL     1     130.502 133.274 114.021  1.00  0.00    -0.000 C 
BRANCH   4   5
ATOM      5  C   UNL     1     129.515 132.587 113.070  1.00  0.00    -0.000 C 
BRANCH   5   6
ATOM      6  C   UNL     1     128.298 132.048 113.838  1.00  0.00    -0.000 C 
BRANCH   6   7
ATOM      7  C   UNL     1     128.541 130.651 114.431  1.00  0.00    -0.000 C 
BRANCH   7   8
ATOM      8  C   UNL     1     128.060 130.537 115.888  1.00  0.00    -0.000 C 
BRANCH   8   9
ATOM      9  C   UNL     1     128.850 131.444 116.844  1.00  0.00    -0.000 C 
BRANCH   9  10
ATOM     10  C   UNL     1     127.985 132.554 117.462  1.00  0.00    -0.000 C 
BRANCH  10  11
ATOM     11  C   UNL     1     128.405 133.932 116.937  1.00  0.00    -0.003 C 
ATOM     12  C   UNL     1     127.192 134.754 116.511  1.00  0.00     0.004 C 
ENDBRANCH  10  11
ENDBRANCH   9  10
ENDBRANCH   8   9
ENDBRANCH   7   8
ENDBRANCH   6   7
ENDBRANCH   5   6
ENDBRANCH   4   5
ENDBRANCH   3   4
ENDBRANCH   2   3
ENDBRANCH   1   2
BRANCH   1  13
ATOM     13  C   UNL     1     132.116 129.671 114.512  1.00  0.00     0.000 C 
BRANCH  13  14
ATOM     14  C   UNL     1     131.395 128.326 114.726  1.00  0.00     0.000 C 
BRANCH  14  15
ATOM     15  C   UNL     1     131.339 127.881 116.203  1.00  0.00     0.000 C 
BRANCH  15  16
ATOM     16  C   UNL     1     129.950 127.363 116.612  1.00  0.00     0.000 C 
BRANCH  16  17
ATOM     17  C   UNL     1     129.550 127.788 118.035  1.00  0.00     0.000 C 
BRANCH  17  18
ATOM     18  C   UNL     1     130.598 128.686 118.726  1.00  0.00     0.000 C 
BRANCH  18  19
ATOM     19  C   UNL     1     130.078 129.272 120.048  1.00  0.00     0.000 C 
BRANCH  19  20
ATOM     20  C   UNL     1     128.549 129.406 120.029  1.00  0.00     0.006 C 
BRANCH  20  21
ATOM     21  C   UNL     1     128.073 130.730 120.640  1.00  0.00     0.053 C 
BRANCH  21  22
ATOM     22  C   UNL     1     127.983 130.651 122.134  1.00  0.00     0.041 C 
ATOM     23  O   UNL     1     128.118 131.689 122.833  1.00  0.00    -0.550 OA
ATOM     24  O   UNL     1     127.718 129.435 122.751  1.00  0.00    -0.550 OA
ENDBRANCH  21  22
ENDBRANCH  20  21
ENDBRANCH  19  20
ENDBRANCH  18  19
ENDBRANCH  17  18
ENDBRANCH  16  17
ENDBRANCH  15  16
ENDBRANCH  14  15
ENDBRANCH  13  14
ENDBRANCH   1  13
TORSDOF 20
ENDMDL
MODEL 6
REMARK VINA RESULT:    -3.335      2.368      6.517
REMARK INTER + INTRA:         -11.312
REMARK INTER:                  -8.298
REMARK INTRA:                  -3.014
REMARK UNBOUND:                -4.079
REMARK SMILES CCCCCCCCCCCCCCCCCCCCCC(=O)[O-]
REMARK SMILES IDX 12 1 11 2 10 3 9 4 8 5 7 6 6 7 5 8 4 9 3 10 2 11 1 12 13 13
REMARK SMILES IDX 14 14 15 15 16 16 17 17 18 18 19 19 20 20 21 21 22 22 23 23
REMARK SMILES IDX 24 24
REMARK H PARENT
REMARK Flexibility Score: inf
ROOT
ATOM      1  C   UNL     1     142.357 130.920 116.416  1.00  0.00     0.000 C 
ENDROOT
BRANCH   1   2
ATOM      2  C   UNL     1     142.084 131.025 114.901  1.00  0.00     0.000 C 
BRANCH   2   3
ATOM      3  C   UNL     1     141.009 130.065 114.363  1.00  0.00     0.000 C 
BRANCH   3   4
ATOM      4  C   UNL     1     139.583 130.497 114.735  1.00  0.00    -0.000 C 
BRANCH   4   5
ATOM      5  C   UNL     1     138.544 129.749 113.890  1.00  0.00    -0.000 C 
BRANCH   5   6
ATOM      6  C   UNL     1     139.001 128.310 113.606  1.00  0.00    -0.000 C 
BRANCH   6   7
ATOM      7  C   UNL     1     138.717 127.355 114.776  1.00  0.00    -0.000 C 
BRANCH   7   8
ATOM      8  C   UNL     1     137.214 127.229 115.082  1.00  0.00    -0.000 C 
BRANCH   8   9
ATOM      9  C   UNL     1     136.866 127.646 116.520  1.00  0.00    -0.000 C 
BRANCH   9  10
ATOM     10  C   UNL     1     135.359 127.866 116.727  1.00  0.00    -0.000 C 
BRANCH  10  11
ATOM     11  C   UNL     1     135.067 129.318 117.121  1.00  0.00    -0.003 C 
ATOM     12  C   UNL     1     135.659 130.295 116.108  1.00  0.00     0.004 C 
ENDBRANCH  10  11
ENDBRANCH   9  10
ENDBRANCH   8   9
ENDBRANCH   7   8
ENDBRANCH   6   7
ENDBRANCH   5   6
ENDBRANCH   4   5
ENDBRANCH   3   4
ENDBRANCH   2   3
ENDBRANCH   1   2
BRANCH   1  13
ATOM     13  C   UNL     1     143.845 130.922 116.814  1.00  0.00     0.000 C 
BRANCH  13  14
ATOM     14  C   UNL     1     144.832 130.981 115.632  1.00  0.00     0.000 C 
BRANCH  14  15
ATOM     15  C   UNL     1     145.740 129.737 115.519  1.00  0.00     0.000 C 
BRANCH  15  16
ATOM     16  C   UNL     1     145.330 128.808 114.365  1.00  0.00     0.000 C 
BRANCH  16  17
ATOM     17  C   UNL     1     144.761 127.465 114.853  1.00  0.00     0.000 C 
BRANCH  17  18
ATOM     18  C   UNL     1     143.225 127.465 114.999  1.00  0.00     0.000 C 
BRANCH  18  19
ATOM     19  C   UNL     1     142.780 127.362 116.466  1.00  0.00     0.000 C 
BRANCH  19  20
ATOM     20  C   UNL     1     143.935 126.889 117.360  1.00  0.00     0.006 C 
BRANCH  20  21
ATOM     21  C   UNL     1     144.088 127.751 118.620  1.00  0.00     0.053 C 
BRANCH  21  22
ATOM     22  C   UNL     1     145.526 128.050 118.917  1.00  0.00     0.041 C 
ATOM     23  O   UNL     1     145.884 129.225 119.195  1.00  0.00    -0.550 OA
ATOM     24  O   UNL     1     146.464 127.026 118.918  1.00  0.00    -0.550 OA
ENDBRANCH  21  22
ENDBRANCH  20  21
ENDBRANCH  19  20
ENDBRANCH  18  19
ENDBRANCH  17  18
ENDBRANCH  16  17
ENDBRANCH  15  16
ENDBRANCH  14  15
ENDBRANCH  13  14
ENDBRANCH   1  13
TORSDOF 20
ENDMDL
MODEL 7
REMARK VINA RESULT:    -3.332      1.481      2.291
REMARK INTER + INTRA:         -11.307
REMARK INTER:                  -7.982
REMARK INTRA:                  -3.326
REMARK UNBOUND:                -4.079
REMARK SMILES CCCCCCCCCCCCCCCCCCCCCC(=O)[O-]
REMARK SMILES IDX 12 1 11 2 10 3 9 4 8 5 7 6 6 7 5 8 4 9 3 10 2 11 1 12 13 13
REMARK SMILES IDX 14 14 15 15 16 16 17 17 18 18 19 19 20 20 21 21 22 22 23 23
REMARK SMILES IDX 24 24
REMARK H PARENT
REMARK Flexibility Score: inf
ROOT
ATOM      1  C   UNL     1     141.884 130.640 114.635  1.00  0.00     0.000 C 
ENDROOT
BRANCH   1   2
ATOM      2  C   UNL     1     143.063 129.649 114.740  1.00  0.00     0.000 C 
BRANCH   2   3
ATOM      3  C   UNL     1     142.688 128.238 115.225  1.00  0.00     0.000 C 
BRANCH   3   4
ATOM      4  C   UNL     1     143.682 127.163 114.759  1.00  0.00    -0.000 C 
BRANCH   4   5
ATOM      5  C   UNL     1     145.119 127.697 114.781  1.00  0.00    -0.000 C 
BRANCH   5   6
ATOM      6  C   UNL     1     145.967 126.949 115.821  1.00  0.00    -0.000 C 
BRANCH   6   7
ATOM      7  C   UNL     1     145.736 127.458 117.253  1.00  0.00    -0.000 C 
BRANCH   7   8
ATOM      8  C   UNL     1     145.731 128.994 117.339  1.00  0.00    -0.000 C 
BRANCH   8   9
ATOM      9  C   UNL     1     144.762 129.524 118.407  1.00  0.00    -0.000 C 
BRANCH   9  10
ATOM     10  C   UNL     1     143.991 130.771 117.945  1.00  0.00    -0.000 C 
BRANCH  10  11
ATOM     11  C   UNL     1     142.520 130.694 118.370  1.00  0.00    -0.003 C 
ATOM     12  C   UNL     1     142.358 131.002 119.856  1.00  0.00     0.004 C 
ENDBRANCH  10  11
ENDBRANCH   9  10
ENDBRANCH   8   9
ENDBRANCH   7   8
ENDBRANCH   6   7
ENDBRANCH   5   6
ENDBRANCH   4   5
ENDBRANCH   3   4
ENDBRANCH   2   3
ENDBRANCH   1   2
BRANCH   1  13
ATOM     13  C   UNL     1     140.787 130.246 113.631  1.00  0.00     0.000 C 
BRANCH  13  14
ATOM     14  C   UNL     1     139.458 129.793 114.266  1.00  0.00     0.000 C 
BRANCH  14  15
ATOM     15  C   UNL     1     138.749 128.666 113.485  1.00  0.00     0.000 C 
BRANCH  15  16
ATOM     16  C   UNL     1     138.681 127.349 114.276  1.00  0.00     0.000 C 
BRANCH  16  17
ATOM     17  C   UNL     1     137.416 127.238 115.143  1.00  0.00     0.000 C 
BRANCH  17  18
ATOM     18  C   UNL     1     137.699 127.310 116.658  1.00  0.00     0.000 C 
BRANCH  18  19
ATOM     19  C   UNL     1     139.138 126.892 117.000  1.00  0.00     0.000 C 
BRANCH  19  20
ATOM     20  C   UNL     1     139.892 128.033 117.699  1.00  0.00     0.006 C 
BRANCH  20  21
ATOM     21  C   UNL     1     140.188 127.720 119.170  1.00  0.00     0.053 C 
BRANCH  21  22
ATOM     22  C   UNL     1     141.609 127.286 119.371  1.00  0.00     0.041 C 
ATOM     23  O   UNL     1     142.107 127.263 120.527  1.00  0.00    -0.550 OA
ATOM     24  O   UNL     1     142.371 126.876 118.284  1.00  0.00    -0.550 OA
ENDBRANCH  21  22
ENDBRANCH  20  21
ENDBRANCH  19  20
ENDBRANCH  18  19
ENDBRANCH  17  18
ENDBRANCH  16  17
ENDBRANCH  15  16
ENDBRANCH  14  15
ENDBRANCH  13  14
ENDBRANCH   1  13
TORSDOF 20
ENDMDL
MODEL 8
REMARK VINA RESULT:    -3.317      2.035      2.311
REMARK INTER + INTRA:         -11.274
REMARK INTER:                  -7.765
REMARK INTRA:                  -3.509
REMARK UNBOUND:                -4.079
REMARK SMILES CCCCCCCCCCCCCCCCCCCCCC(=O)[O-]
REMARK SMILES IDX 12 1 11 2 10 3 9 4 8 5 7 6 6 7 5 8 4 9 3 10 2 11 1 12 13 13
REMARK SMILES IDX 14 14 15 15 16 16 17 17 18 18 19 19 20 20 21 21 22 22 23 23
REMARK SMILES IDX 24 24
REMARK H PARENT
REMARK Flexibility Score: inf
ROOT
ATOM      1  C   UNL     1     140.719 129.249 117.000  1.00  0.00     0.000 C 
ENDROOT
BRANCH   1   2
ATOM      2  C   UNL     1     141.530 127.962 116.740  1.00  0.00     0.000 C 
BRANCH   2   3
ATOM      3  C   UNL     1     142.794 127.801 117.603  1.00  0.00     0.000 C 
BRANCH   3   4
ATOM      4  C   UNL     1     144.003 127.295 116.804  1.00  0.00    -0.000 C 
BRANCH   4   5
ATOM      5  C   UNL     1     143.729 127.354 115.296  1.00  0.00    -0.000 C 
BRANCH   5   6
ATOM      6  C   UNL     1     144.955 127.880 114.535  1.00  0.00    -0.000 C 
BRANCH   6   7
ATOM      7  C   UNL     1     144.983 129.414 114.442  1.00  0.00    -0.000 C 
BRANCH   7   8
ATOM      8  C   UNL     1     146.004 130.044 115.405  1.00  0.00    -0.000 C 
BRANCH   8   9
ATOM      9  C   UNL     1     145.418 131.218 116.204  1.00  0.00    -0.000 C 
BRANCH   9  10
ATOM     10  C   UNL     1     145.015 130.823 117.634  1.00  0.00    -0.000 C 
BRANCH  10  11
ATOM     11  C   UNL     1     143.638 131.394 117.991  1.00  0.00    -0.003 C 
ATOM     12  C   UNL     1     143.193 130.935 119.378  1.00  0.00     0.004 C 
ENDBRANCH  10  11
ENDBRANCH   9  10
ENDBRANCH   8   9
ENDBRANCH   7   8
ENDBRANCH   6   7
ENDBRANCH   5   6
ENDBRANCH   4   5
ENDBRANCH   3   4
ENDBRANCH   2   3
ENDBRANCH   1   2
BRANCH   1  13
ATOM     13  C   UNL     1     140.797 130.307 115.884  1.00  0.00     0.000 C 
BRANCH  13  14
ATOM     14  C   UNL     1     141.147 129.754 114.489  1.00  0.00     0.000 C 
BRANCH  14  15
ATOM     15  C   UNL     1     140.200 130.243 113.373  1.00  0.00     0.000 C 
BRANCH  15  16
ATOM     16  C   UNL     1     138.809 129.594 113.450  1.00  0.00     0.000 C 
BRANCH  16  17
ATOM     17  C   UNL     1     138.852 128.067 113.277  1.00  0.00     0.000 C 
BRANCH  17  18
ATOM     18  C   UNL     1     138.040 127.303 114.343  1.00  0.00     0.000 C 
BRANCH  18  19
ATOM     19  C   UNL     1     137.479 128.238 115.426  1.00  0.00     0.000 C 
BRANCH  19  20
ATOM     20  C   UNL     1     137.346 127.508 116.771  1.00  0.00     0.006 C 
BRANCH  20  21
ATOM     21  C   UNL     1     136.496 128.292 117.777  1.00  0.00     0.053 C 
BRANCH  21  22
ATOM     22  C   UNL     1     135.076 127.813 117.798  1.00  0.00     0.041 C 
ATOM     23  O   UNL     1     134.273 128.248 118.664  1.00  0.00    -0.550 OA
ATOM     24  O   UNL     1     134.634 126.910 116.840  1.00  0.00    -0.550 OA
ENDBRANCH  21  22
ENDBRANCH  20  21
ENDBRANCH  19  20
ENDBRANCH  18  19
ENDBRANCH  17  18
ENDBRANCH  16  17
ENDBRANCH  15  16
ENDBRANCH  14  15
ENDBRANCH  13  14
ENDBRANCH   1  13
TORSDOF 20
ENDMDL
MODEL 9
REMARK VINA RESULT:    -3.215      2.424      3.557
REMARK INTER + INTRA:         -11.053
REMARK INTER:                  -7.555
REMARK INTRA:                  -3.498
REMARK UNBOUND:                -4.079
REMARK SMILES CCCCCCCCCCCCCCCCCCCCCC(=O)[O-]
REMARK SMILES IDX 12 1 11 2 10 3 9 4 8 5 7 6 6 7 5 8 4 9 3 10 2 11 1 12 13 13
REMARK SMILES IDX 14 14 15 15 16 16 17 17 18 18 19 19 20 20 21 21 22 22 23 23
REMARK SMILES IDX 24 24
REMARK H PARENT
REMARK Flexibility Score: inf
ROOT
ATOM      1  C   UNL     1     142.209 129.396 114.750  1.00  0.00     0.000 C 
ENDROOT
BRANCH   1   2
ATOM      2  C   UNL     1     141.925 127.884 114.867  1.00  0.00     0.000 C 
BRANCH   2   3
ATOM      3  C   UNL     1     142.265 127.259 116.232  1.00  0.00     0.000 C 
BRANCH   3   4
ATOM      4  C   UNL     1     141.343 127.748 117.359  1.00  0.00    -0.000 C 
BRANCH   4   5
ATOM      5  C   UNL     1     142.149 128.434 118.468  1.00  0.00    -0.000 C 
BRANCH   5   6
ATOM      6  C   UNL     1     142.024 129.963 118.373  1.00  0.00    -0.000 C 
BRANCH   6   7
ATOM      7  C   UNL     1     143.296 130.629 117.824  1.00  0.00    -0.000 C 
BRANCH   7   8
ATOM      8  C   UNL     1     144.581 130.009 118.399  1.00  0.00    -0.000 C 
BRANCH   8   9
ATOM      9  C   UNL     1     145.685 129.851 117.342  1.00  0.00    -0.000 C 
BRANCH   9  10
ATOM     10  C   UNL     1     145.650 128.481 116.646  1.00  0.00    -0.000 C 
BRANCH  10  11
ATOM     11  C   UNL     1     145.666 128.642 115.121  1.00  0.00    -0.003 C 
ATOM     12  C   UNL     1     145.667 127.285 114.423  1.00  0.00     0.004 C 
ENDBRANCH  10  11
ENDBRANCH   9  10
ENDBRANCH   8   9
ENDBRANCH   7   8
ENDBRANCH   6   7
ENDBRANCH   5   6
ENDBRANCH   4   5
ENDBRANCH   3   4
ENDBRANCH   2   3
ENDBRANCH   1   2
BRANCH   1  13
ATOM     13  C   UNL     1     141.070 130.228 114.131  1.00  0.00     0.000 C 
BRANCH  13  14
ATOM     14  C   UNL     1     139.749 130.210 114.923  1.00  0.00     0.000 C 
BRANCH  14  15
ATOM     15  C   UNL     1     138.519 129.830 114.071  1.00  0.00     0.000 C 
BRANCH  15  16
ATOM     16  C   UNL     1     138.779 128.613 113.167  1.00  0.00     0.000 C 
BRANCH  16  17
ATOM     17  C   UNL     1     138.597 127.275 113.902  1.00  0.00     0.000 C 
BRANCH  17  18
ATOM     18  C   UNL     1     137.434 127.283 114.916  1.00  0.00     0.000 C 
BRANCH  18  19
ATOM     19  C   UNL     1     137.930 127.207 116.368  1.00  0.00     0.000 C 
BRANCH  19  20
ATOM     20  C   UNL     1     136.954 127.911 117.322  1.00  0.00     0.006 C 
BRANCH  20  21
ATOM     21  C   UNL     1     135.742 128.497 116.587  1.00  0.00     0.053 C 
BRANCH  21  22
ATOM     22  C   UNL     1     134.484 127.748 116.907  1.00  0.00     0.041 C 
ATOM     23  O   UNL     1     133.901 127.929 118.009  1.00  0.00    -0.550 OA
ATOM     24  O   UNL     1     133.938 126.876 115.975  1.00  0.00    -0.550 OA
ENDBRANCH  21  22
ENDBRANCH  20  21
ENDBRANCH  19  20
ENDBRANCH  18  19
ENDBRANCH  17  18
ENDBRANCH  16  17
ENDBRANCH  15  16
ENDBRANCH  14  15
ENDBRANCH  13  14
ENDBRANCH   1  13
TORSDOF 20
ENDMDL
