MODEL 1
REMARK VINA RESULT:    -4.806      0.000      0.000
REMARK INTER + INTRA:         -16.765
REMARK INTER:                 -12.111
REMARK INTRA:                  -4.654
REMARK UNBOUND:                -4.654
REMARK SMILES CCCCCCCCCCCCCCCCCCCCCCCCCCCC(=O)[O-]
REMARK SMILES IDX 15 1 16 2 17 3 18 4 19 5 20 6 21 7 22 8 23 9 24 10 25 11
REMARK SMILES IDX 26 12 27 13 28 14 29 15 30 16 14 17 13 18 12 19 11 20 10 21
REMARK SMILES IDX 9 22 8 23 7 24 6 25 5 26 4 27 3 28 2 29 1 30
REMARK H PARENT
REMARK Flexibility Score: inf
ROOT
ATOM      1  C   UNL     1      11.007 -15.637  14.364  1.00  0.00     0.000 C 
ENDROOT
BRANCH   1   2
ATOM      2  C   UNL     1      11.791 -14.324  14.536  1.00  0.00     0.000 C 
BRANCH   2   3
ATOM      3  C   UNL     1      12.672 -14.314  15.798  1.00  0.00     0.000 C 
BRANCH   3   4
ATOM      4  C   UNL     1      12.761 -15.699  16.457  1.00  0.00     0.000 C 
BRANCH   4   5
ATOM      5  C   UNL     1      14.066 -16.435  16.109  1.00  0.00     0.000 C 
BRANCH   5   6
ATOM      6  C   UNL     1      13.822 -17.747  15.343  1.00  0.00     0.000 C 
BRANCH   6   7
ATOM      7  C   UNL     1      14.263 -17.740  13.863  1.00  0.00     0.000 C 
BRANCH   7   8
ATOM      8  C   UNL     1      15.263 -16.631  13.470  1.00  0.00     0.000 C 
BRANCH   8   9
ATOM      9  C   UNL     1      14.720 -15.607  12.450  1.00  0.00     0.000 C 
BRANCH   9  10
ATOM     10  C   UNL     1      14.969 -14.136  12.838  1.00  0.00     0.000 C 
BRANCH  10  11
ATOM     11  C   UNL     1      15.910 -13.957  14.047  1.00  0.00     0.000 C 
BRANCH  11  12
ATOM     12  C   UNL     1      15.981 -12.495  14.518  1.00  0.00     0.006 C 
BRANCH  12  13
ATOM     13  C   UNL     1      15.361 -11.527  13.503  1.00  0.00     0.053 C 
BRANCH  13  14
ATOM     14  C   UNL     1      14.396 -10.582  14.151  1.00  0.00     0.041 C 
ATOM     15  O   UNL     1      13.469 -11.023  14.881  1.00  0.00    -0.550 OA
ATOM     16  O   UNL     1      14.509  -9.215  13.933  1.00  0.00    -0.550 OA
ENDBRANCH  13  14
ENDBRANCH  12  13
ENDBRANCH  11  12
ENDBRANCH  10  11
ENDBRANCH   9  10
ENDBRANCH   8   9
ENDBRANCH   7   8
ENDBRANCH   6   7
ENDBRANCH   5   6
ENDBRANCH   4   5
ENDBRANCH   3   4
ENDBRANCH   2   3
ENDBRANCH   1   2
BRANCH   1  17
ATOM     17  C   UNL     1      11.098 -16.278  12.964  1.00  0.00     0.000 C 
BRANCH  17  18
ATOM     18  C   UNL     1      10.496 -15.441  11.821  1.00  0.00     0.000 C 
BRANCH  18  19
ATOM     19  C   UNL     1      11.056 -15.820  10.442  1.00  0.00     0.000 C 
BRANCH  19  20
ATOM     20  C   UNL     1      11.964 -17.055  10.541  1.00  0.00     0.000 C 
BRANCH  20  21
ATOM     21  C   UNL     1      12.591 -17.443   9.193  1.00  0.00     0.000 C 
BRANCH  21  22
ATOM     22  C   UNL     1      12.380 -18.928   8.848  1.00  0.00    -0.000 C 
BRANCH  22  23
ATOM     23  C   UNL     1      11.433 -19.138   7.653  1.00  0.00    -0.000 C 
BRANCH  23  24
ATOM     24  C   UNL     1       9.934 -18.982   7.973  1.00  0.00    -0.000 C 
BRANCH  24  25
ATOM     25  C   UNL     1       9.175 -18.178   6.904  1.00  0.00    -0.000 C 
BRANCH  25  26
ATOM     26  C   UNL     1       9.002 -16.701   7.290  1.00  0.00    -0.000 C 
BRANCH  26  27
ATOM     27  C   UNL     1       8.842 -15.785   6.065  1.00  0.00    -0.000 C 
BRANCH  27  28
ATOM     28  C   UNL     1      10.208 -15.463   5.440  1.00  0.00    -0.000 C 
BRANCH  28  29
ATOM     29  C   UNL     1      11.256 -15.064   6.489  1.00  0.00    -0.003 C 
ATOM     30  C   UNL     1      12.680 -15.061   5.931  1.00  0.00     0.004 C 
ENDBRANCH  28  29
ENDBRANCH  27  28
ENDBRANCH  26  27
ENDBRANCH  25  26
ENDBRANCH  24  25
ENDBRANCH  23  24
ENDBRANCH  22  23
ENDBRANCH  21  22
ENDBRANCH  20  21
ENDBRANCH  19  20
ENDBRANCH  18  19
ENDBRANCH  17  18
ENDBRANCH   1  17
TORSDOF 26
ENDMDL
MODEL 2
REMARK VINA RESULT:    -4.715      2.502      4.675
REMARK INTER + INTRA:         -16.535
REMARK INTER:                 -13.031
REMARK INTRA:                  -3.504
REMARK UNBOUND:                -4.654
REMARK SMILES CCCCCCCCCCCCCCCCCCCCCCCCCCCC(=O)[O-]
REMARK SMILES IDX 15 1 16 2 17 3 18 4 19 5 20 6 21 7 22 8 23 9 24 10 25 11
REMARK SMILES IDX 26 12 27 13 28 14 29 15 30 16 14 17 13 18 12 19 11 20 10 21
REMARK SMILES IDX 9 22 8 23 7 24 6 25 5 26 4 27 3 28 2 29 1 30
REMARK H PARENT
REMARK Flexibility Score: inf
ROOT
ATOM      1  C   UNL     1      11.528 -17.034   8.966  1.00  0.00     0.000 C 
ENDROOT
BRANCH   1   2
ATOM      2  C   UNL     1      11.204 -15.968  10.028  1.00  0.00     0.000 C 
BRANCH   2   3
ATOM      3  C   UNL     1      11.446 -16.460  11.465  1.00  0.00     0.000 C 
BRANCH   3   4
ATOM      4  C   UNL     1      10.553 -15.738  12.486  1.00  0.00     0.000 C 
BRANCH   4   5
ATOM      5  C   UNL     1      11.139 -15.770  13.908  1.00  0.00     0.000 C 
BRANCH   5   6
ATOM      6  C   UNL     1      11.732 -14.415  14.336  1.00  0.00     0.000 C 
BRANCH   6   7
ATOM      7  C   UNL     1      12.949 -14.497  15.284  1.00  0.00     0.000 C 
BRANCH   7   8
ATOM      8  C   UNL     1      12.854 -15.558  16.402  1.00  0.00     0.000 C 
BRANCH   8   9
ATOM      9  C   UNL     1      14.036 -16.551  16.448  1.00  0.00     0.000 C 
BRANCH   9  10
ATOM     10  C   UNL     1      13.915 -17.724  15.455  1.00  0.00     0.000 C 
BRANCH  10  11
ATOM     11  C   UNL     1      15.013 -17.746  14.374  1.00  0.00     0.000 C 
BRANCH  11  12
ATOM     12  C   UNL     1      14.503 -17.239  13.015  1.00  0.00     0.006 C 
BRANCH  12  13
ATOM     13  C   UNL     1      15.446 -16.205  12.388  1.00  0.00     0.053 C 
BRANCH  13  14
ATOM     14  C   UNL     1      15.275 -16.124  10.901  1.00  0.00     0.041 C 
ATOM     15  O   UNL     1      15.848 -16.956  10.150  1.00  0.00    -0.550 OA
ATOM     16  O   UNL     1      14.497 -15.115  10.346  1.00  0.00    -0.550 OA
ENDBRANCH  13  14
ENDBRANCH  12  13
ENDBRANCH  11  12
ENDBRANCH  10  11
ENDBRANCH   9  10
ENDBRANCH   8   9
ENDBRANCH   7   8
ENDBRANCH   6   7
ENDBRANCH   5   6
ENDBRANCH   4   5
ENDBRANCH   3   4
ENDBRANCH   2   3
ENDBRANCH   1   2
BRANCH   1  17
ATOM     17  C   UNL     1      12.257 -18.287   9.495  1.00  0.00     0.000 C 
BRANCH  17  18
ATOM     18  C   UNL     1      12.435 -19.421   8.469  1.00  0.00     0.000 C 
BRANCH  18  19
ATOM     19  C   UNL     1      11.633 -20.682   8.826  1.00  0.00     0.000 C 
BRANCH  19  20
ATOM     20  C   UNL     1      10.141 -20.352   8.990  1.00  0.00     0.000 C 
BRANCH  20  21
ATOM     21  C   UNL     1       9.339 -20.570   7.698  1.00  0.00     0.000 C 
BRANCH  21  22
ATOM     22  C   UNL     1       9.209 -19.288   6.858  1.00  0.00    -0.000 C 
BRANCH  22  23
ATOM     23  C   UNL     1       7.752 -18.819   6.698  1.00  0.00    -0.000 C 
BRANCH  23  24
ATOM     24  C   UNL     1       6.914 -19.628   5.690  1.00  0.00    -0.000 C 
BRANCH  24  25
ATOM     25  C   UNL     1       6.594 -18.838   4.409  1.00  0.00    -0.000 C 
BRANCH  25  26
ATOM     26  C   UNL     1       7.665 -19.019   3.322  1.00  0.00    -0.000 C 
BRANCH  26  27
ATOM     27  C   UNL     1       8.171 -17.680   2.763  1.00  0.00    -0.000 C 
BRANCH  27  28
ATOM     28  C   UNL     1       8.022 -16.560   3.803  1.00  0.00    -0.000 C 
BRANCH  28  29
ATOM     29  C   UNL     1       9.353 -16.204   4.480  1.00  0.00    -0.003 C 
ATOM     30  C   UNL     1       9.164 -15.522   5.835  1.00  0.00     0.004 C 
ENDBRANCH  28  29
ENDBRANCH  27  28
ENDBRANCH  26  27
ENDBRANCH  25  26
ENDBRANCH  24  25
ENDBRANCH  23  24
ENDBRANCH  22  23
ENDBRANCH  21  22
ENDBRANCH  20  21
ENDBRANCH  19  20
ENDBRANCH  18  19
ENDBRANCH  17  18
ENDBRANCH   1  17
TORSDOF 26
ENDMDL
MODEL 3
REMARK VINA RESULT:    -4.661      3.141      9.168
REMARK INTER + INTRA:         -16.400
REMARK INTER:                 -12.441
REMARK INTRA:                  -3.959
REMARK UNBOUND:                -4.654
REMARK SMILES CCCCCCCCCCCCCCCCCCCCCCCCCCCC(=O)[O-]
REMARK SMILES IDX 15 1 16 2 17 3 18 4 19 5 20 6 21 7 22 8 23 9 24 10 25 11
REMARK SMILES IDX 26 12 27 13 28 14 29 15 30 16 14 17 13 18 12 19 11 20 10 21
REMARK SMILES IDX 9 22 8 23 7 24 6 25 5 26 4 27 3 28 2 29 1 30
REMARK H PARENT
REMARK Flexibility Score: inf
ROOT
ATOM      1  C   UNL     1      12.169 -17.744   9.413  1.00  0.00     0.000 C 
ENDROOT
BRANCH   1   2
ATOM      2  C   UNL     1      11.821 -19.105   8.784  1.00  0.00     0.000 C 
BRANCH   2   3
ATOM      3  C   UNL     1      10.306 -19.340   8.665  1.00  0.00     0.000 C 
BRANCH   3   4
ATOM      4  C   UNL     1       9.858 -19.519   7.205  1.00  0.00     0.000 C 
BRANCH   4   5
ATOM      5  C   UNL     1       8.361 -19.225   7.009  1.00  0.00     0.000 C 
BRANCH   5   6
ATOM      6  C   UNL     1       7.788 -19.884   5.741  1.00  0.00     0.000 C 
BRANCH   6   7
ATOM      7  C   UNL     1       6.441 -19.310   5.250  1.00  0.00     0.000 C 
BRANCH   7   8
ATOM      8  C   UNL     1       6.511 -18.433   3.981  1.00  0.00     0.000 C 
BRANCH   8   9
ATOM      9  C   UNL     1       7.870 -18.471   3.248  1.00  0.00     0.000 C 
BRANCH   9  10
ATOM     10  C   UNL     1       8.681 -17.165   3.353  1.00  0.00     0.000 C 
BRANCH  10  11
ATOM     11  C   UNL     1       8.354 -16.323   4.603  1.00  0.00     0.000 C 
BRANCH  11  12
ATOM     12  C   UNL     1       9.561 -16.190   5.547  1.00  0.00     0.006 C 
BRANCH  12  13
ATOM     13  C   UNL     1       9.896 -14.727   5.860  1.00  0.00     0.053 C 
BRANCH  13  14
ATOM     14  C   UNL     1      11.237 -14.334   5.321  1.00  0.00     0.041 C 
ATOM     15  O   UNL     1      11.693 -14.890   4.288  1.00  0.00    -0.550 OA
ATOM     16  O   UNL     1      11.991 -13.365   5.972  1.00  0.00    -0.550 OA
ENDBRANCH  13  14
ENDBRANCH  12  13
ENDBRANCH  11  12
ENDBRANCH  10  11
ENDBRANCH   9  10
ENDBRANCH   8   9
ENDBRANCH   7   8
ENDBRANCH   6   7
ENDBRANCH   5   6
ENDBRANCH   4   5
ENDBRANCH   3   4
ENDBRANCH   2   3
ENDBRANCH   1   2
BRANCH   1  17
ATOM     17  C   UNL     1      11.071 -16.667   9.298  1.00  0.00     0.000 C 
BRANCH  17  18
ATOM     18  C   UNL     1      10.963 -15.711  10.500  1.00  0.00     0.000 C 
BRANCH  18  19
ATOM     19  C   UNL     1      11.117 -16.428  11.850  1.00  0.00     0.000 C 
BRANCH  19  20
ATOM     20  C   UNL     1      11.052 -15.425  13.012  1.00  0.00     0.000 C 
BRANCH  20  21
ATOM     21  C   UNL     1      11.304 -16.081  14.379  1.00  0.00     0.000 C 
BRANCH  21  22
ATOM     22  C   UNL     1      12.372 -15.340  15.202  1.00  0.00    -0.000 C 
BRANCH  22  23
ATOM     23  C   UNL     1      13.353 -16.292  15.910  1.00  0.00    -0.000 C 
BRANCH  23  24
ATOM     24  C   UNL     1      13.644 -17.605  15.159  1.00  0.00    -0.000 C 
BRANCH  24  25
ATOM     25  C   UNL     1      14.859 -17.501  14.222  1.00  0.00    -0.000 C 
BRANCH  25  26
ATOM     26  C   UNL     1      14.470 -17.608  12.739  1.00  0.00    -0.000 C 
BRANCH  26  27
ATOM     27  C   UNL     1      14.601 -16.268  11.997  1.00  0.00    -0.000 C 
BRANCH  27  28
ATOM     28  C   UNL     1      15.682 -15.388  12.641  1.00  0.00    -0.000 C 
BRANCH  28  29
ATOM     29  C   UNL     1      15.160 -13.993  13.014  1.00  0.00    -0.003 C 
ATOM     30  C   UNL     1      15.524 -13.588  14.443  1.00  0.00     0.004 C 
ENDBRANCH  28  29
ENDBRANCH  27  28
ENDBRANCH  26  27
ENDBRANCH  25  26
ENDBRANCH  24  25
ENDBRANCH  23  24
ENDBRANCH  22  23
ENDBRANCH  21  22
ENDBRANCH  20  21
ENDBRANCH  19  20
ENDBRANCH  18  19
ENDBRANCH  17  18
ENDBRANCH   1  17
TORSDOF 26
ENDMDL
MODEL 4
REMARK VINA RESULT:    -4.653      1.603      2.465
REMARK INTER + INTRA:         -16.381
REMARK INTER:                 -12.584
REMARK INTRA:                  -3.797
REMARK UNBOUND:                -4.654
REMARK SMILES CCCCCCCCCCCCCCCCCCCCCCCCCCCC(=O)[O-]
REMARK SMILES IDX 15 1 16 2 17 3 18 4 19 5 20 6 21 7 22 8 23 9 24 10 25 11
REMARK SMILES IDX 26 12 27 13 28 14 29 15 30 16 14 17 13 18 12 19 11 20 10 21
REMARK SMILES IDX 9 22 8 23 7 24 6 25 5 26 4 27 3 28 2 29 1 30
REMARK H PARENT
REMARK Flexibility Score: inf
ROOT
ATOM      1  C   UNL     1      11.058 -15.342  13.258  1.00  0.00     0.000 C 
ENDROOT
BRANCH   1   2
ATOM      2  C   UNL     1      11.467 -16.133  14.513  1.00  0.00     0.000 C 
BRANCH   2   3
ATOM      3  C   UNL     1      12.532 -15.411  15.356  1.00  0.00     0.000 C 
BRANCH   3   4
ATOM      4  C   UNL     1      13.467 -16.394  16.080  1.00  0.00     0.000 C 
BRANCH   4   5
ATOM      5  C   UNL     1      13.812 -17.620  15.219  1.00  0.00     0.000 C 
BRANCH   5   6
ATOM      6  C   UNL     1      15.298 -17.667  14.821  1.00  0.00     0.000 C 
BRANCH   6   7
ATOM      7  C   UNL     1      15.588 -17.431  13.322  1.00  0.00     0.000 C 
BRANCH   7   8
ATOM      8  C   UNL     1      14.353 -17.138  12.442  1.00  0.00     0.000 C 
BRANCH   8   9
ATOM      9  C   UNL     1      14.388 -15.774  11.719  1.00  0.00     0.000 C 
BRANCH   9  10
ATOM     10  C   UNL     1      15.695 -14.984  11.921  1.00  0.00     0.000 C 
BRANCH  10  11
ATOM     11  C   UNL     1      15.499 -13.602  12.576  1.00  0.00     0.000 C 
BRANCH  11  12
ATOM     12  C   UNL     1      15.434 -13.688  14.110  1.00  0.00     0.006 C 
BRANCH  12  13
ATOM     13  C   UNL     1      15.556 -12.312  14.775  1.00  0.00     0.053 C 
BRANCH  13  14
ATOM     14  C   UNL     1      14.406 -11.419  14.422  1.00  0.00     0.041 C 
ATOM     15  O   UNL     1      14.602 -10.356  13.777  1.00  0.00    -0.550 OA
ATOM     16  O   UNL     1      13.118 -11.754  14.824  1.00  0.00    -0.550 OA
ENDBRANCH  13  14
ENDBRANCH  12  13
ENDBRANCH  11  12
ENDBRANCH  10  11
ENDBRANCH   9  10
ENDBRANCH   8   9
ENDBRANCH   7   8
ENDBRANCH   6   7
ENDBRANCH   5   6
ENDBRANCH   4   5
ENDBRANCH   3   4
ENDBRANCH   2   3
ENDBRANCH   1   2
BRANCH   1  17
ATOM     17  C   UNL     1      10.680 -16.201  12.034  1.00  0.00     0.000 C 
BRANCH  17  18
ATOM     18  C   UNL     1      10.913 -15.531  10.668  1.00  0.00     0.000 C 
BRANCH  18  19
ATOM     19  C   UNL     1      10.697 -16.489   9.487  1.00  0.00     0.000 C 
BRANCH  19  20
ATOM     20  C   UNL     1      12.037 -17.048   8.984  1.00  0.00     0.000 C 
BRANCH  20  21
ATOM     21  C   UNL     1      12.371 -18.423   9.585  1.00  0.00     0.000 C 
BRANCH  21  22
ATOM     22  C   UNL     1      12.158 -19.572   8.585  1.00  0.00    -0.000 C 
BRANCH  22  23
ATOM     23  C   UNL     1      11.066 -20.562   9.032  1.00  0.00    -0.000 C 
BRANCH  23  24
ATOM     24  C   UNL     1       9.638 -20.205   8.579  1.00  0.00    -0.000 C 
BRANCH  24  25
ATOM     25  C   UNL     1       9.613 -19.329   7.314  1.00  0.00    -0.000 C 
BRANCH  25  26
ATOM     26  C   UNL     1       8.192 -18.880   6.938  1.00  0.00    -0.000 C 
BRANCH  26  27
ATOM     27  C   UNL     1       7.606 -19.692   5.772  1.00  0.00    -0.000 C 
BRANCH  27  28
ATOM     28  C   UNL     1       6.347 -19.014   5.210  1.00  0.00    -0.000 C 
BRANCH  28  29
ATOM     29  C   UNL     1       6.553 -18.479   3.785  1.00  0.00    -0.003 C 
ATOM     30  C   UNL     1       7.453 -17.244   3.742  1.00  0.00     0.004 C 
ENDBRANCH  28  29
ENDBRANCH  27  28
ENDBRANCH  26  27
ENDBRANCH  25  26
ENDBRANCH  24  25
ENDBRANCH  23  24
ENDBRANCH  22  23
ENDBRANCH  21  22
ENDBRANCH  20  21
ENDBRANCH  19  20
ENDBRANCH  18  19
ENDBRANCH  17  18
ENDBRANCH   1  17
TORSDOF 26
ENDMDL
MODEL 5
REMARK VINA RESULT:    -4.646      1.767      3.717
REMARK INTER + INTRA:         -16.362
REMARK INTER:                 -12.922
REMARK INTRA:                  -3.440
REMARK UNBOUND:                -4.654
REMARK SMILES CCCCCCCCCCCCCCCCCCCCCCCCCCCC(=O)[O-]
REMARK SMILES IDX 15 1 16 2 17 3 18 4 19 5 20 6 21 7 22 8 23 9 24 10 25 11
REMARK SMILES IDX 26 12 27 13 28 14 29 15 30 16 14 17 13 18 12 19 11 20 10 21
REMARK SMILES IDX 9 22 8 23 7 24 6 25 5 26 4 27 3 28 2 29 1 30
REMARK H PARENT
REMARK Flexibility Score: inf
ROOT
ATOM      1  C   UNL     1      11.536 -16.940   9.036  1.00  0.00     0.000 C 
ENDROOT
BRANCH   1   2
ATOM      2  C   UNL     1      11.299 -15.876  10.122  1.00  0.00     0.000 C 
BRANCH   2   3
ATOM      3  C   UNL     1      11.973 -16.224  11.460  1.00  0.00     0.000 C 
BRANCH   3   4
ATOM      4  C   UNL     1      11.119 -15.806  12.668  1.00  0.00     0.000 C 
BRANCH   4   5
ATOM      5  C   UNL     1      11.467 -16.602  13.938  1.00  0.00     0.000 C 
BRANCH   5   6
ATOM      6  C   UNL     1      11.997 -15.707  15.073  1.00  0.00     0.000 C 
BRANCH   6   7
ATOM      7  C   UNL     1      13.248 -16.240  15.805  1.00  0.00     0.000 C 
BRANCH   7   8
ATOM      8  C   UNL     1      13.696 -17.664  15.409  1.00  0.00     0.000 C 
BRANCH   8   9
ATOM      9  C   UNL     1      15.071 -17.734  14.709  1.00  0.00     0.000 C 
BRANCH   9  10
ATOM     10  C   UNL     1      15.110 -17.059  13.324  1.00  0.00     0.000 C 
BRANCH  10  11
ATOM     11  C   UNL     1      15.901 -15.735  13.294  1.00  0.00     0.000 C 
BRANCH  11  12
ATOM     12  C   UNL     1      14.979 -14.508  13.200  1.00  0.00     0.006 C 
BRANCH  12  13
ATOM     13  C   UNL     1      15.147 -13.562  14.396  1.00  0.00     0.053 C 
BRANCH  13  14
ATOM     14  C   UNL     1      14.634 -12.187  14.095  1.00  0.00     0.041 C 
ATOM     15  O   UNL     1      15.237 -11.451  13.270  1.00  0.00    -0.550 OA
ATOM     16  O   UNL     1      13.499 -11.713  14.741  1.00  0.00    -0.550 OA
ENDBRANCH  13  14
ENDBRANCH  12  13
ENDBRANCH  11  12
ENDBRANCH  10  11
ENDBRANCH   9  10
ENDBRANCH   8   9
ENDBRANCH   7   8
ENDBRANCH   6   7
ENDBRANCH   5   6
ENDBRANCH   4   5
ENDBRANCH   3   4
ENDBRANCH   2   3
ENDBRANCH   1   2
BRANCH   1  17
ATOM     17  C   UNL     1      12.234 -18.228   9.520  1.00  0.00     0.000 C 
BRANCH  17  18
ATOM     18  C   UNL     1      12.417 -19.315   8.446  1.00  0.00     0.000 C 
BRANCH  18  19
ATOM     19  C   UNL     1      11.602 -20.585   8.735  1.00  0.00     0.000 C 
BRANCH  19  20
ATOM     20  C   UNL     1      10.116 -20.247   8.934  1.00  0.00     0.000 C 
BRANCH  20  21
ATOM     21  C   UNL     1       9.293 -20.405   7.646  1.00  0.00     0.000 C 
BRANCH  21  22
ATOM     22  C   UNL     1       9.065 -19.067   6.922  1.00  0.00    -0.000 C 
BRANCH  22  23
ATOM     23  C   UNL     1       7.574 -18.740   6.719  1.00  0.00    -0.000 C 
BRANCH  23  24
ATOM     24  C   UNL     1       6.863 -19.577   5.640  1.00  0.00    -0.000 C 
BRANCH  24  25
ATOM     25  C   UNL     1       6.590 -18.783   4.351  1.00  0.00    -0.000 C 
BRANCH  25  26
ATOM     26  C   UNL     1       7.697 -18.966   3.301  1.00  0.00    -0.000 C 
BRANCH  26  27
ATOM     27  C   UNL     1       8.203 -17.628   2.737  1.00  0.00    -0.000 C 
BRANCH  27  28
ATOM     28  C   UNL     1       8.059 -16.506   3.776  1.00  0.00    -0.000 C 
BRANCH  28  29
ATOM     29  C   UNL     1       9.375 -16.211   4.511  1.00  0.00    -0.003 C 
ATOM     30  C   UNL     1       9.160 -15.504   5.849  1.00  0.00     0.004 C 
ENDBRANCH  28  29
ENDBRANCH  27  28
ENDBRANCH  26  27
ENDBRANCH  25  26
ENDBRANCH  24  25
ENDBRANCH  23  24
ENDBRANCH  22  23
ENDBRANCH  21  22
ENDBRANCH  20  21
ENDBRANCH  19  20
ENDBRANCH  18  19
ENDBRANCH  17  18
ENDBRANCH   1  17
TORSDOF 26
ENDMDL
MODEL 6
REMARK VINA RESULT:    -4.621      1.008      2.247
REMARK INTER + INTRA:         -16.299
REMARK INTER:                 -12.315
REMARK INTRA:                  -3.985
REMARK UNBOUND:                -4.654
REMARK SMILES CCCCCCCCCCCCCCCCCCCCCCCCCCCC(=O)[O-]
REMARK SMILES IDX 15 1 16 2 17 3 18 4 19 5 20 6 21 7 22 8 23 9 24 10 25 11
REMARK SMILES IDX 26 12 27 13 28 14 29 15 30 16 14 17 13 18 12 19 11 20 10 21
REMARK SMILES IDX 9 22 8 23 7 24 6 25 5 26 4 27 3 28 2 29 1 30
REMARK H PARENT
REMARK Flexibility Score: inf
ROOT
ATOM      1  C   UNL     1      11.047 -15.744  14.405  1.00  0.00     0.000 C 
ENDROOT
BRANCH   1   2
ATOM      2  C   UNL     1      12.136 -14.924  15.118  1.00  0.00     0.000 C 
BRANCH   2   3
ATOM      3  C   UNL     1      12.615 -15.573  16.428  1.00  0.00     0.000 C 
BRANCH   3   4
ATOM      4  C   UNL     1      13.989 -16.245  16.277  1.00  0.00     0.000 C 
BRANCH   4   5
ATOM      5  C   UNL     1      13.907 -17.598  15.550  1.00  0.00     0.000 C 
BRANCH   5   6
ATOM      6  C   UNL     1      14.997 -17.763  14.476  1.00  0.00     0.000 C 
BRANCH   6   7
ATOM      7  C   UNL     1      14.535 -17.517  13.023  1.00  0.00     0.000 C 
BRANCH   7   8
ATOM      8  C   UNL     1      15.517 -16.721  12.136  1.00  0.00     0.000 C 
BRANCH   8   9
ATOM      9  C   UNL     1      16.010 -15.394  12.754  1.00  0.00     0.000 C 
BRANCH   9  10
ATOM     10  C   UNL     1      14.881 -14.428  13.161  1.00  0.00     0.000 C 
BRANCH  10  11
ATOM     11  C   UNL     1      15.318 -13.337  14.159  1.00  0.00     0.000 C 
BRANCH  11  12
ATOM     12  C   UNL     1      15.125 -11.920  13.595  1.00  0.00     0.006 C 
BRANCH  12  13
ATOM     13  C   UNL     1      14.985 -10.868  14.701  1.00  0.00     0.053 C 
BRANCH  13  14
ATOM     14  C   UNL     1      13.555 -10.479  14.923  1.00  0.00     0.041 C 
ATOM     15  O   UNL     1      12.663 -11.363  15.012  1.00  0.00    -0.550 OA
ATOM     16  O   UNL     1      13.206  -9.136  15.012  1.00  0.00    -0.550 OA
ENDBRANCH  13  14
ENDBRANCH  12  13
ENDBRANCH  11  12
ENDBRANCH  10  11
ENDBRANCH   9  10
ENDBRANCH   8   9
ENDBRANCH   7   8
ENDBRANCH   6   7
ENDBRANCH   5   6
ENDBRANCH   4   5
ENDBRANCH   3   4
ENDBRANCH   2   3
ENDBRANCH   1   2
BRANCH   1  17
ATOM     17  C   UNL     1      11.360 -16.121  12.942  1.00  0.00     0.000 C 
BRANCH  17  18
ATOM     18  C   UNL     1      10.432 -15.486  11.890  1.00  0.00     0.000 C 
BRANCH  18  19
ATOM     19  C   UNL     1      10.902 -15.735  10.449  1.00  0.00     0.000 C 
BRANCH  19  20
ATOM     20  C   UNL     1      12.050 -16.756  10.418  1.00  0.00     0.000 C 
BRANCH  20  21
ATOM     21  C   UNL     1      13.098 -16.440   9.339  1.00  0.00     0.000 C 
BRANCH  21  22
ATOM     22  C   UNL     1      13.349 -14.930   9.183  1.00  0.00    -0.000 C 
BRANCH  22  23
ATOM     23  C   UNL     1      13.131 -14.431   7.743  1.00  0.00    -0.000 C 
BRANCH  23  24
ATOM     24  C   UNL     1      12.272 -15.351   6.856  1.00  0.00    -0.000 C 
BRANCH  24  25
ATOM     25  C   UNL     1      11.070 -14.625   6.228  1.00  0.00    -0.000 C 
BRANCH  25  26
ATOM     26  C   UNL     1      10.635 -15.252   4.894  1.00  0.00    -0.000 C 
BRANCH  26  27
ATOM     27  C   UNL     1       9.231 -15.873   4.965  1.00  0.00    -0.000 C 
BRANCH  27  28
ATOM     28  C   UNL     1       8.823 -16.143   6.421  1.00  0.00    -0.000 C 
BRANCH  28  29
ATOM     29  C   UNL     1       8.753 -17.643   6.744  1.00  0.00    -0.003 C 
ATOM     30  C   UNL     1       9.863 -18.095   7.693  1.00  0.00     0.004 C 
ENDBRANCH  28  29
ENDBRANCH  27  28
ENDBRANCH  26  27
ENDBRANCH  25  26
ENDBRANCH  24  25
ENDBRANCH  23  24
ENDBRANCH  22  23
ENDBRANCH  21  22
ENDBRANCH  20  21
ENDBRANCH  19  20
ENDBRANCH  18  19
ENDBRANCH  17  18
ENDBRANCH   1  17
TORSDOF 26
ENDMDL
MODEL 7
REMARK VINA RESULT:    -4.574      2.983      6.098
REMARK INTER + INTRA:         -16.181
REMARK INTER:                 -11.626
REMARK INTRA:                  -4.554
REMARK UNBOUND:                -4.654
REMARK SMILES CCCCCCCCCCCCCCCCCCCCCCCCCCCC(=O)[O-]
REMARK SMILES IDX 15 1 16 2 17 3 18 4 19 5 20 6 21 7 22 8 23 9 24 10 25 11
REMARK SMILES IDX 26 12 27 13 28 14 29 15 30 16 14 17 13 18 12 19 11 20 10 21
REMARK SMILES IDX 9 22 8 23 7 24 6 25 5 26 4 27 3 28 2 29 1 30
REMARK H PARENT
REMARK Flexibility Score: inf
ROOT
ATOM      1  C   UNL     1       9.645 -19.453   7.717  1.00  0.00     0.000 C 
ENDROOT
BRANCH   1   2
ATOM      2  C   UNL     1      10.595 -19.156   8.891  1.00  0.00     0.000 C 
BRANCH   2   3
ATOM      3  C   UNL     1      12.066 -19.464   8.564  1.00  0.00     0.000 C 
BRANCH   3   4
ATOM      4  C   UNL     1      12.777 -18.275   7.897  1.00  0.00     0.000 C 
BRANCH   4   5
ATOM      5  C   UNL     1      13.956 -17.750   8.732  1.00  0.00     0.000 C 
BRANCH   5   6
ATOM      6  C   UNL     1      13.505 -16.834   9.885  1.00  0.00     0.000 C 
BRANCH   6   7
ATOM      7  C   UNL     1      12.678 -15.601   9.464  1.00  0.00     0.000 C 
BRANCH   7   8
ATOM      8  C   UNL     1      11.265 -15.503  10.078  1.00  0.00     0.000 C 
BRANCH   8   9
ATOM      9  C   UNL     1      11.007 -16.470  11.255  1.00  0.00     0.000 C 
BRANCH   9  10
ATOM     10  C   UNL     1      10.632 -15.771  12.576  1.00  0.00     0.000 C 
BRANCH  10  11
ATOM     11  C   UNL     1      11.460 -16.239  13.790  1.00  0.00     0.000 C 
BRANCH  11  12
ATOM     12  C   UNL     1      12.973 -16.166  13.526  1.00  0.00     0.006 C 
BRANCH  12  13
ATOM     13  C   UNL     1      13.650 -17.537  13.639  1.00  0.00     0.053 C 
BRANCH  13  14
ATOM     14  C   UNL     1      14.570 -17.609  14.820  1.00  0.00     0.041 C 
ATOM     15  O   UNL     1      14.120 -17.449  15.985  1.00  0.00    -0.550 OA
ATOM     16  O   UNL     1      15.928 -17.833  14.630  1.00  0.00    -0.550 OA
ENDBRANCH  13  14
ENDBRANCH  12  13
ENDBRANCH  11  12
ENDBRANCH  10  11
ENDBRANCH   9  10
ENDBRANCH   8   9
ENDBRANCH   7   8
ENDBRANCH   6   7
ENDBRANCH   5   6
ENDBRANCH   4   5
ENDBRANCH   3   4
ENDBRANCH   2   3
ENDBRANCH   1   2
BRANCH   1  17
ATOM     17  C   UNL     1       8.769 -18.266   7.265  1.00  0.00     0.000 C 
BRANCH  17  18
ATOM     18  C   UNL     1       9.485 -16.904   7.220  1.00  0.00     0.000 C 
BRANCH  18  19
ATOM     19  C   UNL     1       8.792 -15.894   6.293  1.00  0.00     0.000 C 
BRANCH  19  20
ATOM     20  C   UNL     1       9.791 -14.845   5.783  1.00  0.00     0.000 C 
BRANCH  20  21
ATOM     21  C   UNL     1      11.222 -15.090   6.289  1.00  0.00     0.000 C 
BRANCH  21  22
ATOM     22  C   UNL     1      12.115 -15.764   5.233  1.00  0.00    -0.000 C 
BRANCH  22  23
ATOM     23  C   UNL     1      12.087 -15.042   3.874  1.00  0.00    -0.000 C 
BRANCH  23  24
ATOM     24  C   UNL     1      11.804 -15.948   2.660  1.00  0.00    -0.000 C 
BRANCH  24  25
ATOM     25  C   UNL     1      10.369 -16.503   2.651  1.00  0.00    -0.000 C 
BRANCH  25  26
ATOM     26  C   UNL     1      10.324 -18.023   2.872  1.00  0.00    -0.000 C 
BRANCH  26  27
ATOM     27  C   UNL     1       9.050 -18.476   3.602  1.00  0.00    -0.000 C 
BRANCH  27  28
ATOM     28  C   UNL     1       7.867 -17.559   3.261  1.00  0.00    -0.000 C 
BRANCH  28  29
ATOM     29  C   UNL     1       6.509 -18.218   3.545  1.00  0.00    -0.003 C 
ATOM     30  C   UNL     1       6.545 -19.148   4.757  1.00  0.00     0.004 C 
ENDBRANCH  28  29
ENDBRANCH  27  28
ENDBRANCH  26  27
ENDBRANCH  25  26
ENDBRANCH  24  25
ENDBRANCH  23  24
ENDBRANCH  22  23
ENDBRANCH  21  22
ENDBRANCH  20  21
ENDBRANCH  19  20
ENDBRANCH  18  19
ENDBRANCH  17  18
ENDBRANCH   1  17
TORSDOF 26
ENDMDL
MODEL 8
REMARK VINA RESULT:    -4.532      1.525      3.098
REMARK INTER + INTRA:         -16.074
REMARK INTER:                 -12.097
REMARK INTRA:                  -3.978
REMARK UNBOUND:                -4.654
REMARK SMILES CCCCCCCCCCCCCCCCCCCCCCCCCCCC(=O)[O-]
REMARK SMILES IDX 15 1 16 2 17 3 18 4 19 5 20 6 21 7 22 8 23 9 24 10 25 11
REMARK SMILES IDX 26 12 27 13 28 14 29 15 30 16 14 17 13 18 12 19 11 20 10 21
REMARK SMILES IDX 9 22 8 23 7 24 6 25 5 26 4 27 3 28 2 29 1 30
REMARK H PARENT
REMARK Flexibility Score: inf
ROOT
ATOM      1  C   UNL     1      13.550 -15.324  15.451  1.00  0.00     0.000 C 
ENDROOT
BRANCH   1   2
ATOM      2  C   UNL     1      13.896 -16.606  16.229  1.00  0.00     0.000 C 
BRANCH   2   3
ATOM      3  C   UNL     1      14.515 -17.698  15.341  1.00  0.00     0.000 C 
BRANCH   3   4
ATOM      4  C   UNL     1      15.405 -17.112  14.233  1.00  0.00     0.000 C 
BRANCH   4   5
ATOM      5  C   UNL     1      14.904 -17.470  12.824  1.00  0.00     0.000 C 
BRANCH   5   6
ATOM      6  C   UNL     1      15.248 -16.392  11.780  1.00  0.00     0.000 C 
BRANCH   6   7
ATOM      7  C   UNL     1      14.753 -14.968  12.114  1.00  0.00     0.000 C 
BRANCH   7   8
ATOM      8  C   UNL     1      15.852 -13.890  12.234  1.00  0.00     0.000 C 
BRANCH   8   9
ATOM      9  C   UNL     1      16.427 -13.714  13.657  1.00  0.00     0.000 C 
BRANCH   9  10
ATOM     10  C   UNL     1      16.328 -12.278  14.205  1.00  0.00     0.000 C 
BRANCH  10  11
ATOM     11  C   UNL     1      15.059 -11.523  13.761  1.00  0.00     0.000 C 
BRANCH  11  12
ATOM     12  C   UNL     1      15.376 -10.121  13.214  1.00  0.00     0.006 C 
BRANCH  12  13
ATOM     13  C   UNL     1      15.871 -10.161  11.763  1.00  0.00     0.053 C 
BRANCH  13  14
ATOM     14  C   UNL     1      17.334  -9.853  11.664  1.00  0.00     0.041 C 
ATOM     15  O   UNL     1      17.949 -10.038  10.582  1.00  0.00    -0.550 OA
ATOM     16  O   UNL     1      18.020  -9.379  12.776  1.00  0.00    -0.550 OA
ENDBRANCH  13  14
ENDBRANCH  12  13
ENDBRANCH  11  12
ENDBRANCH  10  11
ENDBRANCH   9  10
ENDBRANCH   8   9
ENDBRANCH   7   8
ENDBRANCH   6   7
ENDBRANCH   5   6
ENDBRANCH   4   5
ENDBRANCH   3   4
ENDBRANCH   2   3
ENDBRANCH   1   2
BRANCH   1  17
ATOM     17  C   UNL     1      12.045 -15.095  15.199  1.00  0.00     0.000 C 
BRANCH  17  18
ATOM     18  C   UNL     1      11.374 -16.121  14.269  1.00  0.00     0.000 C 
BRANCH  18  19
ATOM     19  C   UNL     1      10.939 -15.517  12.925  1.00  0.00     0.000 C 
BRANCH  19  20
ATOM     20  C   UNL     1      11.376 -16.412  11.756  1.00  0.00     0.000 C 
BRANCH  20  21
ATOM     21  C   UNL     1      11.085 -15.783  10.384  1.00  0.00     0.000 C 
BRANCH  21  22
ATOM     22  C   UNL     1      11.975 -16.359   9.269  1.00  0.00    -0.000 C 
BRANCH  22  23
ATOM     23  C   UNL     1      12.618 -17.705   9.649  1.00  0.00    -0.000 C 
BRANCH  23  24
ATOM     24  C   UNL     1      11.933 -18.948   9.050  1.00  0.00    -0.000 C 
BRANCH  24  25
ATOM     25  C   UNL     1      11.190 -18.647   7.737  1.00  0.00    -0.000 C 
BRANCH  25  26
ATOM     26  C   UNL     1       9.682 -18.926   7.837  1.00  0.00    -0.000 C 
BRANCH  26  27
ATOM     27  C   UNL     1       8.868 -18.158   6.784  1.00  0.00    -0.000 C 
BRANCH  27  28
ATOM     28  C   UNL     1       8.772 -16.668   7.144  1.00  0.00    -0.000 C 
BRANCH  28  29
ATOM     29  C   UNL     1       8.796 -15.760   5.905  1.00  0.00    -0.003 C 
ATOM     30  C   UNL     1      10.098 -14.970   5.776  1.00  0.00     0.004 C 
ENDBRANCH  28  29
ENDBRANCH  27  28
ENDBRANCH  26  27
ENDBRANCH  25  26
ENDBRANCH  24  25
ENDBRANCH  23  24
ENDBRANCH  22  23
ENDBRANCH  21  22
ENDBRANCH  20  21
ENDBRANCH  19  20
ENDBRANCH  18  19
ENDBRANCH  17  18
ENDBRANCH   1  17
TORSDOF 26
ENDMDL
MODEL 9
REMARK VINA RESULT:    -4.513      2.640      6.500
REMARK INTER + INTRA:         -16.027
REMARK INTER:                 -11.604
REMARK INTRA:                  -4.423
REMARK UNBOUND:                -4.654
REMARK SMILES CCCCCCCCCCCCCCCCCCCCCCCCCCCC(=O)[O-]
REMARK SMILES IDX 15 1 16 2 17 3 18 4 19 5 20 6 21 7 22 8 23 9 24 10 25 11
REMARK SMILES IDX 26 12 27 13 28 14 29 15 30 16 14 17 13 18 12 19 11 20 10 21
REMARK SMILES IDX 9 22 8 23 7 24 6 25 5 26 4 27 3 28 2 29 1 30
REMARK H PARENT
REMARK Flexibility Score: inf
ROOT
ATOM      1  C   UNL     1      11.095 -20.367   9.152  1.00  0.00     0.000 C 
ENDROOT
BRANCH   1   2
ATOM      2  C   UNL     1      12.160 -21.117   8.333  1.00  0.00     0.000 C 
BRANCH   2   3
ATOM      3  C   UNL     1      12.231 -20.647   6.870  1.00  0.00     0.000 C 
BRANCH   3   4
ATOM      4  C   UNL     1      13.283 -19.546   6.663  1.00  0.00     0.000 C 
BRANCH   4   5
ATOM      5  C   UNL     1      12.654 -18.147   6.539  1.00  0.00     0.000 C 
BRANCH   5   6
ATOM      6  C   UNL     1      12.956 -17.251   7.754  1.00  0.00     0.000 C 
BRANCH   6   7
ATOM      7  C   UNL     1      12.045 -16.013   7.903  1.00  0.00     0.000 C 
BRANCH   7   8
ATOM      8  C   UNL     1      10.962 -16.109   8.999  1.00  0.00     0.000 C 
BRANCH   8   9
ATOM      9  C   UNL     1      11.357 -16.968  10.220  1.00  0.00     0.000 C 
BRANCH   9  10
ATOM     10  C   UNL     1      11.767 -16.152  11.461  1.00  0.00     0.000 C 
BRANCH  10  11
ATOM     11  C   UNL     1      10.598 -15.829  12.413  1.00  0.00     0.000 C 
BRANCH  11  12
ATOM     12  C   UNL     1      11.081 -15.475  13.830  1.00  0.00     0.006 C 
BRANCH  12  13
ATOM     13  C   UNL     1      12.094 -16.492  14.369  1.00  0.00     0.053 C 
BRANCH  13  14
ATOM     14  C   UNL     1      13.204 -15.826  15.124  1.00  0.00     0.041 C 
ATOM     15  O   UNL     1      13.498 -14.624  14.891  1.00  0.00    -0.550 OA
ATOM     16  O   UNL     1      13.925 -16.541  16.072  1.00  0.00    -0.550 OA
ENDBRANCH  13  14
ENDBRANCH  12  13
ENDBRANCH  11  12
ENDBRANCH  10  11
ENDBRANCH   9  10
ENDBRANCH   8   9
ENDBRANCH   7   8
ENDBRANCH   6   7
ENDBRANCH   5   6
ENDBRANCH   4   5
ENDBRANCH   3   4
ENDBRANCH   2   3
ENDBRANCH   1   2
BRANCH   1  17
ATOM     17  C   UNL     1       9.675 -20.377   8.551  1.00  0.00     0.000 C 
BRANCH  17  18
ATOM     18  C   UNL     1       9.179 -19.020   8.021  1.00  0.00     0.000 C 
BRANCH  18  19
ATOM     19  C   UNL     1       8.099 -19.159   6.937  1.00  0.00     0.000 C 
BRANCH  19  20
ATOM     20  C   UNL     1       8.544 -20.142   5.844  1.00  0.00     0.000 C 
BRANCH  20  21
ATOM     21  C   UNL     1       7.600 -20.152   4.632  1.00  0.00     0.000 C 
BRANCH  21  22
ATOM     22  C   UNL     1       6.726 -18.888   4.553  1.00  0.00    -0.000 C 
BRANCH  22  23
ATOM     23  C   UNL     1       6.912 -18.111   3.237  1.00  0.00    -0.000 C 
BRANCH  23  24
ATOM     24  C   UNL     1       7.785 -18.815   2.181  1.00  0.00    -0.000 C 
BRANCH  24  25
ATOM     25  C   UNL     1       8.597 -17.829   1.323  1.00  0.00    -0.000 C 
BRANCH  25  26
ATOM     26  C   UNL     1       8.905 -16.519   2.064  1.00  0.00    -0.000 C 
BRANCH  26  27
ATOM     27  C   UNL     1      10.368 -16.434   2.530  1.00  0.00    -0.000 C 
BRANCH  27  28
ATOM     28  C   UNL     1      10.465 -15.771   3.912  1.00  0.00    -0.000 C 
BRANCH  28  29
ATOM     29  C   UNL     1       9.745 -16.576   5.004  1.00  0.00    -0.003 C 
ATOM     30  C   UNL     1       8.712 -15.746   5.767  1.00  0.00     0.004 C 
ENDBRANCH  28  29
ENDBRANCH  27  28
ENDBRANCH  26  27
ENDBRANCH  25  26
ENDBRANCH  24  25
ENDBRANCH  23  24
ENDBRANCH  22  23
ENDBRANCH  21  22
ENDBRANCH  20  21
ENDBRANCH  19  20
ENDBRANCH  18  19
ENDBRANCH  17  18
ENDBRANCH   1  17
TORSDOF 26
ENDMDL
