MODEL 1
REMARK VINA RESULT:    -4.700      0.000      0.000
REMARK INTER + INTRA:         -10.469
REMARK INTER:                  -8.272
REMARK INTRA:                  -2.197
REMARK UNBOUND:                -2.197
REMARK SMILES CCCCCCCCCCCCCCC(=O)[O-]
REMARK SMILES IDX 9 1 10 2 11 3 12 4 13 5 14 6 15 7 16 8 17 9 8 10 7 11 6 12
REMARK SMILES IDX 5 13 4 14 3 15 2 16 1 17
REMARK H PARENT
REMARK Flexibility Score: inf
ROOT
ATOM      1  C   UNL     1      17.804  56.492  16.894  1.00  0.00     0.000 C 
ENDROOT
BRANCH   1   2
ATOM      2  C   UNL     1      19.107  56.961  17.561  1.00  0.00     0.000 C 
BRANCH   2   3
ATOM      3  C   UNL     1      20.284  57.040  16.573  1.00  0.00     0.000 C 
BRANCH   3   4
ATOM      4  C   UNL     1      21.520  56.269  17.066  1.00  0.00     0.000 C 
BRANCH   4   5
ATOM      5  C   UNL     1      22.640  56.215  16.014  1.00  0.00     0.006 C 
BRANCH   5   6
ATOM      6  C   UNL     1      23.962  55.770  16.646  1.00  0.00     0.053 C 
BRANCH   6   7
ATOM      7  C   UNL     1      25.117  56.428  15.959  1.00  0.00     0.041 C 
ATOM      8  O   UNL     1      26.292  56.029  16.172  1.00  0.00    -0.550 OA
ATOM      9  O   UNL     1      24.900  57.517  15.123  1.00  0.00    -0.550 OA
ENDBRANCH   6   7
ENDBRANCH   5   6
ENDBRANCH   4   5
ENDBRANCH   3   4
ENDBRANCH   2   3
ENDBRANCH   1   2
BRANCH   1  10
ATOM     10  C   UNL     1      17.873  56.551  15.357  1.00  0.00     0.000 C 
BRANCH  10  11
ATOM     11  C   UNL     1      17.431  55.234  14.698  1.00  0.00    -0.000 C 
BRANCH  11  12
ATOM     12  C   UNL     1      18.373  54.804  13.559  1.00  0.00    -0.000 C 
BRANCH  12  13
ATOM     13  C   UNL     1      19.728  54.279  14.069  1.00  0.00    -0.000 C 
BRANCH  13  14
ATOM     14  C   UNL     1      19.655  52.990  14.909  1.00  0.00    -0.000 C 
BRANCH  14  15
ATOM     15  C   UNL     1      20.483  53.008  16.209  1.00  0.00    -0.000 C 
BRANCH  15  16
ATOM     16  C   UNL     1      19.631  53.155  17.488  1.00  0.00    -0.003 C 
ATOM     17  C   UNL     1      18.178  52.733  17.282  1.00  0.00     0.004 C 
ENDBRANCH  15  16
ENDBRANCH  14  15
ENDBRANCH  13  14
ENDBRANCH  12  13
ENDBRANCH  11  12
ENDBRANCH  10  11
ENDBRANCH   1  10
TORSDOF 13
ENDMDL
MODEL 2
REMARK VINA RESULT:    -4.645      3.583      6.326
REMARK INTER + INTRA:         -10.372
REMARK INTER:                  -8.253
REMARK INTRA:                  -2.119
REMARK UNBOUND:                -2.197
REMARK SMILES CCCCCCCCCCCCCCC(=O)[O-]
REMARK SMILES IDX 9 1 10 2 11 3 12 4 13 5 14 6 15 7 16 8 17 9 8 10 7 11 6 12
REMARK SMILES IDX 5 13 4 14 3 15 2 16 1 17
REMARK H PARENT
REMARK Flexibility Score: inf
ROOT
ATOM      1  C   UNL     1      19.846  54.133  14.014  1.00  0.00     0.000 C 
ENDROOT
BRANCH   1   2
ATOM      2  C   UNL     1      18.729  55.187  13.966  1.00  0.00     0.000 C 
BRANCH   2   3
ATOM      3  C   UNL     1      17.683  54.893  12.876  1.00  0.00     0.000 C 
BRANCH   3   4
ATOM      4  C   UNL     1      16.247  54.871  13.427  1.00  0.00     0.000 C 
BRANCH   4   5
ATOM      5  C   UNL     1      16.204  54.708  14.955  1.00  0.00     0.006 C 
BRANCH   5   6
ATOM      6  C   UNL     1      14.981  55.415  15.546  1.00  0.00     0.053 C 
BRANCH   6   7
ATOM      7  C   UNL     1      15.401  56.397  16.594  1.00  0.00     0.041 C 
ATOM      8  O   UNL     1      15.861  57.521  16.261  1.00  0.00    -0.550 OA
ATOM      9  O   UNL     1      15.335  56.051  17.938  1.00  0.00    -0.550 OA
ENDBRANCH   6   7
ENDBRANCH   5   6
ENDBRANCH   4   5
ENDBRANCH   3   4
ENDBRANCH   2   3
ENDBRANCH   1   2
BRANCH   1  10
ATOM     10  C   UNL     1      19.528  52.978  14.981  1.00  0.00     0.000 C 
BRANCH  10  11
ATOM     11  C   UNL     1      19.976  53.279  16.421  1.00  0.00    -0.000 C 
BRANCH  11  12
ATOM     12  C   UNL     1      18.785  53.518  17.366  1.00  0.00    -0.000 C 
BRANCH  12  13
ATOM     13  C   UNL     1      18.952  54.783  18.230  1.00  0.00    -0.000 C 
BRANCH  13  14
ATOM     14  C   UNL     1      18.917  56.114  17.453  1.00  0.00    -0.000 C 
BRANCH  14  15
ATOM     15  C   UNL     1      20.207  56.953  17.533  1.00  0.00    -0.000 C 
BRANCH  15  16
ATOM     16  C   UNL     1      21.141  56.777  16.317  1.00  0.00    -0.003 C 
ATOM     17  C   UNL     1      22.437  56.047  16.667  1.00  0.00     0.004 C 
ENDBRANCH  15  16
ENDBRANCH  14  15
ENDBRANCH  13  14
ENDBRANCH  12  13
ENDBRANCH  11  12
ENDBRANCH  10  11
ENDBRANCH   1  10
TORSDOF 13
ENDMDL
MODEL 3
REMARK VINA RESULT:    -4.590      1.630      3.242
REMARK INTER + INTRA:         -10.276
REMARK INTER:                  -8.733
REMARK INTRA:                  -1.543
REMARK UNBOUND:                -2.197
REMARK SMILES CCCCCCCCCCCCCCC(=O)[O-]
REMARK SMILES IDX 9 1 10 2 11 3 12 4 13 5 14 6 15 7 16 8 17 9 8 10 7 11 6 12
REMARK SMILES IDX 5 13 4 14 3 15 2 16 1 17
REMARK H PARENT
REMARK Flexibility Score: inf
ROOT
ATOM      1  C   UNL     1      20.324  54.401  14.297  1.00  0.00     0.000 C 
ENDROOT
BRANCH   1   2
ATOM      2  C   UNL     1      20.592  53.554  15.551  1.00  0.00     0.000 C 
BRANCH   2   3
ATOM      3  C   UNL     1      21.763  54.092  16.391  1.00  0.00     0.000 C 
BRANCH   3   4
ATOM      4  C   UNL     1      22.161  55.525  15.999  1.00  0.00     0.000 C 
BRANCH   4   5
ATOM      5  C   UNL     1      23.229  56.117  16.932  1.00  0.00     0.006 C 
BRANCH   5   6
ATOM      6  C   UNL     1      24.593  56.173  16.237  1.00  0.00     0.053 C 
BRANCH   6   7
ATOM      7  C   UNL     1      25.539  55.198  16.863  1.00  0.00     0.041 C 
ATOM      8  O   UNL     1      25.416  53.965  16.643  1.00  0.00    -0.550 OA
ATOM      9  O   UNL     1      26.524  55.647  17.734  1.00  0.00    -0.550 OA
ENDBRANCH   6   7
ENDBRANCH   5   6
ENDBRANCH   4   5
ENDBRANCH   3   4
ENDBRANCH   2   3
ENDBRANCH   1   2
BRANCH   1  10
ATOM     10  C   UNL     1      18.920  54.164  13.712  1.00  0.00     0.000 C 
BRANCH  10  11
ATOM     11  C   UNL     1      17.972  55.349  13.961  1.00  0.00    -0.000 C 
BRANCH  11  12
ATOM     12  C   UNL     1      16.579  54.896  14.432  1.00  0.00    -0.000 C 
BRANCH  12  13
ATOM     13  C   UNL     1      16.491  54.724  15.960  1.00  0.00    -0.000 C 
BRANCH  13  14
ATOM     14  C   UNL     1      16.349  56.034  16.759  1.00  0.00    -0.000 C 
BRANCH  14  15
ATOM     15  C   UNL     1      17.279  56.159  17.981  1.00  0.00    -0.000 C 
BRANCH  15  16
ATOM     16  C   UNL     1      18.779  56.024  17.640  1.00  0.00    -0.003 C 
ATOM     17  C   UNL     1      19.578  57.282  17.976  1.00  0.00     0.004 C 
ENDBRANCH  15  16
ENDBRANCH  14  15
ENDBRANCH  13  14
ENDBRANCH  12  13
ENDBRANCH  11  12
ENDBRANCH  10  11
ENDBRANCH   1  10
TORSDOF 13
ENDMDL
MODEL 4
REMARK VINA RESULT:    -4.571      3.772      6.446
REMARK INTER + INTRA:         -10.243
REMARK INTER:                  -8.054
REMARK INTRA:                  -2.189
REMARK UNBOUND:                -2.197
REMARK SMILES CCCCCCCCCCCCCCC(=O)[O-]
REMARK SMILES IDX 9 1 10 2 11 3 12 4 13 5 14 6 15 7 16 8 17 9 8 10 7 11 6 12
REMARK SMILES IDX 5 13 4 14 3 15 2 16 1 17
REMARK H PARENT
REMARK Flexibility Score: inf
ROOT
ATOM      1  C   UNL     1      20.175  52.833  16.356  1.00  0.00     0.000 C 
ENDROOT
BRANCH   1   2
ATOM      2  C   UNL     1      19.067  52.984  15.302  1.00  0.00     0.000 C 
BRANCH   2   3
ATOM      3  C   UNL     1      19.549  53.710  14.034  1.00  0.00     0.000 C 
BRANCH   3   4
ATOM      4  C   UNL     1      18.570  54.801  13.570  1.00  0.00     0.000 C 
BRANCH   4   5
ATOM      5  C   UNL     1      17.526  55.152  14.642  1.00  0.00     0.006 C 
BRANCH   5   6
ATOM      6  C   UNL     1      16.110  54.846  14.149  1.00  0.00     0.053 C 
BRANCH   6   7
ATOM      7  C   UNL     1      15.123  55.002  15.262  1.00  0.00     0.041 C 
ATOM      8  O   UNL     1      14.074  55.676  15.090  1.00  0.00    -0.550 OA
ATOM      9  O   UNL     1      15.388  54.448  16.509  1.00  0.00    -0.550 OA
ENDBRANCH   6   7
ENDBRANCH   5   6
ENDBRANCH   4   5
ENDBRANCH   3   4
ENDBRANCH   2   3
ENDBRANCH   1   2
BRANCH   1  10
ATOM     10  C   UNL     1      19.635  52.893  17.795  1.00  0.00     0.000 C 
BRANCH  10  11
ATOM     11  C   UNL     1      19.725  54.306  18.397  1.00  0.00    -0.000 C 
BRANCH  11  12
ATOM     12  C   UNL     1      18.428  55.111  18.199  1.00  0.00    -0.000 C 
BRANCH  12  13
ATOM     13  C   UNL     1      18.689  56.585  17.838  1.00  0.00    -0.000 C 
BRANCH  13  14
ATOM     14  C   UNL     1      20.163  56.939  17.560  1.00  0.00    -0.000 C 
BRANCH  14  15
ATOM     15  C   UNL     1      20.567  56.937  16.072  1.00  0.00    -0.000 C 
BRANCH  15  16
ATOM     16  C   UNL     1      21.787  56.045  15.760  1.00  0.00    -0.003 C 
ATOM     17  C   UNL     1      22.860  56.109  16.845  1.00  0.00     0.004 C 
ENDBRANCH  15  16
ENDBRANCH  14  15
ENDBRANCH  13  14
ENDBRANCH  12  13
ENDBRANCH  11  12
ENDBRANCH  10  11
ENDBRANCH   1  10
TORSDOF 13
ENDMDL
MODEL 5
REMARK VINA RESULT:    -4.551      2.280      4.174
REMARK INTER + INTRA:         -10.207
REMARK INTER:                  -8.138
REMARK INTRA:                  -2.068
REMARK UNBOUND:                -2.197
REMARK SMILES CCCCCCCCCCCCCCC(=O)[O-]
REMARK SMILES IDX 9 1 10 2 11 3 12 4 13 5 14 6 15 7 16 8 17 9 8 10 7 11 6 12
REMARK SMILES IDX 5 13 4 14 3 15 2 16 1 17
REMARK H PARENT
REMARK Flexibility Score: inf
ROOT
ATOM      1  C   UNL     1      17.544  55.271  14.321  1.00  0.00     0.000 C 
ENDROOT
BRANCH   1   2
ATOM      2  C   UNL     1      18.364  54.508  13.269  1.00  0.00     0.000 C 
BRANCH   2   3
ATOM      3  C   UNL     1      19.681  53.948  13.835  1.00  0.00     0.000 C 
BRANCH   3   4
ATOM      4  C   UNL     1      19.453  52.979  15.008  1.00  0.00     0.000 C 
BRANCH   4   5
ATOM      5  C   UNL     1      20.608  52.999  16.022  1.00  0.00     0.006 C 
BRANCH   5   6
ATOM      6  C   UNL     1      21.408  54.300  15.916  1.00  0.00     0.053 C 
BRANCH   6   7
ATOM      7  C   UNL     1      21.016  55.245  17.009  1.00  0.00     0.041 C 
ATOM      8  O   UNL     1      20.249  54.863  17.932  1.00  0.00    -0.550 OA
ATOM      9  O   UNL     1      21.455  56.563  16.979  1.00  0.00    -0.550 OA
ENDBRANCH   6   7
ENDBRANCH   5   6
ENDBRANCH   4   5
ENDBRANCH   3   4
ENDBRANCH   2   3
ENDBRANCH   1   2
BRANCH   1  10
ATOM     10  C   UNL     1      18.352  56.390  15.003  1.00  0.00     0.000 C 
BRANCH  10  11
ATOM     11  C   UNL     1      17.656  56.934  16.261  1.00  0.00    -0.000 C 
BRANCH  11  12
ATOM     12  C   UNL     1      16.138  56.682  16.246  1.00  0.00    -0.000 C 
BRANCH  12  13
ATOM     13  C   UNL     1      15.553  56.474  17.656  1.00  0.00    -0.000 C 
BRANCH  13  14
ATOM     14  C   UNL     1      16.523  55.856  18.682  1.00  0.00    -0.000 C 
BRANCH  14  15
ATOM     15  C   UNL     1      16.353  54.342  18.915  1.00  0.00    -0.000 C 
BRANCH  15  16
ATOM     16  C   UNL     1      17.093  53.467  17.881  1.00  0.00    -0.003 C 
ATOM     17  C   UNL     1      16.161  52.896  16.814  1.00  0.00     0.004 C 
ENDBRANCH  15  16
ENDBRANCH  14  15
ENDBRANCH  13  14
ENDBRANCH  12  13
ENDBRANCH  11  12
ENDBRANCH  10  11
ENDBRANCH   1  10
TORSDOF 13
ENDMDL
MODEL 6
REMARK VINA RESULT:    -4.540      4.115      6.226
REMARK INTER + INTRA:         -10.188
REMARK INTER:                  -7.741
REMARK INTRA:                  -2.447
REMARK UNBOUND:                -2.197
REMARK SMILES CCCCCCCCCCCCCCC(=O)[O-]
REMARK SMILES IDX 9 1 10 2 11 3 12 4 13 5 14 6 15 7 16 8 17 9 8 10 7 11 6 12
REMARK SMILES IDX 5 13 4 14 3 15 2 16 1 17
REMARK H PARENT
REMARK Flexibility Score: inf
ROOT
ATOM      1  C   UNL     1      20.667  53.188  16.093  1.00  0.00     0.000 C 
ENDROOT
BRANCH   1   2
ATOM      2  C   UNL     1      20.246  53.029  17.562  1.00  0.00     0.000 C 
BRANCH   2   3
ATOM      3  C   UNL     1      18.717  52.996  17.740  1.00  0.00     0.000 C 
BRANCH   3   4
ATOM      4  C   UNL     1      18.290  53.182  19.206  1.00  0.00     0.000 C 
BRANCH   4   5
ATOM      5  C   UNL     1      17.006  54.015  19.345  1.00  0.00     0.006 C 
BRANCH   5   6
ATOM      6  C   UNL     1      16.077  53.795  18.148  1.00  0.00     0.053 C 
BRANCH   6   7
ATOM      7  C   UNL     1      15.146  54.954  17.988  1.00  0.00     0.041 C 
ATOM      8  O   UNL     1      14.651  55.220  16.861  1.00  0.00    -0.550 OA
ATOM      9  O   UNL     1      14.866  55.776  19.074  1.00  0.00    -0.550 OA
ENDBRANCH   6   7
ENDBRANCH   5   6
ENDBRANCH   4   5
ENDBRANCH   3   4
ENDBRANCH   2   3
ENDBRANCH   1   2
BRANCH   1  10
ATOM     10  C   UNL     1      19.482  53.051  15.120  1.00  0.00     0.000 C 
BRANCH  10  11
ATOM     11  C   UNL     1      19.597  54.002  13.917  1.00  0.00    -0.000 C 
BRANCH  11  12
ATOM     12  C   UNL     1      18.355  54.894  13.754  1.00  0.00    -0.000 C 
BRANCH  12  13
ATOM     13  C   UNL     1      17.741  55.316  15.102  1.00  0.00    -0.000 C 
BRANCH  13  14
ATOM     14  C   UNL     1      18.316  56.611  15.706  1.00  0.00    -0.000 C 
BRANCH  14  15
ATOM     15  C   UNL     1      18.334  56.664  17.246  1.00  0.00    -0.000 C 
BRANCH  15  16
ATOM     16  C   UNL     1      19.739  56.887  17.846  1.00  0.00    -0.003 C 
ATOM     17  C   UNL     1      20.853  56.756  16.808  1.00  0.00     0.004 C 
ENDBRANCH  15  16
ENDBRANCH  14  15
ENDBRANCH  13  14
ENDBRANCH  12  13
ENDBRANCH  11  12
ENDBRANCH  10  11
ENDBRANCH   1  10
TORSDOF 13
ENDMDL
MODEL 7
REMARK VINA RESULT:    -4.530      2.344      4.497
REMARK INTER + INTRA:         -10.169
REMARK INTER:                  -8.188
REMARK INTRA:                  -1.981
REMARK UNBOUND:                -2.197
REMARK SMILES CCCCCCCCCCCCCCC(=O)[O-]
REMARK SMILES IDX 9 1 10 2 11 3 12 4 13 5 14 6 15 7 16 8 17 9 8 10 7 11 6 12
REMARK SMILES IDX 5 13 4 14 3 15 2 16 1 17
REMARK H PARENT
REMARK Flexibility Score: inf
ROOT
ATOM      1  C   UNL     1      15.913  55.070  14.963  1.00  0.00     0.000 C 
ENDROOT
BRANCH   1   2
ATOM      2  C   UNL     1      16.492  54.864  13.555  1.00  0.00     0.000 C 
BRANCH   2   3
ATOM      3  C   UNL     1      17.969  55.284  13.454  1.00  0.00     0.000 C 
BRANCH   3   4
ATOM      4  C   UNL     1      18.933  54.108  13.683  1.00  0.00     0.000 C 
BRANCH   4   5
ATOM      5  C   UNL     1      19.953  54.389  14.797  1.00  0.00     0.006 C 
BRANCH   5   6
ATOM      6  C   UNL     1      20.483  53.083  15.397  1.00  0.00     0.053 C 
BRANCH   6   7
ATOM      7  C   UNL     1      21.345  53.366  16.586  1.00  0.00     0.041 C 
ATOM      8  O   UNL     1      20.854  53.342  17.745  1.00  0.00    -0.550 OA
ATOM      9  O   UNL     1      22.681  53.710  16.411  1.00  0.00    -0.550 OA
ENDBRANCH   6   7
ENDBRANCH   5   6
ENDBRANCH   4   5
ENDBRANCH   3   4
ENDBRANCH   2   3
ENDBRANCH   1   2
BRANCH   1  10
ATOM     10  C   UNL     1      15.265  53.793  15.528  1.00  0.00     0.000 C 
BRANCH  10  11
ATOM     11  C   UNL     1      15.685  53.514  16.981  1.00  0.00    -0.000 C 
BRANCH  11  12
ATOM     12  C   UNL     1      17.213  53.475  17.152  1.00  0.00    -0.000 C 
BRANCH  12  13
ATOM     13  C   UNL     1      17.718  54.431  18.249  1.00  0.00    -0.000 C 
BRANCH  13  14
ATOM     14  C   UNL     1      17.281  55.900  18.086  1.00  0.00    -0.000 C 
BRANCH  14  15
ATOM     15  C   UNL     1      18.247  56.784  17.273  1.00  0.00    -0.000 C 
BRANCH  15  16
ATOM     16  C   UNL     1      19.527  57.177  18.040  1.00  0.00    -0.003 C 
ATOM     17  C   UNL     1      20.799  56.947  17.225  1.00  0.00     0.004 C 
ENDBRANCH  15  16
ENDBRANCH  14  15
ENDBRANCH  13  14
ENDBRANCH  12  13
ENDBRANCH  11  12
ENDBRANCH  10  11
ENDBRANCH   1  10
TORSDOF 13
ENDMDL
MODEL 8
REMARK VINA RESULT:    -4.487      1.846      4.162
REMARK INTER + INTRA:         -10.094
REMARK INTER:                  -7.941
REMARK INTRA:                  -2.152
REMARK UNBOUND:                -2.197
REMARK SMILES CCCCCCCCCCCCCCC(=O)[O-]
REMARK SMILES IDX 9 1 10 2 11 3 12 4 13 5 14 6 15 7 16 8 17 9 8 10 7 11 6 12
REMARK SMILES IDX 5 13 4 14 3 15 2 16 1 17
REMARK H PARENT
REMARK Flexibility Score: inf
ROOT
ATOM      1  C   UNL     1      17.557  53.833  17.917  1.00  0.00     0.000 C 
ENDROOT
BRANCH   1   2
ATOM      2  C   UNL     1      17.957  52.718  16.938  1.00  0.00     0.000 C 
BRANCH   2   3
ATOM      3  C   UNL     1      19.473  52.678  16.673  1.00  0.00     0.000 C 
BRANCH   3   4
ATOM      4  C   UNL     1      19.817  52.895  15.190  1.00  0.00     0.000 C 
BRANCH   4   5
ATOM      5  C   UNL     1      20.673  54.151  14.961  1.00  0.00     0.006 C 
BRANCH   5   6
ATOM      6  C   UNL     1      21.688  54.336  16.093  1.00  0.00     0.053 C 
BRANCH   6   7
ATOM      7  C   UNL     1      21.918  55.791  16.356  1.00  0.00     0.041 C 
ATOM      8  O   UNL     1      22.958  56.170  16.956  1.00  0.00    -0.550 OA
ATOM      9  O   UNL     1      20.959  56.725  15.984  1.00  0.00    -0.550 OA
ENDBRANCH   6   7
ENDBRANCH   5   6
ENDBRANCH   4   5
ENDBRANCH   3   4
ENDBRANCH   2   3
ENDBRANCH   1   2
BRANCH   1  10
ATOM     10  C   UNL     1      18.446  55.083  17.784  1.00  0.00     0.000 C 
BRANCH  10  11
ATOM     11  C   UNL     1      17.677  56.384  18.070  1.00  0.00    -0.000 C 
BRANCH  11  12
ATOM     12  C   UNL     1      16.171  56.247  17.791  1.00  0.00    -0.000 C 
BRANCH  12  13
ATOM     13  C   UNL     1      15.801  56.569  16.331  1.00  0.00    -0.000 C 
BRANCH  13  14
ATOM     14  C   UNL     1      15.031  55.457  15.591  1.00  0.00    -0.000 C 
BRANCH  14  15
ATOM     15  C   UNL     1      15.840  54.703  14.518  1.00  0.00    -0.000 C 
BRANCH  15  16
ATOM     16  C   UNL     1      17.236  55.307  14.252  1.00  0.00    -0.003 C 
ATOM     17  C   UNL     1      17.754  55.003  12.847  1.00  0.00     0.004 C 
ENDBRANCH  15  16
ENDBRANCH  14  15
ENDBRANCH  13  14
ENDBRANCH  12  13
ENDBRANCH  11  12
ENDBRANCH  10  11
ENDBRANCH   1  10
TORSDOF 13
ENDMDL
MODEL 9
REMARK VINA RESULT:    -4.414      4.140      6.144
REMARK INTER + INTRA:          -9.966
REMARK INTER:                  -7.951
REMARK INTRA:                  -2.016
REMARK UNBOUND:                -2.197
REMARK SMILES CCCCCCCCCCCCCCC(=O)[O-]
REMARK SMILES IDX 9 1 10 2 11 3 12 4 13 5 14 6 15 7 16 8 17 9 8 10 7 11 6 12
REMARK SMILES IDX 5 13 4 14 3 15 2 16 1 17
REMARK H PARENT
REMARK Flexibility Score: inf
ROOT
ATOM      1  C   UNL     1      20.252  56.767  16.060  1.00  0.00     0.000 C 
ENDROOT
BRANCH   1   2
ATOM      2  C   UNL     1      19.873  56.988  17.533  1.00  0.00     0.000 C 
BRANCH   2   3
ATOM      3  C   UNL     1      18.810  55.991  18.028  1.00  0.00     0.000 C 
BRANCH   3   4
ATOM      4  C   UNL     1      17.385  56.395  17.616  1.00  0.00     0.000 C 
BRANCH   4   5
ATOM      5  C   UNL     1      16.384  55.234  17.737  1.00  0.00     0.006 C 
BRANCH   5   6
ATOM      6  C   UNL     1      14.952  55.759  17.873  1.00  0.00     0.053 C 
BRANCH   6   7
ATOM      7  C   UNL     1      14.416  56.167  16.537  1.00  0.00     0.041 C 
ATOM      8  O   UNL     1      14.106  55.294  15.684  1.00  0.00    -0.550 OA
ATOM      9  O   UNL     1      14.309  57.515  16.214  1.00  0.00    -0.550 OA
ENDBRANCH   6   7
ENDBRANCH   5   6
ENDBRANCH   4   5
ENDBRANCH   3   4
ENDBRANCH   2   3
ENDBRANCH   1   2
BRANCH   1  10
ATOM     10  C   UNL     1      21.688  56.237  15.893  1.00  0.00     0.000 C 
BRANCH  10  11
ATOM     11  C   UNL     1      21.935  54.948  16.694  1.00  0.00    -0.000 C 
BRANCH  11  12
ATOM     12  C   UNL     1      21.595  53.683  15.887  1.00  0.00    -0.000 C 
BRANCH  12  13
ATOM     13  C   UNL     1      20.259  53.044  16.312  1.00  0.00    -0.000 C 
BRANCH  13  14
ATOM     14  C   UNL     1      19.089  53.264  15.335  1.00  0.00    -0.000 C 
BRANCH  14  15
ATOM     15  C   UNL     1      19.493  53.753  13.930  1.00  0.00    -0.000 C 
BRANCH  15  16
ATOM     16  C   UNL     1      18.411  54.604  13.231  1.00  0.00    -0.003 C 
ATOM     17  C   UNL     1      17.365  55.146  14.204  1.00  0.00     0.004 C 
ENDBRANCH  15  16
ENDBRANCH  14  15
ENDBRANCH  13  14
ENDBRANCH  12  13
ENDBRANCH  11  12
ENDBRANCH  10  11
ENDBRANCH   1  10
TORSDOF 13
ENDMDL
