MODEL 1
REMARK VINA RESULT:    -5.390      0.000      0.000
REMARK INTER + INTRA:          -7.427
REMARK INTER:                  -6.808
REMARK INTRA:                  -0.619
REMARK UNBOUND:                -0.619
REMARK SMILES Oc1ccc(CCc2cc(O)cc(O)c2)cc1
REMARK SMILES IDX 6 1 5 2 4 3 3 4 2 5 16 6 17 7 1 8 7 10 8 11 15 12 9 13 13 14
REMARK SMILES IDX 10 15 12 16 14 17 11 19
REMARK H PARENT 1 9 14 18 11 20
REMARK Flexibility Score: inf
ROOT
ATOM      1  C   UNL     1     170.655 178.707 188.755  1.00  0.00     0.040 C 
ENDROOT
BRANCH   1   2
ATOM      2  C   UNL     1     172.122 178.762 188.421  1.00  0.00    -0.047 A 
ATOM      3  C   UNL     1     172.725 177.714 187.708  1.00  0.00     0.007 A 
ATOM      4  C   UNL     1     174.080 177.780 187.368  1.00  0.00     0.046 A 
ATOM      5  C   UNL     1     174.841 178.901 187.729  1.00  0.00     0.115 A 
ATOM      6  C   UNL     1     172.885 179.888 188.768  1.00  0.00     0.007 A 
ATOM      7  C   UNL     1     174.240 179.953 188.428  1.00  0.00     0.046 A 
BRANCH   5   8
ATOM      8  O   UNL     1     176.192 178.979 187.398  1.00  0.00    -0.508 OA
ATOM      9  H   UNL     1     176.513 178.837 186.447  1.00  0.00     0.293 HD
ENDBRANCH   5   8
ENDBRANCH   1   2
BRANCH   1  10
ATOM     10  C   UNL     1     169.972 180.031 188.402  1.00  0.00     0.040 C 
BRANCH  10  11
ATOM     11  C   UNL     1     169.208 179.906 187.111  1.00  0.00    -0.040 A 
ATOM     12  C   UNL     1     169.868 180.058 185.880  1.00  0.00     0.050 A 
ATOM     13  C   UNL     1     167.842 179.579 187.126  1.00  0.00     0.050 A 
ATOM     14  C   UNL     1     169.164 179.907 184.677  1.00  0.00     0.119 A 
ATOM     15  C   UNL     1     167.138 179.429 185.927  1.00  0.00     0.119 A 
ATOM     16  C   UNL     1     167.801 179.596 184.703  1.00  0.00     0.092 A 
BRANCH  14  17
ATOM     17  O   UNL     1     169.810 180.063 183.453  1.00  0.00    -0.508 OA
ATOM     18  H   UNL     1     169.301 180.314 182.614  1.00  0.00     0.293 HD
ENDBRANCH  14  17
BRANCH  15  19
ATOM     19  O   UNL     1     165.782 179.111 185.962  1.00  0.00    -0.508 OA
ATOM     20  H   UNL     1     165.266 179.086 186.834  1.00  0.00     0.293 HD
ENDBRANCH  15  19
ENDBRANCH  10  11
ENDBRANCH   1  10
TORSDOF 6
ENDMDL
MODEL 2
REMARK VINA RESULT:    -5.355      1.669      2.923
REMARK INTER + INTRA:          -7.383
REMARK INTER:                  -6.873
REMARK INTRA:                  -0.510
REMARK UNBOUND:                -0.619
REMARK SMILES Oc1ccc(CCc2cc(O)cc(O)c2)cc1
REMARK SMILES IDX 6 1 5 2 4 3 3 4 2 5 16 6 17 7 1 8 7 10 8 11 15 12 9 13 13 14
REMARK SMILES IDX 10 15 12 16 14 17 11 19
REMARK H PARENT 1 9 14 18 11 20
REMARK Flexibility Score: inf
ROOT
ATOM      1  C   UNL     1     171.465 179.797 188.637  1.00  0.00     0.040 C 
ENDROOT
BRANCH   1   2
ATOM      2  C   UNL     1     172.733 179.185 188.107  1.00  0.00    -0.047 A 
ATOM      3  C   UNL     1     173.924 179.928 188.089  1.00  0.00     0.007 A 
ATOM      4  C   UNL     1     175.110 179.349 187.628  1.00  0.00     0.046 A 
ATOM      5  C   UNL     1     175.118 178.017 187.190  1.00  0.00     0.115 A 
ATOM      6  C   UNL     1     172.749 177.847 187.680  1.00  0.00     0.007 A 
ATOM      7  C   UNL     1     173.936 177.269 187.219  1.00  0.00     0.046 A 
BRANCH   5   8
ATOM      8  O   UNL     1     176.293 177.428 186.727  1.00  0.00    -0.508 OA
ATOM      9  H   UNL     1     176.385 177.111 185.769  1.00  0.00     0.293 HD
ENDBRANCH   5   8
ENDBRANCH   1   2
BRANCH   1  10
ATOM     10  C   UNL     1     170.505 180.125 187.490  1.00  0.00     0.040 C 
BRANCH  10  11
ATOM     11  C   UNL     1     169.167 179.472 187.716  1.00  0.00    -0.040 A 
ATOM     12  C   UNL     1     168.910 178.780 188.911  1.00  0.00     0.050 A 
ATOM     13  C   UNL     1     168.147 179.599 186.759  1.00  0.00     0.050 A 
ATOM     14  C   UNL     1     167.654 178.201 189.137  1.00  0.00     0.119 A 
ATOM     15  C   UNL     1     166.893 179.021 186.982  1.00  0.00     0.119 A 
ATOM     16  C   UNL     1     166.649 178.320 188.171  1.00  0.00     0.092 A 
BRANCH  14  17
ATOM     17  O   UNL     1     167.394 177.508 190.317  1.00  0.00    -0.508 OA
ATOM     18  H   UNL     1     168.070 177.473 191.071  1.00  0.00     0.293 HD
ENDBRANCH  14  17
BRANCH  15  19
ATOM     19  O   UNL     1     165.896 179.152 186.018  1.00  0.00    -0.508 OA
ATOM     20  H   UNL     1     165.707 180.040 185.568  1.00  0.00     0.293 HD
ENDBRANCH  15  19
ENDBRANCH  10  11
ENDBRANCH   1  10
TORSDOF 6
ENDMDL
MODEL 3
REMARK VINA RESULT:    -5.320      1.635      2.443
REMARK INTER + INTRA:          -7.339
REMARK INTER:                  -6.822
REMARK INTRA:                  -0.517
REMARK UNBOUND:                -0.619
REMARK SMILES Oc1ccc(CCc2cc(O)cc(O)c2)cc1
REMARK SMILES IDX 6 1 5 2 4 3 3 4 2 5 16 6 17 7 1 8 7 10 8 11 15 12 9 13 13 14
REMARK SMILES IDX 10 15 12 16 14 17 11 19
REMARK H PARENT 1 9 14 18 11 20
REMARK Flexibility Score: inf
ROOT
ATOM      1  C   UNL     1     171.418 179.888 188.619  1.00  0.00     0.040 C 
ENDROOT
BRANCH   1   2
ATOM      2  C   UNL     1     172.709 179.247 188.184  1.00  0.00    -0.047 A 
ATOM      3  C   UNL     1     172.720 177.920 187.727  1.00  0.00     0.007 A 
ATOM      4  C   UNL     1     173.914 177.335 187.292  1.00  0.00     0.046 A 
ATOM      5  C   UNL     1     175.104 178.075 187.300  1.00  0.00     0.115 A 
ATOM      6  C   UNL     1     173.901 179.989 188.179  1.00  0.00     0.007 A 
ATOM      7  C   UNL     1     175.094 179.402 187.743  1.00  0.00     0.046 A 
BRANCH   5   8
ATOM      8  O   UNL     1     176.300 177.504 186.870  1.00  0.00    -0.508 OA
ATOM      9  H   UNL     1     176.784 177.845 186.047  1.00  0.00     0.293 HD
ENDBRANCH   5   8
ENDBRANCH   1   2
BRANCH   1  10
ATOM     10  C   UNL     1     170.502 180.125 187.415  1.00  0.00     0.040 C 
BRANCH  10  11
ATOM     11  C   UNL     1     169.142 179.530 187.660  1.00  0.00    -0.040 A 
ATOM     12  C   UNL     1     168.154 179.586 186.663  1.00  0.00     0.050 A 
ATOM     13  C   UNL     1     168.867 178.863 188.866  1.00  0.00     0.050 A 
ATOM     14  C   UNL     1     166.898 179.002 186.877  1.00  0.00     0.119 A 
ATOM     15  C   UNL     1     167.614 178.280 189.082  1.00  0.00     0.119 A 
ATOM     16  C   UNL     1     166.630 178.354 188.087  1.00  0.00     0.092 A 
BRANCH  14  17
ATOM     17  O   UNL     1     165.912 179.060 185.895  1.00  0.00    -0.508 OA
ATOM     18  H   UNL     1     166.035 178.612 184.995  1.00  0.00     0.293 HD
ENDBRANCH  14  17
BRANCH  15  19
ATOM     19  O   UNL     1     167.359 177.629 190.287  1.00  0.00    -0.508 OA
ATOM     20  H   UNL     1     166.511 177.092 190.429  1.00  0.00     0.293 HD
ENDBRANCH  15  19
ENDBRANCH  10  11
ENDBRANCH   1  10
TORSDOF 6
ENDMDL
MODEL 4
REMARK VINA RESULT:    -5.293      0.075      2.350
REMARK INTER + INTRA:          -7.304
REMARK INTER:                  -6.702
REMARK INTRA:                  -0.602
REMARK UNBOUND:                -0.619
REMARK SMILES Oc1ccc(CCc2cc(O)cc(O)c2)cc1
REMARK SMILES IDX 6 1 5 2 4 3 3 4 2 5 16 6 17 7 1 8 7 10 8 11 15 12 9 13 13 14
REMARK SMILES IDX 10 15 12 16 14 17 11 19
REMARK H PARENT 1 9 14 18 11 20
REMARK Flexibility Score: inf
ROOT
ATOM      1  C   UNL     1     170.698 178.689 188.770  1.00  0.00     0.040 C 
ENDROOT
BRANCH   1   2
ATOM      2  C   UNL     1     172.151 178.785 188.389  1.00  0.00    -0.047 A 
ATOM      3  C   UNL     1     172.927 179.870 188.827  1.00  0.00     0.007 A 
ATOM      4  C   UNL     1     174.285 179.943 188.500  1.00  0.00     0.046 A 
ATOM      5  C   UNL     1     174.882 178.925 187.742  1.00  0.00     0.115 A 
ATOM      6  C   UNL     1     172.756 177.762 187.641  1.00  0.00     0.007 A 
ATOM      7  C   UNL     1     174.114 177.836 187.316  1.00  0.00     0.046 A 
BRANCH   5   8
ATOM      8  O   UNL     1     176.233 178.986 187.410  1.00  0.00    -0.508 OA
ATOM      9  H   UNL     1     176.538 179.125 186.453  1.00  0.00     0.293 HD
ENDBRANCH   5   8
ENDBRANCH   1   2
BRANCH   1  10
ATOM     10  C   UNL     1     169.958 179.976 188.399  1.00  0.00     0.040 C 
BRANCH  10  11
ATOM     11  C   UNL     1     169.221 179.807 187.098  1.00  0.00    -0.040 A 
ATOM     12  C   UNL     1     167.855 179.481 187.094  1.00  0.00     0.050 A 
ATOM     13  C   UNL     1     169.880 180.028 185.877  1.00  0.00     0.050 A 
ATOM     14  C   UNL     1     167.160 179.356 185.883  1.00  0.00     0.119 A 
ATOM     15  C   UNL     1     169.189 179.904 184.667  1.00  0.00     0.119 A 
ATOM     16  C   UNL     1     167.829 179.565 184.673  1.00  0.00     0.092 A 
BRANCH  14  17
ATOM     17  O   UNL     1     165.807 179.028 185.872  1.00  0.00    -0.508 OA
ATOM     18  H   UNL     1     165.103 179.690 185.566  1.00  0.00     0.293 HD
ENDBRANCH  14  17
BRANCH  15  19
ATOM     19  O   UNL     1     169.861 180.122 183.467  1.00  0.00    -0.508 OA
ATOM     20  H   UNL     1     169.632 180.905 182.866  1.00  0.00     0.293 HD
ENDBRANCH  15  19
ENDBRANCH  10  11
ENDBRANCH   1  10
TORSDOF 6
ENDMDL
MODEL 5
REMARK VINA RESULT:    -5.037      9.235     12.142
REMARK INTER + INTRA:          -6.981
REMARK INTER:                  -6.329
REMARK INTRA:                  -0.652
REMARK UNBOUND:                -0.619
REMARK SMILES Oc1ccc(CCc2cc(O)cc(O)c2)cc1
REMARK SMILES IDX 6 1 5 2 4 3 3 4 2 5 16 6 17 7 1 8 7 10 8 11 15 12 9 13 13 14
REMARK SMILES IDX 10 15 12 16 14 17 11 19
REMARK H PARENT 1 9 14 18 11 20
REMARK Flexibility Score: inf
ROOT
ATOM      1  C   UNL     1     178.484 171.166 188.529  1.00  0.00     0.040 C 
ENDROOT
BRANCH   1   2
ATOM      2  C   UNL     1     178.683 169.747 188.066  1.00  0.00    -0.047 A 
ATOM      3  C   UNL     1     177.640 169.059 187.426  1.00  0.00     0.007 A 
ATOM      4  C   UNL     1     177.836 167.753 186.966  1.00  0.00     0.046 A 
ATOM      5  C   UNL     1     179.080 167.127 187.132  1.00  0.00     0.115 A 
ATOM      6  C   UNL     1     179.931 169.121 188.218  1.00  0.00     0.007 A 
ATOM      7  C   UNL     1     180.125 167.815 187.758  1.00  0.00     0.046 A 
BRANCH   5   8
ATOM      8  O   UNL     1     179.287 165.826 186.679  1.00  0.00    -0.508 OA
ATOM      9  H   UNL     1     179.673 165.641 185.760  1.00  0.00     0.293 HD
ENDBRANCH   5   8
ENDBRANCH   1   2
BRANCH   1  10
ATOM     10  C   UNL     1     179.669 172.040 188.110  1.00  0.00     0.040 C 
BRANCH  10  11
ATOM     11  C   UNL     1     179.337 172.822 186.867  1.00  0.00    -0.040 A 
ATOM     12  C   UNL     1     179.689 172.324 185.602  1.00  0.00     0.050 A 
ATOM     13  C   UNL     1     178.621 174.027 186.959  1.00  0.00     0.050 A 
ATOM     14  C   UNL     1     179.351 173.035 184.442  1.00  0.00     0.119 A 
ATOM     15  C   UNL     1     178.282 174.738 185.804  1.00  0.00     0.119 A 
ATOM     16  C   UNL     1     178.651 174.241 184.546  1.00  0.00     0.092 A 
BRANCH  14  17
ATOM     17  O   UNL     1     179.703 172.551 183.185  1.00  0.00    -0.508 OA
ATOM     18  H   UNL     1     179.433 171.622 182.880  1.00  0.00     0.293 HD
ENDBRANCH  14  17
BRANCH  15  19
ATOM     19  O   UNL     1     177.578 175.935 185.915  1.00  0.00    -0.508 OA
ATOM     20  H   UNL     1     177.478 176.566 185.129  1.00  0.00     0.293 HD
ENDBRANCH  15  19
ENDBRANCH  10  11
ENDBRANCH   1  10
TORSDOF 6
ENDMDL
MODEL 6
REMARK VINA RESULT:    -5.017      9.211     12.205
REMARK INTER + INTRA:          -6.956
REMARK INTER:                  -6.307
REMARK INTRA:                  -0.649
REMARK UNBOUND:                -0.619
REMARK SMILES Oc1ccc(CCc2cc(O)cc(O)c2)cc1
REMARK SMILES IDX 6 1 5 2 4 3 3 4 2 5 16 6 17 7 1 8 7 10 8 11 15 12 9 13 13 14
REMARK SMILES IDX 10 15 12 16 14 17 11 19
REMARK H PARENT 1 9 14 18 11 20
REMARK Flexibility Score: inf
ROOT
ATOM      1  C   UNL     1     178.414 171.136 188.560  1.00  0.00     0.040 C 
ENDROOT
BRANCH   1   2
ATOM      2  C   UNL     1     178.639 169.729 188.078  1.00  0.00    -0.047 A 
ATOM      3  C   UNL     1     177.602 169.024 187.445  1.00  0.00     0.007 A 
ATOM      4  C   UNL     1     177.821 167.727 186.967  1.00  0.00     0.046 A 
ATOM      5  C   UNL     1     179.081 167.129 187.108  1.00  0.00     0.115 A 
ATOM      6  C   UNL     1     179.902 169.130 188.205  1.00  0.00     0.007 A 
ATOM      7  C   UNL     1     180.119 167.834 187.726  1.00  0.00     0.046 A 
BRANCH   5   8
ATOM      8  O   UNL     1     179.311 165.838 186.636  1.00  0.00    -0.508 OA
ATOM      9  H   UNL     1     178.547 165.208 186.424  1.00  0.00     0.293 HD
ENDBRANCH   5   8
ENDBRANCH   1   2
BRANCH   1  10
ATOM     10  C   UNL     1     179.576 172.041 188.143  1.00  0.00     0.040 C 
BRANCH  10  11
ATOM     11  C   UNL     1     179.229 172.809 186.896  1.00  0.00    -0.040 A 
ATOM     12  C   UNL     1     178.567 174.045 186.986  1.00  0.00     0.050 A 
ATOM     13  C   UNL     1     179.613 172.324 185.635  1.00  0.00     0.050 A 
ATOM     14  C   UNL     1     178.273 174.777 185.828  1.00  0.00     0.119 A 
ATOM     15  C   UNL     1     179.321 173.052 184.477  1.00  0.00     0.119 A 
ATOM     16  C   UNL     1     178.647 174.277 184.576  1.00  0.00     0.092 A 
BRANCH  14  17
ATOM     17  O   UNL     1     177.611 175.999 185.910  1.00  0.00    -0.508 OA
ATOM     18  H   UNL     1     177.390 176.423 186.804  1.00  0.00     0.293 HD
ENDBRANCH  14  17
BRANCH  15  19
ATOM     19  O   UNL     1     179.705 172.551 183.236  1.00  0.00    -0.508 OA
ATOM     20  H   UNL     1     179.970 173.166 182.475  1.00  0.00     0.293 HD
ENDBRANCH  15  19
ENDBRANCH  10  11
ENDBRANCH   1  10
TORSDOF 6
ENDMDL
MODEL 7
REMARK VINA RESULT:    -4.988      8.883     12.038
REMARK INTER + INTRA:          -6.920
REMARK INTER:                  -6.479
REMARK INTRA:                  -0.441
REMARK UNBOUND:                -0.619
REMARK SMILES Oc1ccc(CCc2cc(O)cc(O)c2)cc1
REMARK SMILES IDX 6 1 5 2 4 3 3 4 2 5 16 6 17 7 1 8 7 10 8 11 15 12 9 13 13 14
REMARK SMILES IDX 10 15 12 16 14 17 11 19
REMARK H PARENT 1 9 14 18 11 20
REMARK Flexibility Score: inf
ROOT
ATOM      1  C   UNL     1     179.137 170.432 188.524  1.00  0.00     0.040 C 
ENDROOT
BRANCH   1   2
ATOM      2  C   UNL     1     179.027 169.054 187.928  1.00  0.00    -0.047 A 
ATOM      3  C   UNL     1     180.125 168.179 187.964  1.00  0.00     0.007 A 
ATOM      4  C   UNL     1     180.013 166.887 187.440  1.00  0.00     0.046 A 
ATOM      5  C   UNL     1     178.800 166.455 186.885  1.00  0.00     0.115 A 
ATOM      6  C   UNL     1     177.811 168.613 187.383  1.00  0.00     0.007 A 
ATOM      7  C   UNL     1     177.701 167.321 186.859  1.00  0.00     0.046 A 
BRANCH   5   8
ATOM      8  O   UNL     1     178.676 165.171 186.359  1.00  0.00    -0.508 OA
ATOM      9  H   UNL     1     178.103 164.467 186.810  1.00  0.00     0.293 HD
ENDBRANCH   5   8
ENDBRANCH   1   2
BRANCH   1  10
ATOM     10  C   UNL     1     179.487 171.459 187.445  1.00  0.00     0.040 C 
BRANCH  10  11
ATOM     11  C   UNL     1     178.707 172.730 187.650  1.00  0.00    -0.040 A 
ATOM     12  C   UNL     1     178.674 173.711 186.645  1.00  0.00     0.050 A 
ATOM     13  C   UNL     1     177.960 172.921 188.824  1.00  0.00     0.050 A 
ATOM     14  C   UNL     1     177.921 174.880 186.822  1.00  0.00     0.119 A 
ATOM     15  C   UNL     1     177.208 174.086 189.003  1.00  0.00     0.119 A 
ATOM     16  C   UNL     1     177.192 175.066 188.001  1.00  0.00     0.092 A 
BRANCH  14  17
ATOM     17  O   UNL     1     177.888 175.860 185.833  1.00  0.00    -0.508 OA
ATOM     18  H   UNL     1     177.650 175.636 184.874  1.00  0.00     0.293 HD
ENDBRANCH  14  17
BRANCH  15  19
ATOM     19  O   UNL     1     176.479 174.259 190.177  1.00  0.00    -0.508 OA
ATOM     20  H   UNL     1     176.153 175.174 190.468  1.00  0.00     0.293 HD
ENDBRANCH  15  19
ENDBRANCH  10  11
ENDBRANCH   1  10
TORSDOF 6
ENDMDL
MODEL 8
REMARK VINA RESULT:    -4.962      1.717      6.131
REMARK INTER + INTRA:          -6.886
REMARK INTER:                  -6.320
REMARK INTRA:                  -0.567
REMARK UNBOUND:                -0.619
REMARK SMILES Oc1ccc(CCc2cc(O)cc(O)c2)cc1
REMARK SMILES IDX 6 1 5 2 4 3 3 4 2 5 16 6 17 7 1 8 7 10 8 11 15 12 9 13 13 14
REMARK SMILES IDX 10 15 12 16 14 17 11 19
REMARK H PARENT 1 9 14 18 11 20
REMARK Flexibility Score: inf
ROOT
ATOM      1  C   UNL     1     171.240 180.120 188.324  1.00  0.00     0.040 C 
ENDROOT
BRANCH   1   2
ATOM      2  C   UNL     1     169.903 179.867 187.683  1.00  0.00    -0.047 A 
ATOM      3  C   UNL     1     168.757 179.702 188.477  1.00  0.00     0.007 A 
ATOM      4  C   UNL     1     167.508 179.500 187.880  1.00  0.00     0.046 A 
ATOM      5  C   UNL     1     167.393 179.471 186.483  1.00  0.00     0.115 A 
ATOM      6  C   UNL     1     169.780 179.850 186.284  1.00  0.00     0.007 A 
ATOM      7  C   UNL     1     168.531 179.648 185.688  1.00  0.00     0.046 A 
BRANCH   5   8
ATOM      8  O   UNL     1     166.155 179.270 185.876  1.00  0.00    -0.508 OA
ATOM      9  H   UNL     1     165.425 178.732 186.328  1.00  0.00     0.293 HD
ENDBRANCH   5   8
ENDBRANCH   1   2
BRANCH   1  10
ATOM     10  C   UNL     1     171.904 178.800 188.725  1.00  0.00     0.040 C 
BRANCH  10  11
ATOM     11  C   UNL     1     172.830 178.322 187.639  1.00  0.00    -0.040 A 
ATOM     12  C   UNL     1     173.176 176.964 187.549  1.00  0.00     0.050 A 
ATOM     13  C   UNL     1     173.311 179.220 186.672  1.00  0.00     0.050 A 
ATOM     14  C   UNL     1     174.012 176.512 186.519  1.00  0.00     0.119 A 
ATOM     15  C   UNL     1     174.145 178.773 185.642  1.00  0.00     0.119 A 
ATOM     16  C   UNL     1     174.496 177.418 185.570  1.00  0.00     0.092 A 
BRANCH  14  17
ATOM     17  O   UNL     1     174.364 175.168 186.428  1.00  0.00    -0.508 OA
ATOM     18  H   UNL     1     173.957 174.560 185.727  1.00  0.00     0.293 HD
ENDBRANCH  14  17
BRANCH  15  19
ATOM     19  O   UNL     1     174.616 179.680 184.697  1.00  0.00    -0.508 OA
ATOM     20  H   UNL     1     175.570 179.643 184.356  1.00  0.00     0.293 HD
ENDBRANCH  15  19
ENDBRANCH  10  11
ENDBRANCH   1  10
TORSDOF 6
ENDMDL
MODEL 9
REMARK VINA RESULT:    -4.752      8.999     12.308
REMARK INTER + INTRA:          -6.622
REMARK INTER:                  -6.145
REMARK INTRA:                  -0.476
REMARK UNBOUND:                -0.619
REMARK SMILES Oc1ccc(CCc2cc(O)cc(O)c2)cc1
REMARK SMILES IDX 6 1 5 2 4 3 3 4 2 5 16 6 17 7 1 8 7 10 8 11 15 12 9 13 13 14
REMARK SMILES IDX 10 15 12 16 14 17 11 19
REMARK H PARENT 1 9 14 18 11 20
REMARK Flexibility Score: inf
ROOT
ATOM      1  C   UNL     1     179.251 170.312 188.614  1.00  0.00     0.040 C 
ENDROOT
BRANCH   1   2
ATOM      2  C   UNL     1     179.072 168.941 188.020  1.00  0.00    -0.047 A 
ATOM      3  C   UNL     1     177.870 168.599 187.380  1.00  0.00     0.007 A 
ATOM      4  C   UNL     1     177.715 167.336 186.800  1.00  0.00     0.046 A 
ATOM      5  C   UNL     1     178.765 166.408 186.844  1.00  0.00     0.115 A 
ATOM      6  C   UNL     1     180.125 168.012 188.050  1.00  0.00     0.007 A 
ATOM      7  C   UNL     1     179.968 166.750 187.469  1.00  0.00     0.046 A 
BRANCH   5   8
ATOM      8  O   UNL     1     178.623 165.146 186.270  1.00  0.00    -0.508 OA
ATOM      9  H   UNL     1     178.107 165.012 185.407  1.00  0.00     0.293 HD
ENDBRANCH   5   8
ENDBRANCH   1   2
BRANCH   1  10
ATOM     10  C   UNL     1     179.706 171.307 187.543  1.00  0.00     0.040 C 
BRANCH  10  11
ATOM     11  C   UNL     1     178.869 172.557 187.592  1.00  0.00    -0.040 A 
ATOM     12  C   UNL     1     178.012 172.794 188.679  1.00  0.00     0.050 A 
ATOM     13  C   UNL     1     178.980 173.524 186.579  1.00  0.00     0.050 A 
ATOM     14  C   UNL     1     177.257 173.973 188.742  1.00  0.00     0.119 A 
ATOM     15  C   UNL     1     178.228 174.701 186.639  1.00  0.00     0.119 A 
ATOM     16  C   UNL     1     177.365 174.922 187.721  1.00  0.00     0.092 A 
BRANCH  14  17
ATOM     17  O   UNL     1     176.400 174.211 189.814  1.00  0.00    -0.508 OA
ATOM     18  H   UNL     1     176.155 175.152 190.097  1.00  0.00     0.293 HD
ENDBRANCH  14  17
BRANCH  15  19
ATOM     19  O   UNL     1     178.348 175.645 185.622  1.00  0.00    -0.508 OA
ATOM     20  H   UNL     1     178.708 176.575 185.802  1.00  0.00     0.293 HD
ENDBRANCH  15  19
ENDBRANCH  10  11
ENDBRANCH   1  10
TORSDOF 6
ENDMDL
