MODEL 1
REMARK VINA RESULT:    -4.083      0.000      0.000
REMARK INTER + INTRA:          -6.263
REMARK INTER:                  -6.232
REMARK INTRA:                  -0.032
REMARK UNBOUND:                -0.032
REMARK SMILES CC1=CCC[C@@H](C)C(=O)C[C@@H](C(C)C)C(=O)C1
REMARK SMILES IDX 8 1 9 2 6 3 7 4 5 5 4 6 3 7 2 8 1 9 10 11 11 12 15 13 16 14
REMARK SMILES IDX 17 15 12 17 13 18 14 19
REMARK H PARENT
REMARK Flexibility Score: 70.00
ROOT
ATOM      1  C   UNL     1     137.134 184.631 191.126  1.00  0.00     0.136 C 
ATOM      2  O   UNL     1     137.784 184.190 192.063  1.00  0.00    -0.299 OA
ENDROOT
BRANCH   1   3
ATOM      3  C   UNL     1     136.762 186.101 191.102  1.00  0.00     0.053 C 
ATOM      4  C   UNL     1     138.038 186.945 191.041  1.00  0.00     0.016 C 
BRANCH   3   5
ATOM      5  C   UNL     1     135.908 186.511 192.327  1.00  0.00     0.015 C 
BRANCH   5   6
ATOM      6  C   UNL     1     134.400 186.273 192.155  1.00  0.00     0.028 C 
BRANCH   6   7
ATOM      7  C   UNL     1     133.903 185.177 193.068  1.00  0.00    -0.028 C 
ATOM      8  C   UNL     1     133.354 184.010 192.658  1.00  0.00    -0.070 CG0
ATOM      9  C   UNL     1     132.898 183.033 193.712  1.00  0.00     0.039 C 
ATOM     10  G   UNL     1     133.171 183.653 191.194  1.00  0.00     0.000 G0
ENDBRANCH   6   7
ENDBRANCH   5   6
ENDBRANCH   3   5
ENDBRANCH   1   3
BRANCH   1  11
ATOM     11  C   UNL     1     136.760 183.706 189.990  1.00  0.00     0.087 C 
BRANCH  11  12
ATOM     12  C   UNL     1     135.267 183.813 189.586  1.00  0.00     0.066 C 
BRANCH  12  13
ATOM     13  C   UNL     1     134.372 183.034 190.540  1.00  0.00     0.140 C 
ATOM     14  O   UNL     1     134.602 181.851 190.745  1.00  0.00    -0.299 OA
BRANCH  13  15
ATOM     15  C   UNL     1     133.157 183.650 191.199  1.00  0.00     0.106 CG0
ATOM     16  G   UNL     1     133.368 184.021 192.656  1.00  0.00     0.000 G0
ENDBRANCH  13  15
ENDBRANCH  12  13
BRANCH  12  17
ATOM     17  C   UNL     1     134.982 183.406 188.107  1.00  0.00    -0.006 C 
ATOM     18  C   UNL     1     133.493 183.442 187.720  1.00  0.00     0.008 C 
ATOM     19  C   UNL     1     135.579 182.030 187.767  1.00  0.00     0.008 C 
ENDBRANCH  12  17
ENDBRANCH  11  12
ENDBRANCH   1  11
TORSDOF 1
ENDMDL
MODEL 2
REMARK VINA RESULT:    -3.627      1.673      3.909
REMARK INTER + INTRA:          -5.567
REMARK INTER:                  -5.178
REMARK INTRA:                  -0.389
REMARK UNBOUND:                -0.032
REMARK SMILES CC1=CCC[C@@H](C)C(=O)C[C@@H](C(C)C)C(=O)C1
REMARK SMILES IDX 8 1 9 2 6 3 7 4 5 5 4 6 3 7 2 8 1 9 10 11 11 12 15 13 16 14
REMARK SMILES IDX 17 15 12 17 13 18 14 19
REMARK H PARENT
REMARK Flexibility Score: 70.00
ROOT
ATOM      1  C   UNL     1     136.873 183.634 189.677  1.00  0.00     0.136 C 
ATOM      2  O   UNL     1     138.065 183.638 189.953  1.00  0.00    -0.299 OA
ENDROOT
BRANCH   1   3
ATOM      3  C   UNL     1     136.272 182.429 188.981  1.00  0.00     0.053 C 
ATOM      4  C   UNL     1     135.107 182.883 188.096  1.00  0.00     0.016 C 
BRANCH   3   5
ATOM      5  C   UNL     1     135.790 181.351 189.984  1.00  0.00     0.015 C 
BRANCH   5   6
ATOM      6  C   UNL     1     134.276 181.367 190.250  1.00  0.00     0.028 C 
BRANCH   6   7
ATOM      7  C   UNL     1     133.973 181.478 191.725  1.00  0.00    -0.028 C 
ATOM      8  C   UNL     1     133.612 182.615 192.363  1.00  0.00    -0.070 CG0
ATOM      9  C   UNL     1     133.361 182.546 193.848  1.00  0.00     0.039 C 
ATOM     10  G   UNL     1     133.460 183.949 191.652  1.00  0.00     0.000 G0
ENDBRANCH   6   7
ENDBRANCH   5   6
ENDBRANCH   3   5
ENDBRANCH   1   3
BRANCH   1  11
ATOM     11  C   UNL     1     136.020 184.814 190.085  1.00  0.00     0.087 C 
BRANCH  11  12
ATOM     12  C   UNL     1     135.905 184.977 191.622  1.00  0.00     0.066 C 
BRANCH  12  13
ATOM     13  C   UNL     1     134.451 185.010 192.074  1.00  0.00     0.140 C 
ATOM     14  O   UNL     1     134.084 185.882 192.848  1.00  0.00    -0.299 OA
BRANCH  13  15
ATOM     15  C   UNL     1     133.448 183.957 191.656  1.00  0.00     0.106 CG0
ATOM     16  G   UNL     1     133.632 182.620 192.354  1.00  0.00     0.000 G0
ENDBRANCH  13  15
ENDBRANCH  12  13
BRANCH  12  17
ATOM     17  C   UNL     1     136.685 186.204 192.188  1.00  0.00    -0.006 C 
ATOM     18  C   UNL     1     137.255 187.141 191.109  1.00  0.00     0.008 C 
ATOM     19  C   UNL     1     137.804 185.775 193.152  1.00  0.00     0.008 C 
ENDBRANCH  12  17
ENDBRANCH  11  12
ENDBRANCH   1  11
TORSDOF 1
ENDMDL
MODEL 3
REMARK VINA RESULT:    -3.481      1.693      4.204
REMARK INTER + INTRA:          -5.344
REMARK INTER:                  -5.153
REMARK INTRA:                  -0.191
REMARK UNBOUND:                -0.032
REMARK SMILES CC1=CCC[C@@H](C)C(=O)C[C@@H](C(C)C)C(=O)C1
REMARK SMILES IDX 8 1 9 2 6 3 7 4 5 5 4 6 3 7 2 8 1 9 10 11 11 12 15 13 16 14
REMARK SMILES IDX 17 15 12 17 13 18 14 19
REMARK H PARENT
REMARK Flexibility Score: 70.00
ROOT
ATOM      1  C   UNL     1     135.173 182.801 188.089  1.00  0.00     0.136 C 
ATOM      2  O   UNL     1     136.135 182.054 188.204  1.00  0.00    -0.299 OA
ENDROOT
BRANCH   1   3
ATOM      3  C   UNL     1     134.029 182.411 187.174  1.00  0.00     0.053 C 
ATOM      4  C   UNL     1     133.204 183.656 186.835  1.00  0.00     0.016 C 
BRANCH   3   5
ATOM      5  C   UNL     1     133.121 181.323 187.799  1.00  0.00     0.015 C 
BRANCH   5   6
ATOM      6  C   UNL     1     131.902 181.876 188.554  1.00  0.00     0.028 C 
BRANCH   6   7
ATOM      7  C   UNL     1     131.941 181.503 190.018  1.00  0.00    -0.028 C 
ATOM      8  C   UNL     1     132.333 182.324 191.020  1.00  0.00    -0.070 CG0
ATOM      9  C   UNL     1     132.323 181.780 192.426  1.00  0.00     0.039 C 
ATOM     10  G   UNL     1     132.790 183.753 190.787  1.00  0.00     0.000 G0
ENDBRANCH   6   7
ENDBRANCH   5   6
ENDBRANCH   3   5
ENDBRANCH   1   3
BRANCH   1  11
ATOM     11  C   UNL     1     135.129 184.074 188.905  1.00  0.00     0.087 C 
BRANCH  11  12
ATOM     12  C   UNL     1     135.432 183.842 190.407  1.00  0.00     0.066 C 
BRANCH  12  13
ATOM     13  C   UNL     1     134.200 184.082 191.269  1.00  0.00     0.140 C 
ATOM     14  O   UNL     1     134.340 184.480 192.416  1.00  0.00    -0.299 OA
BRANCH  13  15
ATOM     15  C   UNL     1     132.799 183.778 190.785  1.00  0.00     0.106 CG0
ATOM     16  G   UNL     1     132.356 182.348 191.041  1.00  0.00     0.000 G0
ENDBRANCH  13  15
ENDBRANCH  12  13
BRANCH  12  17
ATOM     17  C   UNL     1     136.647 184.663 190.941  1.00  0.00    -0.006 C 
ATOM     18  C   UNL     1     136.517 186.182 190.742  1.00  0.00     0.008 C 
ATOM     19  C   UNL     1     137.976 184.168 190.347  1.00  0.00     0.008 C 
ENDBRANCH  12  17
ENDBRANCH  11  12
ENDBRANCH   1  11
TORSDOF 1
ENDMDL
MODEL 4
REMARK VINA RESULT:    -3.480      1.596      3.991
REMARK INTER + INTRA:          -5.343
REMARK INTER:                  -5.272
REMARK INTRA:                  -0.070
REMARK UNBOUND:                -0.032
REMARK SMILES CC1=CCC[C@@H](C)C(=O)C[C@@H](C(C)C)C(=O)C1
REMARK SMILES IDX 8 1 9 2 6 3 7 4 5 5 4 6 3 7 2 8 1 9 10 11 11 12 15 13 16 14
REMARK SMILES IDX 17 15 12 17 13 18 14 19
REMARK H PARENT
REMARK Flexibility Score: 70.00
ROOT
ATOM      1  C   UNL     1     136.706 183.979 189.985  1.00  0.00     0.136 C 
ATOM      2  O   UNL     1     137.924 183.968 190.092  1.00  0.00    -0.299 OA
ENDROOT
BRANCH   1   3
ATOM      3  C   UNL     1     135.998 182.779 189.387  1.00  0.00     0.053 C 
ATOM      4  C   UNL     1     137.039 181.784 188.865  1.00  0.00     0.016 C 
BRANCH   3   5
ATOM      5  C   UNL     1     135.024 183.178 188.250  1.00  0.00     0.015 C 
BRANCH   5   6
ATOM      6  C   UNL     1     133.551 183.256 188.679  1.00  0.00     0.028 C 
BRANCH   6   7
ATOM      7  C   UNL     1     133.311 182.521 189.976  1.00  0.00    -0.028 C 
ATOM      8  C   UNL     1     133.132 183.107 191.183  1.00  0.00    -0.070 CG0
ATOM      9  C   UNL     1     132.918 182.216 192.380  1.00  0.00     0.039 C 
ATOM     10  G   UNL     1     133.148 184.613 191.380  1.00  0.00     0.000 G0
ENDBRANCH   6   7
ENDBRANCH   5   6
ENDBRANCH   3   5
ENDBRANCH   1   3
BRANCH   1  11
ATOM     11  C   UNL     1     135.933 185.172 190.501  1.00  0.00     0.087 C 
BRANCH  11  12
ATOM     12  C   UNL     1     135.678 185.116 192.029  1.00  0.00     0.066 C 
BRANCH  12  13
ATOM     13  C   UNL     1     134.189 185.128 192.348  1.00  0.00     0.140 C 
ATOM     14  O   UNL     1     133.816 185.504 193.450  1.00  0.00    -0.299 OA
BRANCH  13  15
ATOM     15  C   UNL     1     133.146 184.624 191.374  1.00  0.00     0.106 CG0
ATOM     16  G   UNL     1     133.139 183.115 191.206  1.00  0.00     0.000 G0
ENDBRANCH  13  15
ENDBRANCH  12  13
BRANCH  12  17
ATOM     17  C   UNL     1     136.424 186.223 192.836  1.00  0.00    -0.006 C 
ATOM     18  C   UNL     1     137.205 187.220 191.964  1.00  0.00     0.008 C 
ATOM     19  C   UNL     1     137.352 185.623 193.906  1.00  0.00     0.008 C 
ENDBRANCH  12  17
ENDBRANCH  11  12
ENDBRANCH   1  11
TORSDOF 1
ENDMDL
MODEL 5
REMARK VINA RESULT:    -3.410      1.936      2.374
REMARK INTER + INTRA:          -5.235
REMARK INTER:                  -5.118
REMARK INTRA:                  -0.117
REMARK UNBOUND:                -0.032
REMARK SMILES CC1=CCC[C@@H](C)C(=O)C[C@@H](C(C)C)C(=O)C1
REMARK SMILES IDX 8 1 9 2 6 3 7 4 5 5 4 6 3 7 2 8 1 9 10 11 11 12 15 13 16 14
REMARK SMILES IDX 17 15 12 17 13 18 14 19
REMARK H PARENT
REMARK Flexibility Score: 70.00
ROOT
ATOM      1  C   UNL     1     137.859 185.260 191.142  1.00  0.00     0.136 C 
ATOM      2  O   UNL     1     138.877 185.574 190.541  1.00  0.00    -0.299 OA
ENDROOT
BRANCH   1   3
ATOM      3  C   UNL     1     137.001 186.340 191.774  1.00  0.00     0.053 C 
ATOM      4  C   UNL     1     137.201 187.655 191.014  1.00  0.00     0.016 C 
BRANCH   3   5
ATOM      5  C   UNL     1     137.319 186.538 193.276  1.00  0.00     0.015 C 
BRANCH   5   6
ATOM      6  C   UNL     1     137.424 185.231 194.078  1.00  0.00     0.028 C 
BRANCH   6   7
ATOM      7  C   UNL     1     136.097 184.847 194.689  1.00  0.00    -0.028 C 
ATOM      8  C   UNL     1     135.403 183.721 194.399  1.00  0.00    -0.070 CG0
ATOM      9  C   UNL     1     134.083 183.504 195.094  1.00  0.00     0.039 C 
ATOM     10  G   UNL     1     135.890 182.683 193.404  1.00  0.00     0.000 G0
ENDBRANCH   6   7
ENDBRANCH   5   6
ENDBRANCH   3   5
ENDBRANCH   1   3
BRANCH   1  11
ATOM     11  C   UNL     1     137.456 183.803 191.196  1.00  0.00     0.087 C 
BRANCH  11  12
ATOM     12  C   UNL     1     135.951 183.578 190.896  1.00  0.00     0.066 C 
BRANCH  12  13
ATOM     13  C   UNL     1     135.268 182.808 192.018  1.00  0.00     0.140 C 
ATOM     14  O   UNL     1     134.160 182.327 191.825  1.00  0.00    -0.299 OA
BRANCH  13  15
ATOM     15  C   UNL     1     135.876 182.670 193.397  1.00  0.00     0.106 CG0
ATOM     16  G   UNL     1     135.401 183.720 194.386  1.00  0.00     0.000 G0
ENDBRANCH  13  15
ENDBRANCH  12  13
BRANCH  12  17
ATOM     17  C   UNL     1     135.675 182.906 189.517  1.00  0.00    -0.006 C 
ATOM     18  C   UNL     1     136.927 182.330 188.834  1.00  0.00     0.008 C 
ATOM     19  C   UNL     1     134.943 183.855 188.554  1.00  0.00     0.008 C 
ENDBRANCH  12  17
ENDBRANCH  11  12
ENDBRANCH   1  11
TORSDOF 1
ENDMDL
MODEL 6
REMARK VINA RESULT:    -3.382      1.753      3.892
REMARK INTER + INTRA:          -5.193
REMARK INTER:                  -5.165
REMARK INTRA:                  -0.028
REMARK UNBOUND:                -0.032
REMARK SMILES CC1=CCC[C@@H](C)C(=O)C[C@@H](C(C)C)C(=O)C1
REMARK SMILES IDX 8 1 9 2 6 3 7 4 5 5 4 6 3 7 2 8 1 9 10 11 11 12 15 13 16 14
REMARK SMILES IDX 17 15 12 17 13 18 14 19
REMARK H PARENT
REMARK Flexibility Score: 70.00
ROOT
ATOM      1  C   UNL     1     136.137 185.704 191.008  1.00  0.00     0.136 C 
ATOM      2  O   UNL     1     136.543 186.740 190.499  1.00  0.00    -0.299 OA
ENDROOT
BRANCH   1   3
ATOM      3  C   UNL     1     136.913 184.418 190.803  1.00  0.00     0.053 C 
ATOM      4  C   UNL     1     138.376 184.752 190.495  1.00  0.00     0.016 C 
BRANCH   3   5
ATOM      5  C   UNL     1     136.315 183.545 189.672  1.00  0.00     0.015 C 
BRANCH   5   6
ATOM      6  C   UNL     1     134.936 184.010 189.177  1.00  0.00     0.028 C 
BRANCH   6   7
ATOM      7  C   UNL     1     133.912 182.903 189.268  1.00  0.00    -0.028 C 
ATOM      8  C   UNL     1     132.851 182.891 190.109  1.00  0.00    -0.070 CG0
ATOM      9  C   UNL     1     131.935 181.694 190.076  1.00  0.00     0.039 C 
ATOM     10  G   UNL     1     132.555 184.018 191.082  1.00  0.00     0.000 G0
ENDBRANCH   6   7
ENDBRANCH   5   6
ENDBRANCH   3   5
ENDBRANCH   1   3
BRANCH   1  11
ATOM     11  C   UNL     1     134.896 185.746 191.871  1.00  0.00     0.087 C 
BRANCH  11  12
ATOM     12  C   UNL     1     134.645 184.422 192.637  1.00  0.00     0.066 C 
BRANCH  12  13
ATOM     13  C   UNL     1     133.231 183.905 192.411  1.00  0.00     0.140 C 
ATOM     14  O   UNL     1     132.652 183.329 193.321  1.00  0.00    -0.299 OA
BRANCH  13  15
ATOM     15  C   UNL     1     132.531 184.013 191.074  1.00  0.00     0.106 CG0
ATOM     16  G   UNL     1     132.861 182.884 190.114  1.00  0.00     0.000 G0
ENDBRANCH  13  15
ENDBRANCH  12  13
BRANCH  12  17
ATOM     17  C   UNL     1     134.966 184.503 194.162  1.00  0.00    -0.006 C 
ATOM     18  C   UNL     1     134.875 185.921 194.750  1.00  0.00     0.008 C 
ATOM     19  C   UNL     1     136.335 183.885 194.492  1.00  0.00     0.008 C 
ENDBRANCH  12  17
ENDBRANCH  11  12
ENDBRANCH   1  11
TORSDOF 1
ENDMDL
MODEL 7
REMARK VINA RESULT:    -3.362      2.371      4.178
REMARK INTER + INTRA:          -5.162
REMARK INTER:                  -4.696
REMARK INTRA:                  -0.466
REMARK UNBOUND:                -0.032
REMARK SMILES CC1=CCC[C@@H](C)C(=O)C[C@@H](C(C)C)C(=O)C1
REMARK SMILES IDX 8 1 9 2 6 3 7 4 5 5 4 6 3 7 2 8 1 9 10 11 11 12 15 13 16 14
REMARK SMILES IDX 17 15 12 17 13 18 14 19
REMARK H PARENT
REMARK Flexibility Score: 70.00
ROOT
ATOM      1  C   UNL     1     133.857 183.560 192.127  1.00  0.00     0.136 C 
ATOM      2  O   UNL     1     132.807 183.982 192.592  1.00  0.00    -0.299 OA
ENDROOT
BRANCH   1   3
ATOM      3  C   UNL     1     134.359 182.190 192.540  1.00  0.00     0.053 C 
ATOM      4  C   UNL     1     133.313 181.134 192.172  1.00  0.00     0.016 C 
BRANCH   3   5
ATOM      5  C   UNL     1     134.683 182.115 194.053  1.00  0.00     0.015 C 
BRANCH   5   6
ATOM      6  C   UNL     1     136.118 182.533 194.413  1.00  0.00     0.028 C 
BRANCH   6   7
ATOM      7  C   UNL     1     136.221 184.022 194.645  1.00  0.00    -0.028 C 
ATOM      8  C   UNL     1     136.950 184.879 193.892  1.00  0.00    -0.070 CG0
ATOM      9  C   UNL     1     136.950 186.336 194.278  1.00  0.00     0.039 C 
ATOM     10  G   UNL     1     137.768 184.435 192.692  1.00  0.00     0.000 G0
ENDBRANCH   6   7
ENDBRANCH   5   6
ENDBRANCH   3   5
ENDBRANCH   1   3
BRANCH   1  11
ATOM     11  C   UNL     1     134.601 184.397 191.110  1.00  0.00     0.087 C 
BRANCH  11  12
ATOM     12  C   UNL     1     136.008 183.839 190.777  1.00  0.00     0.066 C 
BRANCH  12  13
ATOM     13  C   UNL     1     137.109 184.722 191.348  1.00  0.00     0.140 C 
ATOM     14  O   UNL     1     137.519 185.667 190.691  1.00  0.00    -0.299 OA
BRANCH  13  15
ATOM     15  C   UNL     1     137.773 184.434 192.677  1.00  0.00     0.106 CG0
ATOM     16  G   UNL     1     136.955 184.867 193.881  1.00  0.00     0.000 G0
ENDBRANCH  13  15
ENDBRANCH  12  13
BRANCH  12  17
ATOM     17  C   UNL     1     136.242 183.579 189.257  1.00  0.00    -0.006 C 
ATOM     18  C   UNL     1     134.950 183.469 188.430  1.00  0.00     0.008 C 
ATOM     19  C   UNL     1     137.124 182.343 189.016  1.00  0.00     0.008 C 
ENDBRANCH  12  17
ENDBRANCH  11  12
ENDBRANCH   1  11
TORSDOF 1
ENDMDL
MODEL 8
REMARK VINA RESULT:    -3.322      1.835      4.706
REMARK INTER + INTRA:          -5.101
REMARK INTER:                  -4.936
REMARK INTRA:                  -0.165
REMARK UNBOUND:                -0.032
REMARK SMILES CC1=CCC[C@@H](C)C(=O)C[C@@H](C(C)C)C(=O)C1
REMARK SMILES IDX 8 1 9 2 6 3 7 4 5 5 4 6 3 7 2 8 1 9 10 11 11 12 15 13 16 14
REMARK SMILES IDX 17 15 12 17 13 18 14 19
REMARK H PARENT
REMARK Flexibility Score: 70.00
ROOT
ATOM      1  C   UNL     1     134.527 182.773 190.123  1.00  0.00     0.136 C 
ATOM      2  O   UNL     1     133.741 181.921 189.734  1.00  0.00    -0.299 OA
ENDROOT
BRANCH   1   3
ATOM      3  C   UNL     1     135.411 183.488 189.120  1.00  0.00     0.053 C 
ATOM      4  C   UNL     1     134.819 183.325 187.717  1.00  0.00     0.016 C 
BRANCH   3   5
ATOM      5  C   UNL     1     136.870 182.968 189.147  1.00  0.00     0.015 C 
BRANCH   5   6
ATOM      6  C   UNL     1     137.701 183.483 190.333  1.00  0.00     0.028 C 
BRANCH   6   7
ATOM      7  C   UNL     1     137.728 184.993 190.378  1.00  0.00    -0.028 C 
ATOM      8  C   UNL     1     137.175 185.753 191.352  1.00  0.00    -0.070 CG0
ATOM      9  C   UNL     1     137.283 187.251 191.229  1.00  0.00     0.039 C 
ATOM     10  G   UNL     1     136.447 185.163 192.547  1.00  0.00     0.000 G0
ENDBRANCH   6   7
ENDBRANCH   5   6
ENDBRANCH   3   5
ENDBRANCH   1   3
BRANCH   1  11
ATOM     11  C   UNL     1     134.559 183.128 191.593  1.00  0.00     0.087 C 
BRANCH  11  12
ATOM     12  C   UNL     1     133.954 184.523 191.894  1.00  0.00     0.066 C 
BRANCH  12  13
ATOM     13  C   UNL     1     134.960 185.431 192.589  1.00  0.00     0.140 C 
ATOM     14  O   UNL     1     134.567 186.444 193.147  1.00  0.00    -0.299 OA
BRANCH  13  15
ATOM     15  C   UNL     1     136.450 185.165 192.557  1.00  0.00     0.106 CG0
ATOM     16  G   UNL     1     137.152 185.747 191.342  1.00  0.00     0.000 G0
ENDBRANCH  13  15
ENDBRANCH  12  13
BRANCH  12  17
ATOM     17  C   UNL     1     132.614 184.473 192.692  1.00  0.00    -0.006 C 
ATOM     18  C   UNL     1     132.582 183.411 193.804  1.00  0.00     0.008 C 
ATOM     19  C   UNL     1     131.402 184.295 191.763  1.00  0.00     0.008 C 
ENDBRANCH  12  17
ENDBRANCH  11  12
ENDBRANCH   1  11
TORSDOF 1
ENDMDL
MODEL 9
REMARK VINA RESULT:    -3.200      1.978      2.873
REMARK INTER + INTRA:          -4.916
REMARK INTER:                  -4.566
REMARK INTRA:                  -0.350
REMARK UNBOUND:                -0.032
REMARK SMILES CC1=CCC[C@@H](C)C(=O)C[C@@H](C(C)C)C(=O)C1
REMARK SMILES IDX 8 1 9 2 6 3 7 4 5 5 4 6 3 7 2 8 1 9 10 11 11 12 15 13 16 14
REMARK SMILES IDX 17 15 12 17 13 18 14 19
REMARK H PARENT
REMARK Flexibility Score: 70.00
ROOT
ATOM      1  C   UNL     1     137.309 183.901 193.966  1.00  0.00     0.136 C 
ATOM      2  O   UNL     1     138.060 183.180 194.607  1.00  0.00    -0.299 OA
ENDROOT
BRANCH   1   3
ATOM      3  C   UNL     1     137.005 185.299 194.468  1.00  0.00     0.053 C 
ATOM      4  C   UNL     1     138.231 185.851 195.202  1.00  0.00     0.016 C 
BRANCH   3   5
ATOM      5  C   UNL     1     135.767 185.333 195.398  1.00  0.00     0.015 C 
BRANCH   5   6
ATOM      6  C   UNL     1     134.478 185.818 194.715  1.00  0.00     0.028 C 
BRANCH   6   7
ATOM      7  C   UNL     1     133.454 184.713 194.614  1.00  0.00    -0.028 C 
ATOM      8  C   UNL     1     132.941 184.230 193.458  1.00  0.00    -0.070 CG0
ATOM      9  C   UNL     1     131.913 183.131 193.544  1.00  0.00     0.039 C 
ATOM     10  G   UNL     1     133.347 184.753 192.091  1.00  0.00     0.000 G0
ENDBRANCH   6   7
ENDBRANCH   5   6
ENDBRANCH   3   5
ENDBRANCH   1   3
BRANCH   1  11
ATOM     11  C   UNL     1     136.742 183.395 192.658  1.00  0.00     0.087 C 
BRANCH  11  12
ATOM     12  C   UNL     1     135.992 184.490 191.857  1.00  0.00     0.066 C 
BRANCH  12  13
ATOM     13  C   UNL     1     134.573 184.058 191.513  1.00  0.00     0.140 C 
ATOM     14  O   UNL     1     134.401 183.159 190.702  1.00  0.00    -0.299 OA
BRANCH  13  15
ATOM     15  C   UNL     1     133.353 184.748 192.084  1.00  0.00     0.106 CG0
ATOM     16  G   UNL     1     132.950 184.246 193.460  1.00  0.00     0.000 G0
ENDBRANCH  13  15
ENDBRANCH  12  13
BRANCH  12  17
ATOM     17  C   UNL     1     136.748 184.967 190.579  1.00  0.00    -0.006 C 
ATOM     18  C   UNL     1     137.685 183.911 189.969  1.00  0.00     0.008 C 
ATOM     19  C   UNL     1     137.522 186.273 190.826  1.00  0.00     0.008 C 
ENDBRANCH  12  17
ENDBRANCH  11  12
ENDBRANCH   1  11
TORSDOF 1
ENDMDL
