MODEL 1
REMARK VINA RESULT:     3.016      0.000      0.000
REMARK INTER + INTRA:           5.805
REMARK INTER:                   4.073
REMARK INTRA:                   1.732
REMARK UNBOUND:                 1.732
REMARK SMILES C=C(C)[C@@H]1CC[C@H](C)C2=C(C1)[C@H](C)CC2
REMARK SMILES IDX 10 1 9 2 15 3 14 4 12 5 13 6 7 7 8 8 6 9 11 11 4 12 5 13
REMARK SMILES IDX 2 15 1 16 3 17
REMARK H PARENT
REMARK Flexibility Score: 80.00
ROOT
ATOM      1  C   UNL     1       4.972   6.264  12.546  1.00  0.00    -0.067 C 
ATOM      2  C   UNL     1       4.902   7.551  12.159  1.00  0.00    -0.068 C 
ATOM      3  C   UNL     1       3.616   8.167  12.620  1.00  0.00     0.032 C 
ATOM      4  C   UNL     1       3.014   7.149  13.583  1.00  0.00     0.012 C 
ATOM      5  C   UNL     1       3.754   5.837  13.307  1.00  0.00     0.012 C 
ATOM      6  C   UNL     1       2.897   4.876  12.473  1.00  0.00     0.012 C 
ENDROOT
BRANCH   2   7
ATOM      7  C   UNL     1       5.841   8.249  11.169  1.00  0.00     0.012 C 
ATOM      8  C   UNL     1       5.374   9.686  10.875  1.00  0.00     0.012 C 
BRANCH   7   9
ATOM      9  C   UNL     1       7.307   8.274  11.653  1.00  0.00     0.008 CG0
ATOM     10  G   UNL     1       8.000   6.902  11.570  1.00  0.00     0.000 G0
ENDBRANCH   7   9
ENDBRANCH   2   7
BRANCH   1  11
ATOM     11  C   UNL     1       6.115   5.303  12.283  1.00  0.00     0.039 C 
BRANCH  11  12
ATOM     12  C   UNL     1       7.487   5.905  12.649  1.00  0.00     0.018 C 
BRANCH  12  13
ATOM     13  C   UNL     1       7.978   6.917  11.585  1.00  0.00     0.009 CG0
ATOM     14  G   UNL     1       7.296   8.296  11.646  1.00  0.00     0.000 G0
ENDBRANCH  12  13
BRANCH  12  15
ATOM     15  C   UNL     1       7.455   6.557  14.027  1.00  0.00    -0.077 C 
ATOM     16  C   UNL     1       6.994   5.890  15.099  1.00  0.00     0.008 C 
ATOM     17  C   UNL     1       7.956   7.966  14.212  1.00  0.00     0.039 C 
ENDBRANCH  12  15
ENDBRANCH  11  12
ENDBRANCH   1  11
TORSDOF 1
ENDMDL
MODEL 2
REMARK VINA RESULT:     4.201      1.665      3.563
REMARK INTER + INTRA:           7.406
REMARK INTER:                   5.619
REMARK INTRA:                   1.787
REMARK UNBOUND:                 1.732
REMARK SMILES C=C(C)[C@@H]1CC[C@H](C)C2=C(C1)[C@H](C)CC2
REMARK SMILES IDX 10 1 9 2 15 3 14 4 12 5 13 6 7 7 8 8 6 9 11 11 4 12 5 13
REMARK SMILES IDX 2 15 1 16 3 17
REMARK H PARENT
REMARK Flexibility Score: 80.00
ROOT
ATOM      1  C   UNL     1       5.815   8.050  12.888  1.00  0.00    -0.067 C 
ATOM      2  C   UNL     1       4.929   7.159  12.406  1.00  0.00    -0.068 C 
ATOM      3  C   UNL     1       4.203   7.728  11.225  1.00  0.00     0.032 C 
ATOM      4  C   UNL     1       4.957   9.008  10.878  1.00  0.00     0.012 C 
ATOM      5  C   UNL     1       5.803   9.333  12.112  1.00  0.00     0.012 C 
ATOM      6  C   UNL     1       5.178  10.465  12.937  1.00  0.00     0.012 C 
ENDROOT
BRANCH   2   7
ATOM      7  C   UNL     1       4.501   5.854  13.085  1.00  0.00     0.012 C 
ATOM      8  C   UNL     1       3.385   5.152  12.291  1.00  0.00     0.012 C 
BRANCH   7   9
ATOM      9  C   UNL     1       5.677   4.875  13.293  1.00  0.00     0.008 CG0
ATOM     10  G   UNL     1       6.671   5.338  14.373  1.00  0.00     0.000 G0
ENDBRANCH   7   9
ENDBRANCH   2   7
BRANCH   1  11
ATOM     11  C   UNL     1       6.747   7.850  14.067  1.00  0.00     0.039 C 
BRANCH  11  12
ATOM     12  C   UNL     1       7.527   6.523  13.983  1.00  0.00     0.018 C 
BRANCH  12  13
ATOM     13  C   UNL     1       6.651   5.309  14.376  1.00  0.00     0.009 CG0
ATOM     14  G   UNL     1       5.666   4.846  13.288  1.00  0.00     0.000 G0
ENDBRANCH  12  13
BRANCH  12  15
ATOM     15  C   UNL     1       8.122   6.318  12.593  1.00  0.00    -0.077 C 
ATOM     16  C   UNL     1       8.650   7.346  11.907  1.00  0.00     0.008 C 
ATOM     17  C   UNL     1       8.140   4.947  11.968  1.00  0.00     0.039 C 
ENDBRANCH  12  15
ENDBRANCH  11  12
ENDBRANCH   1  11
TORSDOF 1
ENDMDL
MODEL 3
REMARK VINA RESULT:     5.309      1.821      4.514
REMARK INTER + INTRA:           8.904
REMARK INTER:                   8.828
REMARK INTRA:                   0.075
REMARK UNBOUND:                 1.732
REMARK SMILES C=C(C)[C@@H]1CC[C@H](C)C2=C(C1)[C@H](C)CC2
REMARK SMILES IDX 10 1 9 2 15 3 14 4 12 5 13 6 7 7 8 8 6 9 11 11 4 12 5 13
REMARK SMILES IDX 2 15 1 16 3 17
REMARK H PARENT
REMARK Flexibility Score: 80.00
ROOT
ATOM      1  C   UNL     1       7.387   7.751  13.901  1.00  0.00    -0.067 C 
ATOM      2  C   UNL     1       8.196   7.191  12.983  1.00  0.00    -0.068 C 
ATOM      3  C   UNL     1       9.555   7.819  13.028  1.00  0.00     0.032 C 
ATOM      4  C   UNL     1       9.554   8.671  14.292  1.00  0.00     0.012 C 
ATOM      5  C   UNL     1       8.081   8.829  14.679  1.00  0.00     0.012 C 
ATOM      6  C   UNL     1       7.546  10.214  14.292  1.00  0.00     0.012 C 
ENDROOT
BRANCH   2   7
ATOM      7  C   UNL     1       7.764   6.241  11.860  1.00  0.00     0.012 C 
ATOM      8  C   UNL     1       8.918   5.981  10.875  1.00  0.00     0.012 C 
BRANCH   7   9
ATOM      9  C   UNL     1       7.228   4.894  12.390  1.00  0.00     0.008 CG0
ATOM     10  G   UNL     1       5.874   5.018  13.111  1.00  0.00     0.000 G0
ENDBRANCH   7   9
ENDBRANCH   2   7
BRANCH   1  11
ATOM     11  C   UNL     1       5.941   7.387  14.175  1.00  0.00     0.039 C 
BRANCH  11  12
ATOM     12  C   UNL     1       5.334   6.507  13.063  1.00  0.00     0.018 C 
BRANCH  12  13
ATOM     13  C   UNL     1       5.883   5.061  13.105  1.00  0.00     0.009 CG0
ATOM     14  G   UNL     1       7.234   4.863  12.394  1.00  0.00     0.000 G0
ENDBRANCH  12  13
BRANCH  12  15
ATOM     15  C   UNL     1       3.811   6.499  13.135  1.00  0.00    -0.077 C 
ATOM     16  C   UNL     1       3.127   7.607  13.468  1.00  0.00     0.008 C 
ATOM     17  C   UNL     1       3.042   5.243  12.817  1.00  0.00     0.039 C 
ENDBRANCH  12  15
ENDBRANCH  11  12
ENDBRANCH   1  11
TORSDOF 1
ENDMDL
