MODEL 1
REMARK VINA RESULT:    -4.731      0.000      0.000
REMARK INTER + INTRA:          -7.969
REMARK INTER:                  -7.497
REMARK INTRA:                  -0.472
REMARK UNBOUND:                -0.472
REMARK SMILES CCCCCCCCCCCC(=O)[O-]
REMARK SMILES IDX 7 1 8 2 9 3 10 4 11 5 12 6 13 7 14 8 6 9 5 10 4 11 3 12 2 13
REMARK SMILES IDX 1 14
REMARK H PARENT
REMARK Flexibility Score: inf
ROOT
ATOM      1  C   UNL     1       7.867   1.741  18.452  1.00  0.00     0.000 C 
ENDROOT
BRANCH   1   2
ATOM      2  C   UNL     1       7.051   2.532  19.482  1.00  0.00     0.000 C 
BRANCH   2   3
ATOM      3  C   UNL     1       7.293   4.039  19.337  1.00  0.00     0.000 C 
BRANCH   3   4
ATOM      4  C   UNL     1       8.424   4.507  20.264  1.00  0.00     0.006 C 
BRANCH   4   5
ATOM      5  C   UNL     1       8.095   4.277  21.744  1.00  0.00     0.053 C 
BRANCH   5   6
ATOM      6  C   UNL     1       7.191   5.344  22.284  1.00  0.00     0.041 C 
ATOM      7  O   UNL     1       6.988   6.396  21.624  1.00  0.00    -0.550 OA
ATOM      8  O   UNL     1       6.599   5.187  23.530  1.00  0.00    -0.550 OA
ENDBRANCH   5   6
ENDBRANCH   4   5
ENDBRANCH   3   4
ENDBRANCH   2   3
ENDBRANCH   1   2
BRANCH   1   9
ATOM      9  C   UNL     1       7.003   0.680  17.761  1.00  0.00     0.000 C 
BRANCH   9  10
ATOM     10  C   UNL     1       7.381  -0.731  18.234  1.00  0.00    -0.000 C 
BRANCH  10  11
ATOM     11  C   UNL     1       8.900  -0.970  18.227  1.00  0.00    -0.000 C 
BRANCH  11  12
ATOM     12  C   UNL     1       9.388  -1.627  16.924  1.00  0.00    -0.000 C 
BRANCH  12  13
ATOM     13  C   UNL     1       8.448  -2.742  16.439  1.00  0.00    -0.003 C 
ATOM     14  C   UNL     1       8.853  -4.122  16.960  1.00  0.00     0.004 C 
ENDBRANCH  12  13
ENDBRANCH  11  12
ENDBRANCH  10  11
ENDBRANCH   9  10
ENDBRANCH   1   9
TORSDOF 10
ENDMDL
MODEL 2
REMARK VINA RESULT:    -4.706     12.091     14.770
REMARK INTER + INTRA:          -7.929
REMARK INTER:                  -7.225
REMARK INTRA:                  -0.704
REMARK UNBOUND:                -0.472
REMARK SMILES CCCCCCCCCCCC(=O)[O-]
REMARK SMILES IDX 7 1 8 2 9 3 10 4 11 5 12 6 13 7 14 8 6 9 5 10 4 11 3 12 2 13
REMARK SMILES IDX 1 14
REMARK H PARENT
REMARK Flexibility Score: inf
ROOT
ATOM      1  C   UNL     1      13.313  -0.919   7.113  1.00  0.00     0.000 C 
ENDROOT
BRANCH   1   2
ATOM      2  C   UNL     1      14.697  -0.551   7.663  1.00  0.00     0.000 C 
BRANCH   2   3
ATOM      3  C   UNL     1      15.102  -1.486   8.809  1.00  0.00     0.000 C 
BRANCH   3   4
ATOM      4  C   UNL     1      16.424  -2.202   8.495  1.00  0.00     0.006 C 
BRANCH   4   5
ATOM      5  C   UNL     1      16.240  -3.343   7.486  1.00  0.00     0.053 C 
BRANCH   5   6
ATOM      6  C   UNL     1      17.212  -4.458   7.727  1.00  0.00     0.041 C 
ATOM      7  O   UNL     1      18.252  -4.555   7.024  1.00  0.00    -0.550 OA
ATOM      8  O   UNL     1      16.951  -5.408   8.705  1.00  0.00    -0.550 OA
ENDBRANCH   5   6
ENDBRANCH   4   5
ENDBRANCH   3   4
ENDBRANCH   2   3
ENDBRANCH   1   2
BRANCH   1   9
ATOM      9  C   UNL     1      12.746  -2.152   7.826  1.00  0.00     0.000 C 
BRANCH   9  10
ATOM     10  C   UNL     1      12.143  -3.140   6.818  1.00  0.00    -0.000 C 
BRANCH  10  11
ATOM     11  C   UNL     1      10.769  -3.671   7.259  1.00  0.00    -0.000 C 
BRANCH  11  12
ATOM     12  C   UNL     1      10.164  -2.855   8.413  1.00  0.00    -0.000 C 
BRANCH  12  13
ATOM     13  C   UNL     1       9.549  -3.747   9.504  1.00  0.00    -0.003 C 
ATOM     14  C   UNL     1       8.882  -2.940  10.618  1.00  0.00     0.004 C 
ENDBRANCH  12  13
ENDBRANCH  11  12
ENDBRANCH  10  11
ENDBRANCH   9  10
ENDBRANCH   1   9
TORSDOF 10
ENDMDL
MODEL 3
REMARK VINA RESULT:    -4.669     12.682     14.171
REMARK INTER + INTRA:          -7.871
REMARK INTER:                  -6.645
REMARK INTRA:                  -1.226
REMARK UNBOUND:                -0.472
REMARK SMILES CCCCCCCCCCCC(=O)[O-]
REMARK SMILES IDX 7 1 8 2 9 3 10 4 11 5 12 6 13 7 14 8 6 9 5 10 4 11 3 12 2 13
REMARK SMILES IDX 1 14
REMARK H PARENT
REMARK Flexibility Score: inf
ROOT
ATOM      1  C   UNL     1      17.377   5.482  24.346  1.00  0.00     0.000 C 
ENDROOT
BRANCH   1   2
ATOM      2  C   UNL     1      17.908   6.852  23.905  1.00  0.00     0.000 C 
BRANCH   2   3
ATOM      3  C   UNL     1      18.331   6.831  22.432  1.00  0.00     0.000 C 
BRANCH   3   4
ATOM      4  C   UNL     1      19.566   7.715  22.201  1.00  0.00     0.006 C 
BRANCH   4   5
ATOM      5  C   UNL     1      19.401   8.636  20.985  1.00  0.00     0.053 C 
BRANCH   5   6
ATOM      6  C   UNL     1      20.651   8.699  20.162  1.00  0.00     0.041 C 
ATOM      7  O   UNL     1      21.634   7.964  20.445  1.00  0.00    -0.550 OA
ATOM      8  O   UNL     1      20.742   9.593  19.104  1.00  0.00    -0.550 OA
ENDBRANCH   5   6
ENDBRANCH   4   5
ENDBRANCH   3   4
ENDBRANCH   2   3
ENDBRANCH   1   2
BRANCH   1   9
ATOM      9  C   UNL     1      17.888   5.117  25.745  1.00  0.00     0.000 C 
BRANCH   9  10
ATOM     10  C   UNL     1      19.187   5.869  26.069  1.00  0.00    -0.000 C 
BRANCH  10  11
ATOM     11  C   UNL     1      20.439   4.998  25.878  1.00  0.00    -0.000 C 
BRANCH  11  12
ATOM     12  C   UNL     1      21.297   5.450  24.684  1.00  0.00    -0.000 C 
BRANCH  12  13
ATOM     13  C   UNL     1      21.117   4.545  23.455  1.00  0.00    -0.003 C 
ATOM     14  C   UNL     1      21.096   3.059  23.815  1.00  0.00     0.004 C 
ENDBRANCH  12  13
ENDBRANCH  11  12
ENDBRANCH  10  11
ENDBRANCH   9  10
ENDBRANCH   1   9
TORSDOF 10
ENDMDL
MODEL 4
REMARK VINA RESULT:    -4.654     12.316     14.870
REMARK INTER + INTRA:          -7.846
REMARK INTER:                  -7.435
REMARK INTRA:                  -0.411
REMARK UNBOUND:                -0.472
REMARK SMILES CCCCCCCCCCCC(=O)[O-]
REMARK SMILES IDX 7 1 8 2 9 3 10 4 11 5 12 6 13 7 14 8 6 9 5 10 4 11 3 12 2 13
REMARK SMILES IDX 1 14
REMARK H PARENT
REMARK Flexibility Score: inf
ROOT
ATOM      1  C   UNL     1      14.856   1.113   8.849  1.00  0.00     0.000 C 
ENDROOT
BRANCH   1   2
ATOM      2  C   UNL     1      15.067  -0.238   8.156  1.00  0.00     0.000 C 
BRANCH   2   3
ATOM      3  C   UNL     1      15.171  -1.374   9.181  1.00  0.00     0.000 C 
BRANCH   3   4
ATOM      4  C   UNL     1      14.999  -2.742   8.506  1.00  0.00     0.006 C 
BRANCH   4   5
ATOM      5  C   UNL     1      16.076  -3.007   7.446  1.00  0.00     0.053 C 
BRANCH   5   6
ATOM      6  C   UNL     1      17.115  -3.969   7.938  1.00  0.00     0.041 C 
ATOM      7  O   UNL     1      16.779  -4.961   8.637  1.00  0.00    -0.550 OA
ATOM      8  O   UNL     1      18.455  -3.750   7.651  1.00  0.00    -0.550 OA
ENDBRANCH   5   6
ENDBRANCH   4   5
ENDBRANCH   3   4
ENDBRANCH   2   3
ENDBRANCH   1   2
BRANCH   1   9
ATOM      9  C   UNL     1      16.000   1.418   9.823  1.00  0.00     0.000 C 
BRANCH   9  10
ATOM     10  C   UNL     1      15.457   1.792  11.210  1.00  0.00    -0.000 C 
BRANCH  10  11
ATOM     11  C   UNL     1      16.323   2.844  11.921  1.00  0.00    -0.000 C 
BRANCH  11  12
ATOM     12  C   UNL     1      15.564   3.573  13.043  1.00  0.00    -0.000 C 
BRANCH  12  13
ATOM     13  C   UNL     1      16.491   4.431  13.918  1.00  0.00    -0.003 C 
ATOM     14  C   UNL     1      17.918   4.501  13.374  1.00  0.00     0.004 C 
ENDBRANCH  12  13
ENDBRANCH  11  12
ENDBRANCH  10  11
ENDBRANCH   9  10
ENDBRANCH   1   9
TORSDOF 10
ENDMDL
MODEL 5
REMARK VINA RESULT:    -4.631      1.192      2.048
REMARK INTER + INTRA:          -7.810
REMARK INTER:                  -6.907
REMARK INTRA:                  -0.904
REMARK UNBOUND:                -0.472
REMARK SMILES CCCCCCCCCCCC(=O)[O-]
REMARK SMILES IDX 7 1 8 2 9 3 10 4 11 5 12 6 13 7 14 8 6 9 5 10 4 11 3 12 2 13
REMARK SMILES IDX 1 14
REMARK H PARENT
REMARK Flexibility Score: inf
ROOT
ATOM      1  C   UNL     1       6.781   3.116  17.163  1.00  0.00     0.000 C 
ENDROOT
BRANCH   1   2
ATOM      2  C   UNL     1       8.047   3.462  17.956  1.00  0.00     0.000 C 
BRANCH   2   3
ATOM      3  C   UNL     1       7.967   2.920  19.388  1.00  0.00     0.000 C 
BRANCH   3   4
ATOM      4  C   UNL     1       8.663   3.868  20.376  1.00  0.00     0.006 C 
BRANCH   4   5
ATOM      5  C   UNL     1       8.075   5.284  20.332  1.00  0.00     0.053 C 
BRANCH   5   6
ATOM      6  C   UNL     1       7.418   5.653  21.628  1.00  0.00     0.041 C 
ATOM      7  O   UNL     1       7.726   5.050  22.689  1.00  0.00    -0.550 OA
ATOM      8  O   UNL     1       6.442   6.640  21.656  1.00  0.00    -0.550 OA
ENDBRANCH   5   6
ENDBRANCH   4   5
ENDBRANCH   3   4
ENDBRANCH   2   3
ENDBRANCH   1   2
BRANCH   1   9
ATOM      9  C   UNL     1       5.943   2.062  17.895  1.00  0.00     0.000 C 
BRANCH   9  10
ATOM     10  C   UNL     1       5.657   0.858  16.986  1.00  0.00    -0.000 C 
BRANCH  10  11
ATOM     11  C   UNL     1       6.840  -0.120  16.910  1.00  0.00    -0.000 C 
BRANCH  11  12
ATOM     12  C   UNL     1       7.402  -0.477  18.297  1.00  0.00    -0.000 C 
BRANCH  12  13
ATOM     13  C   UNL     1       8.817  -1.072  18.223  1.00  0.00    -0.003 C 
ATOM     14  C   UNL     1       9.029  -1.936  16.980  1.00  0.00     0.004 C 
ENDBRANCH  12  13
ENDBRANCH  11  12
ENDBRANCH  10  11
ENDBRANCH   9  10
ENDBRANCH   1   9
TORSDOF 10
ENDMDL
MODEL 6
REMARK VINA RESULT:    -4.614      2.629      3.071
REMARK INTER + INTRA:          -7.783
REMARK INTER:                  -7.270
REMARK INTRA:                  -0.513
REMARK UNBOUND:                -0.472
REMARK SMILES CCCCCCCCCCCC(=O)[O-]
REMARK SMILES IDX 7 1 8 2 9 3 10 4 11 5 12 6 13 7 14 8 6 9 5 10 4 11 3 12 2 13
REMARK SMILES IDX 1 14
REMARK H PARENT
REMARK Flexibility Score: inf
ROOT
ATOM      1  C   UNL     1       6.393   1.802  18.100  1.00  0.00     0.000 C 
ENDROOT
BRANCH   1   2
ATOM      2  C   UNL     1       7.211   2.080  19.368  1.00  0.00     0.000 C 
BRANCH   2   3
ATOM      3  C   UNL     1       7.393   3.586  19.588  1.00  0.00     0.000 C 
BRANCH   3   4
ATOM      4  C   UNL     1       6.609   4.394  18.544  1.00  0.00     0.006 C 
BRANCH   4   5
ATOM      5  C   UNL     1       6.992   5.879  18.553  1.00  0.00     0.053 C 
BRANCH   5   6
ATOM      6  C   UNL     1       7.519   6.325  17.222  1.00  0.00     0.041 C 
ATOM      7  O   UNL     1       7.571   7.551  16.939  1.00  0.00    -0.550 OA
ATOM      8  O   UNL     1       7.922   5.384  16.285  1.00  0.00    -0.550 OA
ENDBRANCH   5   6
ENDBRANCH   4   5
ENDBRANCH   3   4
ENDBRANCH   2   3
ENDBRANCH   1   2
BRANCH   1   9
ATOM      9  C   UNL     1       6.921   0.566  17.363  1.00  0.00     0.000 C 
BRANCH   9  10
ATOM     10  C   UNL     1       7.465  -0.474  18.353  1.00  0.00    -0.000 C 
BRANCH  10  11
ATOM     11  C   UNL     1       8.645  -1.276  17.781  1.00  0.00    -0.000 C 
BRANCH  11  12
ATOM     12  C   UNL     1       8.207  -2.280  16.700  1.00  0.00    -0.000 C 
BRANCH  12  13
ATOM     13  C   UNL     1       9.126  -3.511  16.635  1.00  0.00    -0.003 C 
ATOM     14  C   UNL     1       8.903  -4.474  17.801  1.00  0.00     0.004 C 
ENDBRANCH  12  13
ENDBRANCH  11  12
ENDBRANCH  10  11
ENDBRANCH   9  10
ENDBRANCH   1   9
TORSDOF 10
ENDMDL
MODEL 7
REMARK VINA RESULT:    -4.610      1.394      2.041
REMARK INTER + INTRA:          -7.777
REMARK INTER:                  -7.246
REMARK INTRA:                  -0.531
REMARK UNBOUND:                -0.472
REMARK SMILES CCCCCCCCCCCC(=O)[O-]
REMARK SMILES IDX 7 1 8 2 9 3 10 4 11 5 12 6 13 7 14 8 6 9 5 10 4 11 3 12 2 13
REMARK SMILES IDX 1 14
REMARK H PARENT
REMARK Flexibility Score: inf
ROOT
ATOM      1  C   UNL     1       6.960   0.039  17.982  1.00  0.00     0.000 C 
ENDROOT
BRANCH   1   2
ATOM      2  C   UNL     1       6.897   1.507  17.542  1.00  0.00     0.000 C 
BRANCH   2   3
ATOM      3  C   UNL     1       6.723   2.438  18.747  1.00  0.00     0.000 C 
BRANCH   3   4
ATOM      4  C   UNL     1       8.026   3.189  19.056  1.00  0.00     0.006 C 
BRANCH   4   5
ATOM      5  C   UNL     1       8.237   3.392  20.561  1.00  0.00     0.053 C 
BRANCH   5   6
ATOM      6  C   UNL     1       8.392   4.841  20.910  1.00  0.00     0.041 C 
ATOM      7  O   UNL     1       7.943   5.730  20.140  1.00  0.00    -0.550 OA
ATOM      8  O   UNL     1       9.063   5.208  22.069  1.00  0.00    -0.550 OA
ENDBRANCH   5   6
ENDBRANCH   4   5
ENDBRANCH   3   4
ENDBRANCH   2   3
ENDBRANCH   1   2
BRANCH   1   9
ATOM      9  C   UNL     1       8.393  -0.367  18.347  1.00  0.00     0.000 C 
BRANCH   9  10
ATOM     10  C   UNL     1       8.681  -1.812  17.918  1.00  0.00    -0.000 C 
BRANCH  10  11
ATOM     11  C   UNL     1       8.124  -2.138  16.523  1.00  0.00    -0.000 C 
BRANCH  11  12
ATOM     12  C   UNL     1       9.197  -2.701  15.575  1.00  0.00    -0.000 C 
BRANCH  12  13
ATOM     13  C   UNL     1       9.887  -3.951  16.144  1.00  0.00    -0.003 C 
ATOM     14  C   UNL     1      11.400  -3.940  15.925  1.00  0.00     0.004 C 
ENDBRANCH  12  13
ENDBRANCH  11  12
ENDBRANCH  10  11
ENDBRANCH   9  10
ENDBRANCH   1   9
TORSDOF 10
ENDMDL
MODEL 8
REMARK VINA RESULT:    -4.590      1.102      1.665
REMARK INTER + INTRA:          -7.745
REMARK INTER:                  -6.964
REMARK INTRA:                  -0.781
REMARK UNBOUND:                -0.472
REMARK SMILES CCCCCCCCCCCC(=O)[O-]
REMARK SMILES IDX 7 1 8 2 9 3 10 4 11 5 12 6 13 7 14 8 6 9 5 10 4 11 3 12 2 13
REMARK SMILES IDX 1 14
REMARK H PARENT
REMARK Flexibility Score: inf
ROOT
ATOM      1  C   UNL     1       6.841   1.816  18.141  1.00  0.00     0.000 C 
ENDROOT
BRANCH   1   2
ATOM      2  C   UNL     1       6.632   2.786  19.311  1.00  0.00     0.000 C 
BRANCH   2   3
ATOM      3  C   UNL     1       7.513   4.032  19.159  1.00  0.00     0.000 C 
BRANCH   3   4
ATOM      4  C   UNL     1       8.610   4.065  20.233  1.00  0.00     0.006 C 
BRANCH   4   5
ATOM      5  C   UNL     1       8.093   3.611  21.604  1.00  0.00     0.053 C 
BRANCH   5   6
ATOM      6  C   UNL     1       7.571   4.761  22.410  1.00  0.00     0.041 C 
ATOM      7  O   UNL     1       7.277   4.604  23.624  1.00  0.00    -0.550 OA
ATOM      8  O   UNL     1       7.378   5.998  21.810  1.00  0.00    -0.550 OA
ENDBRANCH   5   6
ENDBRANCH   4   5
ENDBRANCH   3   4
ENDBRANCH   2   3
ENDBRANCH   1   2
BRANCH   1   9
ATOM      9  C   UNL     1       7.516   0.522  18.610  1.00  0.00     0.000 C 
BRANCH   9  10
ATOM     10  C   UNL     1       8.907   0.367  17.980  1.00  0.00    -0.000 C 
BRANCH  10  11
ATOM     11  C   UNL     1       9.322  -1.104  17.816  1.00  0.00    -0.000 C 
BRANCH  11  12
ATOM     12  C   UNL     1       8.231  -1.955  17.144  1.00  0.00    -0.000 C 
BRANCH  12  13
ATOM     13  C   UNL     1       8.123  -1.687  15.634  1.00  0.00    -0.003 C 
ATOM     14  C   UNL     1       6.751  -1.150  15.227  1.00  0.00     0.004 C 
ENDBRANCH  12  13
ENDBRANCH  11  12
ENDBRANCH  10  11
ENDBRANCH   9  10
ENDBRANCH   1   9
TORSDOF 10
ENDMDL
MODEL 9
REMARK VINA RESULT:    -4.583     10.906     12.497
REMARK INTER + INTRA:          -7.733
REMARK INTER:                  -7.298
REMARK INTRA:                  -0.436
REMARK UNBOUND:                -0.472
REMARK SMILES CCCCCCCCCCCC(=O)[O-]
REMARK SMILES IDX 7 1 8 2 9 3 10 4 11 5 12 6 13 7 14 8 6 9 5 10 4 11 3 12 2 13
REMARK SMILES IDX 1 14
REMARK H PARENT
REMARK Flexibility Score: inf
ROOT
ATOM      1  C   UNL     1      15.039   0.319   9.581  1.00  0.00     0.000 C 
ENDROOT
BRANCH   1   2
ATOM      2  C   UNL     1      15.982   1.500   9.844  1.00  0.00     0.000 C 
BRANCH   2   3
ATOM      3  C   UNL     1      16.329   1.607  11.334  1.00  0.00     0.000 C 
BRANCH   3   4
ATOM      4  C   UNL     1      15.293   2.459  12.081  1.00  0.00     0.006 C 
BRANCH   4   5
ATOM      5  C   UNL     1      15.690   3.940  12.136  1.00  0.00     0.053 C 
BRANCH   5   6
ATOM      6  C   UNL     1      16.588   4.232  13.299  1.00  0.00     0.041 C 
ATOM      7  O   UNL     1      17.836   4.287  13.139  1.00  0.00    -0.550 OA
ATOM      8  O   UNL     1      16.048   4.411  14.565  1.00  0.00    -0.550 OA
ENDBRANCH   5   6
ENDBRANCH   4   5
ENDBRANCH   3   4
ENDBRANCH   2   3
ENDBRANCH   1   2
BRANCH   1   9
ATOM      9  C   UNL     1      15.601  -0.604   8.494  1.00  0.00     0.000 C 
BRANCH   9  10
ATOM     10  C   UNL     1      15.573  -2.070   8.948  1.00  0.00    -0.000 C 
BRANCH  10  11
ATOM     11  C   UNL     1      14.732  -2.962   8.020  1.00  0.00    -0.000 C 
BRANCH  11  12
ATOM     12  C   UNL     1      15.594  -3.926   7.186  1.00  0.00    -0.000 C 
BRANCH  12  13
ATOM     13  C   UNL     1      16.847  -4.397   7.942  1.00  0.00    -0.003 C 
ATOM     14  C   UNL     1      18.117  -4.296   7.097  1.00  0.00     0.004 C 
ENDBRANCH  12  13
ENDBRANCH  11  12
ENDBRANCH  10  11
ENDBRANCH   9  10
ENDBRANCH   1   9
TORSDOF 10
ENDMDL
