MODEL 1
REMARK VINA RESULT:    -4.008      0.000      0.000
REMARK INTER + INTRA:          -8.494
REMARK INTER:                  -7.523
REMARK INTRA:                  -0.972
REMARK UNBOUND:                -0.972
REMARK SMILES CCCCCC=CCC=CCCCCCCCC(=O)OC
REMARK SMILES IDX 11 1 10 2 9 3 8 4 7 5 6 6 5 7 4 8 3 9 2 10 1 11 12 12 13 13
REMARK SMILES IDX 14 14 15 15 16 16 17 17 18 18 19 19 20 20 21 21
REMARK H PARENT
REMARK Flexibility Score: inf
ROOT
ATOM      1  C   UNL     1       9.278  -4.894 -13.827  1.00  0.00     0.027 C 
ENDROOT
BRANCH   1   2
ATOM      2  C   UNL     1       8.416  -3.668 -13.966  1.00  0.00    -0.031 C 
ATOM      3  C   UNL     1       8.926  -2.431 -13.874  1.00  0.00    -0.027 C 
BRANCH   3   4
ATOM      4  C   UNL     1       8.039  -1.225 -14.015  1.00  0.00     0.054 C 
BRANCH   4   5
ATOM      5  C   UNL     1       8.368  -0.448 -15.258  1.00  0.00    -0.027 C 
ATOM      6  C   UNL     1       9.387  -0.806 -16.055  1.00  0.00    -0.031 C 
BRANCH   6   7
ATOM      7  C   UNL     1       9.724  -0.033 -17.300  1.00  0.00     0.027 C 
BRANCH   7   8
ATOM      8  C   UNL     1       8.452   0.393 -18.046  1.00  0.00     0.004 C 
BRANCH   8   9
ATOM      9  C   UNL     1       8.341   1.924 -18.110  1.00  0.00     0.000 C 
BRANCH   9  10
ATOM     10  C   UNL     1       9.339   2.626 -17.177  1.00  0.00    -0.003 C 
ATOM     11  C   UNL     1       8.653   3.417 -16.063  1.00  0.00     0.004 C 
ENDBRANCH   9  10
ENDBRANCH   8   9
ENDBRANCH   7   8
ENDBRANCH   6   7
ENDBRANCH   4   5
ENDBRANCH   3   4
ENDBRANCH   1   2
BRANCH   1  12
ATOM     12  C   UNL     1       8.463  -6.164 -13.520  1.00  0.00     0.004 C 
BRANCH  12  13
ATOM     13  C   UNL     1       7.094  -5.897 -12.866  1.00  0.00     0.000 C 
BRANCH  13  14
ATOM     14  C   UNL     1       6.653  -6.953 -11.837  1.00  0.00     0.000 C 
BRANCH  14  15
ATOM     15  C   UNL     1       5.191  -7.418 -12.011  1.00  0.00     0.001 C 
BRANCH  15  16
ATOM     16  C   UNL     1       4.641  -8.104 -10.749  1.00  0.00     0.012 C 
BRANCH  16  17
ATOM     17  C   UNL     1       3.361  -7.435 -10.233  1.00  0.00     0.123 C 
BRANCH  17  18
ATOM     18  C   UNL     1       2.704  -8.244  -9.157  1.00  0.00     0.305 C 
ATOM     19  O   UNL     1       3.357  -8.560  -8.124  1.00  0.00    -0.252 OA
BRANCH  18  20
ATOM     20  O   UNL     1       1.382  -8.662  -9.320  1.00  0.00    -0.469 OA
ATOM     21  C   UNL     1       0.341  -7.769  -9.696  1.00  0.00     0.282 C 
ENDBRANCH  18  20
ENDBRANCH  17  18
ENDBRANCH  16  17
ENDBRANCH  15  16
ENDBRANCH  14  15
ENDBRANCH  13  14
ENDBRANCH  12  13
ENDBRANCH   1  12
TORSDOF 15
ENDMDL
MODEL 2
REMARK VINA RESULT:    -3.737     10.932     12.997
REMARK INTER + INTRA:          -7.985
REMARK INTER:                  -6.546
REMARK INTRA:                  -1.439
REMARK UNBOUND:                -0.972
REMARK SMILES CCCCCC=CCC=CCCCCCCCC(=O)OC
REMARK SMILES IDX 11 1 10 2 9 3 8 4 7 5 6 6 5 7 4 8 3 9 2 10 1 11 12 12 13 13
REMARK SMILES IDX 14 14 15 15 16 16 17 17 18 18 19 19 20 20 21 21
REMARK H PARENT
REMARK Flexibility Score: inf
ROOT
ATOM      1  C   UNL     1       0.411   4.905 -15.004  1.00  0.00     0.027 C 
ENDROOT
BRANCH   1   2
ATOM      2  C   UNL     1      -0.101   6.217 -14.472  1.00  0.00    -0.031 C 
ATOM      3  C   UNL     1       0.731   7.198 -14.094  1.00  0.00    -0.027 C 
BRANCH   3   4
ATOM      4  C   UNL     1       0.191   8.497 -13.562  1.00  0.00     0.054 C 
BRANCH   4   5
ATOM      5  C   UNL     1       0.322   9.598 -14.577  1.00  0.00    -0.027 C 
ATOM      6  C   UNL     1       1.248   9.546 -15.547  1.00  0.00    -0.031 C 
BRANCH   6   7
ATOM      7  C   UNL     1       1.386  10.644 -16.565  1.00  0.00     0.027 C 
BRANCH   7   8
ATOM      8  C   UNL     1       0.788  10.225 -17.915  1.00  0.00     0.004 C 
BRANCH   8   9
ATOM      9  C   UNL     1       1.838   9.520 -18.785  1.00  0.00     0.000 C 
BRANCH   9  10
ATOM     10  C   UNL     1       1.368   8.142 -19.274  1.00  0.00    -0.003 C 
ATOM     11  C   UNL     1       2.329   7.512 -20.283  1.00  0.00     0.004 C 
ENDBRANCH   9  10
ENDBRANCH   8   9
ENDBRANCH   7   8
ENDBRANCH   6   7
ENDBRANCH   4   5
ENDBRANCH   3   4
ENDBRANCH   1   2
BRANCH   1  12
ATOM     12  C   UNL     1       1.034   4.020 -13.910  1.00  0.00     0.004 C 
BRANCH  12  13
ATOM     13  C   UNL     1       0.253   4.007 -12.582  1.00  0.00     0.000 C 
BRANCH  13  14
ATOM     14  C   UNL     1       1.130   3.975 -11.317  1.00  0.00     0.000 C 
BRANCH  14  15
ATOM     15  C   UNL     1       2.624   4.251 -11.591  1.00  0.00     0.001 C 
BRANCH  15  16
ATOM     16  C   UNL     1       2.963   5.750 -11.523  1.00  0.00     0.012 C 
BRANCH  16  17
ATOM     17  C   UNL     1       2.270   6.451 -10.347  1.00  0.00     0.123 C 
BRANCH  17  18
ATOM     18  C   UNL     1       3.129   6.461  -9.120  1.00  0.00     0.305 C 
ATOM     19  O   UNL     1       4.133   5.700  -9.052  1.00  0.00    -0.252 OA
BRANCH  18  20
ATOM     20  O   UNL     1       2.794   7.296  -8.052  1.00  0.00    -0.469 OA
ATOM     21  C   UNL     1       1.898   8.392  -8.192  1.00  0.00     0.282 C 
ENDBRANCH  18  20
ENDBRANCH  17  18
ENDBRANCH  16  17
ENDBRANCH  15  16
ENDBRANCH  14  15
ENDBRANCH  13  14
ENDBRANCH  12  13
ENDBRANCH   1  12
TORSDOF 15
ENDMDL
MODEL 3
REMARK VINA RESULT:    -3.718      4.778     11.053
REMARK INTER + INTRA:          -7.950
REMARK INTER:                  -7.470
REMARK INTRA:                  -0.480
REMARK UNBOUND:                -0.972
REMARK SMILES CCCCCC=CCC=CCCCCCCCC(=O)OC
REMARK SMILES IDX 11 1 10 2 9 3 8 4 7 5 6 6 5 7 4 8 3 9 2 10 1 11 12 12 13 13
REMARK SMILES IDX 14 14 15 15 16 16 17 17 18 18 19 19 20 20 21 21
REMARK H PARENT
REMARK Flexibility Score: inf
ROOT
ATOM      1  C   UNL     1       7.844  -5.267 -13.814  1.00  0.00     0.027 C 
ENDROOT
BRANCH   1   2
ATOM      2  C   UNL     1       7.631  -6.249 -12.693  1.00  0.00    -0.031 C 
ATOM      3  C   UNL     1       6.406  -6.667 -12.344  1.00  0.00    -0.027 C 
BRANCH   3   4
ATOM      4  C   UNL     1       6.223  -7.646 -11.217  1.00  0.00     0.054 C 
BRANCH   4   5
ATOM      5  C   UNL     1       4.767  -7.896 -10.943  1.00  0.00    -0.027 C 
ATOM      6  C   UNL     1       4.204  -7.536  -9.779  1.00  0.00    -0.031 C 
BRANCH   6   7
ATOM      7  C   UNL     1       2.749  -7.784  -9.496  1.00  0.00     0.027 C 
BRANCH   7   8
ATOM      8  C   UNL     1       1.856  -6.888 -10.365  1.00  0.00     0.004 C 
BRANCH   8   9
ATOM      9  C   UNL     1       0.377  -7.059  -9.990  1.00  0.00     0.000 C 
BRANCH   9  10
ATOM     10  C   UNL     1       0.062  -8.466  -9.460  1.00  0.00    -0.003 C 
ATOM     11  C   UNL     1       0.010  -8.526  -7.934  1.00  0.00     0.004 C 
ENDBRANCH   9  10
ENDBRANCH   8   9
ENDBRANCH   7   8
ENDBRANCH   6   7
ENDBRANCH   4   5
ENDBRANCH   3   4
ENDBRANCH   1   2
BRANCH   1  12
ATOM     12  C   UNL     1       9.218  -4.576 -13.748  1.00  0.00     0.004 C 
BRANCH  12  13
ATOM     13  C   UNL     1       9.216  -3.112 -14.226  1.00  0.00     0.000 C 
BRANCH  13  14
ATOM     14  C   UNL     1       8.000  -2.285 -13.769  1.00  0.00     0.000 C 
BRANCH  14  15
ATOM     15  C   UNL     1       7.901  -0.901 -14.447  1.00  0.00     0.001 C 
BRANCH  15  16
ATOM     16  C   UNL     1       8.877  -0.758 -15.627  1.00  0.00     0.012 C 
BRANCH  16  17
ATOM     17  C   UNL     1       8.951   0.683 -16.150  1.00  0.00     0.123 C 
BRANCH  17  18
ATOM     18  C   UNL     1       9.583   0.751 -17.507  1.00  0.00     0.305 C 
ATOM     19  O   UNL     1      10.796   1.081 -17.618  1.00  0.00    -0.252 OA
BRANCH  18  20
ATOM     20  O   UNL     1       8.815   0.469 -18.639  1.00  0.00    -0.469 OA
ATOM     21  C   UNL     1       7.397   0.570 -18.643  1.00  0.00     0.282 C 
ENDBRANCH  18  20
ENDBRANCH  17  18
ENDBRANCH  16  17
ENDBRANCH  15  16
ENDBRANCH  14  15
ENDBRANCH  13  14
ENDBRANCH  12  13
ENDBRANCH   1  12
TORSDOF 15
ENDMDL
MODEL 4
REMARK VINA RESULT:    -3.718     12.778     16.614
REMARK INTER + INTRA:          -7.949
REMARK INTER:                  -6.628
REMARK INTRA:                  -1.321
REMARK UNBOUND:                -0.972
REMARK SMILES CCCCCC=CCC=CCCCCCCCC(=O)OC
REMARK SMILES IDX 11 1 10 2 9 3 8 4 7 5 6 6 5 7 4 8 3 9 2 10 1 11 12 12 13 13
REMARK SMILES IDX 14 14 15 15 16 16 17 17 18 18 19 19 20 20 21 21
REMARK H PARENT
REMARK Flexibility Score: inf
ROOT
ATOM      1  C   UNL     1       1.695  10.049 -15.576  1.00  0.00     0.027 C 
ENDROOT
BRANCH   1   2
ATOM      2  C   UNL     1       0.895   8.774 -15.613  1.00  0.00    -0.031 C 
ATOM      3  C   UNL     1       0.739   8.007 -14.525  1.00  0.00    -0.027 C 
BRANCH   3   4
ATOM      4  C   UNL     1      -0.064   6.737 -14.592  1.00  0.00     0.054 C 
BRANCH   4   5
ATOM      5  C   UNL     1       0.171   5.879 -13.381  1.00  0.00    -0.027 C 
ATOM      6  C   UNL     1       1.362   5.854 -12.764  1.00  0.00    -0.031 C 
BRANCH   6   7
ATOM      7  C   UNL     1       1.605   4.997 -11.553  1.00  0.00     0.027 C 
BRANCH   7   8
ATOM      8  C   UNL     1       1.343   5.780 -10.260  1.00  0.00     0.004 C 
BRANCH   8   9
ATOM      9  C   UNL     1       2.130   7.099 -10.248  1.00  0.00     0.000 C 
BRANCH   9  10
ATOM     10  C   UNL     1       2.759   7.397  -8.879  1.00  0.00    -0.003 C 
ATOM     11  C   UNL     1       1.873   8.278  -7.998  1.00  0.00     0.004 C 
ENDBRANCH   9  10
ENDBRANCH   8   9
ENDBRANCH   7   8
ENDBRANCH   6   7
ENDBRANCH   4   5
ENDBRANCH   3   4
ENDBRANCH   1   2
BRANCH   1  12
ATOM     12  C   UNL     1       1.281  11.045 -16.674  1.00  0.00     0.004 C 
BRANCH  12  13
ATOM     13  C   UNL     1      -0.082  10.740 -17.326  1.00  0.00     0.000 C 
BRANCH  13  14
ATOM     14  C   UNL     1      -0.020  10.406 -18.828  1.00  0.00     0.000 C 
BRANCH  14  15
ATOM     15  C   UNL     1       1.380   9.969 -19.309  1.00  0.00     0.001 C 
BRANCH  15  16
ATOM     16  C   UNL     1       1.557   8.441 -19.280  1.00  0.00     0.012 C 
BRANCH  16  17
ATOM     17  C   UNL     1       2.470   7.939 -20.406  1.00  0.00     0.123 C 
BRANCH  17  18
ATOM     18  C   UNL     1       2.033   8.447 -21.745  1.00  0.00     0.305 C 
ATOM     19  O   UNL     1       0.925   8.078 -22.225  1.00  0.00    -0.252 OA
BRANCH  18  20
ATOM     20  O   UNL     1       2.868   9.307 -22.462  1.00  0.00    -0.469 OA
ATOM     21  C   UNL     1       2.390  10.494 -23.081  1.00  0.00     0.282 C 
ENDBRANCH  18  20
ENDBRANCH  17  18
ENDBRANCH  16  17
ENDBRANCH  15  16
ENDBRANCH  14  15
ENDBRANCH  13  14
ENDBRANCH  12  13
ENDBRANCH   1  12
TORSDOF 15
ENDMDL
MODEL 5
REMARK VINA RESULT:    -3.597      1.828      2.341
REMARK INTER + INTRA:          -7.722
REMARK INTER:                  -6.831
REMARK INTRA:                  -0.892
REMARK UNBOUND:                -0.972
REMARK SMILES CCCCCC=CCC=CCCCCCCCC(=O)OC
REMARK SMILES IDX 11 1 10 2 9 3 8 4 7 5 6 6 5 7 4 8 3 9 2 10 1 11 12 12 13 13
REMARK SMILES IDX 14 14 15 15 16 16 17 17 18 18 19 19 20 20 21 21
REMARK H PARENT
REMARK Flexibility Score: inf
ROOT
ATOM      1  C   UNL     1       4.049  -3.076 -13.873  1.00  0.00     0.027 C 
ENDROOT
BRANCH   1   2
ATOM      2  C   UNL     1       5.500  -2.995 -13.479  1.00  0.00    -0.031 C 
ATOM      3  C   UNL     1       6.276  -1.968 -13.852  1.00  0.00    -0.027 C 
BRANCH   3   4
ATOM      4  C   UNL     1       7.723  -1.915 -13.446  1.00  0.00     0.054 C 
BRANCH   4   5
ATOM      5  C   UNL     1       8.603  -1.550 -14.608  1.00  0.00    -0.027 C 
ATOM      6  C   UNL     1       8.378  -0.442 -15.332  1.00  0.00    -0.031 C 
BRANCH   6   7
ATOM      7  C   UNL     1       9.252  -0.071 -16.497  1.00  0.00     0.027 C 
BRANCH   7   8
ATOM      8  C   UNL     1       8.427   0.560 -17.628  1.00  0.00     0.004 C 
BRANCH   8   9
ATOM      9  C   UNL     1       8.978   1.943 -18.003  1.00  0.00     0.000 C 
BRANCH   9  10
ATOM     10  C   UNL     1       9.550   2.698 -16.793  1.00  0.00    -0.003 C 
ATOM     11  C   UNL     1       8.569   3.716 -16.212  1.00  0.00     0.004 C 
ENDBRANCH   9  10
ENDBRANCH   8   9
ENDBRANCH   7   8
ENDBRANCH   6   7
ENDBRANCH   4   5
ENDBRANCH   3   4
ENDBRANCH   1   2
BRANCH   1  12
ATOM     12  C   UNL     1       3.460  -4.487 -13.693  1.00  0.00     0.004 C 
BRANCH  12  13
ATOM     13  C   UNL     1       4.380  -5.625 -14.176  1.00  0.00     0.000 C 
BRANCH  13  14
ATOM     14  C   UNL     1       4.628  -6.738 -13.141  1.00  0.00     0.000 C 
BRANCH  14  15
ATOM     15  C   UNL     1       6.018  -6.666 -12.473  1.00  0.00     0.001 C 
BRANCH  15  16
ATOM     16  C   UNL     1       6.148  -7.641 -11.290  1.00  0.00     0.012 C 
BRANCH  16  17
ATOM     17  C   UNL     1       4.938  -8.575 -11.169  1.00  0.00     0.123 C 
BRANCH  17  18
ATOM     18  C   UNL     1       3.939  -8.065 -10.176  1.00  0.00     0.305 C 
ATOM     19  O   UNL     1       4.327  -7.378  -9.191  1.00  0.00    -0.252 OA
BRANCH  18  20
ATOM     20  O   UNL     1       2.587  -8.376 -10.338  1.00  0.00    -0.469 OA
ATOM     21  C   UNL     1       1.557  -7.692  -9.636  1.00  0.00     0.282 C 
ENDBRANCH  18  20
ENDBRANCH  17  18
ENDBRANCH  16  17
ENDBRANCH  15  16
ENDBRANCH  14  15
ENDBRANCH  13  14
ENDBRANCH  12  13
ENDBRANCH   1  12
TORSDOF 15
ENDMDL
MODEL 6
REMARK VINA RESULT:    -3.539     10.638     13.229
REMARK INTER + INTRA:          -7.614
REMARK INTER:                  -6.353
REMARK INTRA:                  -1.261
REMARK UNBOUND:                -0.972
REMARK SMILES CCCCCC=CCC=CCCCCCCCC(=O)OC
REMARK SMILES IDX 11 1 10 2 9 3 8 4 7 5 6 6 5 7 4 8 3 9 2 10 1 11 12 12 13 13
REMARK SMILES IDX 14 14 15 15 16 16 17 17 18 18 19 19 20 20 21 21
REMARK H PARENT
REMARK Flexibility Score: inf
ROOT
ATOM      1  C   UNL     1       1.544   7.656 -12.362  1.00  0.00     0.027 C 
ENDROOT
BRANCH   1   2
ATOM      2  C   UNL     1       0.682   8.277 -13.429  1.00  0.00    -0.031 C 
ATOM      3  C   UNL     1       0.904   8.058 -14.732  1.00  0.00    -0.027 C 
BRANCH   3   4
ATOM      4  C   UNL     1       0.029   8.695 -15.776  1.00  0.00     0.054 C 
BRANCH   4   5
ATOM      5  C   UNL     1       0.610   8.527 -17.152  1.00  0.00    -0.027 C 
ATOM      6  C   UNL     1       1.116   9.569 -17.828  1.00  0.00    -0.031 C 
BRANCH   6   7
ATOM      7  C   UNL     1       1.697   9.409 -19.205  1.00  0.00     0.027 C 
BRANCH   7   8
ATOM      8  C   UNL     1       0.617   9.572 -20.283  1.00  0.00     0.004 C 
BRANCH   8   9
ATOM      9  C   UNL     1       0.994   8.805 -21.558  1.00  0.00     0.000 C 
BRANCH   9  10
ATOM     10  C   UNL     1       1.108   9.721 -22.786  1.00  0.00    -0.003 C 
ATOM     11  C   UNL     1       2.464  10.423 -22.877  1.00  0.00     0.004 C 
ENDBRANCH   9  10
ENDBRANCH   8   9
ENDBRANCH   7   8
ENDBRANCH   6   7
ENDBRANCH   4   5
ENDBRANCH   3   4
ENDBRANCH   1   2
BRANCH   1  12
ATOM     12  C   UNL     1       0.997   7.891 -10.942  1.00  0.00     0.004 C 
BRANCH  12  13
ATOM     13  C   UNL     1       1.867   7.294  -9.819  1.00  0.00     0.000 C 
BRANCH  13  14
ATOM     14  C   UNL     1       1.152   6.264  -8.926  1.00  0.00     0.000 C 
BRANCH  14  15
ATOM     15  C   UNL     1      -0.107   5.649  -9.573  1.00  0.00     0.001 C 
BRANCH  15  16
ATOM     16  C   UNL     1       0.132   4.209 -10.061  1.00  0.00     0.012 C 
BRANCH  16  17
ATOM     17  C   UNL     1       0.121   4.103 -11.591  1.00  0.00     0.123 C 
BRANCH  17  18
ATOM     18  C   UNL     1       1.506   4.008 -12.153  1.00  0.00     0.305 C 
ATOM     19  O   UNL     1       1.693   4.170 -13.391  1.00  0.00    -0.252 OA
BRANCH  18  20
ATOM     20  O   UNL     1       2.575   3.719 -11.303  1.00  0.00    -0.469 OA
ATOM     21  C   UNL     1       3.697   4.582 -11.167  1.00  0.00     0.282 C 
ENDBRANCH  18  20
ENDBRANCH  17  18
ENDBRANCH  16  17
ENDBRANCH  15  16
ENDBRANCH  14  15
ENDBRANCH  13  14
ENDBRANCH  12  13
ENDBRANCH   1  12
TORSDOF 15
ENDMDL
MODEL 7
REMARK VINA RESULT:    -3.449     12.460     16.849
REMARK INTER + INTRA:          -7.446
REMARK INTER:                  -6.278
REMARK INTRA:                  -1.168
REMARK UNBOUND:                -0.972
REMARK SMILES CCCCCC=CCC=CCCCCCCCC(=O)OC
REMARK SMILES IDX 11 1 10 2 9 3 8 4 7 5 6 6 5 7 4 8 3 9 2 10 1 11 12 12 13 13
REMARK SMILES IDX 14 14 15 15 16 16 17 17 18 18 19 19 20 20 21 21
REMARK H PARENT
REMARK Flexibility Score: inf
ROOT
ATOM      1  C   UNL     1       2.168   9.712 -16.080  1.00  0.00     0.027 C 
ENDROOT
BRANCH   1   2
ATOM      2  C   UNL     1       1.212   9.557 -14.927  1.00  0.00    -0.031 C 
ATOM      3  C   UNL     1       1.003   8.371 -14.338  1.00  0.00    -0.027 C 
BRANCH   3   4
ATOM      4  C   UNL     1       0.039   8.246 -13.190  1.00  0.00     0.054 C 
BRANCH   4   5
ATOM      5  C   UNL     1       0.650   7.487 -12.046  1.00  0.00    -0.027 C 
ATOM      6  C   UNL     1       1.963   7.211 -12.013  1.00  0.00    -0.031 C 
BRANCH   6   7
ATOM      7  C   UNL     1       2.581   6.451 -10.873  1.00  0.00     0.027 C 
BRANCH   7   8
ATOM      8  C   UNL     1       3.217   5.142 -11.361  1.00  0.00     0.004 C 
BRANCH   8   9
ATOM      9  C   UNL     1       2.143   4.076 -11.624  1.00  0.00     0.000 C 
BRANCH   9  10
ATOM     10  C   UNL     1       1.705   4.031 -13.096  1.00  0.00    -0.003 C 
ATOM     11  C   UNL     1       0.185   4.018 -13.261  1.00  0.00     0.004 C 
ENDBRANCH   9  10
ENDBRANCH   8   9
ENDBRANCH   7   8
ENDBRANCH   6   7
ENDBRANCH   4   5
ENDBRANCH   3   4
ENDBRANCH   1   2
BRANCH   1  12
ATOM     12  C   UNL     1       1.455  10.029 -17.407  1.00  0.00     0.004 C 
BRANCH  12  13
ATOM     13  C   UNL     1       0.685   8.840 -18.013  1.00  0.00     0.000 C 
BRANCH  13  14
ATOM     14  C   UNL     1       0.937   8.605 -19.514  1.00  0.00     0.000 C 
BRANCH  14  15
ATOM     15  C   UNL     1       2.328   9.074 -19.991  1.00  0.00     0.001 C 
BRANCH  15  16
ATOM     16  C   UNL     1       2.339   9.442 -21.485  1.00  0.00     0.012 C 
BRANCH  16  17
ATOM     17  C   UNL     1       1.207   8.758 -22.262  1.00  0.00     0.123 C 
BRANCH  17  18
ATOM     18  C   UNL     1       0.738   9.593 -23.414  1.00  0.00     0.305 C 
ATOM     19  O   UNL     1      -0.032  10.571 -23.207  1.00  0.00    -0.252 OA
BRANCH  18  20
ATOM     20  O   UNL     1       1.141   9.266 -24.710  1.00  0.00    -0.469 OA
ATOM     21  C   UNL     1       0.619   9.920 -25.859  1.00  0.00     0.282 C 
ENDBRANCH  18  20
ENDBRANCH  17  18
ENDBRANCH  16  17
ENDBRANCH  15  16
ENDBRANCH  14  15
ENDBRANCH  13  14
ENDBRANCH  12  13
ENDBRANCH   1  12
TORSDOF 15
ENDMDL
MODEL 8
REMARK VINA RESULT:    -3.410     10.811     13.912
REMARK INTER + INTRA:          -7.372
REMARK INTER:                  -6.238
REMARK INTRA:                  -1.133
REMARK UNBOUND:                -0.972
REMARK SMILES CCCCCC=CCC=CCCCCCCCC(=O)OC
REMARK SMILES IDX 11 1 10 2 9 3 8 4 7 5 6 6 5 7 4 8 3 9 2 10 1 11 12 12 13 13
REMARK SMILES IDX 14 14 15 15 16 16 17 17 18 18 19 19 20 20 21 21
REMARK H PARENT
REMARK Flexibility Score: inf
ROOT
ATOM      1  C   UNL     1       0.643   7.682 -14.457  1.00  0.00     0.027 C 
ENDROOT
BRANCH   1   2
ATOM      2  C   UNL     1       0.329   8.912 -15.266  1.00  0.00    -0.031 C 
ATOM      3  C   UNL     1       1.181   9.391 -16.183  1.00  0.00    -0.027 C 
BRANCH   3   4
ATOM      4  C   UNL     1       0.841  10.624 -16.974  1.00  0.00     0.054 C 
BRANCH   4   5
ATOM      5  C   UNL     1       0.573  10.290 -18.415  1.00  0.00    -0.027 C 
ATOM      6  C   UNL     1       1.455   9.590 -19.145  1.00  0.00    -0.031 C 
BRANCH   6   7
ATOM      7  C   UNL     1       1.195   9.254 -20.587  1.00  0.00     0.027 C 
BRANCH   7   8
ATOM      8  C   UNL     1       2.508   9.142 -21.374  1.00  0.00     0.004 C 
BRANCH   8   9
ATOM      9  C   UNL     1       2.503  10.087 -22.584  1.00  0.00     0.000 C 
BRANCH   9  10
ATOM     10  C   UNL     1       1.109  10.660 -22.880  1.00  0.00    -0.003 C 
ATOM     11  C   UNL     1       0.886  10.939 -24.366  1.00  0.00     0.004 C 
ENDBRANCH   9  10
ENDBRANCH   8   9
ENDBRANCH   7   8
ENDBRANCH   6   7
ENDBRANCH   4   5
ENDBRANCH   3   4
ENDBRANCH   1   2
BRANCH   1  12
ATOM     12  C   UNL     1       1.199   8.014 -13.060  1.00  0.00     0.004 C 
BRANCH  12  13
ATOM     13  C   UNL     1       0.129   8.435 -12.034  1.00  0.00     0.000 C 
BRANCH  13  14
ATOM     14  C   UNL     1       0.500   8.164 -10.565  1.00  0.00     0.000 C 
BRANCH  14  15
ATOM     15  C   UNL     1       1.912   7.567 -10.381  1.00  0.00     0.001 C 
BRANCH  15  16
ATOM     16  C   UNL     1       1.887   6.238  -9.606  1.00  0.00     0.012 C 
BRANCH  16  17
ATOM     17  C   UNL     1       1.444   5.060 -10.483  1.00  0.00     0.123 C 
BRANCH  17  18
ATOM     18  C   UNL     1       2.547   4.589 -11.381  1.00  0.00     0.305 C 
ATOM     19  O   UNL     1       3.602   4.112 -10.881  1.00  0.00    -0.252 OA
BRANCH  18  20
ATOM     20  O   UNL     1       2.404   4.706 -12.765  1.00  0.00    -0.469 OA
ATOM     21  C   UNL     1       1.566   3.842 -13.521  1.00  0.00     0.282 C 
ENDBRANCH  18  20
ENDBRANCH  17  18
ENDBRANCH  16  17
ENDBRANCH  15  16
ENDBRANCH  14  15
ENDBRANCH  13  14
ENDBRANCH  12  13
ENDBRANCH   1  12
TORSDOF 15
ENDMDL
MODEL 9
REMARK VINA RESULT:    -3.385     10.886     13.063
REMARK INTER + INTRA:          -7.326
REMARK INTER:                  -6.236
REMARK INTRA:                  -1.090
REMARK UNBOUND:                -0.972
REMARK SMILES CCCCCC=CCC=CCCCCCCCC(=O)OC
REMARK SMILES IDX 11 1 10 2 9 3 8 4 7 5 6 6 5 7 4 8 3 9 2 10 1 11 12 12 13 13
REMARK SMILES IDX 14 14 15 15 16 16 17 17 18 18 19 19 20 20 21 21
REMARK H PARENT
REMARK Flexibility Score: inf
ROOT
ATOM      1  C   UNL     1       1.446   7.462 -12.610  1.00  0.00     0.027 C 
ENDROOT
BRANCH   1   2
ATOM      2  C   UNL     1       1.826   8.484 -13.648  1.00  0.00    -0.031 C 
ATOM      3  C   UNL     1       0.922   9.010 -14.486  1.00  0.00    -0.027 C 
BRANCH   3   4
ATOM      4  C   UNL     1       1.332  10.026 -15.515  1.00  0.00     0.054 C 
BRANCH   4   5
ATOM      5  C   UNL     1       1.157   9.492 -16.909  1.00  0.00    -0.027 C 
ATOM      6  C   UNL     1       0.881  10.307 -17.939  1.00  0.00    -0.031 C 
BRANCH   6   7
ATOM      7  C   UNL     1       0.703   9.780 -19.336  1.00  0.00     0.027 C 
BRANCH   7   8
ATOM      8  C   UNL     1       1.324   8.385 -19.484  1.00  0.00     0.004 C 
BRANCH   8   9
ATOM      9  C   UNL     1       2.675   8.460 -20.210  1.00  0.00     0.000 C 
BRANCH   9  10
ATOM     10  C   UNL     1       2.618   7.861 -21.624  1.00  0.00    -0.003 C 
ATOM     11  C   UNL     1       3.264   6.478 -21.707  1.00  0.00     0.004 C 
ENDBRANCH   9  10
ENDBRANCH   8   9
ENDBRANCH   7   8
ENDBRANCH   6   7
ENDBRANCH   4   5
ENDBRANCH   3   4
ENDBRANCH   1   2
BRANCH   1  12
ATOM     12  C   UNL     1       0.745   8.085 -11.389  1.00  0.00     0.004 C 
BRANCH  12  13
ATOM     13  C   UNL     1       1.353   7.680 -10.033  1.00  0.00     0.000 C 
BRANCH  13  14
ATOM     14  C   UNL     1       1.432   6.162  -9.788  1.00  0.00     0.000 C 
BRANCH  14  15
ATOM     15  C   UNL     1       0.097   5.424 -10.023  1.00  0.00     0.001 C 
BRANCH  15  16
ATOM     16  C   UNL     1       0.304   4.010 -10.594  1.00  0.00     0.012 C 
BRANCH  16  17
ATOM     17  C   UNL     1       0.055   3.951 -12.107  1.00  0.00     0.123 C 
BRANCH  17  18
ATOM     18  C   UNL     1       1.337   3.960 -12.882  1.00  0.00     0.305 C 
ATOM     19  O   UNL     1       2.438   3.860 -12.274  1.00  0.00    -0.252 OA
BRANCH  18  20
ATOM     20  O   UNL     1       1.301   4.105 -14.270  1.00  0.00    -0.469 OA
ATOM     21  C   UNL     1       0.381   4.970 -14.924  1.00  0.00     0.282 C 
ENDBRANCH  18  20
ENDBRANCH  17  18
ENDBRANCH  16  17
ENDBRANCH  15  16
ENDBRANCH  14  15
ENDBRANCH  13  14
ENDBRANCH  12  13
ENDBRANCH   1  12
TORSDOF 15
ENDMDL
