MODEL 1
REMARK VINA RESULT:    -5.263      0.000      0.000
REMARK INTER + INTRA:          -9.459
REMARK INTER:                  -8.032
REMARK INTRA:                  -1.427
REMARK UNBOUND:                -1.427
REMARK SMILES COc1cc(C=CCOC(=O)C=Cc2ccc(O)c(OC)c2)ccc1O
REMARK SMILES IDX 9 1 8 2 7 3 6 4 5 5 3 6 25 7 4 8 24 9 23 10 2 11 1 12 26 13
REMARK SMILES IDX 10 15 11 16 12 17 13 18 14 19 22 20 15 21 19 22 16 23 17 24
REMARK SMILES IDX 20 25 21 26 18 27
REMARK H PARENT 26 14 18 28
REMARK Flexibility Score: inf
ROOT
ATOM      1  O   UNL     1      80.310  24.107  42.101  1.00  0.00    -0.458 OA
ENDROOT
BRANCH   1   2
ATOM      2  C   UNL     1      79.373  23.033  42.030  1.00  0.00     0.261 C 
BRANCH   2   3
ATOM      3  C   UNL     1      79.360  22.256  43.312  1.00  0.00     0.015 C 
ATOM      4  C   UNL     1      78.581  22.628  44.335  1.00  0.00     0.007 C 
BRANCH   4   5
ATOM      5  C   UNL     1      78.496  21.892  45.622  1.00  0.00    -0.022 A 
ATOM      6  C   UNL     1      78.545  19.747  46.799  1.00  0.00     0.161 A 
ATOM      7  C   UNL     1      78.325  20.417  48.015  1.00  0.00     0.157 A 
ATOM      8  C   UNL     1      78.623  20.494  45.606  1.00  0.00     0.058 A 
ATOM      9  C   UNL     1      78.182  21.806  48.032  1.00  0.00     0.051 A 
ATOM     10  C   UNL     1      78.262  22.542  46.849  1.00  0.00     0.012 A 
BRANCH   6  11
ATOM     11  O   UNL     1      78.679  18.349  46.810  1.00  0.00    -0.493 OA
ATOM     12  C   UNL     1      79.915  17.657  46.950  1.00  0.00     0.278 C 
ENDBRANCH   6  11
BRANCH   7  13
ATOM     13  O   UNL     1      78.240  19.717  49.218  1.00  0.00    -0.504 OA
ATOM     14  H   UNL     1      78.326  20.175  50.117  1.00  0.00     0.293 HD
ENDBRANCH   7  13
ENDBRANCH   4   5
ENDBRANCH   2   3
ENDBRANCH   1   2
BRANCH   1  15
ATOM     15  C   UNL     1      81.613  23.960  42.594  1.00  0.00     0.331 C 
ATOM     16  O   UNL     1      82.529  23.514  41.851  1.00  0.00    -0.247 OA
BRANCH  15  17
ATOM     17  C   UNL     1      81.931  24.326  43.982  1.00  0.00     0.094 C 
ATOM     18  C   UNL     1      81.187  25.201  44.672  1.00  0.00     0.016 C 
BRANCH  18  19
ATOM     19  C   UNL     1      81.467  25.593  46.075  1.00  0.00    -0.021 A 
ATOM     20  C   UNL     1      80.660  25.174  47.153  1.00  0.00     0.058 A 
ATOM     21  C   UNL     1      82.598  26.378  46.339  1.00  0.00     0.012 A 
ATOM     22  C   UNL     1      80.966  25.560  48.474  1.00  0.00     0.161 A 
ATOM     23  C   UNL     1      82.906  26.764  47.645  1.00  0.00     0.051 A 
ATOM     24  C   UNL     1      82.096  26.364  48.711  1.00  0.00     0.157 A 
BRANCH  22  25
ATOM     25  O   UNL     1      80.178  25.164  49.567  1.00  0.00    -0.493 OA
ATOM     26  C   UNL     1      78.905  25.716  49.888  1.00  0.00     0.278 C 
ENDBRANCH  22  25
BRANCH  24  27
ATOM     27  O   UNL     1      82.433  26.771  50.002  1.00  0.00    -0.504 OA
ATOM     28  H   UNL     1      81.843  26.575  50.801  1.00  0.00     0.293 HD
ENDBRANCH  24  27
ENDBRANCH  18  19
ENDBRANCH  15  17
ENDBRANCH   1  15
TORSDOF 10
ENDMDL
MODEL 2
REMARK VINA RESULT:    -5.241      5.779      9.392
REMARK INTER + INTRA:          -9.425
REMARK INTER:                  -8.014
REMARK INTRA:                  -1.412
REMARK UNBOUND:                -1.427
REMARK SMILES COc1cc(C=CCOC(=O)C=Cc2ccc(O)c(OC)c2)ccc1O
REMARK SMILES IDX 9 1 8 2 7 3 6 4 5 5 3 6 25 7 4 8 24 9 23 10 2 11 1 12 26 13
REMARK SMILES IDX 10 15 11 16 12 17 13 18 14 19 22 20 15 21 19 22 16 23 17 24
REMARK SMILES IDX 20 25 21 26 18 27
REMARK H PARENT 26 14 18 28
REMARK Flexibility Score: inf
ROOT
ATOM      1  O   UNL     1      80.977  15.559  45.512  1.00  0.00    -0.458 OA
ENDROOT
BRANCH   1   2
ATOM      2  C   UNL     1      81.150  16.398  46.652  1.00  0.00     0.261 C 
BRANCH   2   3
ATOM      3  C   UNL     1      80.157  17.522  46.639  1.00  0.00     0.015 C 
ATOM      4  C   UNL     1      79.236  17.639  47.603  1.00  0.00     0.007 C 
BRANCH   4   5
ATOM      5  C   UNL     1      78.241  18.739  47.668  1.00  0.00    -0.022 A 
ATOM      6  C   UNL     1      76.060  19.615  46.983  1.00  0.00     0.161 A 
ATOM      7  C   UNL     1      76.308  20.787  47.720  1.00  0.00     0.157 A 
ATOM      8  C   UNL     1      77.036  18.599  46.960  1.00  0.00     0.058 A 
ATOM      9  C   UNL     1      77.510  20.935  48.413  1.00  0.00     0.051 A 
ATOM     10  C   UNL     1      78.474  19.926  48.388  1.00  0.00     0.012 A 
BRANCH   6  11
ATOM     11  O   UNL     1      74.844  19.493  46.291  1.00  0.00    -0.493 OA
ATOM     12  C   UNL     1      74.660  19.817  44.918  1.00  0.00     0.278 C 
ENDBRANCH   6  11
BRANCH   7  13
ATOM     13  O   UNL     1      75.369  21.817  47.770  1.00  0.00    -0.504 OA
ATOM     14  H   UNL     1      75.600  22.771  47.519  1.00  0.00     0.293 HD
ENDBRANCH   7  13
ENDBRANCH   4   5
ENDBRANCH   2   3
ENDBRANCH   1   2
BRANCH   1  15
ATOM     15  C   UNL     1      79.835  14.776  45.298  1.00  0.00     0.331 C 
ATOM     16  O   UNL     1      79.878  13.527  45.465  1.00  0.00    -0.247 OA
BRANCH  15  17
ATOM     17  C   UNL     1      78.571  15.400  44.879  1.00  0.00     0.094 C 
ATOM     18  C   UNL     1      77.383  14.843  45.148  1.00  0.00     0.016 C 
BRANCH  18  19
ATOM     19  C   UNL     1      76.085  15.441  44.752  1.00  0.00    -0.021 A 
ATOM     20  C   UNL     1      75.799  15.818  43.423  1.00  0.00     0.058 A 
ATOM     21  C   UNL     1      75.092  15.599  45.730  1.00  0.00     0.012 A 
ATOM     22  C   UNL     1      74.548  16.373  43.085  1.00  0.00     0.161 A 
ATOM     23  C   UNL     1      73.853  16.149  45.401  1.00  0.00     0.051 A 
ATOM     24  C   UNL     1      73.577  16.540  44.089  1.00  0.00     0.157 A 
BRANCH  22  25
ATOM     25  O   UNL     1      74.238  16.765  41.773  1.00  0.00    -0.493 OA
ATOM     26  C   UNL     1      74.521  18.047  41.223  1.00  0.00     0.278 C 
ENDBRANCH  22  25
BRANCH  24  27
ATOM     27  O   UNL     1      72.327  17.088  43.798  1.00  0.00    -0.504 OA
ATOM     28  H   UNL     1      71.924  17.052  42.870  1.00  0.00     0.293 HD
ENDBRANCH  24  27
ENDBRANCH  18  19
ENDBRANCH  15  17
ENDBRANCH   1  15
TORSDOF 10
ENDMDL
MODEL 3
REMARK VINA RESULT:    -5.228      6.757      9.737
REMARK INTER + INTRA:          -9.406
REMARK INTER:                  -8.082
REMARK INTRA:                  -1.324
REMARK UNBOUND:                -1.427
REMARK SMILES COc1cc(C=CCOC(=O)C=Cc2ccc(O)c(OC)c2)ccc1O
REMARK SMILES IDX 9 1 8 2 7 3 6 4 5 5 3 6 25 7 4 8 24 9 23 10 2 11 1 12 26 13
REMARK SMILES IDX 10 15 11 16 12 17 13 18 14 19 22 20 15 21 19 22 16 23 17 24
REMARK SMILES IDX 20 25 21 26 18 27
REMARK H PARENT 26 14 18 28
REMARK Flexibility Score: inf
ROOT
ATOM      1  O   UNL     1      72.076  18.095  47.321  1.00  0.00    -0.458 OA
ENDROOT
BRANCH   1   2
ATOM      2  C   UNL     1      72.367  16.807  46.782  1.00  0.00     0.261 C 
BRANCH   2   3
ATOM      3  C   UNL     1      73.848  16.578  46.726  1.00  0.00     0.015 C 
ATOM      4  C   UNL     1      74.417  16.004  45.659  1.00  0.00     0.007 C 
BRANCH   4   5
ATOM      5  C   UNL     1      75.877  15.772  45.523  1.00  0.00    -0.022 A 
ATOM      6  C   UNL     1      78.154  16.629  45.793  1.00  0.00     0.161 A 
ATOM      7  C   UNL     1      78.661  15.423  45.278  1.00  0.00     0.157 A 
ATOM      8  C   UNL     1      76.759  16.795  45.906  1.00  0.00     0.058 A 
ATOM      9  C   UNL     1      77.786  14.409  44.882  1.00  0.00     0.051 A 
ATOM     10  C   UNL     1      76.405  14.578  44.997  1.00  0.00     0.012 A 
BRANCH   6  11
ATOM     11  O   UNL     1      79.056  17.634  46.179  1.00  0.00    -0.493 OA
ATOM     12  C   UNL     1      79.406  17.932  47.525  1.00  0.00     0.278 C 
ENDBRANCH   6  11
BRANCH   7  13
ATOM     13  O   UNL     1      80.034  15.216  45.148  1.00  0.00    -0.504 OA
ATOM     14  H   UNL     1      80.659  15.218  45.945  1.00  0.00     0.293 HD
ENDBRANCH   7  13
ENDBRANCH   4   5
ENDBRANCH   2   3
ENDBRANCH   1   2
BRANCH   1  15
ATOM     15  C   UNL     1      72.114  19.273  46.565  1.00  0.00     0.331 C 
ATOM     16  O   UNL     1      71.875  20.386  47.106  1.00  0.00    -0.247 OA
BRANCH  15  17
ATOM     17  C   UNL     1      72.434  19.228  45.130  1.00  0.00     0.094 C 
ATOM     18  C   UNL     1      73.613  19.650  44.654  1.00  0.00     0.016 C 
BRANCH  18  19
ATOM     19  C   UNL     1      73.981  19.615  43.218  1.00  0.00    -0.021 A 
ATOM     20  C   UNL     1      73.378  20.459  42.261  1.00  0.00     0.058 A 
ATOM     21  C   UNL     1      74.993  18.737  42.805  1.00  0.00     0.012 A 
ATOM     22  C   UNL     1      73.764  20.403  40.907  1.00  0.00     0.161 A 
ATOM     23  C   UNL     1      75.378  18.676  41.465  1.00  0.00     0.051 A 
ATOM     24  C   UNL     1      74.768  19.499  40.515  1.00  0.00     0.157 A 
BRANCH  22  25
ATOM     25  O   UNL     1      73.176  21.225  39.931  1.00  0.00    -0.493 OA
ATOM     26  C   UNL     1      73.751  22.428  39.434  1.00  0.00     0.278 C 
ENDBRANCH  22  25
BRANCH  24  27
ATOM     27  O   UNL     1      75.177  19.409  39.184  1.00  0.00    -0.504 OA
ATOM     28  H   UNL     1      74.923  20.104  38.493  1.00  0.00     0.293 HD
ENDBRANCH  24  27
ENDBRANCH  18  19
ENDBRANCH  15  17
ENDBRANCH   1  15
TORSDOF 10
ENDMDL
MODEL 4
REMARK VINA RESULT:    -5.181      4.105      7.576
REMARK INTER + INTRA:          -9.334
REMARK INTER:                  -8.137
REMARK INTRA:                  -1.197
REMARK UNBOUND:                -1.427
REMARK SMILES COc1cc(C=CCOC(=O)C=Cc2ccc(O)c(OC)c2)ccc1O
REMARK SMILES IDX 9 1 8 2 7 3 6 4 5 5 3 6 25 7 4 8 24 9 23 10 2 11 1 12 26 13
REMARK SMILES IDX 10 15 11 16 12 17 13 18 14 19 22 20 15 21 19 22 16 23 17 24
REMARK SMILES IDX 20 25 21 26 18 27
REMARK H PARENT 26 14 18 28
REMARK Flexibility Score: inf
ROOT
ATOM      1  O   UNL     1      77.257  18.744  47.150  1.00  0.00    -0.458 OA
ENDROOT
BRANCH   1   2
ATOM      2  C   UNL     1      77.420  17.356  46.863  1.00  0.00     0.261 C 
BRANCH   2   3
ATOM      3  C   UNL     1      76.706  16.989  45.597  1.00  0.00     0.015 C 
ATOM      4  C   UNL     1      76.328  17.929  44.722  1.00  0.00     0.007 C 
BRANCH   4   5
ATOM      5  C   UNL     1      75.643  17.638  43.438  1.00  0.00    -0.022 A 
ATOM      6  C   UNL     1      74.802  18.468  41.295  1.00  0.00     0.161 A 
ATOM      7  C   UNL     1      74.332  17.179  40.988  1.00  0.00     0.157 A 
ATOM      8  C   UNL     1      75.451  18.689  42.525  1.00  0.00     0.058 A 
ATOM      9  C   UNL     1      74.507  16.136  41.899  1.00  0.00     0.051 A 
ATOM     10  C   UNL     1      75.152  16.359  43.117  1.00  0.00     0.012 A 
BRANCH   6  11
ATOM     11  O   UNL     1      74.607  19.500  40.361  1.00  0.00    -0.493 OA
ATOM     12  C   UNL     1      74.031  20.766  40.664  1.00  0.00     0.278 C 
ENDBRANCH   6  11
BRANCH   7  13
ATOM     13  O   UNL     1      73.683  16.917  39.781  1.00  0.00    -0.504 OA
ATOM     14  H   UNL     1      73.879  17.442  38.938  1.00  0.00     0.293 HD
ENDBRANCH   7  13
ENDBRANCH   4   5
ENDBRANCH   2   3
ENDBRANCH   1   2
BRANCH   1  15
ATOM     15  C   UNL     1      78.305  19.671  47.086  1.00  0.00     0.331 C 
ATOM     16  O   UNL     1      78.900  20.034  48.136  1.00  0.00    -0.247 OA
BRANCH  15  17
ATOM     17  C   UNL     1      78.726  20.232  45.794  1.00  0.00     0.094 C 
ATOM     18  C   UNL     1      78.075  21.252  45.218  1.00  0.00     0.016 C 
BRANCH  18  19
ATOM     19  C   UNL     1      78.470  21.853  43.921  1.00  0.00    -0.021 A 
ATOM     20  C   UNL     1      79.813  22.134  43.593  1.00  0.00     0.058 A 
ATOM     21  C   UNL     1      77.471  22.116  42.972  1.00  0.00     0.012 A 
ATOM     22  C   UNL     1      80.146  22.695  42.344  1.00  0.00     0.161 A 
ATOM     23  C   UNL     1      77.796  22.673  41.735  1.00  0.00     0.051 A 
ATOM     24  C   UNL     1      79.124  22.968  41.417  1.00  0.00     0.157 A 
BRANCH  22  25
ATOM     25  O   UNL     1      81.474  22.992  41.993  1.00  0.00    -0.493 OA
ATOM     26  C   UNL     1      82.392  23.696  42.822  1.00  0.00     0.278 C 
ENDBRANCH  22  25
BRANCH  24  27
ATOM     27  O   UNL     1      79.411  23.527  40.172  1.00  0.00    -0.504 OA
ATOM     28  H   UNL     1      78.683  23.813  39.528  1.00  0.00     0.293 HD
ENDBRANCH  24  27
ENDBRANCH  18  19
ENDBRANCH  15  17
ENDBRANCH   1  15
TORSDOF 10
ENDMDL
MODEL 5
REMARK VINA RESULT:    -5.169      4.010      9.249
REMARK INTER + INTRA:          -9.316
REMARK INTER:                  -7.971
REMARK INTRA:                  -1.345
REMARK UNBOUND:                -1.427
REMARK SMILES COc1cc(C=CCOC(=O)C=Cc2ccc(O)c(OC)c2)ccc1O
REMARK SMILES IDX 9 1 8 2 7 3 6 4 5 5 3 6 25 7 4 8 24 9 23 10 2 11 1 12 26 13
REMARK SMILES IDX 10 15 11 16 12 17 13 18 14 19 22 20 15 21 19 22 16 23 17 24
REMARK SMILES IDX 20 25 21 26 18 27
REMARK H PARENT 26 14 18 28
REMARK Flexibility Score: inf
ROOT
ATOM      1  O   UNL     1      77.683  18.766  47.280  1.00  0.00    -0.458 OA
ENDROOT
BRANCH   1   2
ATOM      2  C   UNL     1      78.190  20.096  47.361  1.00  0.00     0.261 C 
BRANCH   2   3
ATOM      3  C   UNL     1      78.660  20.567  46.018  1.00  0.00     0.015 C 
ATOM      4  C   UNL     1      77.903  21.377  45.267  1.00  0.00     0.007 C 
BRANCH   4   5
ATOM      5  C   UNL     1      78.315  21.904  43.942  1.00  0.00    -0.022 A 
ATOM      6  C   UNL     1      80.128  22.603  42.454  1.00  0.00     0.161 A 
ATOM      7  C   UNL     1      79.182  22.921  41.463  1.00  0.00     0.157 A 
ATOM      8  C   UNL     1      79.683  22.100  43.692  1.00  0.00     0.058 A 
ATOM      9  C   UNL     1      77.820  22.741  41.713  1.00  0.00     0.051 A 
ATOM     10  C   UNL     1      77.384  22.242  42.942  1.00  0.00     0.012 A 
BRANCH   6  11
ATOM     11  O   UNL     1      81.491  22.797  42.177  1.00  0.00    -0.493 OA
ATOM     12  C   UNL     1      82.236  23.949  42.555  1.00  0.00     0.278 C 
ENDBRANCH   6  11
BRANCH   7  13
ATOM     13  O   UNL     1      79.579  23.421  40.223  1.00  0.00    -0.504 OA
ATOM     14  H   UNL     1      80.004  22.836  39.515  1.00  0.00     0.293 HD
ENDBRANCH   7  13
ENDBRANCH   4   5
ENDBRANCH   2   3
ENDBRANCH   1   2
BRANCH   1  15
ATOM     15  C   UNL     1      78.204  17.795  46.414  1.00  0.00     0.331 C 
ATOM     16  O   UNL     1      79.249  17.160  46.722  1.00  0.00    -0.247 OA
BRANCH  15  17
ATOM     17  C   UNL     1      77.539  17.502  45.136  1.00  0.00     0.094 C 
ATOM     18  C   UNL     1      76.336  18.007  44.832  1.00  0.00     0.016 C 
BRANCH  18  19
ATOM     19  C   UNL     1      75.632  17.744  43.552  1.00  0.00    -0.021 A 
ATOM     20  C   UNL     1      75.273  18.775  42.660  1.00  0.00     0.058 A 
ATOM     21  C   UNL     1      75.349  16.415  43.203  1.00  0.00     0.012 A 
ATOM     22  C   UNL     1      74.615  18.482  41.448  1.00  0.00     0.161 A 
ATOM     23  C   UNL     1      74.696  16.119  42.006  1.00  0.00     0.051 A 
ATOM     24  C   UNL     1      74.324  17.143  41.130  1.00  0.00     0.157 A 
BRANCH  22  25
ATOM     25  O   UNL     1      74.238  19.488  40.543  1.00  0.00    -0.493 OA
ATOM     26  C   UNL     1      75.082  20.554  40.122  1.00  0.00     0.278 C 
ENDBRANCH  22  25
BRANCH  24  27
ATOM     27  O   UNL     1      73.671  16.809  39.944  1.00  0.00    -0.504 OA
ATOM     28  H   UNL     1      73.248  17.508  39.345  1.00  0.00     0.293 HD
ENDBRANCH  24  27
ENDBRANCH  18  19
ENDBRANCH  15  17
ENDBRANCH   1  15
TORSDOF 10
ENDMDL
MODEL 6
REMARK VINA RESULT:    -5.128      3.826      6.464
REMARK INTER + INTRA:          -9.253
REMARK INTER:                  -8.719
REMARK INTRA:                  -0.533
REMARK UNBOUND:                -1.427
REMARK SMILES COc1cc(C=CCOC(=O)C=Cc2ccc(O)c(OC)c2)ccc1O
REMARK SMILES IDX 9 1 8 2 7 3 6 4 5 5 3 6 25 7 4 8 24 9 23 10 2 11 1 12 26 13
REMARK SMILES IDX 10 15 11 16 12 17 13 18 14 19 22 20 15 21 19 22 16 23 17 24
REMARK SMILES IDX 20 25 21 26 18 27
REMARK H PARENT 26 14 18 28
REMARK Flexibility Score: inf
ROOT
ATOM      1  O   UNL     1      78.859  18.694  47.413  1.00  0.00    -0.458 OA
ENDROOT
BRANCH   1   2
ATOM      2  C   UNL     1      78.337  17.452  46.945  1.00  0.00     0.261 C 
BRANCH   2   3
ATOM      3  C   UNL     1      77.688  17.621  45.604  1.00  0.00     0.015 C 
ATOM      4  C   UNL     1      76.607  16.907  45.267  1.00  0.00     0.007 C 
BRANCH   4   5
ATOM      5  C   UNL     1      75.897  17.041  43.970  1.00  0.00    -0.022 A 
ATOM      6  C   UNL     1      75.032  18.511  42.215  1.00  0.00     0.161 A 
ATOM      7  C   UNL     1      74.541  17.388  41.526  1.00  0.00     0.157 A 
ATOM      8  C   UNL     1      75.705  18.327  43.439  1.00  0.00     0.058 A 
ATOM      9  C   UNL     1      74.717  16.110  42.059  1.00  0.00     0.051 A 
ATOM     10  C   UNL     1      75.384  15.932  43.272  1.00  0.00     0.012 A 
BRANCH   6  11
ATOM     11  O   UNL     1      74.837  19.786  41.658  1.00  0.00    -0.493 OA
ATOM     12  C   UNL     1      75.686  20.382  40.684  1.00  0.00     0.278 C 
ENDBRANCH   6  11
BRANCH   7  13
ATOM     13  O   UNL     1      73.869  17.525  40.311  1.00  0.00    -0.504 OA
ATOM     14  H   UNL     1      73.459  18.402  40.017  1.00  0.00     0.293 HD
ENDBRANCH   7  13
ENDBRANCH   4   5
ENDBRANCH   2   3
ENDBRANCH   1   2
BRANCH   1  15
ATOM     15  C   UNL     1      78.183  19.521  48.320  1.00  0.00     0.331 C 
ATOM     16  O   UNL     1      77.160  19.100  48.925  1.00  0.00    -0.247 OA
BRANCH  15  17
ATOM     17  C   UNL     1      78.658  20.887  48.580  1.00  0.00     0.094 C 
ATOM     18  C   UNL     1      77.825  21.867  48.956  1.00  0.00     0.016 C 
BRANCH  18  19
ATOM     19  C   UNL     1      78.262  23.257  49.236  1.00  0.00    -0.021 A 
ATOM     20  C   UNL     1      79.566  23.713  48.952  1.00  0.00     0.058 A 
ATOM     21  C   UNL     1      77.329  24.158  49.769  1.00  0.00     0.012 A 
ATOM     22  C   UNL     1      79.937  25.045  49.223  1.00  0.00     0.161 A 
ATOM     23  C   UNL     1      77.692  25.478  50.041  1.00  0.00     0.051 A 
ATOM     24  C   UNL     1      78.989  25.925  49.776  1.00  0.00     0.157 A 
BRANCH  22  25
ATOM     25  O   UNL     1      81.230  25.526  48.957  1.00  0.00    -0.493 OA
ATOM     26  C   UNL     1      81.729  25.830  47.659  1.00  0.00     0.278 C 
ENDBRANCH  22  25
BRANCH  24  27
ATOM     27  O   UNL     1      79.317  27.250  50.064  1.00  0.00    -0.504 OA
ATOM     28  H   UNL     1      79.295  27.619  51.007  1.00  0.00     0.293 HD
ENDBRANCH  24  27
ENDBRANCH  18  19
ENDBRANCH  15  17
ENDBRANCH   1  15
TORSDOF 10
ENDMDL
MODEL 7
REMARK VINA RESULT:    -5.124      3.877      6.128
REMARK INTER + INTRA:          -9.247
REMARK INTER:                  -7.911
REMARK INTRA:                  -1.336
REMARK UNBOUND:                -1.427
REMARK SMILES COc1cc(C=CCOC(=O)C=Cc2ccc(O)c(OC)c2)ccc1O
REMARK SMILES IDX 9 1 8 2 7 3 6 4 5 5 3 6 25 7 4 8 24 9 23 10 2 11 1 12 26 13
REMARK SMILES IDX 10 15 11 16 12 17 13 18 14 19 22 20 15 21 19 22 16 23 17 24
REMARK SMILES IDX 20 25 21 26 18 27
REMARK H PARENT 26 14 18 28
REMARK Flexibility Score: inf
ROOT
ATOM      1  O   UNL     1      78.125  28.127  42.736  1.00  0.00    -0.458 OA
ENDROOT
BRANCH   1   2
ATOM      2  C   UNL     1      78.785  28.824  43.791  1.00  0.00     0.261 C 
BRANCH   2   3
ATOM      3  C   UNL     1      78.882  27.963  45.015  1.00  0.00     0.015 C 
ATOM      4  C   UNL     1      80.058  27.753  45.619  1.00  0.00     0.007 C 
BRANCH   4   5
ATOM      5  C   UNL     1      80.225  26.937  46.847  1.00  0.00    -0.022 A 
ATOM      6  C   UNL     1      79.281  26.144  48.962  1.00  0.00     0.161 A 
ATOM      7  C   UNL     1      80.466  25.432  49.216  1.00  0.00     0.157 A 
ATOM      8  C   UNL     1      79.172  26.898  47.776  1.00  0.00     0.058 A 
ATOM      9  C   UNL     1      81.520  25.481  48.302  1.00  0.00     0.051 A 
ATOM     10  C   UNL     1      81.409  26.229  47.128  1.00  0.00     0.012 A 
BRANCH   6  11
ATOM     11  O   UNL     1      78.238  26.081  49.901  1.00  0.00    -0.493 OA
ATOM     12  C   UNL     1      76.955  26.671  49.725  1.00  0.00     0.278 C 
ENDBRANCH   6  11
BRANCH   7  13
ATOM     13  O   UNL     1      80.616  24.673  50.377  1.00  0.00    -0.504 OA
ATOM     14  H   UNL     1      79.866  24.557  51.047  1.00  0.00     0.293 HD
ENDBRANCH   7  13
ENDBRANCH   4   5
ENDBRANCH   2   3
ENDBRANCH   1   2
BRANCH   1  15
ATOM     15  C   UNL     1      78.767  27.198  41.907  1.00  0.00     0.331 C 
ATOM     16  O   UNL     1      78.178  26.732  40.895  1.00  0.00    -0.247 OA
BRANCH  15  17
ATOM     17  C   UNL     1      80.138  26.756  42.204  1.00  0.00     0.094 C 
ATOM     18  C   UNL     1      80.403  25.518  42.642  1.00  0.00     0.016 C 
BRANCH  18  19
ATOM     19  C   UNL     1      81.770  25.027  42.946  1.00  0.00    -0.021 A 
ATOM     20  C   UNL     1      82.238  23.771  42.509  1.00  0.00     0.058 A 
ATOM     21  C   UNL     1      82.639  25.863  43.663  1.00  0.00     0.012 A 
ATOM     22  C   UNL     1      83.548  23.346  42.810  1.00  0.00     0.161 A 
ATOM     23  C   UNL     1      83.936  25.447  43.965  1.00  0.00     0.051 A 
ATOM     24  C   UNL     1      84.393  24.195  43.548  1.00  0.00     0.157 A 
BRANCH  22  25
ATOM     25  O   UNL     1      84.040  22.098  42.395  1.00  0.00    -0.493 OA
ATOM     26  C   UNL     1      83.438  21.283  41.395  1.00  0.00     0.278 C 
ENDBRANCH  22  25
BRANCH  24  27
ATOM     27  O   UNL     1      85.696  23.812  43.871  1.00  0.00    -0.504 OA
ATOM     28  H   UNL     1      86.350  24.445  44.316  1.00  0.00     0.293 HD
ENDBRANCH  24  27
ENDBRANCH  18  19
ENDBRANCH  15  17
ENDBRANCH   1  15
TORSDOF 10
ENDMDL
MODEL 8
REMARK VINA RESULT:    -5.117      3.739      6.155
REMARK INTER + INTRA:          -9.236
REMARK INTER:                  -8.696
REMARK INTRA:                  -0.540
REMARK UNBOUND:                -1.427
REMARK SMILES COc1cc(C=CCOC(=O)C=Cc2ccc(O)c(OC)c2)ccc1O
REMARK SMILES IDX 9 1 8 2 7 3 6 4 5 5 3 6 25 7 4 8 24 9 23 10 2 11 1 12 26 13
REMARK SMILES IDX 10 15 11 16 12 17 13 18 14 19 22 20 15 21 19 22 16 23 17 24
REMARK SMILES IDX 20 25 21 26 18 27
REMARK H PARENT 26 14 18 28
REMARK Flexibility Score: inf
ROOT
ATOM      1  O   UNL     1      78.948  19.218  47.208  1.00  0.00    -0.458 OA
ENDROOT
BRANCH   1   2
ATOM      2  C   UNL     1      79.230  17.836  46.992  1.00  0.00     0.261 C 
BRANCH   2   3
ATOM      3  C   UNL     1      78.391  17.293  45.875  1.00  0.00     0.015 C 
ATOM      4  C   UNL     1      77.243  17.885  45.525  1.00  0.00     0.007 C 
BRANCH   4   5
ATOM      5  C   UNL     1      76.376  17.419  44.413  1.00  0.00    -0.022 A 
ATOM      6  C   UNL     1      74.896  17.991  42.550  1.00  0.00     0.161 A 
ATOM      7  C   UNL     1      74.695  16.623  42.298  1.00  0.00     0.157 A 
ATOM      8  C   UNL     1      75.734  18.379  43.614  1.00  0.00     0.058 A 
ATOM      9  C   UNL     1      75.321  15.666  43.100  1.00  0.00     0.051 A 
ATOM     10  C   UNL     1      76.151  16.054  44.152  1.00  0.00     0.012 A 
BRANCH   6  11
ATOM     11  O   UNL     1      74.251  18.933  41.731  1.00  0.00    -0.493 OA
ATOM     12  C   UNL     1      74.758  19.405  40.488  1.00  0.00     0.278 C 
ENDBRANCH   6  11
BRANCH   7  13
ATOM     13  O   UNL     1      73.874  16.195  41.255  1.00  0.00    -0.504 OA
ATOM     14  H   UNL     1      72.868  16.304  41.281  1.00  0.00     0.293 HD
ENDBRANCH   7  13
ENDBRANCH   4   5
ENDBRANCH   2   3
ENDBRANCH   1   2
BRANCH   1  15
ATOM     15  C   UNL     1      78.299  19.701  48.351  1.00  0.00     0.331 C 
ATOM     16  O   UNL     1      77.440  18.993  48.944  1.00  0.00    -0.247 OA
BRANCH  15  17
ATOM     17  C   UNL     1      78.611  21.038  48.877  1.00  0.00     0.094 C 
ATOM     18  C   UNL     1      78.256  22.155  48.228  1.00  0.00     0.016 C 
BRANCH  18  19
ATOM     19  C   UNL     1      78.543  23.523  48.725  1.00  0.00    -0.021 A 
ATOM     20  C   UNL     1      78.120  23.972  49.993  1.00  0.00     0.058 A 
ATOM     21  C   UNL     1      79.296  24.386  47.916  1.00  0.00     0.012 A 
ATOM     22  C   UNL     1      78.423  25.277  50.432  1.00  0.00     0.161 A 
ATOM     23  C   UNL     1      79.598  25.679  48.345  1.00  0.00     0.051 A 
ATOM     24  C   UNL     1      79.163  26.130  49.595  1.00  0.00     0.157 A 
BRANCH  22  25
ATOM     25  O   UNL     1      78.009  25.754  51.687  1.00  0.00    -0.493 OA
ATOM     26  C   UNL     1      77.582  24.930  52.766  1.00  0.00     0.278 C 
ENDBRANCH  22  25
BRANCH  24  27
ATOM     27  O   UNL     1      79.481  27.430  49.989  1.00  0.00    -0.504 OA
ATOM     28  H   UNL     1      78.865  27.984  50.572  1.00  0.00     0.293 HD
ENDBRANCH  24  27
ENDBRANCH  18  19
ENDBRANCH  15  17
ENDBRANCH   1  15
TORSDOF 10
ENDMDL
MODEL 9
REMARK VINA RESULT:    -5.074      3.113      5.342
REMARK INTER + INTRA:          -9.170
REMARK INTER:                  -7.726
REMARK INTRA:                  -1.445
REMARK UNBOUND:                -1.427
REMARK SMILES COc1cc(C=CCOC(=O)C=Cc2ccc(O)c(OC)c2)ccc1O
REMARK SMILES IDX 9 1 8 2 7 3 6 4 5 5 3 6 25 7 4 8 24 9 23 10 2 11 1 12 26 13
REMARK SMILES IDX 10 15 11 16 12 17 13 18 14 19 22 20 15 21 19 22 16 23 17 24
REMARK SMILES IDX 20 25 21 26 18 27
REMARK H PARENT 26 14 18 28
REMARK Flexibility Score: inf
ROOT
ATOM      1  O   UNL     1      77.213  25.664  42.517  1.00  0.00    -0.458 OA
ENDROOT
BRANCH   1   2
ATOM      2  C   UNL     1      78.090  25.849  41.407  1.00  0.00     0.261 C 
BRANCH   2   3
ATOM      3  C   UNL     1      79.445  25.281  41.701  1.00  0.00     0.015 C 
ATOM      4  C   UNL     1      80.300  25.921  42.508  1.00  0.00     0.007 C 
BRANCH   4   5
ATOM      5  C   UNL     1      81.646  25.405  42.866  1.00  0.00    -0.022 A 
ATOM      6  C   UNL     1      83.237  23.546  42.833  1.00  0.00     0.161 A 
ATOM      7  C   UNL     1      84.168  24.340  43.526  1.00  0.00     0.157 A 
ATOM      8  C   UNL     1      81.976  24.087  42.512  1.00  0.00     0.058 A 
ATOM      9  C   UNL     1      83.837  25.646  43.892  1.00  0.00     0.051 A 
ATOM     10  C   UNL     1      82.587  26.178  43.572  1.00  0.00     0.012 A 
BRANCH   6  11
ATOM     11  O   UNL     1      83.595  22.234  42.481  1.00  0.00    -0.493 OA
ATOM     12  C   UNL     1      83.229  21.596  41.263  1.00  0.00     0.278 C 
ENDBRANCH   6  11
BRANCH   7  13
ATOM     13  O   UNL     1      85.428  23.845  43.863  1.00  0.00    -0.504 OA
ATOM     14  H   UNL     1      86.220  23.913  43.237  1.00  0.00     0.293 HD
ENDBRANCH   7  13
ENDBRANCH   4   5
ENDBRANCH   2   3
ENDBRANCH   1   2
BRANCH   1  15
ATOM     15  C   UNL     1      77.090  24.451  43.206  1.00  0.00     0.331 C 
ATOM     16  O   UNL     1      76.404  23.510  42.723  1.00  0.00    -0.247 OA
BRANCH  15  17
ATOM     17  C   UNL     1      77.762  24.257  44.499  1.00  0.00     0.094 C 
ATOM     18  C   UNL     1      78.254  25.285  45.203  1.00  0.00     0.016 C 
BRANCH  18  19
ATOM     19  C   UNL     1      78.931  25.136  46.515  1.00  0.00    -0.021 A 
ATOM     20  C   UNL     1      80.176  25.736  46.796  1.00  0.00     0.058 A 
ATOM     21  C   UNL     1      78.288  24.403  47.523  1.00  0.00     0.012 A 
ATOM     22  C   UNL     1      80.781  25.579  48.060  1.00  0.00     0.161 A 
ATOM     23  C   UNL     1      78.883  24.243  48.775  1.00  0.00     0.051 A 
ATOM     24  C   UNL     1      80.125  24.822  49.047  1.00  0.00     0.157 A 
BRANCH  22  25
ATOM     25  O   UNL     1      82.023  26.158  48.367  1.00  0.00    -0.493 OA
ATOM     26  C   UNL     1      82.993  26.553  47.402  1.00  0.00     0.278 C 
ENDBRANCH  22  25
BRANCH  24  27
ATOM     27  O   UNL     1      80.690  24.639  50.310  1.00  0.00    -0.504 OA
ATOM     28  H   UNL     1      81.414  23.951  50.483  1.00  0.00     0.293 HD
ENDBRANCH  24  27
ENDBRANCH  18  19
ENDBRANCH  15  17
ENDBRANCH   1  15
TORSDOF 10
ENDMDL
