MODEL 1
REMARK VINA RESULT:    -5.532      0.000      0.000
REMARK INTER + INTRA:          -6.202
REMARK INTER:                  -6.018
REMARK INTRA:                  -0.184
REMARK UNBOUND:                -0.184
REMARK SMILES Cc1ccc(C(C)C)c(O)c1
REMARK SMILES IDX 1 1 2 2 11 3 9 4 5 5 4 6 3 7 10 8 6 10 7 11 8 12
REMARK H PARENT 10 9
REMARK Flexibility Score: inf
ROOT
ATOM      1  C   UNL     1     -12.096  -8.125  -4.408  1.00  0.00     0.044 C 
ATOM      2  C   UNL     1     -11.460  -7.222  -5.423  1.00  0.00    -0.047 A 
ATOM      3  C   UNL     1     -10.908  -7.754  -6.593  1.00  0.00     0.049 A 
ATOM      4  C   UNL     1     -10.354  -6.920  -7.572  1.00  0.00     0.119 A 
ATOM      5  C   UNL     1     -10.308  -5.515  -7.363  1.00  0.00    -0.004 A 
ATOM      6  C   UNL     1     -10.931  -4.991  -6.209  1.00  0.00     0.008 A 
ATOM      7  C   UNL     1     -11.495  -5.835  -5.251  1.00  0.00     0.004 A 
ENDROOT
BRANCH   4   8
ATOM      8  O   UNL     1      -9.883  -7.527  -8.739  1.00  0.00    -0.508 OA
ATOM      9  H   UNL     1      -9.819  -8.527  -8.872  1.00  0.00     0.293 HD
ENDBRANCH   4   8
BRANCH   5  10
ATOM     10  C   UNL     1      -9.676  -4.576  -8.387  1.00  0.00     0.017 C 
ATOM     11  C   UNL     1     -10.703  -4.184  -9.452  1.00  0.00     0.012 C 
ATOM     12  C   UNL     1      -9.044  -3.323  -7.754  1.00  0.00     0.012 C 
ENDBRANCH   5  10
TORSDOF 2
ENDMDL
MODEL 2
REMARK VINA RESULT:    -4.920      1.334      4.269
REMARK INTER + INTRA:          -5.535
REMARK INTER:                  -5.356
REMARK INTRA:                  -0.179
REMARK UNBOUND:                -0.184
REMARK SMILES Cc1ccc(C(C)C)c(O)c1
REMARK SMILES IDX 1 1 2 2 11 3 9 4 5 5 4 6 3 7 10 8 6 10 7 11 8 12
REMARK H PARENT 10 9
REMARK Flexibility Score: inf
ROOT
ATOM      1  C   UNL     1      -9.544  -2.833 -10.263  1.00  0.00     0.044 C 
ATOM      2  C   UNL     1     -10.063  -3.754  -9.199  1.00  0.00    -0.047 A 
ATOM      3  C   UNL     1     -10.996  -4.746  -9.519  1.00  0.00     0.049 A 
ATOM      4  C   UNL     1     -11.453  -5.645  -8.546  1.00  0.00     0.119 A 
ATOM      5  C   UNL     1     -11.003  -5.527  -7.204  1.00  0.00    -0.004 A 
ATOM      6  C   UNL     1     -10.011  -4.564  -6.915  1.00  0.00     0.008 A 
ATOM      7  C   UNL     1      -9.552  -3.688  -7.899  1.00  0.00     0.004 A 
ENDROOT
BRANCH   4   8
ATOM      8  O   UNL     1     -12.335  -6.646  -8.964  1.00  0.00    -0.508 OA
ATOM      9  H   UNL     1     -12.633  -6.775  -9.920  1.00  0.00     0.293 HD
ENDBRANCH   4   8
BRANCH   5  10
ATOM     10  C   UNL     1     -11.509  -6.459  -6.107  1.00  0.00     0.017 C 
ATOM     11  C   UNL     1     -10.690  -7.753  -6.093  1.00  0.00     0.012 C 
ATOM     12  C   UNL     1     -11.521  -5.809  -4.713  1.00  0.00     0.012 C 
ENDBRANCH   5  10
TORSDOF 2
ENDMDL
MODEL 3
REMARK VINA RESULT:    -4.845     16.005     17.360
REMARK INTER + INTRA:          -5.454
REMARK INTER:                  -5.271
REMARK INTRA:                  -0.183
REMARK UNBOUND:                -0.184
REMARK SMILES Cc1ccc(C(C)C)c(O)c1
REMARK SMILES IDX 1 1 2 2 11 3 9 4 5 5 4 6 3 7 10 8 6 10 7 11 8 12
REMARK H PARENT 10 9
REMARK Flexibility Score: inf
ROOT
ATOM      1  C   UNL     1     -14.779   6.158   3.610  1.00  0.00     0.044 C 
ATOM      2  C   UNL     1     -13.824   5.603   4.624  1.00  0.00    -0.047 A 
ATOM      3  C   UNL     1     -12.874   4.645   4.249  1.00  0.00     0.049 A 
ATOM      4  C   UNL     1     -11.944   4.153   5.174  1.00  0.00     0.119 A 
ATOM      5  C   UNL     1     -11.985   4.594   6.524  1.00  0.00    -0.004 A 
ATOM      6  C   UNL     1     -12.904   5.609   6.867  1.00  0.00     0.008 A 
ATOM      7  C   UNL     1     -13.813   6.103   5.930  1.00  0.00     0.004 A 
ENDROOT
BRANCH   4   8
ATOM      8  O   UNL     1     -10.990   3.248   4.701  1.00  0.00    -0.508 OA
ATOM      9  H   UNL     1     -10.040   3.197   5.040  1.00  0.00     0.293 HD
ENDBRANCH   4   8
BRANCH   5  10
ATOM     10  C   UNL     1     -11.016   4.051   7.571  1.00  0.00     0.017 C 
ATOM     11  C   UNL     1     -10.217   5.197   8.197  1.00  0.00     0.012 C 
ATOM     12  C   UNL     1     -11.705   3.210   8.660  1.00  0.00     0.012 C 
ENDBRANCH   5  10
TORSDOF 2
ENDMDL
MODEL 4
REMARK VINA RESULT:    -4.837      1.978      4.494
REMARK INTER + INTRA:          -5.445
REMARK INTER:                  -5.256
REMARK INTRA:                  -0.190
REMARK UNBOUND:                -0.184
REMARK SMILES Cc1ccc(C(C)C)c(O)c1
REMARK SMILES IDX 1 1 2 2 11 3 9 4 5 5 4 6 3 7 10 8 6 10 7 11 8 12
REMARK H PARENT 10 9
REMARK Flexibility Score: inf
ROOT
ATOM      1  C   UNL     1      -9.591  -3.625  -9.867  1.00  0.00     0.044 C 
ATOM      2  C   UNL     1     -10.398  -4.420  -8.883  1.00  0.00    -0.047 A 
ATOM      3  C   UNL     1      -9.973  -4.540  -7.556  1.00  0.00     0.049 A 
ATOM      4  C   UNL     1     -10.741  -5.239  -6.614  1.00  0.00     0.119 A 
ATOM      5  C   UNL     1     -11.947  -5.874  -7.014  1.00  0.00    -0.004 A 
ATOM      6  C   UNL     1     -12.394  -5.684  -8.340  1.00  0.00     0.008 A 
ATOM      7  C   UNL     1     -11.627  -4.970  -9.262  1.00  0.00     0.004 A 
ENDROOT
BRANCH   4   8
ATOM      8  O   UNL     1     -10.276  -5.256  -5.297  1.00  0.00    -0.508 OA
ATOM      9  H   UNL     1      -9.699  -4.534  -4.889  1.00  0.00     0.293 HD
ENDBRANCH   4   8
BRANCH   5  10
ATOM     10  C   UNL     1     -12.790  -6.679  -6.029  1.00  0.00     0.017 C 
ATOM     11  C   UNL     1     -14.261  -6.660  -6.452  1.00  0.00     0.012 C 
ATOM     12  C   UNL     1     -12.296  -8.124  -5.844  1.00  0.00     0.012 C 
ENDBRANCH   5  10
TORSDOF 2
ENDMDL
MODEL 5
REMARK VINA RESULT:    -4.811      1.815      4.786
REMARK INTER + INTRA:          -5.417
REMARK INTER:                  -5.230
REMARK INTRA:                  -0.187
REMARK UNBOUND:                -0.184
REMARK SMILES Cc1ccc(C(C)C)c(O)c1
REMARK SMILES IDX 1 1 2 2 11 3 9 4 5 5 4 6 3 7 10 8 6 10 7 11 8 12
REMARK H PARENT 10 9
REMARK Flexibility Score: inf
ROOT
ATOM      1  C   UNL     1     -10.697  -1.291 -10.070  1.00  0.00     0.044 C 
ATOM      2  C   UNL     1     -10.632  -2.630  -9.398  1.00  0.00    -0.047 A 
ATOM      3  C   UNL     1      -9.809  -2.821  -8.282  1.00  0.00     0.049 A 
ATOM      4  C   UNL     1      -9.774  -4.052  -7.615  1.00  0.00     0.119 A 
ATOM      5  C   UNL     1     -10.549  -5.141  -8.096  1.00  0.00    -0.004 A 
ATOM      6  C   UNL     1     -11.424  -4.911  -9.180  1.00  0.00     0.008 A 
ATOM      7  C   UNL     1     -11.461  -3.673  -9.823  1.00  0.00     0.004 A 
ENDROOT
BRANCH   4   8
ATOM      8  O   UNL     1      -8.975  -4.138  -6.472  1.00  0.00    -0.508 OA
ATOM      9  H   UNL     1      -8.077  -3.685  -6.372  1.00  0.00     0.293 HD
ENDBRANCH   4   8
BRANCH   5  10
ATOM     10  C   UNL     1     -10.508  -6.510  -7.422  1.00  0.00     0.017 C 
ATOM     11  C   UNL     1     -11.537  -6.575  -6.291  1.00  0.00     0.012 C 
ATOM     12  C   UNL     1     -10.705  -7.679  -8.404  1.00  0.00     0.012 C 
ENDBRANCH   5  10
TORSDOF 2
ENDMDL
MODEL 6
REMARK VINA RESULT:    -4.769      2.204      2.540
REMARK INTER + INTRA:          -5.371
REMARK INTER:                  -5.264
REMARK INTRA:                  -0.107
REMARK UNBOUND:                -0.184
REMARK SMILES Cc1ccc(C(C)C)c(O)c1
REMARK SMILES IDX 1 1 2 2 11 3 9 4 5 5 4 6 3 7 10 8 6 10 7 11 8 12
REMARK H PARENT 10 9
REMARK Flexibility Score: inf
ROOT
ATOM      1  C   UNL     1     -14.621  -7.133  -7.138  1.00  0.00     0.044 C 
ATOM      2  C   UNL     1     -13.353  -6.368  -7.369  1.00  0.00    -0.047 A 
ATOM      3  C   UNL     1     -12.410  -6.238  -6.343  1.00  0.00     0.049 A 
ATOM      4  C   UNL     1     -11.199  -5.567  -6.559  1.00  0.00     0.119 A 
ATOM      5  C   UNL     1     -10.934  -4.969  -7.820  1.00  0.00    -0.004 A 
ATOM      6  C   UNL     1     -11.866  -5.168  -8.862  1.00  0.00     0.008 A 
ATOM      7  C   UNL     1     -13.060  -5.855  -8.637  1.00  0.00     0.004 A 
ENDROOT
BRANCH   4   8
ATOM      8  O   UNL     1     -10.286  -5.540  -5.501  1.00  0.00    -0.508 OA
ATOM      9  H   UNL     1      -9.807  -6.355  -5.144  1.00  0.00     0.293 HD
ENDBRANCH   4   8
BRANCH   5  10
ATOM     10  C   UNL     1      -9.645  -4.194  -8.081  1.00  0.00     0.017 C 
ATOM     11  C   UNL     1      -9.471  -3.948  -9.582  1.00  0.00     0.012 C 
ATOM     12  C   UNL     1      -9.561  -2.871  -7.300  1.00  0.00     0.012 C 
ENDBRANCH   5  10
TORSDOF 2
ENDMDL
MODEL 7
REMARK VINA RESULT:    -4.438     16.526     17.791
REMARK INTER + INTRA:          -5.011
REMARK INTER:                  -4.821
REMARK INTRA:                  -0.190
REMARK UNBOUND:                -0.184
REMARK SMILES Cc1ccc(C(C)C)c(O)c1
REMARK SMILES IDX 1 1 2 2 11 3 9 4 5 5 4 6 3 7 10 8 6 10 7 11 8 12
REMARK H PARENT 10 9
REMARK Flexibility Score: inf
ROOT
ATOM      1  C   UNL     1     -15.064   6.186   3.182  1.00  0.00     0.044 C 
ATOM      2  C   UNL     1     -13.968   5.959   4.181  1.00  0.00    -0.047 A 
ATOM      3  C   UNL     1     -13.728   6.898   5.190  1.00  0.00     0.049 A 
ATOM      4  C   UNL     1     -12.740   6.677   6.159  1.00  0.00     0.119 A 
ATOM      5  C   UNL     1     -11.937   5.507   6.098  1.00  0.00    -0.004 A 
ATOM      6  C   UNL     1     -12.239   4.540   5.115  1.00  0.00     0.008 A 
ATOM      7  C   UNL     1     -13.238   4.766   4.167  1.00  0.00     0.004 A 
ENDROOT
BRANCH   4   8
ATOM      8  O   UNL     1     -12.609   7.634   7.169  1.00  0.00    -0.508 OA
ATOM      9  H   UNL     1     -12.014   8.447   7.106  1.00  0.00     0.293 HD
ENDBRANCH   4   8
BRANCH   5  10
ATOM     10  C   UNL     1     -10.823   5.249   7.110  1.00  0.00     0.017 C 
ATOM     11  C   UNL     1     -10.818   3.776   7.528  1.00  0.00     0.012 C 
ATOM     12  C   UNL     1      -9.433   5.677   6.608  1.00  0.00     0.012 C 
ENDBRANCH   5  10
TORSDOF 2
ENDMDL
MODEL 8
REMARK VINA RESULT:    -4.326      2.104      4.193
REMARK INTER + INTRA:          -4.889
REMARK INTER:                  -4.736
REMARK INTRA:                  -0.153
REMARK UNBOUND:                -0.184
REMARK SMILES Cc1ccc(C(C)C)c(O)c1
REMARK SMILES IDX 1 1 2 2 11 3 9 4 5 5 4 6 3 7 10 8 6 10 7 11 8 12
REMARK H PARENT 10 9
REMARK Flexibility Score: inf
ROOT
ATOM      1  C   UNL     1      -9.237  -3.268  -7.779  1.00  0.00     0.044 C 
ATOM      2  C   UNL     1     -10.076  -4.436  -8.205  1.00  0.00    -0.047 A 
ATOM      3  C   UNL     1      -9.809  -5.716  -7.708  1.00  0.00     0.049 A 
ATOM      4  C   UNL     1     -10.613  -6.808  -8.059  1.00  0.00     0.119 A 
ATOM      5  C   UNL     1     -11.692  -6.630  -8.966  1.00  0.00    -0.004 A 
ATOM      6  C   UNL     1     -11.989  -5.321  -9.403  1.00  0.00     0.008 A 
ATOM      7  C   UNL     1     -11.188  -4.240  -9.030  1.00  0.00     0.004 A 
ENDROOT
BRANCH   4   8
ATOM      8  O   UNL     1     -10.316  -8.038  -7.467  1.00  0.00    -0.508 OA
ATOM      9  H   UNL     1      -9.503  -8.594  -7.693  1.00  0.00     0.293 HD
ENDBRANCH   4   8
BRANCH   5  10
ATOM     10  C   UNL     1     -12.566  -7.802  -9.406  1.00  0.00     0.017 C 
ATOM     11  C   UNL     1     -13.607  -8.119  -8.328  1.00  0.00     0.012 C 
ATOM     12  C   UNL     1     -13.245  -7.577 -10.768  1.00  0.00     0.012 C 
ENDBRANCH   5  10
TORSDOF 2
ENDMDL
MODEL 9
REMARK VINA RESULT:    -4.300      2.747      3.457
REMARK INTER + INTRA:          -4.861
REMARK INTER:                  -4.673
REMARK INTRA:                  -0.189
REMARK UNBOUND:                -0.184
REMARK SMILES Cc1ccc(C(C)C)c(O)c1
REMARK SMILES IDX 1 1 2 2 11 3 9 4 5 5 4 6 3 7 10 8 6 10 7 11 8 12
REMARK H PARENT 10 9
REMARK Flexibility Score: inf
ROOT
ATOM      1  C   UNL     1     -11.104  -5.846  -4.759  1.00  0.00     0.044 C 
ATOM      2  C   UNL     1     -11.714  -5.846  -6.129  1.00  0.00    -0.047 A 
ATOM      3  C   UNL     1     -10.962  -5.436  -7.236  1.00  0.00     0.049 A 
ATOM      4  C   UNL     1     -11.503  -5.476  -8.528  1.00  0.00     0.119 A 
ATOM      5  C   UNL     1     -12.846  -5.897  -8.722  1.00  0.00    -0.004 A 
ATOM      6  C   UNL     1     -13.565  -6.371  -7.603  1.00  0.00     0.008 A 
ATOM      7  C   UNL     1     -13.007  -6.342  -6.325  1.00  0.00     0.004 A 
ENDROOT
BRANCH   4   8
ATOM      8  O   UNL     1     -10.664  -5.111  -9.584  1.00  0.00    -0.508 OA
ATOM      9  H   UNL     1      -9.729  -5.470  -9.716  1.00  0.00     0.293 HD
ENDBRANCH   4   8
BRANCH   5  10
ATOM     10  C   UNL     1     -13.484  -5.915 -10.108  1.00  0.00     0.017 C 
ATOM     11  C   UNL     1     -13.462  -7.334 -10.682  1.00  0.00     0.012 C 
ATOM     12  C   UNL     1     -14.913  -5.343 -10.128  1.00  0.00     0.012 C 
ENDBRANCH   5  10
TORSDOF 2
ENDMDL
