MODEL 1
REMARK VINA RESULT:    -8.321      0.000      0.000
REMARK INTER + INTRA:          -9.827
REMARK INTER:                  -9.781
REMARK INTRA:                  -0.046
REMARK UNBOUND:                -0.046
REMARK SMILES O=c1c(O)c(-c2ccc(O)c(O)c2)oc2cc(O)ccc12
REMARK SMILES IDX 5 1 3 2 2 3 1 4 21 5 15 6 14 7 16 8 17 9 19 10 20 11 6 12
REMARK SMILES IDX 7 13 8 14 9 15 13 16 11 17 10 18 12 20 4 22 18 24
REMARK H PARENT 10 19 12 21 4 23 18 25
REMARK Flexibility Score: inf
ROOT
ATOM      1  C   UNL     1      16.353  22.682  41.230  1.00  0.00     0.180 A 
ATOM      2  C   UNL     1      15.868  23.672  40.349  1.00  0.00     0.208 A 
ATOM      3  C   UNL     1      14.787  24.468  40.756  1.00  0.00     0.235 A 
ATOM      4  O   UNL     1      14.342  25.367  39.991  1.00  0.00    -0.285 OA
ATOM      5  C   UNL     1      14.202  24.248  42.014  1.00  0.00     0.069 A 
ATOM      6  C   UNL     1      14.731  23.222  42.826  1.00  0.00     0.142 A 
ATOM      7  O   UNL     1      15.761  22.497  42.408  1.00  0.00    -0.452 OA
ATOM      8  C   UNL     1      14.169  22.965  44.082  1.00  0.00     0.094 A 
ATOM      9  C   UNL     1      13.084  23.726  44.539  1.00  0.00     0.119 A 
ATOM     10  C   UNL     1      12.561  24.744  43.736  1.00  0.00     0.047 A 
ATOM     11  C   UNL     1      13.113  25.007  42.479  1.00  0.00     0.020 A 
ENDROOT
BRANCH   1  12
ATOM     12  C   UNL     1      17.501  21.814  40.881  1.00  0.00     0.025 A 
ATOM     13  C   UNL     1      17.380  20.414  40.861  1.00  0.00     0.016 A 
ATOM     14  C   UNL     1      18.471  19.615  40.505  1.00  0.00     0.051 A 
ATOM     15  C   UNL     1      19.690  20.200  40.152  1.00  0.00     0.157 A 
ATOM     16  C   UNL     1      18.721  22.399  40.507  1.00  0.00     0.062 A 
ATOM     17  C   UNL     1      19.817  21.599  40.149  1.00  0.00     0.158 A 
BRANCH  15  18
ATOM     18  O   UNL     1      20.761  19.379  39.804  1.00  0.00    -0.504 OA
ATOM     19  H   UNL     1      21.256  18.819  40.488  1.00  0.00     0.293 HD
ENDBRANCH  15  18
BRANCH  17  20
ATOM     20  O   UNL     1      21.028  22.190  39.791  1.00  0.00    -0.504 OA
ATOM     21  H   UNL     1      21.855  21.635  39.604  1.00  0.00     0.293 HD
ENDBRANCH  17  20
ENDBRANCH   1  12
BRANCH   2  22
ATOM     22  O   UNL     1      16.438  23.834  39.085  1.00  0.00    -0.502 OA
ATOM     23  H   UNL     1      17.413  23.630  38.900  1.00  0.00     0.293 HD
ENDBRANCH   2  22
BRANCH   9  24
ATOM     24  O   UNL     1      12.520  23.478  45.789  1.00  0.00    -0.508 OA
ATOM     25  H   UNL     1      13.079  23.139  46.564  1.00  0.00     0.293 HD
ENDBRANCH   9  24
TORSDOF 5
ENDMDL
MODEL 2
REMARK VINA RESULT:    -7.728      2.023      7.521
REMARK INTER + INTRA:          -9.129
REMARK INTER:                  -9.643
REMARK INTRA:                   0.514
REMARK UNBOUND:                -0.046
REMARK SMILES O=c1c(O)c(-c2ccc(O)c(O)c2)oc2cc(O)ccc12
REMARK SMILES IDX 5 1 3 2 2 3 1 4 21 5 15 6 14 7 16 8 17 9 19 10 20 11 6 12
REMARK SMILES IDX 7 13 8 14 9 15 13 16 11 17 10 18 12 20 4 22 18 24
REMARK H PARENT 10 19 12 21 4 23 18 25
REMARK Flexibility Score: inf
ROOT
ATOM      1  C   UNL     1      17.870  22.217  40.182  1.00  0.00     0.180 A 
ATOM      2  C   UNL     1      17.813  21.009  40.911  1.00  0.00     0.208 A 
ATOM      3  C   UNL     1      18.864  20.089  40.778  1.00  0.00     0.235 A 
ATOM      4  O   UNL     1      18.841  19.008  41.427  1.00  0.00    -0.285 OA
ATOM      5  C   UNL     1      19.930  20.379  39.912  1.00  0.00     0.069 A 
ATOM      6  C   UNL     1      19.901  21.598  39.200  1.00  0.00     0.142 A 
ATOM      7  O   UNL     1      18.893  22.446  39.362  1.00  0.00    -0.452 OA
ATOM      8  C   UNL     1      20.941  21.918  38.320  1.00  0.00     0.094 A 
ATOM      9  C   UNL     1      22.014  21.034  38.143  1.00  0.00     0.119 A 
ATOM     10  C   UNL     1      22.045  19.827  38.849  1.00  0.00     0.047 A 
ATOM     11  C   UNL     1      21.011  19.497  39.729  1.00  0.00     0.020 A 
ENDROOT
BRANCH   1  12
ATOM     12  C   UNL     1      16.811  23.246  40.282  1.00  0.00     0.025 A 
ATOM     13  C   UNL     1      16.736  24.310  39.367  1.00  0.00     0.016 A 
ATOM     14  C   UNL     1      15.712  25.257  39.467  1.00  0.00     0.051 A 
ATOM     15  C   UNL     1      14.743  25.149  40.468  1.00  0.00     0.157 A 
ATOM     16  C   UNL     1      15.825  23.129  41.275  1.00  0.00     0.062 A 
ATOM     17  C   UNL     1      14.796  24.078  41.376  1.00  0.00     0.158 A 
BRANCH  15  18
ATOM     18  O   UNL     1      13.736  26.109  40.544  1.00  0.00    -0.504 OA
ATOM     19  H   UNL     1      13.936  27.102  40.545  1.00  0.00     0.293 HD
ENDBRANCH  15  18
BRANCH  17  20
ATOM     20  O   UNL     1      13.830  23.959  42.374  1.00  0.00    -0.504 OA
ATOM     21  H   UNL     1      13.089  24.643  42.479  1.00  0.00     0.293 HD
ENDBRANCH  17  20
ENDBRANCH   1  12
BRANCH   2  22
ATOM     22  O   UNL     1      16.715  20.727  41.727  1.00  0.00    -0.502 OA
ATOM     23  H   UNL     1      16.633  19.860  42.244  1.00  0.00     0.293 HD
ENDBRANCH   2  22
BRANCH   9  24
ATOM     24  O   UNL     1      23.054  21.347  37.270  1.00  0.00    -0.508 OA
ATOM     25  H   UNL     1      22.919  21.982  36.492  1.00  0.00     0.293 HD
ENDBRANCH   9  24
TORSDOF 5
ENDMDL
MODEL 3
REMARK VINA RESULT:    -7.650      1.619      6.734
REMARK INTER + INTRA:          -9.038
REMARK INTER:                  -8.793
REMARK INTRA:                  -0.245
REMARK UNBOUND:                -0.046
REMARK SMILES O=c1c(O)c(-c2ccc(O)c(O)c2)oc2cc(O)ccc12
REMARK SMILES IDX 5 1 3 2 2 3 1 4 21 5 15 6 14 7 16 8 17 9 19 10 20 11 6 12
REMARK SMILES IDX 7 13 8 14 9 15 13 16 11 17 10 18 12 20 4 22 18 24
REMARK H PARENT 10 19 12 21 4 23 18 25
REMARK Flexibility Score: inf
ROOT
ATOM      1  C   UNL     1      14.207  23.873  42.626  1.00  0.00     0.180 A 
ATOM      2  C   UNL     1      14.060  24.895  41.664  1.00  0.00     0.208 A 
ATOM      3  C   UNL     1      14.862  24.861  40.514  1.00  0.00     0.235 A 
ATOM      4  O   UNL     1      14.742  25.757  39.634  1.00  0.00    -0.285 OA
ATOM      5  C   UNL     1      15.801  23.829  40.357  1.00  0.00     0.069 A 
ATOM      6  C   UNL     1      15.903  22.857  41.375  1.00  0.00     0.142 A 
ATOM      7  O   UNL     1      15.119  22.920  42.445  1.00  0.00    -0.452 OA
ATOM      8  C   UNL     1      16.834  21.819  41.260  1.00  0.00     0.094 A 
ATOM      9  C   UNL     1      17.666  21.737  40.135  1.00  0.00     0.119 A 
ATOM     10  C   UNL     1      17.564  22.698  39.124  1.00  0.00     0.047 A 
ATOM     11  C   UNL     1      16.638  23.741  39.230  1.00  0.00     0.020 A 
ENDROOT
BRANCH   1  12
ATOM     12  C   UNL     1      13.385  23.828  43.857  1.00  0.00     0.025 A 
ATOM     13  C   UNL     1      12.020  23.498  43.814  1.00  0.00     0.016 A 
ATOM     14  C   UNL     1      11.270  23.438  44.992  1.00  0.00     0.051 A 
ATOM     15  C   UNL     1      11.872  23.691  46.228  1.00  0.00     0.157 A 
ATOM     16  C   UNL     1      13.992  24.062  45.101  1.00  0.00     0.062 A 
ATOM     17  C   UNL     1      13.241  24.002  46.285  1.00  0.00     0.158 A 
BRANCH  15  18
ATOM     18  O   UNL     1      11.098  23.626  47.385  1.00  0.00    -0.504 OA
ATOM     19  H   UNL     1      11.469  23.280  48.263  1.00  0.00     0.293 HD
ENDBRANCH  15  18
BRANCH  17  20
ATOM     20  O   UNL     1      13.850  24.249  47.515  1.00  0.00    -0.504 OA
ATOM     21  H   UNL     1      14.858  24.298  47.607  1.00  0.00     0.293 HD
ENDBRANCH  17  20
ENDBRANCH   1  12
BRANCH   2  22
ATOM     22  O   UNL     1      13.151  25.935  41.871  1.00  0.00    -0.502 OA
ATOM     23  H   UNL     1      13.392  26.769  42.394  1.00  0.00     0.293 HD
ENDBRANCH   2  22
BRANCH   9  24
ATOM     24  O   UNL     1      18.594  20.706  40.012  1.00  0.00    -0.508 OA
ATOM     25  H   UNL     1      19.412  20.797  39.422  1.00  0.00     0.293 HD
ENDBRANCH   9  24
TORSDOF 5
ENDMDL
MODEL 4
REMARK VINA RESULT:    -7.379      2.225      3.108
REMARK INTER + INTRA:          -8.719
REMARK INTER:                  -9.243
REMARK INTRA:                   0.524
REMARK UNBOUND:                -0.046
REMARK SMILES O=c1c(O)c(-c2ccc(O)c(O)c2)oc2cc(O)ccc12
REMARK SMILES IDX 5 1 3 2 2 3 1 4 21 5 15 6 14 7 16 8 17 9 19 10 20 11 6 12
REMARK SMILES IDX 7 13 8 14 9 15 13 16 11 17 10 18 12 20 4 22 18 24
REMARK H PARENT 10 19 12 21 4 23 18 25
REMARK Flexibility Score: inf
ROOT
ATOM      1  C   UNL     1      18.593  23.005  39.428  1.00  0.00     0.180 A 
ATOM      2  C   UNL     1      18.615  24.168  38.629  1.00  0.00     0.208 A 
ATOM      3  C   UNL     1      17.546  25.073  38.723  1.00  0.00     0.235 A 
ATOM      4  O   UNL     1      17.548  26.125  38.027  1.00  0.00    -0.285 OA
ATOM      5  C   UNL     1      16.477  24.791  39.588  1.00  0.00     0.069 A 
ATOM      6  C   UNL     1      16.519  23.595  40.336  1.00  0.00     0.142 A 
ATOM      7  O   UNL     1      17.553  22.769  40.225  1.00  0.00    -0.452 OA
ATOM      8  C   UNL     1      15.468  23.274  41.201  1.00  0.00     0.094 A 
ATOM      9  C   UNL     1      14.372  24.138  41.332  1.00  0.00     0.119 A 
ATOM     10  C   UNL     1      14.330  25.325  40.594  1.00  0.00     0.047 A 
ATOM     11  C   UNL     1      15.374  25.654  39.725  1.00  0.00     0.020 A 
ENDROOT
BRANCH   1  12
ATOM     12  C   UNL     1      19.691  22.012  39.399  1.00  0.00     0.025 A 
ATOM     13  C   UNL     1      19.733  20.942  40.311  1.00  0.00     0.016 A 
ATOM     14  C   UNL     1      20.766  20.002  40.249  1.00  0.00     0.051 A 
ATOM     15  C   UNL     1      21.760  20.107  39.273  1.00  0.00     0.157 A 
ATOM     16  C   UNL     1      20.679  22.102  38.407  1.00  0.00     0.062 A 
ATOM     17  C   UNL     1      21.717  21.159  38.344  1.00  0.00     0.158 A 
BRANCH  15  18
ATOM     18  O   UNL     1      22.779  19.156  39.237  1.00  0.00    -0.504 OA
ATOM     19  H   UNL     1      22.848  18.468  38.497  1.00  0.00     0.293 HD
ENDBRANCH  15  18
BRANCH  17  20
ATOM     20  O   UNL     1      22.701  21.267  37.362  1.00  0.00    -0.504 OA
ATOM     21  H   UNL     1      23.599  20.806  37.458  1.00  0.00     0.293 HD
ENDBRANCH  17  20
ENDBRANCH   1  12
BRANCH   2  22
ATOM     22  O   UNL     1      19.668  24.397  37.741  1.00  0.00    -0.502 OA
ATOM     23  H   UNL     1      20.579  24.713  38.052  1.00  0.00     0.293 HD
ENDBRANCH   2  22
BRANCH   9  24
ATOM     24  O   UNL     1      13.322  23.826  42.193  1.00  0.00    -0.508 OA
ATOM     25  H   UNL     1      13.129  24.384  43.017  1.00  0.00     0.293 HD
ENDBRANCH   9  24
TORSDOF 5
ENDMDL
MODEL 5
REMARK VINA RESULT:    -7.303      1.339      6.741
REMARK INTER + INTRA:          -8.631
REMARK INTER:                  -9.173
REMARK INTRA:                   0.543
REMARK UNBOUND:                -0.046
REMARK SMILES O=c1c(O)c(-c2ccc(O)c(O)c2)oc2cc(O)ccc12
REMARK SMILES IDX 5 1 3 2 2 3 1 4 21 5 15 6 14 7 16 8 17 9 19 10 20 11 6 12
REMARK SMILES IDX 7 13 8 14 9 15 13 16 11 17 10 18 12 20 4 22 18 24
REMARK H PARENT 10 19 12 21 4 23 18 25
REMARK Flexibility Score: inf
ROOT
ATOM      1  C   UNL     1      14.806  23.776  41.882  1.00  0.00     0.180 A 
ATOM      2  C   UNL     1      14.859  24.707  40.823  1.00  0.00     0.208 A 
ATOM      3  C   UNL     1      15.831  24.542  39.826  1.00  0.00     0.235 A 
ATOM      4  O   UNL     1      15.892  25.354  38.863  1.00  0.00    -0.285 OA
ATOM      5  C   UNL     1      16.737  23.473  39.915  1.00  0.00     0.069 A 
ATOM      6  C   UNL     1      16.633  22.598  41.018  1.00  0.00     0.142 A 
ATOM      7  O   UNL     1      15.692  22.785  41.936  1.00  0.00    -0.452 OA
ATOM      8  C   UNL     1      17.524  21.527  41.148  1.00  0.00     0.094 A 
ATOM      9  C   UNL     1      18.519  21.316  40.184  1.00  0.00     0.119 A 
ATOM     10  C   UNL     1      18.622  22.180  39.089  1.00  0.00     0.047 A 
ATOM     11  C   UNL     1      17.738  23.254  38.951  1.00  0.00     0.020 A 
ENDROOT
BRANCH   1  12
ATOM     12  C   UNL     1      13.798  23.871  42.963  1.00  0.00     0.025 A 
ATOM     13  C   UNL     1      13.827  23.005  44.069  1.00  0.00     0.016 A 
ATOM     14  C   UNL     1      12.880  23.130  45.090  1.00  0.00     0.051 A 
ATOM     15  C   UNL     1      11.901  24.125  45.029  1.00  0.00     0.157 A 
ATOM     16  C   UNL     1      12.826  24.883  42.914  1.00  0.00     0.062 A 
ATOM     17  C   UNL     1      11.875  25.010  43.938  1.00  0.00     0.158 A 
BRANCH  15  18
ATOM     18  O   UNL     1      10.969  24.224  46.060  1.00  0.00    -0.504 OA
ATOM     19  H   UNL     1      11.191  23.964  47.014  1.00  0.00     0.293 HD
ENDBRANCH  15  18
BRANCH  17  20
ATOM     20  O   UNL     1      10.905  26.010  43.873  1.00  0.00    -0.504 OA
ATOM     21  H   UNL     1      11.123  26.976  44.091  1.00  0.00     0.293 HD
ENDBRANCH  17  20
ENDBRANCH   1  12
BRANCH   2  22
ATOM     22  O   UNL     1      13.976  25.789  40.787  1.00  0.00    -0.502 OA
ATOM     23  H   UNL     1      14.294  26.746  40.691  1.00  0.00     0.293 HD
ENDBRANCH   2  22
BRANCH   9  24
ATOM     24  O   UNL     1      19.409  20.250  40.305  1.00  0.00    -0.508 OA
ATOM     25  H   UNL     1      20.320  20.268  39.861  1.00  0.00     0.293 HD
ENDBRANCH   9  24
TORSDOF 5
ENDMDL
MODEL 6
REMARK VINA RESULT:    -6.792      1.254      6.619
REMARK INTER + INTRA:          -8.029
REMARK INTER:                  -8.394
REMARK INTRA:                   0.364
REMARK UNBOUND:                -0.046
REMARK SMILES O=c1c(O)c(-c2ccc(O)c(O)c2)oc2cc(O)ccc12
REMARK SMILES IDX 5 1 3 2 2 3 1 4 21 5 15 6 14 7 16 8 17 9 19 10 20 11 6 12
REMARK SMILES IDX 7 13 8 14 9 15 13 16 11 17 10 18 12 20 4 22 18 24
REMARK H PARENT 10 19 12 21 4 23 18 25
REMARK Flexibility Score: inf
ROOT
ATOM      1  C   UNL     1      16.137  23.342  41.001  1.00  0.00     0.180 A 
ATOM      2  C   UNL     1      16.583  24.171  39.950  1.00  0.00     0.208 A 
ATOM      3  C   UNL     1      17.688  23.762  39.189  1.00  0.00     0.235 A 
ATOM      4  O   UNL     1      18.099  24.481  38.237  1.00  0.00    -0.285 OA
ATOM      5  C   UNL     1      18.335  22.557  39.503  1.00  0.00     0.069 A 
ATOM      6  C   UNL     1      17.842  21.796  40.585  1.00  0.00     0.142 A 
ATOM      7  O   UNL     1      16.787  22.213  41.275  1.00  0.00    -0.452 OA
ATOM      8  C   UNL     1      18.466  20.593  40.936  1.00  0.00     0.094 A 
ATOM      9  C   UNL     1      19.578  20.138  40.214  1.00  0.00     0.119 A 
ATOM     10  C   UNL     1      20.066  20.889  39.141  1.00  0.00     0.047 A 
ATOM     11  C   UNL     1      19.451  22.093  38.783  1.00  0.00     0.020 A 
ENDROOT
BRANCH   1  12
ATOM     12  C   UNL     1      14.967  23.694  41.838  1.00  0.00     0.025 A 
ATOM     13  C   UNL     1      14.009  24.626  41.401  1.00  0.00     0.016 A 
ATOM     14  C   UNL     1      12.900  24.924  42.197  1.00  0.00     0.051 A 
ATOM     15  C   UNL     1      12.722  24.290  43.430  1.00  0.00     0.157 A 
ATOM     16  C   UNL     1      14.775  23.044  43.067  1.00  0.00     0.062 A 
ATOM     17  C   UNL     1      13.662  23.342  43.867  1.00  0.00     0.158 A 
BRANCH  15  18
ATOM     18  O   UNL     1      11.607  24.609  44.202  1.00  0.00    -0.504 OA
ATOM     19  H   UNL     1      10.686  24.238  43.999  1.00  0.00     0.293 HD
ENDBRANCH  15  18
BRANCH  17  20
ATOM     20  O   UNL     1      13.488  22.700  45.092  1.00  0.00    -0.504 OA
ATOM     21  H   UNL     1      12.693  22.097  45.268  1.00  0.00     0.293 HD
ENDBRANCH  17  20
ENDBRANCH   1  12
BRANCH   2  22
ATOM     22  O   UNL     1      15.949  25.389  39.692  1.00  0.00    -0.502 OA
ATOM     23  H   UNL     1      15.210  25.751  40.283  1.00  0.00     0.293 HD
ENDBRANCH   2  22
BRANCH   9  24
ATOM     24  O   UNL     1      20.203  18.940  40.556  1.00  0.00    -0.508 OA
ATOM     25  H   UNL     1      20.852  18.483  39.926  1.00  0.00     0.293 HD
ENDBRANCH   9  24
TORSDOF 5
ENDMDL
MODEL 7
REMARK VINA RESULT:    -6.603      1.823      6.958
REMARK INTER + INTRA:          -7.808
REMARK INTER:                  -7.524
REMARK INTRA:                  -0.284
REMARK UNBOUND:                -0.046
REMARK SMILES O=c1c(O)c(-c2ccc(O)c(O)c2)oc2cc(O)ccc12
REMARK SMILES IDX 5 1 3 2 2 3 1 4 21 5 15 6 14 7 16 8 17 9 19 10 20 11 6 12
REMARK SMILES IDX 7 13 8 14 9 15 13 16 11 17 10 18 12 20 4 22 18 24
REMARK H PARENT 10 19 12 21 4 23 18 25
REMARK Flexibility Score: inf
ROOT
ATOM      1  C   UNL     1      16.764  22.573  40.788  1.00  0.00     0.180 A 
ATOM      2  C   UNL     1      16.709  21.324  40.133  1.00  0.00     0.208 A 
ATOM      3  C   UNL     1      17.846  20.869  39.449  1.00  0.00     0.235 A 
ATOM      4  O   UNL     1      17.825  19.751  38.866  1.00  0.00    -0.285 OA
ATOM      5  C   UNL     1      18.998  21.670  39.414  1.00  0.00     0.069 A 
ATOM      6  C   UNL     1      18.965  22.917  40.074  1.00  0.00     0.142 A 
ATOM      7  O   UNL     1      17.872  23.308  40.718  1.00  0.00    -0.452 OA
ATOM      8  C   UNL     1      20.091  23.749  40.053  1.00  0.00     0.094 A 
ATOM      9  C   UNL     1      21.253  23.348  39.380  1.00  0.00     0.119 A 
ATOM     10  C   UNL     1      21.287  22.111  38.728  1.00  0.00     0.047 A 
ATOM     11  C   UNL     1      20.168  21.274  38.741  1.00  0.00     0.020 A 
ENDROOT
BRANCH   1  12
ATOM     12  C   UNL     1      15.614  23.115  41.546  1.00  0.00     0.025 A 
ATOM     13  C   UNL     1      14.746  24.065  40.979  1.00  0.00     0.016 A 
ATOM     14  C   UNL     1      13.652  24.545  41.705  1.00  0.00     0.051 A 
ATOM     15  C   UNL     1      13.399  24.075  42.996  1.00  0.00     0.157 A 
ATOM     16  C   UNL     1      15.346  22.630  42.835  1.00  0.00     0.062 A 
ATOM     17  C   UNL     1      14.247  23.110  43.565  1.00  0.00     0.158 A 
BRANCH  15  18
ATOM     18  O   UNL     1      12.302  24.573  43.696  1.00  0.00    -0.504 OA
ATOM     19  H   UNL     1      11.664  25.248  43.290  1.00  0.00     0.293 HD
ENDBRANCH  15  18
BRANCH  17  20
ATOM     20  O   UNL     1      13.998  22.632  44.851  1.00  0.00    -0.504 OA
ATOM     21  H   UNL     1      13.216  22.017  45.047  1.00  0.00     0.293 HD
ENDBRANCH  17  20
ENDBRANCH   1  12
BRANCH   2  22
ATOM     22  O   UNL     1      15.532  20.572  40.145  1.00  0.00    -0.502 OA
ATOM     23  H   UNL     1      15.083  20.283  41.005  1.00  0.00     0.293 HD
ENDBRANCH   2  22
BRANCH   9  24
ATOM     24  O   UNL     1      22.378  24.169  39.356  1.00  0.00    -0.508 OA
ATOM     25  H   UNL     1      23.259  23.849  38.972  1.00  0.00     0.293 HD
ENDBRANCH   9  24
TORSDOF 5
ENDMDL
MODEL 8
REMARK VINA RESULT:    -5.783      1.931      6.962
REMARK INTER + INTRA:          -6.844
REMARK INTER:                  -7.386
REMARK INTRA:                   0.542
REMARK UNBOUND:                -0.046
REMARK SMILES O=c1c(O)c(-c2ccc(O)c(O)c2)oc2cc(O)ccc12
REMARK SMILES IDX 5 1 3 2 2 3 1 4 21 5 15 6 14 7 16 8 17 9 19 10 20 11 6 12
REMARK SMILES IDX 7 13 8 14 9 15 13 16 11 17 10 18 12 20 4 22 18 24
REMARK H PARENT 10 19 12 21 4 23 18 25
REMARK Flexibility Score: inf
ROOT
ATOM      1  C   UNL     1      17.648  23.311  39.918  1.00  0.00     0.180 A 
ATOM      2  C   UNL     1      18.140  24.188  38.928  1.00  0.00     0.208 A 
ATOM      3  C   UNL     1      19.333  23.860  38.267  1.00  0.00     0.235 A 
ATOM      4  O   UNL     1      19.787  24.623  37.371  1.00  0.00    -0.285 OA
ATOM      5  C   UNL     1      20.017  22.686  38.618  1.00  0.00     0.069 A 
ATOM      6  C   UNL     1      19.472  21.873  39.635  1.00  0.00     0.142 A 
ATOM      7  O   UNL     1      18.335  22.214  40.230  1.00  0.00    -0.452 OA
ATOM      8  C   UNL     1      20.129  20.699  40.020  1.00  0.00     0.094 A 
ATOM      9  C   UNL     1      21.327  20.324  39.397  1.00  0.00     0.119 A 
ATOM     10  C   UNL     1      21.868  21.127  38.388  1.00  0.00     0.047 A 
ATOM     11  C   UNL     1      21.220  22.303  37.997  1.00  0.00     0.020 A 
ENDROOT
BRANCH   1  12
ATOM     12  C   UNL     1      16.387  23.576  40.648  1.00  0.00     0.025 A 
ATOM     13  C   UNL     1      15.962  22.746  41.699  1.00  0.00     0.016 A 
ATOM     14  C   UNL     1      14.780  23.031  42.390  1.00  0.00     0.051 A 
ATOM     15  C   UNL     1      14.016  24.152  42.053  1.00  0.00     0.157 A 
ATOM     16  C   UNL     1      15.629  24.713  40.325  1.00  0.00     0.062 A 
ATOM     17  C   UNL     1      14.443  25.000  41.018  1.00  0.00     0.158 A 
BRANCH  15  18
ATOM     18  O   UNL     1      12.842  24.408  42.758  1.00  0.00    -0.504 OA
ATOM     19  H   UNL     1      12.571  25.346  43.032  1.00  0.00     0.293 HD
ENDBRANCH  15  18
BRANCH  17  20
ATOM     20  O   UNL     1      13.689  26.124  40.681  1.00  0.00    -0.504 OA
ATOM     21  H   UNL     1      12.683  26.075  40.572  1.00  0.00     0.293 HD
ENDBRANCH  17  20
ENDBRANCH   1  12
BRANCH   2  22
ATOM     22  O   UNL     1      17.463  25.374  38.635  1.00  0.00    -0.502 OA
ATOM     23  H   UNL     1      17.199  25.628  37.691  1.00  0.00     0.293 HD
ENDBRANCH   2  22
BRANCH   9  24
ATOM     24  O   UNL     1      21.987  19.156  39.774  1.00  0.00    -0.508 OA
ATOM     25  H   UNL     1      22.842  18.860  39.318  1.00  0.00     0.293 HD
ENDBRANCH   9  24
TORSDOF 5
ENDMDL
