MODEL 1
REMARK VINA RESULT:    -2.262      0.000      0.000
REMARK INTER + INTRA:          -3.050
REMARK INTER:                  -2.924
REMARK INTRA:                  -0.126
REMARK UNBOUND:                -0.126
REMARK SMILES CCCCCCC=O
REMARK SMILES IDX 4 1 3 2 2 3 1 4 5 5 6 6 7 7 8 8
REMARK H PARENT
REMARK Flexibility Score: inf
ROOT
ATOM      1  C   UNL     1     118.810 116.554 113.106  1.00  0.00     0.000 C 
ENDROOT
BRANCH   1   2
ATOM      2  C   UNL     1     118.205 117.876 112.600  1.00  0.00    -0.000 C 
BRANCH   2   3
ATOM      3  C   UNL     1     119.235 118.948 112.201  1.00  0.00    -0.003 C 
ATOM      4  C   UNL     1     118.819 120.360 112.611  1.00  0.00     0.004 C 
ENDBRANCH   2   3
ENDBRANCH   1   2
BRANCH   1   5
ATOM      5  C   UNL     1     119.503 115.749 111.993  1.00  0.00     0.008 C 
BRANCH   5   6
ATOM      6  C   UNL     1     119.999 114.384 112.492  1.00  0.00     0.072 C 
BRANCH   6   7
ATOM      7  C   UNL     1     119.219 113.893 113.678  1.00  0.00     0.224 C 
ATOM      8  O   UNL     1     119.771 113.213 114.529  1.00  0.00    -0.303 OA
ENDBRANCH   6   7
ENDBRANCH   5   6
ENDBRANCH   1   5
TORSDOF 5
ENDMDL
MODEL 2
REMARK VINA RESULT:    -2.239      5.898      7.181
REMARK INTER + INTRA:          -3.020
REMARK INTER:                  -2.852
REMARK INTRA:                  -0.168
REMARK UNBOUND:                -0.126
REMARK SMILES CCCCCCC=O
REMARK SMILES IDX 4 1 3 2 2 3 1 4 5 5 6 6 7 7 8 8
REMARK H PARENT
REMARK Flexibility Score: inf
ROOT
ATOM      1  C   UNL     1     114.102 116.754 113.738  1.00  0.00     0.000 C 
ENDROOT
BRANCH   1   2
ATOM      2  C   UNL     1     114.452 115.262 113.596  1.00  0.00    -0.000 C 
BRANCH   2   3
ATOM      3  C   UNL     1     114.312 114.697 112.171  1.00  0.00    -0.003 C 
ATOM      4  C   UNL     1     114.344 113.170 112.127  1.00  0.00     0.004 C 
ENDBRANCH   2   3
ENDBRANCH   1   2
BRANCH   1   5
ATOM      5  C   UNL     1     113.779 117.424 112.391  1.00  0.00     0.008 C 
BRANCH   5   6
ATOM      6  C   UNL     1     113.387 118.898 112.559  1.00  0.00     0.072 C 
BRANCH   6   7
ATOM      7  C   UNL     1     113.868 119.472 113.861  1.00  0.00     0.224 C 
ATOM      8  O   UNL     1     113.283 120.421 114.359  1.00  0.00    -0.303 OA
ENDBRANCH   6   7
ENDBRANCH   5   6
ENDBRANCH   1   5
TORSDOF 5
ENDMDL
MODEL 3
REMARK VINA RESULT:    -2.222     11.154     12.304
REMARK INTER + INTRA:          -2.998
REMARK INTER:                  -2.628
REMARK INTRA:                  -0.370
REMARK UNBOUND:                -0.126
REMARK SMILES CCCCCCC=O
REMARK SMILES IDX 4 1 3 2 2 3 1 4 5 5 6 6 7 7 8 8
REMARK H PARENT
REMARK Flexibility Score: inf
ROOT
ATOM      1  C   UNL     1     107.584 111.684 117.801  1.00  0.00     0.000 C 
ENDROOT
BRANCH   1   2
ATOM      2  C   UNL     1     108.115 110.876 116.602  1.00  0.00    -0.000 C 
BRANCH   2   3
ATOM      3  C   UNL     1     107.684 111.407 115.224  1.00  0.00    -0.003 C 
ATOM      4  C   UNL     1     108.347 112.735 114.860  1.00  0.00     0.004 C 
ENDBRANCH   2   3
ENDBRANCH   1   2
BRANCH   1   5
ATOM      5  C   UNL     1     108.695 112.096 118.783  1.00  0.00     0.008 C 
BRANCH   5   6
ATOM      6  C   UNL     1     109.303 113.460 118.427  1.00  0.00     0.072 C 
BRANCH   6   7
ATOM      7  C   UNL     1     110.767 113.365 118.106  1.00  0.00     0.224 C 
ATOM      8  O   UNL     1     111.153 112.580 117.254  1.00  0.00    -0.303 OA
ENDBRANCH   6   7
ENDBRANCH   5   6
ENDBRANCH   1   5
TORSDOF 5
ENDMDL
MODEL 4
REMARK VINA RESULT:    -2.218      9.934     10.908
REMARK INTER + INTRA:          -2.993
REMARK INTER:                  -2.652
REMARK INTRA:                  -0.341
REMARK UNBOUND:                -0.126
REMARK SMILES CCCCCCC=O
REMARK SMILES IDX 4 1 3 2 2 3 1 4 5 5 6 6 7 7 8 8
REMARK H PARENT
REMARK Flexibility Score: inf
ROOT
ATOM      1  C   UNL     1     113.092 124.550 117.386  1.00  0.00     0.000 C 
ENDROOT
BRANCH   1   2
ATOM      2  C   UNL     1     111.832 125.323 116.954  1.00  0.00    -0.000 C 
BRANCH   2   3
ATOM      3  C   UNL     1     111.659 125.480 115.433  1.00  0.00    -0.003 C 
ATOM      4  C   UNL     1     112.806 124.864 114.634  1.00  0.00     0.004 C 
ENDBRANCH   2   3
ENDBRANCH   1   2
BRANCH   1   5
ATOM      5  C   UNL     1     112.771 123.317 118.248  1.00  0.00     0.008 C 
BRANCH   5   6
ATOM      6  C   UNL     1     111.533 122.564 117.741  1.00  0.00     0.072 C 
BRANCH   6   7
ATOM      7  C   UNL     1     111.894 121.346 116.941  1.00  0.00     0.224 C 
ATOM      8  O   UNL     1     112.486 121.468 115.880  1.00  0.00    -0.303 OA
ENDBRANCH   6   7
ENDBRANCH   5   6
ENDBRANCH   1   5
TORSDOF 5
ENDMDL
MODEL 5
REMARK VINA RESULT:    -2.204      2.807      4.798
REMARK INTER + INTRA:          -2.974
REMARK INTER:                  -2.751
REMARK INTRA:                  -0.223
REMARK UNBOUND:                -0.126
REMARK SMILES CCCCCCC=O
REMARK SMILES IDX 4 1 3 2 2 3 1 4 5 5 6 6 7 7 8 8
REMARK H PARENT
REMARK Flexibility Score: inf
ROOT
ATOM      1  C   UNL     1     118.885 117.805 114.232  1.00  0.00     0.000 C 
ENDROOT
BRANCH   1   2
ATOM      2  C   UNL     1     118.874 116.284 113.990  1.00  0.00    -0.000 C 
BRANCH   2   3
ATOM      3  C   UNL     1     119.197 115.856 112.548  1.00  0.00    -0.003 C 
ATOM      4  C   UNL     1     120.027 114.575 112.475  1.00  0.00     0.004 C 
ENDBRANCH   2   3
ENDBRANCH   1   2
BRANCH   1   5
ATOM      5  C   UNL     1     119.078 118.614 112.937  1.00  0.00     0.008 C 
BRANCH   5   6
ATOM      6  C   UNL     1     118.049 119.746 112.806  1.00  0.00     0.072 C 
BRANCH   6   7
ATOM      7  C   UNL     1     116.722 119.255 112.302  1.00  0.00     0.224 C 
ATOM      8  O   UNL     1     115.786 119.129 113.075  1.00  0.00    -0.303 OA
ENDBRANCH   6   7
ENDBRANCH   5   6
ENDBRANCH   1   5
TORSDOF 5
ENDMDL
MODEL 6
REMARK VINA RESULT:    -2.182      2.823      4.970
REMARK INTER + INTRA:          -2.946
REMARK INTER:                  -2.780
REMARK INTRA:                  -0.166
REMARK UNBOUND:                -0.126
REMARK SMILES CCCCCCC=O
REMARK SMILES IDX 4 1 3 2 2 3 1 4 5 5 6 6 7 7 8 8
REMARK H PARENT
REMARK Flexibility Score: inf
ROOT
ATOM      1  C   UNL     1     118.798 116.587 112.337  1.00  0.00     0.000 C 
ENDROOT
BRANCH   1   2
ATOM      2  C   UNL     1     119.704 115.357 112.145  1.00  0.00    -0.000 C 
BRANCH   2   3
ATOM      3  C   UNL     1     119.070 114.016 112.556  1.00  0.00    -0.003 C 
ATOM      4  C   UNL     1     119.476 113.567 113.959  1.00  0.00     0.004 C 
ENDBRANCH   2   3
ENDBRANCH   1   2
BRANCH   1   5
ATOM      5  C   UNL     1     118.887 117.179 113.754  1.00  0.00     0.008 C 
BRANCH   5   6
ATOM      6  C   UNL     1     119.009 118.709 113.734  1.00  0.00     0.072 C 
BRANCH   6   7
ATOM      7  C   UNL     1     119.126 119.253 112.339  1.00  0.00     0.224 C 
ATOM      8  O   UNL     1     118.622 120.331 112.063  1.00  0.00    -0.303 OA
ENDBRANCH   6   7
ENDBRANCH   5   6
ENDBRANCH   1   5
TORSDOF 5
ENDMDL
MODEL 7
REMARK VINA RESULT:    -2.177      8.573      9.794
REMARK INTER + INTRA:          -2.940
REMARK INTER:                  -2.694
REMARK INTRA:                  -0.246
REMARK UNBOUND:                -0.126
REMARK SMILES CCCCCCC=O
REMARK SMILES IDX 4 1 3 2 2 3 1 4 5 5 6 6 7 7 8 8
REMARK H PARENT
REMARK Flexibility Score: inf
ROOT
ATOM      1  C   UNL     1     124.533 120.335 116.156  1.00  0.00     0.000 C 
ENDROOT
BRANCH   1   2
ATOM      2  C   UNL     1     123.873 120.918 117.419  1.00  0.00    -0.000 C 
BRANCH   2   3
ATOM      3  C   UNL     1     124.271 120.227 118.735  1.00  0.00    -0.003 C 
ATOM      4  C   UNL     1     125.125 121.114 119.641  1.00  0.00     0.004 C 
ENDBRANCH   2   3
ENDBRANCH   1   2
BRANCH   1   5
ATOM      5  C   UNL     1     125.244 121.402 115.306  1.00  0.00     0.008 C 
BRANCH   5   6
ATOM      6  C   UNL     1     125.860 122.511 116.170  1.00  0.00     0.072 C 
BRANCH   6   7
ATOM      7  C   UNL     1     125.608 123.880 115.606  1.00  0.00     0.224 C 
ATOM      8  O   UNL     1     125.688 124.065 114.401  1.00  0.00    -0.303 OA
ENDBRANCH   6   7
ENDBRANCH   5   6
ENDBRANCH   1   5
TORSDOF 5
ENDMDL
MODEL 8
REMARK VINA RESULT:    -2.106      3.377      4.754
REMARK INTER + INTRA:          -2.848
REMARK INTER:                  -2.712
REMARK INTRA:                  -0.136
REMARK UNBOUND:                -0.126
REMARK SMILES CCCCCCC=O
REMARK SMILES IDX 4 1 3 2 2 3 1 4 5 5 6 6 7 7 8 8
REMARK H PARENT
REMARK Flexibility Score: inf
ROOT
ATOM      1  C   UNL     1     116.841 114.378 113.166  1.00  0.00     0.000 C 
ENDROOT
BRANCH   1   2
ATOM      2  C   UNL     1     116.075 114.035 111.875  1.00  0.00    -0.000 C 
BRANCH   2   3
ATOM      3  C   UNL     1     114.761 113.264 112.088  1.00  0.00    -0.003 C 
ATOM      4  C   UNL     1     114.061 113.626 113.398  1.00  0.00     0.004 C 
ENDBRANCH   2   3
ENDBRANCH   1   2
BRANCH   1   5
ATOM      5  C   UNL     1     118.325 113.976 113.106  1.00  0.00     0.008 C 
BRANCH   5   6
ATOM      6  C   UNL     1     119.255 115.197 113.112  1.00  0.00     0.072 C 
BRANCH   6   7
ATOM      7  C   UNL     1     118.877 116.197 114.168  1.00  0.00     0.224 C 
ATOM      8  O   UNL     1     118.998 117.391 113.945  1.00  0.00    -0.303 OA
ENDBRANCH   6   7
ENDBRANCH   5   6
ENDBRANCH   1   5
TORSDOF 5
ENDMDL
