MODEL 1
REMARK VINA RESULT:    -3.504      0.000      0.000
REMARK INTER + INTRA:          -4.868
REMARK INTER:                  -4.528
REMARK INTRA:                  -0.340
REMARK UNBOUND:                -0.340
REMARK SMILES CCCCCCC(=O)[O-]
REMARK SMILES IDX 5 1 6 2 7 3 8 4 9 5 4 6 3 7 2 8 1 9
REMARK H PARENT
REMARK Flexibility Score: inf
ROOT
ATOM      1  C   UNL     1      10.569 -27.610 -29.811  1.00  0.00     0.006 C 
ENDROOT
BRANCH   1   2
ATOM      2  C   UNL     1      10.605 -26.601 -30.969  1.00  0.00     0.053 C 
BRANCH   2   3
ATOM      3  C   UNL     1      10.019 -25.278 -30.589  1.00  0.00     0.041 C 
ATOM      4  O   UNL     1       9.378 -24.601 -31.435  1.00  0.00    -0.550 OA
ATOM      5  O   UNL     1      10.163 -24.800 -29.292  1.00  0.00    -0.550 OA
ENDBRANCH   2   3
ENDBRANCH   1   2
BRANCH   1   6
ATOM      6  C   UNL     1       9.225 -28.356 -29.683  1.00  0.00     0.000 C 
BRANCH   6   7
ATOM      7  C   UNL     1       8.802 -28.557 -28.218  1.00  0.00    -0.000 C 
BRANCH   7   8
ATOM      8  C   UNL     1       8.247 -27.272 -27.582  1.00  0.00    -0.003 C 
ATOM      9  C   UNL     1       9.098 -26.773 -26.414  1.00  0.00     0.004 C 
ENDBRANCH   7   8
ENDBRANCH   6   7
ENDBRANCH   1   6
TORSDOF 5
ENDMDL
MODEL 2
REMARK VINA RESULT:    -3.457      1.497      2.200
REMARK INTER + INTRA:          -4.808
REMARK INTER:                  -4.515
REMARK INTRA:                  -0.293
REMARK UNBOUND:                -0.340
REMARK SMILES CCCCCCC(=O)[O-]
REMARK SMILES IDX 5 1 6 2 7 3 8 4 9 5 4 6 3 7 2 8 1 9
REMARK H PARENT
REMARK Flexibility Score: inf
ROOT
ATOM      1  C   UNL     1      10.780 -27.080 -30.034  1.00  0.00     0.006 C 
ENDROOT
BRANCH   1   2
ATOM      2  C   UNL     1      10.865 -26.768 -31.535  1.00  0.00     0.053 C 
BRANCH   2   3
ATOM      3  C   UNL     1      10.802 -25.299 -31.815  1.00  0.00     0.041 C 
ATOM      4  O   UNL     1       9.865 -24.825 -32.509  1.00  0.00    -0.550 OA
ATOM      5  O   UNL     1      11.769 -24.449 -31.291  1.00  0.00    -0.550 OA
ENDBRANCH   2   3
ENDBRANCH   1   2
BRANCH   1   6
ATOM      6  C   UNL     1       9.552 -26.454 -29.341  1.00  0.00     0.000 C 
BRANCH   6   7
ATOM      7  C   UNL     1       8.636 -27.511 -28.701  1.00  0.00    -0.000 C 
BRANCH   7   8
ATOM      8  C   UNL     1       9.065 -28.948 -29.040  1.00  0.00    -0.003 C 
ATOM      9  C   UNL     1       8.036 -29.688 -29.894  1.00  0.00     0.004 C 
ENDBRANCH   7   8
ENDBRANCH   6   7
ENDBRANCH   1   6
TORSDOF 5
ENDMDL
MODEL 3
REMARK VINA RESULT:    -3.423      3.099      4.352
REMARK INTER + INTRA:          -4.764
REMARK INTER:                  -4.496
REMARK INTRA:                  -0.267
REMARK UNBOUND:                -0.340
REMARK SMILES CCCCCCC(=O)[O-]
REMARK SMILES IDX 5 1 6 2 7 3 8 4 9 5 4 6 3 7 2 8 1 9
REMARK H PARENT
REMARK Flexibility Score: inf
ROOT
ATOM      1  C   UNL     1      10.354 -27.977 -29.164  1.00  0.00     0.006 C 
ENDROOT
BRANCH   1   2
ATOM      2  C   UNL     1       8.867 -28.128 -29.520  1.00  0.00     0.053 C 
BRANCH   2   3
ATOM      3  C   UNL     1       8.418 -29.555 -29.495  1.00  0.00     0.041 C 
ATOM      4  O   UNL     1       7.504 -29.946 -30.267  1.00  0.00    -0.550 OA
ATOM      5  O   UNL     1       9.024 -30.460 -28.631  1.00  0.00    -0.550 OA
ENDBRANCH   2   3
ENDBRANCH   1   2
BRANCH   1   6
ATOM      6  C   UNL     1      11.024 -26.751 -29.818  1.00  0.00     0.000 C 
BRANCH   6   7
ATOM      7  C   UNL     1      10.731 -26.656 -31.326  1.00  0.00    -0.000 C 
BRANCH   7   8
ATOM      8  C   UNL     1      10.369 -25.229 -31.768  1.00  0.00    -0.003 C 
ATOM      9  C   UNL     1       9.507 -24.492 -30.743  1.00  0.00     0.004 C 
ENDBRANCH   7   8
ENDBRANCH   6   7
ENDBRANCH   1   6
TORSDOF 5
ENDMDL
MODEL 4
REMARK VINA RESULT:    -3.348      2.387      4.183
REMARK INTER + INTRA:          -4.666
REMARK INTER:                  -4.382
REMARK INTRA:                  -0.284
REMARK UNBOUND:                -0.340
REMARK SMILES CCCCCCC(=O)[O-]
REMARK SMILES IDX 5 1 6 2 7 3 8 4 9 5 4 6 3 7 2 8 1 9
REMARK H PARENT
REMARK Flexibility Score: inf
ROOT
ATOM      1  C   UNL     1      10.589 -27.396 -30.429  1.00  0.00     0.006 C 
ENDROOT
BRANCH   1   2
ATOM      2  C   UNL     1       9.534 -26.719 -29.541  1.00  0.00     0.053 C 
BRANCH   2   3
ATOM      3  C   UNL     1       8.572 -27.702 -28.951  1.00  0.00     0.041 C 
ATOM      4  O   UNL     1       8.343 -28.794 -29.535  1.00  0.00    -0.550 OA
ATOM      5  O   UNL     1       7.943 -27.421 -27.744  1.00  0.00    -0.550 OA
ENDBRANCH   2   3
ENDBRANCH   1   2
BRANCH   1   6
ATOM      6  C   UNL     1      10.922 -26.600 -31.708  1.00  0.00     0.000 C 
BRANCH   6   7
ATOM      7  C   UNL     1      10.322 -25.184 -31.691  1.00  0.00    -0.000 C 
BRANCH   7   8
ATOM      8  C   UNL     1      11.396 -24.087 -31.765  1.00  0.00    -0.003 C 
ATOM      9  C   UNL     1      11.968 -23.723 -30.395  1.00  0.00     0.004 C 
ENDBRANCH   7   8
ENDBRANCH   6   7
ENDBRANCH   1   6
TORSDOF 5
ENDMDL
MODEL 5
REMARK VINA RESULT:    -3.337      1.771      2.660
REMARK INTER + INTRA:          -4.652
REMARK INTER:                  -4.388
REMARK INTRA:                  -0.264
REMARK UNBOUND:                -0.340
REMARK SMILES CCCCCCC(=O)[O-]
REMARK SMILES IDX 5 1 6 2 7 3 8 4 9 5 4 6 3 7 2 8 1 9
REMARK H PARENT
REMARK Flexibility Score: inf
ROOT
ATOM      1  C   UNL     1      10.943 -26.681 -31.741  1.00  0.00     0.006 C 
ENDROOT
BRANCH   1   2
ATOM      2  C   UNL     1      10.363 -25.260 -31.818  1.00  0.00     0.053 C 
BRANCH   2   3
ATOM      3  C   UNL     1      11.428 -24.210 -31.793  1.00  0.00     0.041 C 
ATOM      4  O   UNL     1      12.101 -24.013 -30.747  1.00  0.00    -0.550 OA
ATOM      5  O   UNL     1      11.692 -23.460 -32.932  1.00  0.00    -0.550 OA
ENDBRANCH   2   3
ENDBRANCH   1   2
BRANCH   1   6
ATOM      6  C   UNL     1      10.616 -27.411 -30.422  1.00  0.00     0.000 C 
BRANCH   6   7
ATOM      7  C   UNL     1       9.527 -26.691 -29.607  1.00  0.00    -0.000 C 
BRANCH   7   8
ATOM      8  C   UNL     1       8.654 -27.665 -28.801  1.00  0.00    -0.003 C 
ATOM      9  C   UNL     1       8.410 -28.986 -29.530  1.00  0.00     0.004 C 
ENDBRANCH   7   8
ENDBRANCH   6   7
ENDBRANCH   1   6
TORSDOF 5
ENDMDL
MODEL 6
REMARK VINA RESULT:    -3.322      2.671      4.203
REMARK INTER + INTRA:          -4.633
REMARK INTER:                  -4.279
REMARK INTRA:                  -0.354
REMARK UNBOUND:                -0.340
REMARK SMILES CCCCCCC(=O)[O-]
REMARK SMILES IDX 5 1 6 2 7 3 8 4 9 5 4 6 3 7 2 8 1 9
REMARK H PARENT
REMARK Flexibility Score: inf
ROOT
ATOM      1  C   UNL     1       8.888 -27.101 -27.597  1.00  0.00     0.006 C 
ENDROOT
BRANCH   1   2
ATOM      2  C   UNL     1       8.069 -27.793 -28.698  1.00  0.00     0.053 C 
BRANCH   2   3
ATOM      3  C   UNL     1       8.613 -29.142 -29.048  1.00  0.00     0.041 C 
ATOM      4  O   UNL     1       8.174 -29.762 -30.053  1.00  0.00    -0.550 OA
ATOM      5  O   UNL     1       9.622 -29.707 -28.277  1.00  0.00    -0.550 OA
ENDBRANCH   2   3
ENDBRANCH   1   2
BRANCH   1   6
ATOM      6  C   UNL     1      10.048 -26.242 -28.140  1.00  0.00     0.000 C 
BRANCH   6   7
ATOM      7  C   UNL     1       9.711 -25.584 -29.490  1.00  0.00    -0.000 C 
BRANCH   7   8
ATOM      8  C   UNL     1      10.845 -25.729 -30.517  1.00  0.00    -0.003 C 
ATOM      9  C   UNL     1      10.769 -27.038 -31.303  1.00  0.00     0.004 C 
ENDBRANCH   7   8
ENDBRANCH   6   7
ENDBRANCH   1   6
TORSDOF 5
ENDMDL
MODEL 7
REMARK VINA RESULT:    -3.308      2.308      4.295
REMARK INTER + INTRA:          -4.615
REMARK INTER:                  -4.305
REMARK INTRA:                  -0.311
REMARK UNBOUND:                -0.340
REMARK SMILES CCCCCCC(=O)[O-]
REMARK SMILES IDX 5 1 6 2 7 3 8 4 9 5 4 6 3 7 2 8 1 9
REMARK H PARENT
REMARK Flexibility Score: inf
ROOT
ATOM      1  C   UNL     1      10.234 -25.600 -28.096  1.00  0.00     0.006 C 
ENDROOT
BRANCH   1   2
ATOM      2  C   UNL     1      10.126 -27.131 -28.169  1.00  0.00     0.053 C 
BRANCH   2   3
ATOM      3  C   UNL     1       8.706 -27.602 -28.161  1.00  0.00     0.041 C 
ATOM      4  O   UNL     1       7.977 -27.401 -27.154  1.00  0.00    -0.550 OA
ATOM      5  O   UNL     1       8.180 -28.246 -29.274  1.00  0.00    -0.550 OA
ENDBRANCH   2   3
ENDBRANCH   1   2
BRANCH   1   6
ATOM      6  C   UNL     1      10.888 -24.968 -29.343  1.00  0.00     0.000 C 
BRANCH   6   7
ATOM      7  C   UNL     1       9.896 -24.809 -30.508  1.00  0.00    -0.000 C 
BRANCH   7   8
ATOM      8  C   UNL     1      10.464 -25.324 -31.840  1.00  0.00    -0.003 C 
ATOM      9  C   UNL     1      10.874 -26.795 -31.781  1.00  0.00     0.004 C 
ENDBRANCH   7   8
ENDBRANCH   6   7
ENDBRANCH   1   6
TORSDOF 5
ENDMDL
MODEL 8
REMARK VINA RESULT:    -3.252      1.800      2.585
REMARK INTER + INTRA:          -4.543
REMARK INTER:                  -4.311
REMARK INTRA:                  -0.231
REMARK UNBOUND:                -0.340
REMARK SMILES CCCCCCC(=O)[O-]
REMARK SMILES IDX 5 1 6 2 7 3 8 4 9 5 4 6 3 7 2 8 1 9
REMARK H PARENT
REMARK Flexibility Score: inf
ROOT
ATOM      1  C   UNL     1      10.565 -27.138 -28.846  1.00  0.00     0.006 C 
ENDROOT
BRANCH   1   2
ATOM      2  C   UNL     1       9.953 -26.212 -29.909  1.00  0.00     0.053 C 
BRANCH   2   3
ATOM      3  C   UNL     1      10.815 -26.099 -31.127  1.00  0.00     0.041 C 
ATOM      4  O   UNL     1      10.944 -27.079 -31.906  1.00  0.00    -0.550 OA
ATOM      5  O   UNL     1      11.460 -24.902 -31.414  1.00  0.00    -0.550 OA
ENDBRANCH   2   3
ENDBRANCH   1   2
BRANCH   1   6
ATOM      6  C   UNL     1       9.884 -28.520 -28.765  1.00  0.00     0.000 C 
BRANCH   6   7
ATOM      7  C   UNL     1       8.406 -28.471 -29.189  1.00  0.00    -0.000 C 
BRANCH   7   8
ATOM      8  C   UNL     1       7.965 -29.738 -29.939  1.00  0.00    -0.003 C 
ATOM      9  C   UNL     1       8.410 -31.024 -29.243  1.00  0.00     0.004 C 
ENDBRANCH   7   8
ENDBRANCH   6   7
ENDBRANCH   1   6
TORSDOF 5
ENDMDL
MODEL 9
REMARK VINA RESULT:    -3.244      2.801      3.841
REMARK INTER + INTRA:          -4.533
REMARK INTER:                  -4.199
REMARK INTRA:                  -0.334
REMARK UNBOUND:                -0.340
REMARK SMILES CCCCCCC(=O)[O-]
REMARK SMILES IDX 5 1 6 2 7 3 8 4 9 5 4 6 3 7 2 8 1 9
REMARK H PARENT
REMARK Flexibility Score: inf
ROOT
ATOM      1  C   UNL     1       8.923 -26.922 -28.722  1.00  0.00     0.006 C 
ENDROOT
BRANCH   1   2
ATOM      2  C   UNL     1       8.425 -27.206 -27.297  1.00  0.00     0.053 C 
BRANCH   2   3
ATOM      3  C   UNL     1       9.441 -26.849 -26.258  1.00  0.00     0.041 C 
ATOM      4  O   UNL     1      10.564 -27.418 -26.247  1.00  0.00    -0.550 OA
ATOM      5  O   UNL     1       9.155 -25.871 -25.312  1.00  0.00    -0.550 OA
ENDBRANCH   2   3
ENDBRANCH   1   2
BRANCH   1   6
ATOM      6  C   UNL     1       9.327 -28.192 -29.499  1.00  0.00     0.000 C 
BRANCH   6   7
ATOM      7  C   UNL     1       8.179 -29.213 -29.592  1.00  0.00    -0.000 C 
BRANCH   7   8
ATOM      8  C   UNL     1       8.581 -30.602 -29.069  1.00  0.00    -0.003 C 
ATOM      9  C   UNL     1       9.796 -30.558 -28.143  1.00  0.00     0.004 C 
ENDBRANCH   7   8
ENDBRANCH   6   7
ENDBRANCH   1   6
TORSDOF 5
ENDMDL
