MODEL 1
REMARK VINA RESULT:    -3.726      0.000      0.000
REMARK INTER + INTRA:          -5.642
REMARK INTER:                  -5.033
REMARK INTRA:                  -0.609
REMARK UNBOUND:                -0.609
REMARK SMILES C=C1CCC=C(C)CC[C@@H]2[C@@H]1CC2(C)C
REMARK SMILES IDX 11 1 12 2 13 3 10 4 14 5 15 6 9 7 8 8 6 9 7 10 5 11 2 13
REMARK SMILES IDX 1 14 3 15 4 16
REMARK H PARENT
REMARK Flexibility Score: 70.00
ROOT
ATOM      1  C   UNL     1       1.492  16.594  16.093  1.00  0.00     0.018 C 
ATOM      2  C   UNL     1       1.154  16.530  17.587  1.00  0.00     0.015 C 
ATOM      3  C   UNL     1       1.052  14.994  17.494  1.00  0.00    -0.031 C 
ATOM      4  C   UNL     1       1.230  15.086  15.955  1.00  0.00     0.002 C 
ATOM      5  C   UNL     1      -0.329  14.462  17.915  1.00  0.00     0.011 C 
ATOM      6  C   UNL     1       2.183  14.293  18.273  1.00  0.00     0.011 C 
ENDROOT
BRANCH   4   7
ATOM      7  C   UNL     1       2.301  14.214  15.235  1.00  0.00     0.009 C 
BRANCH   7   8
ATOM      8  C   UNL     1       2.175  14.051  13.710  1.00  0.00     0.030 C 
BRANCH   8   9
ATOM      9  C   UNL     1       2.861  15.060  12.776  1.00  0.00    -0.077 C 
ATOM     10  C   UNL     1       4.229  14.641  12.280  1.00  0.00     0.039 C 
ATOM     11  C   UNL     1       2.459  16.307  12.392  1.00  0.00    -0.028 CG0
ATOM     12  G   UNL     1       1.203  17.089  12.715  1.00  0.00     0.000 G0
ENDBRANCH   8   9
ENDBRANCH   7   8
ENDBRANCH   4   7
BRANCH   1  13
ATOM     13  C   UNL     1       0.638  17.408  15.150  1.00  0.00    -0.074 C 
ATOM     14  C   UNL     1      -0.706  17.443  15.219  1.00  0.00     0.008 C 
BRANCH  13  15
ATOM     15  C   UNL     1       1.353  17.993  13.958  1.00  0.00     0.035 C 
BRANCH  15  16
ATOM     16  C   UNL     1       1.200  17.079  12.721  1.00  0.00     0.032 CG0
ATOM     17  G   UNL     1       2.458  16.298  12.404  1.00  0.00     0.000 G0
ENDBRANCH  15  16
ENDBRANCH  13  15
ENDBRANCH   1  13
TORSDOF 0
ENDMDL
MODEL 2
REMARK VINA RESULT:    -3.426      1.898      2.448
REMARK INTER + INTRA:          -5.237
REMARK INTER:                  -4.604
REMARK INTRA:                  -0.633
REMARK UNBOUND:                -0.609
REMARK SMILES C=C1CCC=C(C)CC[C@@H]2[C@@H]1CC2(C)C
REMARK SMILES IDX 11 1 12 2 13 3 10 4 14 5 15 6 9 7 8 8 6 9 7 10 5 11 2 13
REMARK SMILES IDX 1 14 3 15 4 16
REMARK H PARENT
REMARK Flexibility Score: 70.00
ROOT
ATOM      1  C   UNL     1       1.708  14.846  16.073  1.00  0.00     0.018 C 
ATOM      2  C   UNL     1       1.397  15.268  17.514  1.00  0.00     0.015 C 
ATOM      3  C   UNL     1       0.350  14.141  17.614  1.00  0.00    -0.031 C 
ATOM      4  C   UNL     1       0.553  13.832  16.106  1.00  0.00     0.002 C 
ATOM      5  C   UNL     1      -1.060  14.665  17.941  1.00  0.00     0.011 C 
ATOM      6  C   UNL     1       0.781  13.039  18.602  1.00  0.00     0.011 C 
ENDROOT
BRANCH   4   7
ATOM      7  C   UNL     1       0.838  12.375  15.635  1.00  0.00     0.009 C 
BRANCH   7   8
ATOM      8  C   UNL     1       0.272  11.948  14.269  1.00  0.00     0.030 C 
BRANCH   8   9
ATOM      9  C   UNL     1       1.104  12.165  12.996  1.00  0.00    -0.077 C 
ATOM     10  C   UNL     1       1.683  10.905  12.390  1.00  0.00     0.039 C 
ATOM     11  C   UNL     1       1.466  13.329  12.378  1.00  0.00    -0.028 CG0
ATOM     12  G   UNL     1       1.139  14.770  12.705  1.00  0.00     0.000 G0
ENDBRANCH   8   9
ENDBRANCH   7   8
ENDBRANCH   4   7
BRANCH   1  13
ATOM     13  C   UNL     1       1.563  15.835  14.940  1.00  0.00    -0.074 C 
ATOM     14  C   UNL     1       0.751  16.907  14.997  1.00  0.00     0.008 C 
BRANCH  13  15
ATOM     15  C   UNL     1       2.190  15.426  13.630  1.00  0.00     0.035 C 
BRANCH  15  16
ATOM     16  C   UNL     1       1.144  14.775  12.697  1.00  0.00     0.032 CG0
ATOM     17  G   UNL     1       1.464  13.333  12.365  1.00  0.00     0.000 G0
ENDBRANCH  15  16
ENDBRANCH  13  15
ENDBRANCH   1  13
TORSDOF 0
ENDMDL
MODEL 3
REMARK VINA RESULT:    -3.389      1.830      4.552
REMARK INTER + INTRA:          -5.188
REMARK INTER:                  -4.537
REMARK INTRA:                  -0.651
REMARK UNBOUND:                -0.609
REMARK SMILES C=C1CCC=C(C)CC[C@@H]2[C@@H]1CC2(C)C
REMARK SMILES IDX 11 1 12 2 13 3 10 4 14 5 15 6 9 7 8 8 6 9 7 10 5 11 2 13
REMARK SMILES IDX 1 14 3 15 4 16
REMARK H PARENT
REMARK Flexibility Score: 70.00
ROOT
ATOM      1  C   UNL     1       1.011  15.540  13.385  1.00  0.00     0.018 C 
ATOM      2  C   UNL     1       1.590  15.419  11.971  1.00  0.00     0.015 C 
ATOM      3  C   UNL     1       2.758  14.577  12.526  1.00  0.00    -0.031 C 
ATOM      4  C   UNL     1       2.253  14.847  13.969  1.00  0.00     0.002 C 
ATOM      5  C   UNL     1       4.134  15.204  12.237  1.00  0.00     0.011 C 
ATOM      6  C   UNL     1       2.696  13.115  12.042  1.00  0.00     0.011 C 
ENDROOT
BRANCH   4   7
ATOM      7  C   UNL     1       2.042  13.665  14.960  1.00  0.00     0.009 C 
BRANCH   7   8
ATOM      8  C   UNL     1       2.250  13.949  16.458  1.00  0.00     0.030 C 
BRANCH   8   9
ATOM      9  C   UNL     1       1.066  14.420  17.317  1.00  0.00    -0.077 C 
ATOM     10  C   UNL     1       0.488  13.367  18.238  1.00  0.00     0.039 C 
ATOM     11  C   UNL     1       0.408  15.617  17.315  1.00  0.00    -0.028 CG0
ATOM     12  G   UNL     1       0.645  16.880  16.514  1.00  0.00     0.000 G0
ENDBRANCH   8   9
ENDBRANCH   7   8
ENDBRANCH   4   7
BRANCH   1  13
ATOM     13  C   UNL     1       0.776  16.899  14.001  1.00  0.00    -0.074 C 
ATOM     14  C   UNL     1       1.501  17.987  13.682  1.00  0.00     0.008 C 
BRANCH  13  15
ATOM     15  C   UNL     1      -0.156  16.928  15.187  1.00  0.00     0.035 C 
BRANCH  15  16
ATOM     16  C   UNL     1       0.637  16.889  16.513  1.00  0.00     0.032 CG0
ATOM     17  G   UNL     1       0.397  15.624  17.308  1.00  0.00     0.000 G0
ENDBRANCH  15  16
ENDBRANCH  13  15
ENDBRANCH   1  13
TORSDOF 0
ENDMDL
MODEL 4
REMARK VINA RESULT:    -3.367      2.448      4.366
REMARK INTER + INTRA:          -5.157
REMARK INTER:                  -4.752
REMARK INTRA:                  -0.405
REMARK UNBOUND:                -0.609
REMARK SMILES C=C1CCC=C(C)CC[C@@H]2[C@@H]1CC2(C)C
REMARK SMILES IDX 11 1 12 2 13 3 10 4 14 5 15 6 9 7 8 8 6 9 7 10 5 11 2 13
REMARK SMILES IDX 1 14 3 15 4 16
REMARK H PARENT
REMARK Flexibility Score: 70.00
ROOT
ATOM      1  C   UNL     1       0.135  16.232  15.838  1.00  0.00     0.018 C 
ATOM      2  C   UNL     1      -0.170  17.700  15.518  1.00  0.00     0.015 C 
ATOM      3  C   UNL     1       0.359  17.493  14.084  1.00  0.00    -0.031 C 
ATOM      4  C   UNL     1       0.815  16.061  14.470  1.00  0.00     0.002 C 
ATOM      5  C   UNL     1       1.530  18.431  13.741  1.00  0.00     0.011 C 
ATOM      6  C   UNL     1      -0.766  17.594  13.034  1.00  0.00     0.011 C 
ENDROOT
BRANCH   4   7
ATOM      7  C   UNL     1       0.407  14.843  13.590  1.00  0.00     0.009 C 
BRANCH   7   8
ATOM      8  C   UNL     1       1.318  13.604  13.626  1.00  0.00     0.030 C 
BRANCH   8   9
ATOM      9  C   UNL     1       0.963  12.421  14.540  1.00  0.00    -0.077 C 
ATOM     10  C   UNL     1       1.115  11.056  13.905  1.00  0.00     0.039 C 
ATOM     11  C   UNL     1       0.455  12.421  15.808  1.00  0.00    -0.028 CG0
ATOM     12  G   UNL     1       0.119  13.562  16.744  1.00  0.00     0.000 G0
ENDBRANCH   8   9
ENDBRANCH   7   8
ENDBRANCH   4   7
BRANCH   1  13
ATOM     13  C   UNL     1       1.056  15.874  16.980  1.00  0.00    -0.074 C 
ATOM     14  C   UNL     1       1.776  16.787  17.659  1.00  0.00     0.008 C 
BRANCH  13  15
ATOM     15  C   UNL     1       1.326  14.402  17.167  1.00  0.00     0.035 C 
BRANCH  15  16
ATOM     16  C   UNL     1       0.101  13.558  16.748  1.00  0.00     0.032 CG0
ATOM     17  G   UNL     1       0.458  12.421  15.815  1.00  0.00     0.000 G0
ENDBRANCH  15  16
ENDBRANCH  13  15
ENDBRANCH   1  13
TORSDOF 0
ENDMDL
MODEL 5
REMARK VINA RESULT:    -3.236      2.134      3.620
REMARK INTER + INTRA:          -4.981
REMARK INTER:                  -4.620
REMARK INTRA:                  -0.361
REMARK UNBOUND:                -0.609
REMARK SMILES C=C1CCC=C(C)CC[C@@H]2[C@@H]1CC2(C)C
REMARK SMILES IDX 11 1 12 2 13 3 10 4 14 5 15 6 9 7 8 8 6 9 7 10 5 11 2 13
REMARK SMILES IDX 1 14 3 15 4 16
REMARK H PARENT
REMARK Flexibility Score: 70.00
ROOT
ATOM      1  C   UNL     1       0.077  14.852  15.970  1.00  0.00     0.018 C 
ATOM      2  C   UNL     1      -0.296  16.099  16.780  1.00  0.00     0.015 C 
ATOM      3  C   UNL     1       1.040  16.755  16.377  1.00  0.00    -0.031 C 
ATOM      4  C   UNL     1       1.477  15.428  15.702  1.00  0.00     0.002 C 
ATOM      5  C   UNL     1       1.908  17.132  17.591  1.00  0.00     0.011 C 
ATOM      6  C   UNL     1       0.831  17.963  15.442  1.00  0.00     0.011 C 
ENDROOT
BRANCH   4   7
ATOM      7  C   UNL     1       2.005  15.430  14.237  1.00  0.00     0.009 C 
BRANCH   7   8
ATOM      8  C   UNL     1       3.016  14.338  13.846  1.00  0.00     0.030 C 
BRANCH   8   9
ATOM      9  C   UNL     1       2.527  13.061  13.143  1.00  0.00    -0.077 C 
ATOM     10  C   UNL     1       3.402  12.585  12.004  1.00  0.00     0.039 C 
ATOM     11  C   UNL     1       1.383  12.342  13.339  1.00  0.00    -0.028 CG0
ATOM     12  G   UNL     1       0.250  12.526  14.327  1.00  0.00     0.000 G0
ENDBRANCH   8   9
ENDBRANCH   7   8
ENDBRANCH   4   7
BRANCH   1  13
ATOM     13  C   UNL     1       0.137  13.498  16.636  1.00  0.00    -0.074 C 
ATOM     14  C   UNL     1      -0.070  13.316  17.953  1.00  0.00     0.008 C 
BRANCH  13  15
ATOM     15  C   UNL     1       0.691  12.377  15.792  1.00  0.00     0.035 C 
BRANCH  15  16
ATOM     16  C   UNL     1       0.243  12.522  14.320  1.00  0.00     0.032 CG0
ATOM     17  G   UNL     1       1.380  12.341  13.336  1.00  0.00     0.000 G0
ENDBRANCH  15  16
ENDBRANCH  13  15
ENDBRANCH   1  13
TORSDOF 0
ENDMDL
MODEL 6
REMARK VINA RESULT:    -3.207      1.783      2.291
REMARK INTER + INTRA:          -4.941
REMARK INTER:                  -4.509
REMARK INTRA:                  -0.432
REMARK UNBOUND:                -0.609
REMARK SMILES C=C1CCC=C(C)CC[C@@H]2[C@@H]1CC2(C)C
REMARK SMILES IDX 11 1 12 2 13 3 10 4 14 5 15 6 9 7 8 8 6 9 7 10 5 11 2 13
REMARK SMILES IDX 1 14 3 15 4 16
REMARK H PARENT
REMARK Flexibility Score: 70.00
ROOT
ATOM      1  C   UNL     1       1.508  16.193  15.475  1.00  0.00     0.018 C 
ATOM      2  C   UNL     1       1.195  16.598  16.920  1.00  0.00     0.015 C 
ATOM      3  C   UNL     1       1.108  15.109  17.313  1.00  0.00    -0.031 C 
ATOM      4  C   UNL     1       1.260  14.716  15.820  1.00  0.00     0.002 C 
ATOM      5  C   UNL     1      -0.261  14.728  17.905  1.00  0.00     0.011 C 
ATOM      6  C   UNL     1       2.259  14.692  18.251  1.00  0.00     0.011 C 
ENDROOT
BRANCH   4   7
ATOM      7  C   UNL     1       2.328  13.668  15.388  1.00  0.00     0.009 C 
BRANCH   7   8
ATOM      8  C   UNL     1       2.304  13.191  13.925  1.00  0.00     0.030 C 
BRANCH   8   9
ATOM      9  C   UNL     1       0.975  12.764  13.284  1.00  0.00    -0.077 C 
ATOM     10  C   UNL     1       0.772  11.268  13.174  1.00  0.00     0.039 C 
ATOM     11  C   UNL     1      -0.010  13.528  12.725  1.00  0.00    -0.028 CG0
ATOM     12  G   UNL     1      -0.147  15.030  12.593  1.00  0.00     0.000 G0
ENDBRANCH   8   9
ENDBRANCH   7   8
ENDBRANCH   4   7
BRANCH   1  13
ATOM     13  C   UNL     1       0.630  16.668  14.341  1.00  0.00    -0.074 C 
ATOM     14  C   UNL     1       0.666  17.924  13.859  1.00  0.00     0.008 C 
BRANCH  13  15
ATOM     15  C   UNL     1      -0.478  15.729  13.934  1.00  0.00     0.035 C 
BRANCH  15  16
ATOM     16  C   UNL     1      -0.151  15.039  12.591  1.00  0.00     0.032 CG0
ATOM     17  G   UNL     1      -0.005  13.537  12.718  1.00  0.00     0.000 G0
ENDBRANCH  15  16
ENDBRANCH  13  15
ENDBRANCH   1  13
TORSDOF 0
ENDMDL
MODEL 7
REMARK VINA RESULT:    -3.146      1.668      4.578
REMARK INTER + INTRA:          -4.859
REMARK INTER:                  -4.901
REMARK INTRA:                   0.042
REMARK UNBOUND:                -0.609
REMARK SMILES C=C1CCC=C(C)CC[C@@H]2[C@@H]1CC2(C)C
REMARK SMILES IDX 11 1 12 2 13 3 10 4 14 5 15 6 9 7 8 8 6 9 7 10 5 11 2 13
REMARK SMILES IDX 1 14 3 15 4 16
REMARK H PARENT
REMARK Flexibility Score: 70.00
ROOT
ATOM      1  C   UNL     1       2.346  14.547  14.620  1.00  0.00     0.018 C 
ATOM      2  C   UNL     1       3.675  13.887  14.235  1.00  0.00     0.015 C 
ATOM      3  C   UNL     1       3.256  13.916  12.752  1.00  0.00    -0.031 C 
ATOM      4  C   UNL     1       1.851  14.429  13.169  1.00  0.00     0.002 C 
ATOM      5  C   UNL     1       3.225  12.516  12.113  1.00  0.00     0.011 C 
ATOM      6  C   UNL     1       4.121  14.889  11.927  1.00  0.00     0.011 C 
ENDROOT
BRANCH   4   7
ATOM      7  C   UNL     1       1.243  15.692  12.492  1.00  0.00     0.009 C 
BRANCH   7   8
ATOM      8  C   UNL     1       1.435  17.042  13.206  1.00  0.00     0.030 C 
BRANCH   8   9
ATOM      9  C   UNL     1       0.425  17.490  14.275  1.00  0.00    -0.077 C 
ATOM     10  C   UNL     1      -0.585  18.515  13.807  1.00  0.00     0.039 C 
ATOM     11  C   UNL     1       0.354  17.164  15.599  1.00  0.00    -0.028 CG0
ATOM     12  G   UNL     1       1.202  16.232  16.440  1.00  0.00     0.000 G0
ENDBRANCH   8   9
ENDBRANCH   7   8
ENDBRANCH   4   7
BRANCH   1  13
ATOM     13  C   UNL     1       1.412  13.872  15.596  1.00  0.00    -0.074 C 
ATOM     14  C   UNL     1       1.115  12.560  15.544  1.00  0.00     0.008 C 
BRANCH  13  15
ATOM     15  C   UNL     1       0.623  14.794  16.492  1.00  0.00     0.035 C 
BRANCH  15  16
ATOM     16  C   UNL     1       1.195  16.229  16.449  1.00  0.00     0.032 CG0
ATOM     17  G   UNL     1       0.365  17.172  15.605  1.00  0.00     0.000 G0
ENDBRANCH  15  16
ENDBRANCH  13  15
ENDBRANCH   1  13
TORSDOF 0
ENDMDL
MODEL 8
REMARK VINA RESULT:    -3.130      2.485      4.869
REMARK INTER + INTRA:          -4.837
REMARK INTER:                  -4.438
REMARK INTRA:                  -0.399
REMARK UNBOUND:                -0.609
REMARK SMILES C=C1CCC=C(C)CC[C@@H]2[C@@H]1CC2(C)C
REMARK SMILES IDX 11 1 12 2 13 3 10 4 14 5 15 6 9 7 8 8 6 9 7 10 5 11 2 13
REMARK SMILES IDX 1 14 3 15 4 16
REMARK H PARENT
REMARK Flexibility Score: 70.00
ROOT
ATOM      1  C   UNL     1       1.187  13.164  16.164  1.00  0.00     0.018 C 
ATOM      2  C   UNL     1       1.090  11.976  15.199  1.00  0.00     0.015 C 
ATOM      3  C   UNL     1       0.802  12.948  14.038  1.00  0.00    -0.031 C 
ATOM      4  C   UNL     1       0.738  14.123  15.050  1.00  0.00     0.002 C 
ATOM      5  C   UNL     1      -0.545  12.669  13.346  1.00  0.00     0.011 C 
ATOM      6  C   UNL     1       1.957  12.986  13.018  1.00  0.00     0.011 C 
ENDROOT
BRANCH   4   7
ATOM      7  C   UNL     1       1.573  15.415  14.808  1.00  0.00     0.009 C 
BRANCH   7   8
ATOM      8  C   UNL     1       1.045  16.726  15.414  1.00  0.00     0.030 C 
BRANCH   8   9
ATOM      9  C   UNL     1       1.596  17.221  16.761  1.00  0.00    -0.077 C 
ATOM     10  C   UNL     1       1.879  18.707  16.826  1.00  0.00     0.039 C 
ATOM     11  C   UNL     1       1.943  16.512  17.875  1.00  0.00    -0.028 CG0
ATOM     12  G   UNL     1       1.862  15.030  18.174  1.00  0.00     0.000 G0
ENDBRANCH   8   9
ENDBRANCH   7   8
ENDBRANCH   4   7
BRANCH   1  13
ATOM     13  C   UNL     1       0.289  13.239  17.376  1.00  0.00    -0.074 C 
ATOM     14  C   UNL     1      -0.718  12.375  17.601  1.00  0.00     0.008 C 
BRANCH  13  15
ATOM     15  C   UNL     1       0.415  14.492  18.207  1.00  0.00     0.035 C 
BRANCH  15  16
ATOM     16  C   UNL     1       1.866  15.024  18.187  1.00  0.00     0.032 CG0
ATOM     17  G   UNL     1       1.949  16.503  17.874  1.00  0.00     0.000 G0
ENDBRANCH  15  16
ENDBRANCH  13  15
ENDBRANCH   1  13
TORSDOF 0
ENDMDL
MODEL 9
REMARK VINA RESULT:    -3.115      1.556      3.452
REMARK INTER + INTRA:          -4.817
REMARK INTER:                  -4.452
REMARK INTRA:                  -0.365
REMARK UNBOUND:                -0.609
REMARK SMILES C=C1CCC=C(C)CC[C@@H]2[C@@H]1CC2(C)C
REMARK SMILES IDX 11 1 12 2 13 3 10 4 14 5 15 6 9 7 8 8 6 9 7 10 5 11 2 13
REMARK SMILES IDX 1 14 3 15 4 16
REMARK H PARENT
REMARK Flexibility Score: 70.00
ROOT
ATOM      1  C   UNL     1       0.211  13.042  15.531  1.00  0.00     0.018 C 
ATOM      2  C   UNL     1       0.430  12.697  17.009  1.00  0.00     0.015 C 
ATOM      3  C   UNL     1       0.475  14.201  17.348  1.00  0.00    -0.031 C 
ATOM      4  C   UNL     1       0.421  14.534  15.834  1.00  0.00     0.002 C 
ATOM      5  C   UNL     1       1.797  14.622  18.015  1.00  0.00     0.011 C 
ATOM      6  C   UNL     1      -0.741  14.639  18.189  1.00  0.00     0.011 C 
ENDROOT
BRANCH   4   7
ATOM      7  C   UNL     1      -0.627  15.550  15.290  1.00  0.00     0.009 C 
BRANCH   7   8
ATOM      8  C   UNL     1      -0.341  16.204  13.927  1.00  0.00     0.030 C 
BRANCH   8   9
ATOM      9  C   UNL     1       1.105  16.541  13.530  1.00  0.00    -0.077 C 
ATOM     10  C   UNL     1       1.445  18.016  13.552  1.00  0.00     0.039 C 
ATOM     11  C   UNL     1       2.101  15.720  13.084  1.00  0.00    -0.028 CG0
ATOM     12  G   UNL     1       2.134  14.220  12.876  1.00  0.00     0.000 G0
ENDBRANCH   8   9
ENDBRANCH   7   8
ENDBRANCH   4   7
BRANCH   1  13
ATOM     13  C   UNL     1       1.169  12.535  14.479  1.00  0.00    -0.074 C 
ATOM     14  C   UNL     1       1.121  11.285  13.981  1.00  0.00     0.008 C 
BRANCH  13  15
ATOM     15  C   UNL     1       2.352  13.424  14.187  1.00  0.00     0.035 C 
BRANCH  15  16
ATOM     16  C   UNL     1       2.138  14.215  12.876  1.00  0.00     0.032 CG0
ATOM     17  G   UNL     1       2.118  15.714  13.087  1.00  0.00     0.000 G0
ENDBRANCH  15  16
ENDBRANCH  13  15
ENDBRANCH   1  13
TORSDOF 0
ENDMDL
