MODEL 1
REMARK VINA RESULT:    -5.538      0.000      0.000
REMARK INTER + INTRA:          -8.113
REMARK INTER:                  -7.804
REMARK INTRA:                  -0.310
REMARK UNBOUND:                -0.310
REMARK SMILES CCCCCCCCC(=O)[O-]
REMARK SMILES IDX 6 1 7 2 8 3 9 4 10 5 11 6 5 7 4 8 3 9 2 10 1 11
REMARK H PARENT
REMARK Flexibility Score: inf
ROOT
ATOM      1  C   UNL     1      92.905 122.142 120.787  1.00  0.00     0.000 C 
ENDROOT
BRANCH   1   2
ATOM      2  C   UNL     1      93.046 122.060 122.319  1.00  0.00     0.006 C 
BRANCH   2   3
ATOM      3  C   UNL     1      93.308 123.412 123.002  1.00  0.00     0.053 C 
BRANCH   3   4
ATOM      4  C   UNL     1      93.781 123.247 124.413  1.00  0.00     0.041 C 
ATOM      5  O   UNL     1      93.092 122.592 125.239  1.00  0.00    -0.550 OA
ATOM      6  O   UNL     1      94.998 123.787 124.808  1.00  0.00    -0.550 OA
ENDBRANCH   3   4
ENDBRANCH   2   3
ENDBRANCH   1   2
BRANCH   1   7
ATOM      7  C   UNL     1      94.199 121.764 120.050  1.00  0.00     0.000 C 
BRANCH   7   8
ATOM      8  C   UNL     1      93.981 121.753 118.532  1.00  0.00    -0.000 C 
BRANCH   8   9
ATOM      9  C   UNL     1      92.894 122.754 118.123  1.00  0.00    -0.000 C 
BRANCH   9  10
ATOM     10  C   UNL     1      92.121 122.256 116.897  1.00  0.00    -0.003 C 
ATOM     11  C   UNL     1      92.789 121.030 116.284  1.00  0.00     0.004 C 
ENDBRANCH   9  10
ENDBRANCH   8   9
ENDBRANCH   7   8
ENDBRANCH   1   7
TORSDOF 7
ENDMDL
MODEL 2
REMARK VINA RESULT:    -5.528      0.988      1.334
REMARK INTER + INTRA:          -8.100
REMARK INTER:                  -7.780
REMARK INTRA:                  -0.320
REMARK UNBOUND:                -0.310
REMARK SMILES CCCCCCCCC(=O)[O-]
REMARK SMILES IDX 6 1 7 2 8 3 9 4 10 5 11 6 5 7 4 8 3 9 2 10 1 11
REMARK H PARENT
REMARK Flexibility Score: inf
ROOT
ATOM      1  C   UNL     1      94.305 122.103 120.439  1.00  0.00     0.000 C 
ENDROOT
BRANCH   1   2
ATOM      2  C   UNL     1      93.085 122.627 121.219  1.00  0.00     0.006 C 
BRANCH   2   3
ATOM      3  C   UNL     1      93.101 122.289 122.719  1.00  0.00     0.053 C 
BRANCH   3   4
ATOM      4  C   UNL     1      93.572 123.442 123.550  1.00  0.00     0.041 C 
ATOM      5  O   UNL     1      92.842 124.458 123.694  1.00  0.00    -0.550 OA
ATOM      6  O   UNL     1      94.801 123.381 124.193  1.00  0.00    -0.550 OA
ENDBRANCH   3   4
ENDBRANCH   2   3
ENDBRANCH   1   2
BRANCH   1   7
ATOM      7  C   UNL     1      94.204 122.367 118.929  1.00  0.00     0.000 C 
BRANCH   7   8
ATOM      8  C   UNL     1      92.790 122.821 118.545  1.00  0.00    -0.000 C 
BRANCH   8   9
ATOM      9  C   UNL     1      92.077 121.754 117.707  1.00  0.00    -0.000 C 
BRANCH   9  10
ATOM     10  C   UNL     1      92.283 122.002 116.208  1.00  0.00    -0.003 C 
ATOM     11  C   UNL     1      92.897 120.784 115.526  1.00  0.00     0.004 C 
ENDBRANCH   9  10
ENDBRANCH   8   9
ENDBRANCH   7   8
ENDBRANCH   1   7
TORSDOF 7
ENDMDL
MODEL 3
REMARK VINA RESULT:    -5.298      3.663      6.324
REMARK INTER + INTRA:          -7.775
REMARK INTER:                  -7.470
REMARK INTRA:                  -0.305
REMARK UNBOUND:                -0.310
REMARK SMILES CCCCCCCCC(=O)[O-]
REMARK SMILES IDX 6 1 7 2 8 3 9 4 10 5 11 6 5 7 4 8 3 9 2 10 1 11
REMARK H PARENT
REMARK Flexibility Score: inf
ROOT
ATOM      1  C   UNL     1      94.401 122.210 120.438  1.00  0.00     0.000 C 
ENDROOT
BRANCH   1   2
ATOM      2  C   UNL     1      94.402 122.393 118.909  1.00  0.00     0.006 C 
BRANCH   2   3
ATOM      3  C   UNL     1      93.150 123.091 118.355  1.00  0.00     0.053 C 
BRANCH   3   4
ATOM      4  C   UNL     1      92.372 122.202 117.433  1.00  0.00     0.041 C 
ATOM      5  O   UNL     1      91.963 121.080 117.832  1.00  0.00    -0.550 OA
ATOM      6  O   UNL     1      92.072 122.628 116.146  1.00  0.00    -0.550 OA
ENDBRANCH   3   4
ENDBRANCH   2   3
ENDBRANCH   1   2
BRANCH   1   7
ATOM      7  C   UNL     1      93.029 122.490 121.070  1.00  0.00     0.000 C 
BRANCH   7   8
ATOM      8  C   UNL     1      93.030 122.134 122.562  1.00  0.00    -0.000 C 
BRANCH   8   9
ATOM      9  C   UNL     1      93.534 123.309 123.408  1.00  0.00    -0.000 C 
BRANCH   9  10
ATOM     10  C   UNL     1      93.852 122.861 124.839  1.00  0.00    -0.003 C 
ATOM     11  C   UNL     1      95.248 123.307 125.259  1.00  0.00     0.004 C 
ENDBRANCH   9  10
ENDBRANCH   8   9
ENDBRANCH   7   8
ENDBRANCH   1   7
TORSDOF 7
ENDMDL
MODEL 4
REMARK VINA RESULT:    -5.202      3.462      6.464
REMARK INTER + INTRA:          -7.640
REMARK INTER:                  -7.344
REMARK INTRA:                  -0.296
REMARK UNBOUND:                -0.310
REMARK SMILES CCCCCCCCC(=O)[O-]
REMARK SMILES IDX 6 1 7 2 8 3 9 4 10 5 11 6 5 7 4 8 3 9 2 10 1 11
REMARK H PARENT
REMARK Flexibility Score: inf
ROOT
ATOM      1  C   UNL     1      93.055 122.205 122.082  1.00  0.00     0.000 C 
ENDROOT
BRANCH   1   2
ATOM      2  C   UNL     1      93.887 122.224 120.786  1.00  0.00     0.006 C 
BRANCH   2   3
ATOM      3  C   UNL     1      93.076 122.544 119.520  1.00  0.00     0.053 C 
BRANCH   3   4
ATOM      4  C   UNL     1      93.326 121.552 118.427  1.00  0.00     0.041 C 
ATOM      5  O   UNL     1      94.479 121.076 118.254  1.00  0.00    -0.550 OA
ATOM      6  O   UNL     1      92.279 121.127 117.619  1.00  0.00    -0.550 OA
ENDBRANCH   3   4
ENDBRANCH   2   3
ENDBRANCH   1   2
BRANCH   1   7
ATOM      7  C   UNL     1      93.527 123.247 123.108  1.00  0.00     0.000 C 
BRANCH   7   8
ATOM      8  C   UNL     1      93.406 122.703 124.537  1.00  0.00    -0.000 C 
BRANCH   8   9
ATOM      9  C   UNL     1      94.687 122.968 125.338  1.00  0.00    -0.000 C 
BRANCH   9  10
ATOM     10  C   UNL     1      95.788 123.545 124.440  1.00  0.00    -0.003 C 
ATOM     11  C   UNL     1      96.720 124.458 125.229  1.00  0.00     0.004 C 
ENDBRANCH   9  10
ENDBRANCH   8   9
ENDBRANCH   7   8
ENDBRANCH   1   7
TORSDOF 7
ENDMDL
MODEL 5
REMARK VINA RESULT:    -5.180      1.301      2.036
REMARK INTER + INTRA:          -7.610
REMARK INTER:                  -7.306
REMARK INTRA:                  -0.303
REMARK UNBOUND:                -0.310
REMARK SMILES CCCCCCCCC(=O)[O-]
REMARK SMILES IDX 6 1 7 2 8 3 9 4 10 5 11 6 5 7 4 8 3 9 2 10 1 11
REMARK H PARENT
REMARK Flexibility Score: inf
ROOT
ATOM      1  C   UNL     1      93.132 122.224 122.665  1.00  0.00     0.000 C 
ENDROOT
BRANCH   1   2
ATOM      2  C   UNL     1      93.399 123.382 123.646  1.00  0.00     0.006 C 
BRANCH   2   3
ATOM      3  C   UNL     1      94.075 122.955 124.959  1.00  0.00     0.053 C 
BRANCH   3   4
ATOM      4  C   UNL     1      95.518 123.354 125.004  1.00  0.00     0.041 C 
ATOM      5  O   UNL     1      96.053 123.672 126.098  1.00  0.00    -0.550 OA
ATOM      6  O   UNL     1      96.279 123.342 123.843  1.00  0.00    -0.550 OA
ENDBRANCH   3   4
ENDBRANCH   2   3
ENDBRANCH   1   2
BRANCH   1   7
ATOM      7  C   UNL     1      93.164 122.670 121.195  1.00  0.00     0.000 C 
BRANCH   7   8
ATOM      8  C   UNL     1      94.481 122.258 120.526  1.00  0.00    -0.000 C 
BRANCH   8   9
ATOM      9  C   UNL     1      94.236 121.714 119.114  1.00  0.00    -0.000 C 
BRANCH   9  10
ATOM     10  C   UNL     1      93.246 122.599 118.348  1.00  0.00    -0.003 C 
ATOM     11  C   UNL     1      92.400 121.774 117.384  1.00  0.00     0.004 C 
ENDBRANCH   9  10
ENDBRANCH   8   9
ENDBRANCH   7   8
ENDBRANCH   1   7
TORSDOF 7
ENDMDL
MODEL 6
REMARK VINA RESULT:    -5.123      3.239      6.513
REMARK INTER + INTRA:          -7.529
REMARK INTER:                  -7.170
REMARK INTRA:                  -0.359
REMARK UNBOUND:                -0.310
REMARK SMILES CCCCCCCCC(=O)[O-]
REMARK SMILES IDX 6 1 7 2 8 3 9 4 10 5 11 6 5 7 4 8 3 9 2 10 1 11
REMARK H PARENT
REMARK Flexibility Score: inf
ROOT
ATOM      1  C   UNL     1      93.452 123.358 123.166  1.00  0.00     0.000 C 
ENDROOT
BRANCH   1   2
ATOM      2  C   UNL     1      93.161 122.357 122.032  1.00  0.00     0.006 C 
BRANCH   2   3
ATOM      3  C   UNL     1      94.237 122.315 120.935  1.00  0.00     0.053 C 
BRANCH   3   4
ATOM      4  C   UNL     1      93.643 122.373 119.562  1.00  0.00     0.041 C 
ATOM      5  O   UNL     1      94.251 121.860 118.587  1.00  0.00    -0.550 OA
ATOM      6  O   UNL     1      92.402 122.965 119.366  1.00  0.00    -0.550 OA
ENDBRANCH   3   4
ENDBRANCH   2   3
ENDBRANCH   1   2
BRANCH   1   7
ATOM      7  C   UNL     1      93.340 122.726 124.562  1.00  0.00     0.000 C 
BRANCH   7   8
ATOM      8  C   UNL     1      94.615 122.973 125.379  1.00  0.00    -0.000 C 
BRANCH   8   9
ATOM      9  C   UNL     1      95.734 123.539 124.497  1.00  0.00    -0.000 C 
BRANCH   9  10
ATOM     10  C   UNL     1      97.074 123.538 125.241  1.00  0.00    -0.003 C 
ATOM     11  C   UNL     1      97.284 124.843 126.002  1.00  0.00     0.004 C 
ENDBRANCH   9  10
ENDBRANCH   8   9
ENDBRANCH   7   8
ENDBRANCH   1   7
TORSDOF 7
ENDMDL
MODEL 7
REMARK VINA RESULT:    -5.113      3.379      6.199
REMARK INTER + INTRA:          -7.515
REMARK INTER:                  -7.221
REMARK INTRA:                  -0.294
REMARK UNBOUND:                -0.310
REMARK SMILES CCCCCCCCC(=O)[O-]
REMARK SMILES IDX 6 1 7 2 8 3 9 4 10 5 11 6 5 7 4 8 3 9 2 10 1 11
REMARK H PARENT
REMARK Flexibility Score: inf
ROOT
ATOM      1  C   UNL     1      92.830 122.031 120.859  1.00  0.00     0.000 C 
ENDROOT
BRANCH   1   2
ATOM      2  C   UNL     1      94.203 122.277 120.206  1.00  0.00     0.006 C 
BRANCH   2   3
ATOM      3  C   UNL     1      94.324 121.744 118.769  1.00  0.00     0.053 C 
BRANCH   3   4
ATOM      4  C   UNL     1      93.140 122.113 117.931  1.00  0.00     0.041 C 
ATOM      5  O   UNL     1      92.423 121.215 117.417  1.00  0.00    -0.550 OA
ATOM      6  O   UNL     1      92.808 123.449 117.745  1.00  0.00    -0.550 OA
ENDBRANCH   3   4
ENDBRANCH   2   3
ENDBRANCH   1   2
BRANCH   1   7
ATOM      7  C   UNL     1      92.914 121.898 122.388  1.00  0.00     0.000 C 
BRANCH   7   8
ATOM      8  C   UNL     1      93.518 123.161 123.016  1.00  0.00    -0.000 C 
BRANCH   8   9
ATOM      9  C   UNL     1      93.326 123.166 124.537  1.00  0.00    -0.000 C 
BRANCH   9  10
ATOM     10  C   UNL     1      94.649 122.885 125.259  1.00  0.00    -0.003 C 
ATOM     11  C   UNL     1      95.801 123.652 124.618  1.00  0.00     0.004 C 
ENDBRANCH   9  10
ENDBRANCH   8   9
ENDBRANCH   7   8
ENDBRANCH   1   7
TORSDOF 7
ENDMDL
MODEL 8
REMARK VINA RESULT:    -4.975      2.032      3.373
REMARK INTER + INTRA:          -7.321
REMARK INTER:                  -7.049
REMARK INTRA:                  -0.272
REMARK UNBOUND:                -0.310
REMARK SMILES CCCCCCCCC(=O)[O-]
REMARK SMILES IDX 6 1 7 2 8 3 9 4 10 5 11 6 5 7 4 8 3 9 2 10 1 11
REMARK H PARENT
REMARK Flexibility Score: inf
ROOT
ATOM      1  C   UNL     1      93.766 122.614 123.864  1.00  0.00     0.000 C 
ENDROOT
BRANCH   1   2
ATOM      2  C   UNL     1      94.674 123.677 124.509  1.00  0.00     0.006 C 
BRANCH   2   3
ATOM      3  C   UNL     1      95.572 123.142 125.637  1.00  0.00     0.053 C 
BRANCH   3   4
ATOM      4  C   UNL     1      96.930 123.772 125.621  1.00  0.00     0.041 C 
ATOM      5  O   UNL     1      97.074 124.958 125.222  1.00  0.00    -0.550 OA
ATOM      6  O   UNL     1      98.033 123.062 126.077  1.00  0.00    -0.550 OA
ENDBRANCH   3   4
ENDBRANCH   2   3
ENDBRANCH   1   2
BRANCH   1   7
ATOM      7  C   UNL     1      93.008 123.143 122.637  1.00  0.00     0.000 C 
BRANCH   7   8
ATOM      8  C   UNL     1      93.086 122.148 121.473  1.00  0.00    -0.000 C 
BRANCH   8   9
ATOM      9  C   UNL     1      94.415 122.283 120.721  1.00  0.00    -0.000 C 
BRANCH   9  10
ATOM     10  C   UNL     1      94.201 122.198 119.205  1.00  0.00    -0.003 C 
ATOM     11  C   UNL     1      92.857 122.798 118.804  1.00  0.00     0.004 C 
ENDBRANCH   9  10
ENDBRANCH   8   9
ENDBRANCH   7   8
ENDBRANCH   1   7
TORSDOF 7
ENDMDL
MODEL 9
REMARK VINA RESULT:    -3.999     11.127     12.381
REMARK INTER + INTRA:          -5.944
REMARK INTER:                  -5.243
REMARK INTRA:                  -0.702
REMARK UNBOUND:                -0.310
REMARK SMILES CCCCCCCCC(=O)[O-]
REMARK SMILES IDX 6 1 7 2 8 3 9 4 10 5 11 6 5 7 4 8 3 9 2 10 1 11
REMARK H PARENT
REMARK Flexibility Score: inf
ROOT
ATOM      1  C   UNL     1      86.039 124.063 131.602  1.00  0.00     0.000 C 
ENDROOT
BRANCH   1   2
ATOM      2  C   UNL     1      87.266 123.875 130.690  1.00  0.00     0.006 C 
BRANCH   2   3
ATOM      3  C   UNL     1      87.185 122.649 129.766  1.00  0.00     0.053 C 
BRANCH   3   4
ATOM      4  C   UNL     1      87.635 121.397 130.453  1.00  0.00     0.041 C 
ATOM      5  O   UNL     1      86.805 120.492 130.728  1.00  0.00    -0.550 OA
ATOM      6  O   UNL     1      88.978 121.216 130.759  1.00  0.00    -0.550 OA
ENDBRANCH   3   4
ENDBRANCH   2   3
ENDBRANCH   1   2
BRANCH   1   7
ATOM      7  C   UNL     1      85.604 125.532 131.719  1.00  0.00     0.000 C 
BRANCH   7   8
ATOM      8  C   UNL     1      84.593 125.893 130.623  1.00  0.00    -0.000 C 
BRANCH   8   9
ATOM      9  C   UNL     1      85.091 127.073 129.780  1.00  0.00    -0.000 C 
BRANCH   9  10
ATOM     10  C   UNL     1      85.814 126.584 128.521  1.00  0.00    -0.003 C 
ATOM     11  C   UNL     1      85.101 125.383 127.907  1.00  0.00     0.004 C 
ENDBRANCH   9  10
ENDBRANCH   8   9
ENDBRANCH   7   8
ENDBRANCH   1   7
TORSDOF 7
ENDMDL
