MODEL 1
REMARK VINA RESULT:    -5.376      0.000      0.000
REMARK INTER + INTRA:          -7.984
REMARK INTER:                  -7.262
REMARK INTRA:                  -0.722
REMARK UNBOUND:                -0.722
REMARK SMILES CC(=O)CCC=C(C)CCC=C(C)C
REMARK SMILES IDX 7 1 6 2 8 3 9 4 10 5 11 6 13 7 12 8 14 9 5 10 4 11 2 12 3 13
REMARK SMILES IDX 1 14
REMARK H PARENT
REMARK Flexibility Score: inf
ROOT
ATOM      1  C   UNL     1      17.230 -10.018  64.949  1.00  0.00    -0.077 C 
ATOM      2  C   UNL     1      16.910  -9.971  66.262  1.00  0.00    -0.028 C 
ATOM      3  C   UNL     1      16.292  -9.378  63.959  1.00  0.00     0.039 C 
ENDROOT
BRANCH   1   4
ATOM      4  C   UNL     1      18.502 -10.672  64.437  1.00  0.00     0.034 C 
BRANCH   4   5
ATOM      5  C   UNL     1      19.646  -9.659  64.278  1.00  0.00     0.032 C 
BRANCH   5   6
ATOM      6  C   UNL     1      20.975 -10.239  64.699  1.00  0.00    -0.028 C 
ATOM      7  C   UNL     1      22.002  -9.976  62.430  1.00  0.00     0.039 C 
ATOM      8  C   UNL     1      22.051 -10.359  63.890  1.00  0.00    -0.080 C 
ATOM      9  C   UNL     1      23.327 -10.912  64.471  1.00  0.00     0.039 C 
ENDBRANCH   5   6
ENDBRANCH   4   5
ENDBRANCH   1   4
BRANCH   2  10
ATOM     10  C   UNL     1      17.742 -10.603  67.353  1.00  0.00     0.035 C 
BRANCH  10  11
ATOM     11  C   UNL     1      18.717  -9.589  67.962  1.00  0.00     0.079 C 
BRANCH  11  12
ATOM     12  C   UNL     1      19.377 -10.154  69.190  1.00  0.00     0.130 C 
ATOM     13  O   UNL     1      19.400  -9.499  70.221  1.00  0.00    -0.300 OA
ATOM     14  C   UNL     1      20.026 -11.504  69.150  1.00  0.00     0.087 C 
ENDBRANCH  11  12
ENDBRANCH  10  11
ENDBRANCH   2  10
TORSDOF 6
ENDMDL
MODEL 2
REMARK VINA RESULT:    -5.347      2.615      3.905
REMARK INTER + INTRA:          -7.945
REMARK INTER:                  -6.408
REMARK INTRA:                  -1.537
REMARK UNBOUND:                -0.722
REMARK SMILES CC(=O)CCC=C(C)CCC=C(C)C
REMARK SMILES IDX 7 1 6 2 8 3 9 4 10 5 11 6 13 7 12 8 14 9 5 10 4 11 2 12 3 13
REMARK SMILES IDX 1 14
REMARK H PARENT
REMARK Flexibility Score: inf
ROOT
ATOM      1  C   UNL     1      17.349 -12.393  65.510  1.00  0.00    -0.077 C 
ATOM      2  C   UNL     1      18.131 -13.287  66.157  1.00  0.00    -0.028 C 
ATOM      3  C   UNL     1      17.471 -12.285  64.012  1.00  0.00     0.039 C 
ENDROOT
BRANCH   1   4
ATOM      4  C   UNL     1      16.344 -11.510  66.230  1.00  0.00     0.034 C 
BRANCH   4   5
ATOM      5  C   UNL     1      16.860 -10.074  66.404  1.00  0.00     0.032 C 
BRANCH   5   6
ATOM      6  C   UNL     1      17.539  -9.877  67.738  1.00  0.00    -0.028 C 
ATOM      7  C   UNL     1      19.842  -9.855  66.756  1.00  0.00     0.039 C 
ATOM      8  C   UNL     1      18.873  -9.746  67.909  1.00  0.00    -0.080 C 
ATOM      9  C   UNL     1      19.398  -9.503  69.301  1.00  0.00     0.039 C 
ENDBRANCH   5   6
ENDBRANCH   4   5
ENDBRANCH   1   4
BRANCH   2  10
ATOM     10  C   UNL     1      18.134 -13.471  67.656  1.00  0.00     0.035 C 
BRANCH  10  11
ATOM     11  C   UNL     1      19.545 -13.314  68.230  1.00  0.00     0.079 C 
BRANCH  11  12
ATOM     12  C   UNL     1      19.497 -13.112  69.720  1.00  0.00     0.130 C 
ATOM     13  O   UNL     1      20.478 -12.680  70.306  1.00  0.00    -0.300 OA
ATOM     14  C   UNL     1      18.261 -13.458  70.493  1.00  0.00     0.087 C 
ENDBRANCH  11  12
ENDBRANCH  10  11
ENDBRANCH   2  10
TORSDOF 6
ENDMDL
MODEL 3
REMARK VINA RESULT:    -5.342      2.976      4.944
REMARK INTER + INTRA:          -7.938
REMARK INTER:                  -6.517
REMARK INTRA:                  -1.420
REMARK UNBOUND:                -0.722
REMARK SMILES CC(=O)CCC=C(C)CCC=C(C)C
REMARK SMILES IDX 7 1 6 2 8 3 9 4 10 5 11 6 13 7 12 8 14 9 5 10 4 11 2 12 3 13
REMARK SMILES IDX 1 14
REMARK H PARENT
REMARK Flexibility Score: inf
ROOT
ATOM      1  C   UNL     1      17.076 -11.303  66.936  1.00  0.00    -0.077 C 
ATOM      2  C   UNL     1      16.563 -11.629  65.727  1.00  0.00    -0.028 C 
ATOM      3  C   UNL     1      17.319 -12.406  67.933  1.00  0.00     0.039 C 
ENDROOT
BRANCH   1   4
ATOM      4  C   UNL     1      17.432  -9.876  67.318  1.00  0.00     0.034 C 
BRANCH   4   5
ATOM      5  C   UNL     1      18.951  -9.669  67.417  1.00  0.00     0.032 C 
BRANCH   5   6
ATOM      6  C   UNL     1      19.564  -9.341  66.077  1.00  0.00    -0.028 C 
ATOM      7  C   UNL     1      20.542 -11.627  65.774  1.00  0.00     0.039 C 
ATOM      8  C   UNL     1      20.253 -10.218  65.314  1.00  0.00    -0.080 C 
ATOM      9  C   UNL     1      20.762  -9.756  63.972  1.00  0.00     0.039 C 
ENDBRANCH   5   6
ENDBRANCH   4   5
ENDBRANCH   1   4
BRANCH   2  10
ATOM     10  C   UNL     1      16.238 -10.619  64.652  1.00  0.00     0.035 C 
BRANCH  10  11
ATOM     11  C   UNL     1      17.080 -10.860  63.395  1.00  0.00     0.079 C 
BRANCH  11  12
ATOM     12  C   UNL     1      16.367 -11.779  62.442  1.00  0.00     0.130 C 
ATOM     13  O   UNL     1      16.933 -12.779  62.026  1.00  0.00    -0.300 OA
ATOM     14  C   UNL     1      14.976 -11.465  61.981  1.00  0.00     0.087 C 
ENDBRANCH  11  12
ENDBRANCH  10  11
ENDBRANCH   2  10
TORSDOF 6
ENDMDL
MODEL 4
REMARK VINA RESULT:    -5.304      1.577      4.110
REMARK INTER + INTRA:          -7.887
REMARK INTER:                  -6.837
REMARK INTRA:                  -1.049
REMARK UNBOUND:                -0.722
REMARK SMILES CC(=O)CCC=C(C)CCC=C(C)C
REMARK SMILES IDX 7 1 6 2 8 3 9 4 10 5 11 6 13 7 12 8 14 9 5 10 4 11 2 12 3 13
REMARK SMILES IDX 1 14
REMARK H PARENT
REMARK Flexibility Score: inf
ROOT
ATOM      1  C   UNL     1      19.343  -9.962  64.698  1.00  0.00    -0.077 C 
ATOM      2  C   UNL     1      19.510 -10.634  65.860  1.00  0.00    -0.028 C 
ATOM      3  C   UNL     1      20.474  -9.959  63.702  1.00  0.00     0.039 C 
ENDROOT
BRANCH   1   4
ATOM      4  C   UNL     1      18.058  -9.229  64.351  1.00  0.00     0.034 C 
BRANCH   4   5
ATOM      5  C   UNL     1      17.201 -10.015  63.345  1.00  0.00     0.032 C 
BRANCH   5   6
ATOM      6  C   UNL     1      15.859 -10.393  63.924  1.00  0.00    -0.028 C 
ATOM      7  C   UNL     1      16.567 -12.728  64.486  1.00  0.00     0.039 C 
ATOM      8  C   UNL     1      15.569 -11.595  64.467  1.00  0.00    -0.080 C 
ATOM      9  C   UNL     1      14.195 -11.806  65.052  1.00  0.00     0.039 C 
ENDBRANCH   5   6
ENDBRANCH   4   5
ENDBRANCH   1   4
BRANCH   2  10
ATOM     10  C   UNL     1      18.472 -10.687  66.956  1.00  0.00     0.035 C 
BRANCH  10  11
ATOM     11  C   UNL     1      18.701  -9.581  67.990  1.00  0.00     0.079 C 
BRANCH  11  12
ATOM     12  C   UNL     1      19.277 -10.146  69.259  1.00  0.00     0.130 C 
ATOM     13  O   UNL     1      19.427  -9.423  70.232  1.00  0.00    -0.300 OA
ATOM     14  C   UNL     1      19.690 -11.585  69.330  1.00  0.00     0.087 C 
ENDBRANCH  11  12
ENDBRANCH  10  11
ENDBRANCH   2  10
TORSDOF 6
ENDMDL
MODEL 5
REMARK VINA RESULT:    -5.295      2.583      3.984
REMARK INTER + INTRA:          -7.875
REMARK INTER:                  -7.044
REMARK INTRA:                  -0.831
REMARK UNBOUND:                -0.722
REMARK SMILES CC(=O)CCC=C(C)CCC=C(C)C
REMARK SMILES IDX 7 1 6 2 8 3 9 4 10 5 11 6 13 7 12 8 14 9 5 10 4 11 2 12 3 13
REMARK SMILES IDX 1 14
REMARK H PARENT
REMARK Flexibility Score: inf
ROOT
ATOM      1  C   UNL     1      16.447 -10.833  65.771  1.00  0.00    -0.077 C 
ATOM      2  C   UNL     1      17.334 -11.212  66.719  1.00  0.00    -0.028 C 
ATOM      3  C   UNL     1      15.121 -11.546  65.704  1.00  0.00     0.039 C 
ENDROOT
BRANCH   1   4
ATOM      4  C   UNL     1      16.727  -9.710  64.788  1.00  0.00     0.034 C 
BRANCH   4   5
ATOM      5  C   UNL     1      17.289 -10.235  63.458  1.00  0.00     0.032 C 
BRANCH   5   6
ATOM      6  C   UNL     1      16.193 -10.563  62.473  1.00  0.00    -0.028 C 
ATOM      7  C   UNL     1      16.587 -13.033  62.596  1.00  0.00     0.039 C 
ATOM      8  C   UNL     1      15.846 -11.814  62.100  1.00  0.00    -0.080 C 
ATOM      9  C   UNL     1      14.693 -11.984  61.144  1.00  0.00     0.039 C 
ENDBRANCH   5   6
ENDBRANCH   4   5
ENDBRANCH   1   4
BRANCH   2  10
ATOM     10  C   UNL     1      18.709 -10.606  66.874  1.00  0.00     0.035 C 
BRANCH  10  11
ATOM     11  C   UNL     1      18.730  -9.559  67.992  1.00  0.00     0.079 C 
BRANCH  11  12
ATOM     12  C   UNL     1      19.345 -10.126  69.243  1.00  0.00     0.130 C 
ATOM     13  O   UNL     1      19.407  -9.440  70.252  1.00  0.00    -0.300 OA
ATOM     14  C   UNL     1      19.901 -11.517  69.252  1.00  0.00     0.087 C 
ENDBRANCH  11  12
ENDBRANCH  10  11
ENDBRANCH   2  10
TORSDOF 6
ENDMDL
MODEL 6
REMARK VINA RESULT:    -5.175      2.922      4.350
REMARK INTER + INTRA:          -7.713
REMARK INTER:                  -6.897
REMARK INTRA:                  -0.816
REMARK UNBOUND:                -0.722
REMARK SMILES CC(=O)CCC=C(C)CCC=C(C)C
REMARK SMILES IDX 7 1 6 2 8 3 9 4 10 5 11 6 13 7 12 8 14 9 5 10 4 11 2 12 3 13
REMARK SMILES IDX 1 14
REMARK H PARENT
REMARK Flexibility Score: inf
ROOT
ATOM      1  C   UNL     1      16.180 -11.395  65.454  1.00  0.00    -0.077 C 
ATOM      2  C   UNL     1      16.666 -10.974  66.644  1.00  0.00    -0.028 C 
ATOM      3  C   UNL     1      14.726 -11.783  65.370  1.00  0.00     0.039 C 
ENDROOT
BRANCH   1   4
ATOM      4  C   UNL     1      17.034 -11.474  64.201  1.00  0.00     0.034 C 
BRANCH   4   5
ATOM      5  C   UNL     1      16.275 -10.991  62.955  1.00  0.00     0.032 C 
BRANCH   5   6
ATOM      6  C   UNL     1      16.199  -9.484  62.891  1.00  0.00    -0.028 C 
ATOM      7  C   UNL     1      13.696  -9.443  62.819  1.00  0.00     0.039 C 
ATOM      8  C   UNL     1      15.050  -8.775  62.862  1.00  0.00    -0.080 C 
ATOM      9  C   UNL     1      15.135  -7.270  62.850  1.00  0.00     0.039 C 
ENDBRANCH   5   6
ENDBRANCH   4   5
ENDBRANCH   1   4
BRANCH   2  10
ATOM     10  C   UNL     1      18.108 -10.589  66.874  1.00  0.00     0.035 C 
BRANCH  10  11
ATOM     11  C   UNL     1      18.237  -9.587  68.025  1.00  0.00     0.079 C 
BRANCH  11  12
ATOM     12  C   UNL     1      19.088 -10.150  69.130  1.00  0.00     0.130 C 
ATOM     13  O   UNL     1      19.359  -9.457  70.100  1.00  0.00    -0.300 OA
ATOM     14  C   UNL     1      19.626 -11.545  69.039  1.00  0.00     0.087 C 
ENDBRANCH  11  12
ENDBRANCH  10  11
ENDBRANCH   2  10
TORSDOF 6
ENDMDL
MODEL 7
REMARK VINA RESULT:    -5.132     14.038     15.906
REMARK INTER + INTRA:          -7.654
REMARK INTER:                  -6.124
REMARK INTRA:                  -1.531
REMARK UNBOUND:                -0.722
REMARK SMILES CC(=O)CCC=C(C)CCC=C(C)C
REMARK SMILES IDX 7 1 6 2 8 3 9 4 10 5 11 6 13 7 12 8 14 9 5 10 4 11 2 12 3 13
REMARK SMILES IDX 1 14
REMARK H PARENT
REMARK Flexibility Score: inf
ROOT
ATOM      1  C   UNL     1       9.444  -9.682  54.817  1.00  0.00    -0.077 C 
ATOM      2  C   UNL     1       8.717  -8.696  54.243  1.00  0.00    -0.028 C 
ATOM      3  C   UNL     1      10.943  -9.648  54.668  1.00  0.00     0.039 C 
ENDROOT
BRANCH   1   4
ATOM      4  C   UNL     1       8.812 -10.807  55.619  1.00  0.00     0.034 C 
BRANCH   4   5
ATOM      5  C   UNL     1       9.252 -10.783  57.091  1.00  0.00     0.032 C 
BRANCH   5   6
ATOM      6  C   UNL     1       8.101 -10.473  58.018  1.00  0.00    -0.028 C 
ATOM      7  C   UNL     1       8.689  -8.047  58.213  1.00  0.00     0.039 C 
ATOM      8  C   UNL     1       7.818  -9.245  58.505  1.00  0.00    -0.080 C 
ATOM      9  C   UNL     1       6.602  -9.084  59.381  1.00  0.00     0.039 C 
ENDBRANCH   5   6
ENDBRANCH   4   5
ENDBRANCH   1   4
BRANCH   2  10
ATOM     10  C   UNL     1       7.209  -8.630  54.286  1.00  0.00     0.035 C 
BRANCH  10  11
ATOM     11  C   UNL     1       6.731  -7.395  55.057  1.00  0.00     0.079 C 
BRANCH  11  12
ATOM     12  C   UNL     1       5.640  -7.759  56.026  1.00  0.00     0.130 C 
ATOM     13  O   UNL     1       5.222  -8.907  56.065  1.00  0.00    -0.300 OA
ATOM     14  C   UNL     1       5.046  -6.720  56.927  1.00  0.00     0.087 C 
ENDBRANCH  11  12
ENDBRANCH  10  11
ENDBRANCH   2  10
TORSDOF 6
ENDMDL
MODEL 8
REMARK VINA RESULT:    -5.123      1.777      2.699
REMARK INTER + INTRA:          -7.642
REMARK INTER:                  -6.568
REMARK INTRA:                  -1.074
REMARK UNBOUND:                -0.722
REMARK SMILES CC(=O)CCC=C(C)CCC=C(C)C
REMARK SMILES IDX 7 1 6 2 8 3 9 4 10 5 11 6 13 7 12 8 14 9 5 10 4 11 2 12 3 13
REMARK SMILES IDX 1 14
REMARK H PARENT
REMARK Flexibility Score: inf
ROOT
ATOM      1  C   UNL     1      17.778 -11.864  66.895  1.00  0.00    -0.077 C 
ATOM      2  C   UNL     1      17.387 -12.581  67.973  1.00  0.00    -0.028 C 
ATOM      3  C   UNL     1      16.889 -10.746  66.416  1.00  0.00     0.039 C 
ENDROOT
BRANCH   1   4
ATOM      4  C   UNL     1      19.083 -12.129  66.163  1.00  0.00     0.034 C 
BRANCH   4   5
ATOM      5  C   UNL     1      20.096 -10.991  66.363  1.00  0.00     0.032 C 
BRANCH   5   6
ATOM      6  C   UNL     1      20.997 -10.821  65.163  1.00  0.00    -0.028 C 
ATOM      7  C   UNL     1      19.383  -9.341  63.948  1.00  0.00     0.039 C 
ATOM      8  C   UNL     1      20.704 -10.059  64.086  1.00  0.00    -0.080 C 
ATOM      9  C   UNL     1      21.728  -9.948  62.986  1.00  0.00     0.039 C 
ENDBRANCH   5   6
ENDBRANCH   4   5
ENDBRANCH   1   4
BRANCH   2  10
ATOM     10  C   UNL     1      18.165 -13.748  68.534  1.00  0.00     0.035 C 
BRANCH  10  11
ATOM     11  C   UNL     1      18.795 -13.394  69.885  1.00  0.00     0.079 C 
BRANCH  11  12
ATOM     12  C   UNL     1      20.105 -12.679  69.694  1.00  0.00     0.130 C 
ATOM     13  O   UNL     1      20.188 -11.487  69.950  1.00  0.00    -0.300 OA
ATOM     14  C   UNL     1      21.301 -13.413  69.169  1.00  0.00     0.087 C 
ENDBRANCH  11  12
ENDBRANCH  10  11
ENDBRANCH   2  10
TORSDOF 6
ENDMDL
MODEL 9
REMARK VINA RESULT:    -5.034      2.207      4.384
REMARK INTER + INTRA:          -7.522
REMARK INTER:                  -6.201
REMARK INTRA:                  -1.322
REMARK UNBOUND:                -0.722
REMARK SMILES CC(=O)CCC=C(C)CCC=C(C)C
REMARK SMILES IDX 7 1 6 2 8 3 9 4 10 5 11 6 13 7 12 8 14 9 5 10 4 11 2 12 3 13
REMARK SMILES IDX 1 14
REMARK H PARENT
REMARK Flexibility Score: inf
ROOT
ATOM      1  C   UNL     1      19.572 -11.025  66.839  1.00  0.00    -0.077 C 
ATOM      2  C   UNL     1      19.888 -12.327  66.655  1.00  0.00    -0.028 C 
ATOM      3  C   UNL     1      20.398  -9.980  66.133  1.00  0.00     0.039 C 
ENDROOT
BRANCH   1   4
ATOM      4  C   UNL     1      18.411 -10.577  67.710  1.00  0.00     0.034 C 
BRANCH   4   5
ATOM      5  C   UNL     1      17.249 -10.016  66.876  1.00  0.00     0.032 C 
BRANCH   5   6
ATOM      6  C   UNL     1      16.500 -11.106  66.147  1.00  0.00    -0.028 C 
ATOM      7  C   UNL     1      17.346 -10.417  63.893  1.00  0.00     0.039 C 
ATOM      8  C   UNL     1      16.559 -11.318  64.814  1.00  0.00    -0.080 C 
ATOM      9  C   UNL     1      15.793 -12.482  64.238  1.00  0.00     0.039 C 
ENDBRANCH   5   6
ENDBRANCH   4   5
ENDBRANCH   1   4
BRANCH   2  10
ATOM     10  C   UNL     1      19.167 -13.470  67.328  1.00  0.00     0.035 C 
BRANCH  10  11
ATOM     11  C   UNL     1      19.979 -14.022  68.503  1.00  0.00     0.079 C 
BRANCH  11  12
ATOM     12  C   UNL     1      19.648 -13.288  69.774  1.00  0.00     0.130 C 
ATOM     13  O   UNL     1      20.498 -12.596  70.314  1.00  0.00    -0.300 OA
ATOM     14  C   UNL     1      18.290 -13.419  70.394  1.00  0.00     0.087 C 
ENDBRANCH  11  12
ENDBRANCH  10  11
ENDBRANCH   2  10
TORSDOF 6
ENDMDL
