MODEL 1
REMARK VINA RESULT:    -5.019      0.000      0.000
REMARK INTER + INTRA:          -6.487
REMARK INTER:                  -6.192
REMARK INTRA:                  -0.295
REMARK UNBOUND:                -0.295
REMARK SMILES CCOC(=O)c1ccc(O)c(O)c1
REMARK SMILES IDX 4 1 5 2 3 3 2 4 1 5 6 6 13 7 7 8 11 9 8 10 9 11 12 12 10 14
REMARK H PARENT 12 13 10 15
REMARK Flexibility Score: inf
ROOT
ATOM      1  C   UNL     1      10.304 -16.926   8.631  1.00  0.00     0.338 C 
ATOM      2  O   UNL     1      10.371 -18.139   8.974  1.00  0.00    -0.246 OA
ENDROOT
BRANCH   1   3
ATOM      3  O   UNL     1       9.074 -16.256   8.657  1.00  0.00    -0.462 OA
BRANCH   3   4
ATOM      4  C   UNL     1       7.884 -16.770   8.061  1.00  0.00     0.230 C 
ATOM      5  C   UNL     1       8.082 -16.990   6.566  1.00  0.00     0.049 C 
ENDBRANCH   3   4
ENDBRANCH   1   3
BRANCH   1   6
ATOM      6  C   UNL     1      11.525 -16.206   8.207  1.00  0.00     0.064 A 
ATOM      7  C   UNL     1      12.801 -16.725   8.496  1.00  0.00     0.065 A 
ATOM      8  C   UNL     1      11.425 -14.993   7.506  1.00  0.00     0.020 A 
ATOM      9  C   UNL     1      13.956 -16.043   8.095  1.00  0.00     0.158 A 
ATOM     10  C   UNL     1      12.577 -14.311   7.104  1.00  0.00     0.051 A 
ATOM     11  C   UNL     1      13.845 -14.830   7.395  1.00  0.00     0.157 A 
BRANCH   9  12
ATOM     12  O   UNL     1      15.203 -16.587   8.400  1.00  0.00    -0.504 OA
ATOM     13  H   UNL     1      15.495 -16.763   9.354  1.00  0.00     0.293 HD
ENDBRANCH   9  12
BRANCH  11  14
ATOM     14  O   UNL     1      14.991 -14.147   6.992  1.00  0.00    -0.504 OA
ATOM     15  H   UNL     1      14.942 -13.218   6.592  1.00  0.00     0.293 HD
ENDBRANCH  11  14
ENDBRANCH   1   6
TORSDOF 5
ENDMDL
MODEL 2
REMARK VINA RESULT:    -4.566      1.352      2.213
REMARK INTER + INTRA:          -5.928
REMARK INTER:                  -5.652
REMARK INTRA:                  -0.276
REMARK UNBOUND:                -0.295
REMARK SMILES CCOC(=O)c1ccc(O)c(O)c1
REMARK SMILES IDX 4 1 5 2 3 3 2 4 1 5 6 6 13 7 7 8 11 9 8 10 9 11 12 12 10 14
REMARK H PARENT 12 13 10 15
REMARK Flexibility Score: inf
ROOT
ATOM      1  C   UNL     1      10.370 -18.342   8.427  1.00  0.00     0.338 C 
ATOM      2  O   UNL     1      10.453 -19.125   9.414  1.00  0.00    -0.246 OA
ENDROOT
BRANCH   1   3
ATOM      3  O   UNL     1       9.230 -18.356   7.613  1.00  0.00    -0.462 OA
BRANCH   3   4
ATOM      4  C   UNL     1       7.905 -18.181   8.111  1.00  0.00     0.230 C 
ATOM      5  C   UNL     1       7.600 -16.702   8.322  1.00  0.00     0.049 C 
ENDBRANCH   3   4
ENDBRANCH   1   3
BRANCH   1   6
ATOM      6  C   UNL     1      11.474 -17.403   8.131  1.00  0.00     0.064 A 
ATOM      7  C   UNL     1      11.206 -16.066   7.785  1.00  0.00     0.065 A 
ATOM      8  C   UNL     1      12.809 -17.836   8.193  1.00  0.00     0.020 A 
ATOM      9  C   UNL     1      12.252 -15.178   7.505  1.00  0.00     0.158 A 
ATOM     10  C   UNL     1      13.854 -16.952   7.914  1.00  0.00     0.051 A 
ATOM     11  C   UNL     1      13.583 -15.621   7.570  1.00  0.00     0.157 A 
BRANCH   9  12
ATOM     12  O   UNL     1      11.948 -13.859   7.166  1.00  0.00    -0.504 OA
ATOM     13  H   UNL     1      11.892 -13.551   6.202  1.00  0.00     0.293 HD
ENDBRANCH   9  12
BRANCH  11  14
ATOM     14  O   UNL     1      14.628 -14.742   7.292  1.00  0.00    -0.504 OA
ATOM     15  H   UNL     1      15.592 -15.053   7.267  1.00  0.00     0.293 HD
ENDBRANCH  11  14
ENDBRANCH   1   6
TORSDOF 5
ENDMDL
MODEL 3
REMARK VINA RESULT:    -4.527      2.012      5.600
REMARK INTER + INTRA:          -5.880
REMARK INTER:                  -5.582
REMARK INTRA:                  -0.298
REMARK UNBOUND:                -0.295
REMARK SMILES CCOC(=O)c1ccc(O)c(O)c1
REMARK SMILES IDX 4 1 5 2 3 3 2 4 1 5 6 6 13 7 7 8 11 9 8 10 9 11 12 12 10 14
REMARK H PARENT 12 13 10 15
REMARK Flexibility Score: inf
ROOT
ATOM      1  C   UNL     1      11.667 -16.162   7.919  1.00  0.00     0.338 C 
ATOM      2  O   UNL     1      11.871 -14.993   7.489  1.00  0.00    -0.246 OA
ENDROOT
BRANCH   1   3
ATOM      3  O   UNL     1      12.723 -16.907   8.458  1.00  0.00    -0.462 OA
BRANCH   3   4
ATOM      4  C   UNL     1      13.986 -17.065   7.812  1.00  0.00     0.230 C 
ATOM      5  C   UNL     1      13.848 -17.931   6.565  1.00  0.00     0.049 C 
ENDBRANCH   3   4
ENDBRANCH   1   3
BRANCH   1   6
ATOM      6  C   UNL     1      10.308 -16.746   7.863  1.00  0.00     0.064 A 
ATOM      7  C   UNL     1       9.194 -16.017   8.315  1.00  0.00     0.065 A 
ATOM      8  C   UNL     1      10.115 -18.041   7.354  1.00  0.00     0.020 A 
ATOM      9  C   UNL     1       7.909 -16.570   8.261  1.00  0.00     0.158 A 
ATOM     10  C   UNL     1       8.833 -18.596   7.299  1.00  0.00     0.051 A 
ATOM     11  C   UNL     1       7.726 -17.866   7.750  1.00  0.00     0.157 A 
BRANCH   9  12
ATOM     12  O   UNL     1       6.827 -15.817   8.719  1.00  0.00    -0.504 OA
ATOM     13  H   UNL     1       5.916 -15.861   8.279  1.00  0.00     0.293 HD
ENDBRANCH   9  12
BRANCH  11  14
ATOM     14  O   UNL     1       6.449 -18.422   7.694  1.00  0.00    -0.504 OA
ATOM     15  H   UNL     1       5.729 -18.169   8.359  1.00  0.00     0.293 HD
ENDBRANCH  11  14
ENDBRANCH   1   6
TORSDOF 5
ENDMDL
MODEL 4
REMARK VINA RESULT:    -4.499      1.712      1.926
REMARK INTER + INTRA:          -5.847
REMARK INTER:                  -5.565
REMARK INTRA:                  -0.281
REMARK UNBOUND:                -0.295
REMARK SMILES CCOC(=O)c1ccc(O)c(O)c1
REMARK SMILES IDX 4 1 5 2 3 3 2 4 1 5 6 6 13 7 7 8 11 9 8 10 9 11 12 12 10 14
REMARK H PARENT 12 13 10 15
REMARK Flexibility Score: inf
ROOT
ATOM      1  C   UNL     1       9.401 -18.128   7.420  1.00  0.00     0.338 C 
ATOM      2  O   UNL     1       9.026 -18.753   6.390  1.00  0.00    -0.246 OA
ENDROOT
BRANCH   1   3
ATOM      3  O   UNL     1       8.598 -18.118   8.567  1.00  0.00    -0.462 OA
BRANCH   3   4
ATOM      4  C   UNL     1       7.245 -17.665   8.578  1.00  0.00     0.230 C 
ATOM      5  C   UNL     1       7.188 -16.145   8.685  1.00  0.00     0.049 C 
ENDBRANCH   3   4
ENDBRANCH   1   3
BRANCH   1   6
ATOM      6  C   UNL     1      10.695 -17.410   7.422  1.00  0.00     0.064 A 
ATOM      7  C   UNL     1      11.886 -18.075   7.075  1.00  0.00     0.065 A 
ATOM      8  C   UNL     1      10.750 -16.050   7.769  1.00  0.00     0.020 A 
ATOM      9  C   UNL     1      13.109 -17.394   7.076  1.00  0.00     0.158 A 
ATOM     10  C   UNL     1      11.970 -15.369   7.772  1.00  0.00     0.051 A 
ATOM     11  C   UNL     1      13.154 -16.034   7.426  1.00  0.00     0.157 A 
BRANCH   9  12
ATOM     12  O   UNL     1      14.269 -18.086   6.727  1.00  0.00    -0.504 OA
ATOM     13  H   UNL     1      15.192 -17.749   6.974  1.00  0.00     0.293 HD
ENDBRANCH   9  12
BRANCH  11  14
ATOM     14  O   UNL     1      14.369 -15.351   7.429  1.00  0.00    -0.504 OA
ATOM     15  H   UNL     1      14.524 -14.541   6.841  1.00  0.00     0.293 HD
ENDBRANCH  11  14
ENDBRANCH   1   6
TORSDOF 5
ENDMDL
MODEL 5
REMARK VINA RESULT:    -4.409      1.948      2.905
REMARK INTER + INTRA:          -5.735
REMARK INTER:                  -5.556
REMARK INTRA:                  -0.180
REMARK UNBOUND:                -0.295
REMARK SMILES CCOC(=O)c1ccc(O)c(O)c1
REMARK SMILES IDX 4 1 5 2 3 3 2 4 1 5 6 6 13 7 7 8 11 9 8 10 9 11 12 12 10 14
REMARK H PARENT 12 13 10 15
REMARK Flexibility Score: inf
ROOT
ATOM      1  C   UNL     1       8.385 -17.157   8.281  1.00  0.00     0.338 C 
ATOM      2  O   UNL     1       7.742 -16.116   8.595  1.00  0.00    -0.246 OA
ENDROOT
BRANCH   1   3
ATOM      3  O   UNL     1       7.755 -18.408   8.313  1.00  0.00    -0.462 OA
BRANCH   3   4
ATOM      4  C   UNL     1       6.631 -18.745   7.502  1.00  0.00     0.230 C 
ATOM      5  C   UNL     1       5.346 -18.708   8.321  1.00  0.00     0.049 C 
ENDBRANCH   3   4
ENDBRANCH   1   3
BRANCH   1   6
ATOM      6  C   UNL     1       9.803 -17.058   7.872  1.00  0.00     0.064 A 
ATOM      7  C   UNL     1      10.471 -15.820   7.890  1.00  0.00     0.065 A 
ATOM      8  C   UNL     1      10.504 -18.204   7.460  1.00  0.00     0.020 A 
ATOM      9  C   UNL     1      11.814 -15.728   7.504  1.00  0.00     0.158 A 
ATOM     10  C   UNL     1      11.843 -18.115   7.073  1.00  0.00     0.051 A 
ATOM     11  C   UNL     1      12.505 -16.880   7.093  1.00  0.00     0.157 A 
BRANCH   9  12
ATOM     12  O   UNL     1      12.443 -14.483   7.534  1.00  0.00    -0.504 OA
ATOM     13  H   UNL     1      13.404 -14.358   7.239  1.00  0.00     0.293 HD
ENDBRANCH   9  12
BRANCH  11  14
ATOM     14  O   UNL     1      13.841 -16.794   6.706  1.00  0.00    -0.504 OA
ATOM     15  H   UNL     1      14.356 -17.608   6.392  1.00  0.00     0.293 HD
ENDBRANCH  11  14
ENDBRANCH   1   6
TORSDOF 5
ENDMDL
MODEL 6
REMARK VINA RESULT:    -3.958      1.833      5.092
REMARK INTER + INTRA:          -5.179
REMARK INTER:                  -4.956
REMARK INTRA:                  -0.223
REMARK UNBOUND:                -0.295
REMARK SMILES CCOC(=O)c1ccc(O)c(O)c1
REMARK SMILES IDX 4 1 5 2 3 3 2 4 1 5 6 6 13 7 7 8 11 9 8 10 9 11 12 12 10 14
REMARK H PARENT 12 13 10 15
REMARK Flexibility Score: inf
ROOT
ATOM      1  C   UNL     1      13.076 -17.934   7.775  1.00  0.00     0.338 C 
ATOM      2  O   UNL     1      13.494 -19.124   7.713  1.00  0.00    -0.246 OA
ENDROOT
BRANCH   1   3
ATOM      3  O   UNL     1      13.987 -16.873   7.850  1.00  0.00    -0.462 OA
BRANCH   3   4
ATOM      4  C   UNL     1      14.157 -15.907   6.814  1.00  0.00     0.230 C 
ATOM      5  C   UNL     1      14.075 -14.493   7.378  1.00  0.00     0.049 C 
ENDBRANCH   3   4
ENDBRANCH   1   3
BRANCH   1   6
ATOM      6  C   UNL     1      11.623 -17.657   7.762  1.00  0.00     0.064 A 
ATOM      7  C   UNL     1      10.739 -18.491   7.052  1.00  0.00     0.065 A 
ATOM      8  C   UNL     1      11.105 -16.555   8.463  1.00  0.00     0.020 A 
ATOM      9  C   UNL     1       9.364 -18.228   7.041  1.00  0.00     0.158 A 
ATOM     10  C   UNL     1       9.733 -16.291   8.453  1.00  0.00     0.051 A 
ATOM     11  C   UNL     1       8.857 -17.123   7.745  1.00  0.00     0.157 A 
BRANCH   9  12
ATOM     12  O   UNL     1       8.519 -19.076   6.326  1.00  0.00    -0.504 OA
ATOM     13  H   UNL     1       8.425 -20.059   6.551  1.00  0.00     0.293 HD
ENDBRANCH   9  12
BRANCH  11  14
ATOM     14  O   UNL     1       7.488 -16.856   7.738  1.00  0.00    -0.504 OA
ATOM     15  H   UNL     1       6.978 -16.720   6.873  1.00  0.00     0.293 HD
ENDBRANCH  11  14
ENDBRANCH   1   6
TORSDOF 5
ENDMDL
MODEL 7
REMARK VINA RESULT:    -3.650      2.367      3.472
REMARK INTER + INTRA:          -4.798
REMARK INTER:                  -4.697
REMARK INTRA:                  -0.101
REMARK UNBOUND:                -0.295
REMARK SMILES CCOC(=O)c1ccc(O)c(O)c1
REMARK SMILES IDX 4 1 5 2 3 3 2 4 1 5 6 6 13 7 7 8 11 9 8 10 9 11 12 12 10 14
REMARK H PARENT 12 13 10 15
REMARK Flexibility Score: inf
ROOT
ATOM      1  C   UNL     1       7.486 -17.519   8.332  1.00  0.00     0.338 C 
ATOM      2  O   UNL     1       6.741 -16.538   8.609  1.00  0.00    -0.246 OA
ENDROOT
BRANCH   1   3
ATOM      3  O   UNL     1       6.961 -18.817   8.313  1.00  0.00    -0.462 OA
BRANCH   3   4
ATOM      4  C   UNL     1       5.620 -19.119   7.933  1.00  0.00     0.230 C 
ATOM      5  C   UNL     1       4.699 -19.104   9.147  1.00  0.00     0.049 C 
ENDBRANCH   3   4
ENDBRANCH   1   3
BRANCH   1   6
ATOM      6  C   UNL     1       8.916 -17.299   8.019  1.00  0.00     0.064 A 
ATOM      7  C   UNL     1       9.681 -18.309   7.408  1.00  0.00     0.065 A 
ATOM      8  C   UNL     1       9.528 -16.072   8.326  1.00  0.00     0.020 A 
ATOM      9  C   UNL     1      11.033 -18.100   7.112  1.00  0.00     0.158 A 
ATOM     10  C   UNL     1      10.877 -15.861   8.032  1.00  0.00     0.051 A 
ATOM     11  C   UNL     1      11.636 -16.870   7.424  1.00  0.00     0.157 A 
BRANCH   9  12
ATOM     12  O   UNL     1      11.760 -19.125   6.507  1.00  0.00    -0.504 OA
ATOM     13  H   UNL     1      11.788 -19.245   5.501  1.00  0.00     0.293 HD
ENDBRANCH   9  12
BRANCH  11  14
ATOM     14  O   UNL     1      12.982 -16.655   7.131  1.00  0.00    -0.504 OA
ATOM     15  H   UNL     1      13.317 -15.758   6.803  1.00  0.00     0.293 HD
ENDBRANCH  11  14
ENDBRANCH   1   6
TORSDOF 5
ENDMDL
MODEL 8
REMARK VINA RESULT:    -3.617      2.089      2.681
REMARK INTER + INTRA:          -4.757
REMARK INTER:                  -4.513
REMARK INTRA:                  -0.244
REMARK UNBOUND:                -0.295
REMARK SMILES CCOC(=O)c1ccc(O)c(O)c1
REMARK SMILES IDX 4 1 5 2 3 3 2 4 1 5 6 6 13 7 7 8 11 9 8 10 9 11 12 12 10 14
REMARK H PARENT 12 13 10 15
REMARK Flexibility Score: inf
ROOT
ATOM      1  C   UNL     1      12.019 -18.579   6.349  1.00  0.00     0.338 C 
ATOM      2  O   UNL     1      12.653 -19.125   5.404  1.00  0.00    -0.246 OA
ENDROOT
BRANCH   1   3
ATOM      3  O   UNL     1      10.799 -19.116   6.780  1.00  0.00    -0.462 OA
BRANCH   3   4
ATOM      4  C   UNL     1       9.590 -19.029   6.027  1.00  0.00     0.230 C 
ATOM      5  C   UNL     1       8.494 -18.358   6.847  1.00  0.00     0.049 C 
ENDBRANCH   3   4
ENDBRANCH   1   3
BRANCH   1   6
ATOM      6  C   UNL     1      12.565 -17.373   7.010  1.00  0.00     0.064 A 
ATOM      7  C   UNL     1      13.535 -16.580   6.369  1.00  0.00     0.065 A 
ATOM      8  C   UNL     1      12.118 -17.002   8.289  1.00  0.00     0.020 A 
ATOM      9  C   UNL     1      14.051 -15.439   6.995  1.00  0.00     0.158 A 
ATOM     10  C   UNL     1      12.632 -15.864   8.916  1.00  0.00     0.051 A 
ATOM     11  C   UNL     1      13.598 -15.077   8.274  1.00  0.00     0.157 A 
BRANCH   9  12
ATOM     12  O   UNL     1      15.012 -14.677   6.329  1.00  0.00    -0.504 OA
ATOM     13  H   UNL     1      15.368 -13.809   6.709  1.00  0.00     0.293 HD
ENDBRANCH   9  12
BRANCH  11  14
ATOM     14  O   UNL     1      14.108 -13.942   8.903  1.00  0.00    -0.504 OA
ATOM     15  H   UNL     1      14.887 -13.996   9.547  1.00  0.00     0.293 HD
ENDBRANCH  11  14
ENDBRANCH   1   6
TORSDOF 5
ENDMDL
MODEL 9
REMARK VINA RESULT:    -3.616      1.596      5.019
REMARK INTER + INTRA:          -4.756
REMARK INTER:                  -4.476
REMARK INTRA:                  -0.280
REMARK UNBOUND:                -0.295
REMARK SMILES CCOC(=O)c1ccc(O)c(O)c1
REMARK SMILES IDX 4 1 5 2 3 3 2 4 1 5 6 6 13 7 7 8 11 9 8 10 9 11 12 12 10 14
REMARK H PARENT 12 13 10 15
REMARK Flexibility Score: inf
ROOT
ATOM      1  C   UNL     1      12.397 -15.395   7.992  1.00  0.00     0.338 C 
ATOM      2  O   UNL     1      12.396 -14.249   7.462  1.00  0.00    -0.246 OA
ENDROOT
BRANCH   1   3
ATOM      3  O   UNL     1      13.589 -15.941   8.486  1.00  0.00    -0.462 OA
BRANCH   3   4
ATOM      4  C   UNL     1      14.637 -16.430   7.651  1.00  0.00     0.230 C 
ATOM      5  C   UNL     1      14.190 -17.681   6.903  1.00  0.00     0.049 C 
ENDBRANCH   3   4
ENDBRANCH   1   3
BRANCH   1   6
ATOM      6  C   UNL     1      11.137 -16.164   8.098  1.00  0.00     0.064 A 
ATOM      7  C   UNL     1      11.050 -17.289   8.939  1.00  0.00     0.065 A 
ATOM      8  C   UNL     1      10.006 -15.776   7.361  1.00  0.00     0.020 A 
ATOM      9  C   UNL     1       9.857 -18.014   9.039  1.00  0.00     0.158 A 
ATOM     10  C   UNL     1       8.814 -16.499   7.459  1.00  0.00     0.051 A 
ATOM     11  C   UNL     1       8.733 -17.619   8.297  1.00  0.00     0.157 A 
BRANCH   9  12
ATOM     12  O   UNL     1       9.810 -19.125   9.882  1.00  0.00    -0.504 OA
ATOM     13  H   UNL     1      10.489 -19.874   9.825  1.00  0.00     0.293 HD
ENDBRANCH   9  12
BRANCH  11  14
ATOM     14  O   UNL     1       7.542 -18.337   8.393  1.00  0.00    -0.504 OA
ATOM     15  H   UNL     1       7.534 -19.326   8.613  1.00  0.00     0.293 HD
ENDBRANCH  11  14
ENDBRANCH   1   6
TORSDOF 5
ENDMDL
