MODEL 1
REMARK VINA RESULT:    -4.397      0.000      0.000
REMARK INTER + INTRA:          -5.199
REMARK INTER:                  -5.040
REMARK INTRA:                  -0.159
REMARK UNBOUND:                -0.159
REMARK SMILES CC=Cc1ccc(O)c(OC)c1
REMARK SMILES IDX 4 1 12 2 9 3 7 4 6 5 5 6 3 7 1 8 2 9 10 10 11 11 8 12
REMARK H PARENT 8 13
REMARK Flexibility Score: inf
ROOT
ATOM      1  C   UNL     1     -15.478 -18.535  13.191  1.00  0.00    -0.022 A 
ATOM      2  C   UNL     1     -15.409 -19.314  12.019  1.00  0.00     0.058 A 
ATOM      3  C   UNL     1     -16.165 -20.498  11.895  1.00  0.00     0.161 A 
ATOM      4  C   UNL     1     -17.002 -20.893  12.954  1.00  0.00     0.157 A 
ATOM      5  C   UNL     1     -17.084 -20.111  14.110  1.00  0.00     0.051 A 
ATOM      6  C   UNL     1     -16.334 -18.941  14.226  1.00  0.00     0.012 A 
ENDROOT
BRANCH   1   7
ATOM      7  C   UNL     1     -14.708 -17.279  13.361  1.00  0.00     0.003 C 
ATOM      8  C   UNL     1     -14.422 -14.843  13.603  1.00  0.00     0.035 C 
ATOM      9  C   UNL     1     -15.269 -16.065  13.448  1.00  0.00    -0.030 C 
ENDBRANCH   1   7
BRANCH   3  10
ATOM     10  O   UNL     1     -16.112 -21.298  10.743  1.00  0.00    -0.493 OA
ATOM     11  C   UNL     1     -15.053 -21.278   9.791  1.00  0.00     0.278 C 
ENDBRANCH   3  10
BRANCH   4  12
ATOM     12  O   UNL     1     -17.765 -22.057  12.875  1.00  0.00    -0.504 OA
ATOM     13  H   UNL     1     -18.762 -22.039  12.696  1.00  0.00     0.293 HD
ENDBRANCH   4  12
TORSDOF 3
ENDMDL
MODEL 2
REMARK VINA RESULT:    -4.214      2.933      3.811
REMARK INTER + INTRA:          -4.989
REMARK INTER:                  -4.805
REMARK INTRA:                  -0.184
REMARK UNBOUND:                -0.159
REMARK SMILES CC=Cc1ccc(O)c(OC)c1
REMARK SMILES IDX 4 1 12 2 9 3 7 4 6 5 5 6 3 7 1 8 2 9 10 10 11 11 8 12
REMARK H PARENT 8 13
REMARK Flexibility Score: inf
ROOT
ATOM      1  C   UNL     1     -13.843 -20.728  13.293  1.00  0.00    -0.022 A 
ATOM      2  C   UNL     1     -14.950 -19.858  13.346  1.00  0.00     0.058 A 
ATOM      3  C   UNL     1     -16.229 -20.293  12.943  1.00  0.00     0.161 A 
ATOM      4  C   UNL     1     -16.395 -21.615  12.493  1.00  0.00     0.157 A 
ATOM      5  C   UNL     1     -15.301 -22.483  12.456  1.00  0.00     0.051 A 
ATOM      6  C   UNL     1     -14.038 -22.047  12.857  1.00  0.00     0.012 A 
ENDROOT
BRANCH   1   7
ATOM      7  C   UNL     1     -12.482 -20.316  13.715  1.00  0.00     0.003 C 
ATOM      8  C   UNL     1     -10.350 -20.543  14.931  1.00  0.00     0.035 C 
ATOM      9  C   UNL     1     -11.707 -21.034  14.539  1.00  0.00    -0.030 C 
ENDBRANCH   1   7
BRANCH   3  10
ATOM     10  O   UNL     1     -17.349 -19.447  12.980  1.00  0.00    -0.493 OA
ATOM     11  C   UNL     1     -17.634 -18.439  12.016  1.00  0.00     0.278 C 
ENDBRANCH   3  10
BRANCH   4  12
ATOM     12  O   UNL     1     -17.642 -22.086  12.082  1.00  0.00    -0.504 OA
ATOM     13  H   UNL     1     -17.785 -22.516  11.177  1.00  0.00     0.293 HD
ENDBRANCH   4  12
TORSDOF 3
ENDMDL
MODEL 3
REMARK VINA RESULT:    -4.204      2.298      2.634
REMARK INTER + INTRA:          -4.978
REMARK INTER:                  -4.835
REMARK INTRA:                  -0.143
REMARK UNBOUND:                -0.159
REMARK SMILES CC=Cc1ccc(O)c(OC)c1
REMARK SMILES IDX 4 1 12 2 9 3 7 4 6 5 5 6 3 7 1 8 2 9 10 10 11 11 8 12
REMARK H PARENT 8 13
REMARK Flexibility Score: inf
ROOT
ATOM      1  C   UNL     1     -14.395 -19.557  14.115  1.00  0.00    -0.022 A 
ATOM      2  C   UNL     1     -14.249 -20.570  13.147  1.00  0.00     0.058 A 
ATOM      3  C   UNL     1     -15.375 -21.109  12.491  1.00  0.00     0.161 A 
ATOM      4  C   UNL     1     -16.654 -20.617  12.806  1.00  0.00     0.157 A 
ATOM      5  C   UNL     1     -16.798 -19.600  13.754  1.00  0.00     0.051 A 
ATOM      6  C   UNL     1     -15.680 -19.071  14.398  1.00  0.00     0.012 A 
ENDROOT
BRANCH   1   7
ATOM      7  C   UNL     1     -13.239 -18.955  14.822  1.00  0.00     0.003 C 
ATOM      8  C   UNL     1     -11.408 -18.890  16.471  1.00  0.00     0.035 C 
ATOM      9  C   UNL     1     -12.555 -19.571  15.795  1.00  0.00    -0.030 C 
ENDBRANCH   1   7
BRANCH   3  10
ATOM     10  O   UNL     1     -15.261 -22.123  11.528  1.00  0.00    -0.493 OA
ATOM     11  C   UNL     1     -14.031 -22.582  10.977  1.00  0.00     0.278 C 
ENDBRANCH   3  10
BRANCH   4  12
ATOM     12  O   UNL     1     -17.795 -21.123  12.185  1.00  0.00    -0.504 OA
ATOM     13  H   UNL     1     -18.457 -21.715  12.671  1.00  0.00     0.293 HD
ENDBRANCH   4  12
TORSDOF 3
ENDMDL
MODEL 4
REMARK VINA RESULT:    -4.165     15.877     16.196
REMARK INTER + INTRA:          -4.933
REMARK INTER:                  -4.775
REMARK INTRA:                  -0.158
REMARK UNBOUND:                -0.159
REMARK SMILES CC=Cc1ccc(O)c(OC)c1
REMARK SMILES IDX 4 1 12 2 9 3 7 4 6 5 5 6 3 7 1 8 2 9 10 10 11 11 8 12
REMARK H PARENT 8 13
REMARK Flexibility Score: inf
ROOT
ATOM      1  C   UNL     1     -18.507  -9.483   0.195  1.00  0.00    -0.022 A 
ATOM      2  C   UNL     1     -18.136 -10.608  -0.569  1.00  0.00     0.058 A 
ATOM      3  C   UNL     1     -19.060 -11.643  -0.823  1.00  0.00     0.161 A 
ATOM      4  C   UNL     1     -20.366 -11.538  -0.312  1.00  0.00     0.157 A 
ATOM      5  C   UNL     1     -20.739 -10.415   0.432  1.00  0.00     0.051 A 
ATOM      6  C   UNL     1     -19.821  -9.395   0.678  1.00  0.00     0.012 A 
ENDROOT
BRANCH   1   7
ATOM      7  C   UNL     1     -17.572  -8.367   0.479  1.00  0.00     0.003 C 
ATOM      8  C   UNL     1     -15.983  -6.574  -0.100  1.00  0.00     0.035 C 
ATOM      9  C   UNL     1     -16.923  -7.678  -0.468  1.00  0.00    -0.030 C 
ENDBRANCH   1   7
BRANCH   3  10
ATOM     10  O   UNL     1     -18.718 -12.777  -1.575  1.00  0.00    -0.493 OA
ATOM     11  C   UNL     1     -18.817 -12.869  -2.993  1.00  0.00     0.278 C 
ENDBRANCH   3  10
BRANCH   4  12
ATOM     12  O   UNL     1     -21.310 -12.540  -0.536  1.00  0.00    -0.504 OA
ATOM     13  H   UNL     1     -21.350 -13.380   0.027  1.00  0.00     0.293 HD
ENDBRANCH   4  12
TORSDOF 3
ENDMDL
MODEL 5
REMARK VINA RESULT:    -4.153      1.853      2.634
REMARK INTER + INTRA:          -4.920
REMARK INTER:                  -4.755
REMARK INTRA:                  -0.165
REMARK UNBOUND:                -0.159
REMARK SMILES CC=Cc1ccc(O)c(OC)c1
REMARK SMILES IDX 4 1 12 2 9 3 7 4 6 5 5 6 3 7 1 8 2 9 10 10 11 11 8 12
REMARK H PARENT 8 13
REMARK Flexibility Score: inf
ROOT
ATOM      1  C   UNL     1     -15.805 -16.279  13.037  1.00  0.00    -0.022 A 
ATOM      2  C   UNL     1     -15.308 -17.521  13.477  1.00  0.00     0.058 A 
ATOM      3  C   UNL     1     -15.951 -18.724  13.119  1.00  0.00     0.161 A 
ATOM      4  C   UNL     1     -17.097 -18.674  12.304  1.00  0.00     0.157 A 
ATOM      5  C   UNL     1     -17.581 -17.443  11.853  1.00  0.00     0.051 A 
ATOM      6  C   UNL     1     -16.939 -16.257  12.211  1.00  0.00     0.012 A 
ENDROOT
BRANCH   1   7
ATOM      7  C   UNL     1     -15.156 -14.991  13.381  1.00  0.00     0.003 C 
ATOM      8  C   UNL     1     -13.286 -13.537  14.064  1.00  0.00     0.035 C 
ATOM      9  C   UNL     1     -13.864 -14.871  13.715  1.00  0.00    -0.030 C 
ENDBRANCH   1   7
BRANCH   3  10
ATOM     10  O   UNL     1     -15.482 -19.975  13.547  1.00  0.00    -0.493 OA
ATOM     11  C   UNL     1     -14.419 -20.696  12.933  1.00  0.00     0.278 C 
ENDBRANCH   3  10
BRANCH   4  12
ATOM     12  O   UNL     1     -17.766 -19.838  11.929  1.00  0.00    -0.504 OA
ATOM     13  H   UNL     1     -18.167 -19.957  11.006  1.00  0.00     0.293 HD
ENDBRANCH   4  12
TORSDOF 3
ENDMDL
MODEL 6
REMARK VINA RESULT:    -4.097     13.169     14.866
REMARK INTER + INTRA:          -4.856
REMARK INTER:                  -4.714
REMARK INTRA:                  -0.142
REMARK UNBOUND:                -0.159
REMARK SMILES CC=Cc1ccc(O)c(OC)c1
REMARK SMILES IDX 4 1 12 2 9 3 7 4 6 5 5 6 3 7 1 8 2 9 10 10 11 11 8 12
REMARK H PARENT 8 13
REMARK Flexibility Score: inf
ROOT
ATOM      1  C   UNL     1     -18.575  -8.191   3.387  1.00  0.00    -0.022 A 
ATOM      2  C   UNL     1     -19.242  -8.454   4.600  1.00  0.00     0.058 A 
ATOM      3  C   UNL     1     -18.715  -7.998   5.826  1.00  0.00     0.161 A 
ATOM      4  C   UNL     1     -17.514  -7.264   5.828  1.00  0.00     0.157 A 
ATOM      5  C   UNL     1     -16.862  -6.989   4.623  1.00  0.00     0.051 A 
ATOM      6  C   UNL     1     -17.389  -7.442   3.414  1.00  0.00     0.012 A 
ENDROOT
BRANCH   1   7
ATOM      7  C   UNL     1     -19.097  -8.643   2.075  1.00  0.00     0.003 C 
ATOM      8  C   UNL     1     -20.324 -10.138   0.547  1.00  0.00     0.035 C 
ATOM      9  C   UNL     1     -19.848  -9.739   1.907  1.00  0.00    -0.030 C 
ENDBRANCH   1   7
BRANCH   3  10
ATOM     10  O   UNL     1     -19.353  -8.250   7.051  1.00  0.00    -0.493 OA
ATOM     11  C   UNL     1     -20.707  -8.666   7.187  1.00  0.00     0.278 C 
ENDBRANCH   3  10
BRANCH   4  12
ATOM     12  O   UNL     1     -16.957  -6.796   7.017  1.00  0.00    -0.504 OA
ATOM     13  H   UNL     1     -16.378  -5.966   7.052  1.00  0.00     0.293 HD
ENDBRANCH   4  12
TORSDOF 3
ENDMDL
MODEL 7
REMARK VINA RESULT:    -4.072      2.825      3.661
REMARK INTER + INTRA:          -4.826
REMARK INTER:                  -4.663
REMARK INTRA:                  -0.163
REMARK UNBOUND:                -0.159
REMARK SMILES CC=Cc1ccc(O)c(OC)c1
REMARK SMILES IDX 4 1 12 2 9 3 7 4 6 5 5 6 3 7 1 8 2 9 10 10 11 11 8 12
REMARK H PARENT 8 13
REMARK Flexibility Score: inf
ROOT
ATOM      1  C   UNL     1     -16.635 -17.100  11.954  1.00  0.00    -0.022 A 
ATOM      2  C   UNL     1     -17.034 -18.395  12.343  1.00  0.00     0.058 A 
ATOM      3  C   UNL     1     -16.607 -18.942  13.571  1.00  0.00     0.161 A 
ATOM      4  C   UNL     1     -15.782 -18.176  14.414  1.00  0.00     0.157 A 
ATOM      5  C   UNL     1     -15.400 -16.886  14.036  1.00  0.00     0.051 A 
ATOM      6  C   UNL     1     -15.827 -16.351  12.821  1.00  0.00     0.012 A 
ENDROOT
BRANCH   1   7
ATOM      7  C   UNL     1     -17.067 -16.481  10.677  1.00  0.00     0.003 C 
ATOM      8  C   UNL     1     -16.745 -15.549   8.418  1.00  0.00     0.035 C 
ATOM      9  C   UNL     1     -16.234 -16.188   9.670  1.00  0.00    -0.030 C 
ENDBRANCH   1   7
BRANCH   3  10
ATOM     10  O   UNL     1     -16.983 -20.230  13.982  1.00  0.00    -0.493 OA
ATOM     11  C   UNL     1     -16.991 -21.379  13.141  1.00  0.00     0.278 C 
ENDBRANCH   3  10
BRANCH   4  12
ATOM     12  O   UNL     1     -15.335 -18.680  15.635  1.00  0.00    -0.504 OA
ATOM     13  H   UNL     1     -14.988 -19.626  15.735  1.00  0.00     0.293 HD
ENDBRANCH   4  12
TORSDOF 3
ENDMDL
MODEL 8
REMARK VINA RESULT:    -3.915     13.961     15.161
REMARK INTER + INTRA:          -4.647
REMARK INTER:                  -4.502
REMARK INTRA:                  -0.145
REMARK UNBOUND:                -0.159
REMARK SMILES CC=Cc1ccc(O)c(OC)c1
REMARK SMILES IDX 4 1 12 2 9 3 7 4 6 5 5 6 3 7 1 8 2 9 10 10 11 11 8 12
REMARK H PARENT 8 13
REMARK Flexibility Score: inf
ROOT
ATOM      1  C   UNL     1     -19.631 -12.708  -0.889  1.00  0.00    -0.022 A 
ATOM      2  C   UNL     1     -19.173 -13.745  -0.053  1.00  0.00     0.058 A 
ATOM      3  C   UNL     1     -19.133 -15.078  -0.513  1.00  0.00     0.161 A 
ATOM      4  C   UNL     1     -19.547 -15.363  -1.826  1.00  0.00     0.157 A 
ATOM      5  C   UNL     1     -19.986 -14.332  -2.661  1.00  0.00     0.051 A 
ATOM      6  C   UNL     1     -20.022 -13.016  -2.200  1.00  0.00     0.012 A 
ENDROOT
BRANCH   1   7
ATOM      7  C   UNL     1     -19.681 -11.292  -0.450  1.00  0.00     0.003 C 
ATOM      8  C   UNL     1     -20.661  -9.328   0.672  1.00  0.00     0.035 C 
ATOM      9  C   UNL     1     -20.675 -10.772   0.282  1.00  0.00    -0.030 C 
ENDBRANCH   1   7
BRANCH   3  10
ATOM     10  O   UNL     1     -18.687 -16.132   0.299  1.00  0.00    -0.493 OA
ATOM     11  C   UNL     1     -18.642 -16.096   1.721  1.00  0.00     0.278 C 
ENDBRANCH   3  10
BRANCH   4  12
ATOM     12  O   UNL     1     -19.527 -16.667  -2.321  1.00  0.00    -0.504 OA
ATOM     13  H   UNL     1     -20.365 -17.134  -2.646  1.00  0.00     0.293 HD
ENDBRANCH   4  12
TORSDOF 3
ENDMDL
MODEL 9
REMARK VINA RESULT:    -3.871     15.547     16.402
REMARK INTER + INTRA:          -4.596
REMARK INTER:                  -4.425
REMARK INTRA:                  -0.171
REMARK UNBOUND:                -0.159
REMARK SMILES CC=Cc1ccc(O)c(OC)c1
REMARK SMILES IDX 4 1 12 2 9 3 7 4 6 5 5 6 3 7 1 8 2 9 10 10 11 11 8 12
REMARK H PARENT 8 13
REMARK Flexibility Score: inf
ROOT
ATOM      1  C   UNL     1     -19.618 -11.666  -0.684  1.00  0.00    -0.022 A 
ATOM      2  C   UNL     1     -18.414 -10.943  -0.564  1.00  0.00     0.058 A 
ATOM      3  C   UNL     1     -18.339  -9.798   0.256  1.00  0.00     0.161 A 
ATOM      4  C   UNL     1     -19.481  -9.386   0.967  1.00  0.00     0.157 A 
ATOM      5  C   UNL     1     -20.670 -10.113   0.862  1.00  0.00     0.051 A 
ATOM      6  C   UNL     1     -20.737 -11.244   0.049  1.00  0.00     0.012 A 
ENDROOT
BRANCH   1   7
ATOM      7  C   UNL     1     -19.741 -12.879  -1.528  1.00  0.00     0.003 C 
ATOM      8  C   UNL     1     -19.653 -15.297  -1.999  1.00  0.00     0.035 C 
ATOM      9  C   UNL     1     -19.524 -14.123  -1.081  1.00  0.00    -0.030 C 
ENDBRANCH   1   7
BRANCH   3  10
ATOM     10  O   UNL     1     -17.156  -9.055   0.390  1.00  0.00    -0.493 OA
ATOM     11  C   UNL     1     -16.736  -8.032  -0.506  1.00  0.00     0.278 C 
ENDBRANCH   3  10
BRANCH   4  12
ATOM     12  O   UNL     1     -19.451  -8.259   1.788  1.00  0.00    -0.504 OA
ATOM     13  H   UNL     1     -19.651  -8.308   2.779  1.00  0.00     0.293 HD
ENDBRANCH   4  12
TORSDOF 3
ENDMDL
