MODEL 1
REMARK VINA RESULT:    -5.163      0.000      0.000
REMARK INTER + INTRA:          -7.081
REMARK INTER:                  -6.521
REMARK INTRA:                  -0.560
REMARK UNBOUND:                -0.560
REMARK SMILES O=C(C=Cc1ccc(O)cc1)c1ccc(O)cc1O
REMARK SMILES IDX 4 1 3 2 5 3 6 4 7 5 8 6 11 7 10 8 9 9 2 11 1 12 12 13 18 14
REMARK SMILES IDX 13 15 17 16 14 17 15 18 19 19 16 21
REMARK H PARENT 9 10 19 20 16 22
REMARK Flexibility Score: inf
ROOT
ATOM      1  C   UNL     1     -52.240  15.809  -2.874  1.00  0.00     0.012 C 
ATOM      2  C   UNL     1     -51.401  14.904  -3.399  1.00  0.00     0.053 C 
ENDROOT
BRANCH   1   3
ATOM      3  C   UNL     1     -52.246  17.243  -3.255  1.00  0.00    -0.025 A 
ATOM      4  C   UNL     1     -52.595  18.197  -2.284  1.00  0.00     0.012 A 
ATOM      5  C   UNL     1     -52.602  19.559  -2.597  1.00  0.00     0.047 A 
ATOM      6  C   UNL     1     -52.252  19.989  -3.879  1.00  0.00     0.115 A 
ATOM      7  C   UNL     1     -51.879  17.685  -4.543  1.00  0.00     0.012 A 
ATOM      8  C   UNL     1     -51.887  19.048  -4.851  1.00  0.00     0.047 A 
BRANCH   6   9
ATOM      9  O   UNL     1     -52.264  21.349  -4.177  1.00  0.00    -0.508 OA
ATOM     10  H   UNL     1     -52.986  21.964  -3.819  1.00  0.00     0.293 HD
ENDBRANCH   6   9
ENDBRANCH   1   3
BRANCH   2  11
ATOM     11  C   UNL     1     -51.433  13.474  -3.025  1.00  0.00     0.189 C 
ATOM     12  O   UNL     1     -50.481  12.740  -3.406  1.00  0.00    -0.289 OA
BRANCH  11  13
ATOM     13  C   UNL     1     -52.515  12.879  -2.203  1.00  0.00     0.064 A 
ATOM     14  C   UNL     1     -52.484  12.969  -0.796  1.00  0.00     0.130 A 
ATOM     15  C   UNL     1     -53.609  12.253  -2.826  1.00  0.00     0.020 A 
ATOM     16  C   UNL     1     -53.530  12.423  -0.037  1.00  0.00     0.093 A 
ATOM     17  C   UNL     1     -54.645  11.710  -2.062  1.00  0.00     0.047 A 
ATOM     18  C   UNL     1     -54.607  11.793  -0.666  1.00  0.00     0.119 A 
BRANCH  14  19
ATOM     19  O   UNL     1     -51.410  13.585  -0.154  1.00  0.00    -0.507 OA
ATOM     20  H   UNL     1     -50.591  13.062   0.132  1.00  0.00     0.293 HD
ENDBRANCH  14  19
BRANCH  18  21
ATOM     21  O   UNL     1     -55.636  11.256   0.106  1.00  0.00    -0.508 OA
ATOM     22  H   UNL     1     -55.723  10.255   0.249  1.00  0.00     0.293 HD
ENDBRANCH  18  21
ENDBRANCH  11  13
ENDBRANCH   2  11
TORSDOF 6
ENDMDL
MODEL 2
REMARK VINA RESULT:    -5.051     15.601     17.359
REMARK INTER + INTRA:          -6.940
REMARK INTER:                  -6.292
REMARK INTRA:                  -0.648
REMARK UNBOUND:                -0.560
REMARK SMILES O=C(C=Cc1ccc(O)cc1)c1ccc(O)cc1O
REMARK SMILES IDX 4 1 3 2 5 3 6 4 7 5 8 6 11 7 10 8 9 9 2 11 1 12 12 13 18 14
REMARK SMILES IDX 13 15 17 16 14 17 15 18 19 19 16 21
REMARK H PARENT 9 10 19 20 16 22
REMARK Flexibility Score: inf
ROOT
ATOM      1  C   UNL     1     -52.075  25.049 -15.277  1.00  0.00     0.012 C 
ATOM      2  C   UNL     1     -53.088  25.436 -14.489  1.00  0.00     0.053 C 
ENDROOT
BRANCH   1   3
ATOM      3  C   UNL     1     -50.757  25.730 -15.317  1.00  0.00    -0.025 A 
ATOM      4  C   UNL     1     -49.843  25.371 -16.322  1.00  0.00     0.012 A 
ATOM      5  C   UNL     1     -48.595  25.995 -16.403  1.00  0.00     0.047 A 
ATOM      6  C   UNL     1     -48.245  26.991 -15.488  1.00  0.00     0.115 A 
ATOM      7  C   UNL     1     -50.404  26.746 -14.406  1.00  0.00     0.012 A 
ATOM      8  C   UNL     1     -49.154  27.368 -14.491  1.00  0.00     0.047 A 
BRANCH   6   9
ATOM      9  O   UNL     1     -46.998  27.603 -15.581  1.00  0.00    -0.508 OA
ATOM     10  H   UNL     1     -46.153  27.135 -15.275  1.00  0.00     0.293 HD
ENDBRANCH   6   9
ENDBRANCH   1   3
BRANCH   2  11
ATOM     11  C   UNL     1     -54.383  24.726 -14.445  1.00  0.00     0.189 C 
ATOM     12  O   UNL     1     -54.465  23.684 -13.739  1.00  0.00    -0.289 OA
BRANCH  11  13
ATOM     13  C   UNL     1     -55.588  25.200 -15.170  1.00  0.00     0.064 A 
ATOM     14  C   UNL     1     -56.835  25.284 -14.517  1.00  0.00     0.130 A 
ATOM     15  C   UNL     1     -55.487  25.612 -16.510  1.00  0.00     0.020 A 
ATOM     16  C   UNL     1     -57.957  25.760 -15.212  1.00  0.00     0.093 A 
ATOM     17  C   UNL     1     -56.610  26.083 -17.195  1.00  0.00     0.047 A 
ATOM     18  C   UNL     1     -57.848  26.156 -16.547  1.00  0.00     0.119 A 
BRANCH  14  19
ATOM     19  O   UNL     1     -56.962  24.882 -13.187  1.00  0.00    -0.507 OA
ATOM     20  H   UNL     1     -56.151  24.708 -12.605  1.00  0.00     0.293 HD
ENDBRANCH  14  19
BRANCH  18  21
ATOM     21  O   UNL     1     -58.975  26.625 -17.219  1.00  0.00    -0.508 OA
ATOM     22  H   UNL     1     -59.271  26.221 -18.102  1.00  0.00     0.293 HD
ENDBRANCH  18  21
ENDBRANCH  11  13
ENDBRANCH   2  11
TORSDOF 6
ENDMDL
MODEL 3
REMARK VINA RESULT:    -4.921      4.035      5.069
REMARK INTER + INTRA:          -6.776
REMARK INTER:                  -6.095
REMARK INTRA:                  -0.681
REMARK UNBOUND:                -0.560
REMARK SMILES O=C(C=Cc1ccc(O)cc1)c1ccc(O)cc1O
REMARK SMILES IDX 4 1 3 2 5 3 6 4 7 5 8 6 11 7 10 8 9 9 2 11 1 12 12 13 18 14
REMARK SMILES IDX 13 15 17 16 14 17 15 18 19 19 16 21
REMARK H PARENT 9 10 19 20 16 22
REMARK Flexibility Score: inf
ROOT
ATOM      1  C   UNL     1     -54.229  17.158  -5.417  1.00  0.00     0.012 C 
ATOM      2  C   UNL     1     -52.966  16.711  -5.381  1.00  0.00     0.053 C 
ENDROOT
BRANCH   1   3
ATOM      3  C   UNL     1     -55.125  17.000  -6.589  1.00  0.00    -0.025 A 
ATOM      4  C   UNL     1     -55.049  15.814  -7.340  1.00  0.00     0.012 A 
ATOM      5  C   UNL     1     -55.882  15.619  -8.445  1.00  0.00     0.047 A 
ATOM      6  C   UNL     1     -56.808  16.598  -8.811  1.00  0.00     0.115 A 
ATOM      7  C   UNL     1     -56.072  17.978  -6.955  1.00  0.00     0.012 A 
ATOM      8  C   UNL     1     -56.904  17.777  -8.061  1.00  0.00     0.047 A 
BRANCH   6   9
ATOM      9  O   UNL     1     -57.631  16.389  -9.915  1.00  0.00    -0.508 OA
ATOM     10  H   UNL     1     -58.642  16.403  -9.833  1.00  0.00     0.293 HD
ENDBRANCH   6   9
ENDBRANCH   1   3
BRANCH   2  11
ATOM     11  C   UNL     1     -52.100  16.855  -4.192  1.00  0.00     0.189 C 
ATOM     12  O   UNL     1     -51.514  17.956  -4.014  1.00  0.00    -0.289 OA
BRANCH  11  13
ATOM     13  C   UNL     1     -51.919  15.774  -3.192  1.00  0.00     0.064 A 
ATOM     14  C   UNL     1     -52.303  15.962  -1.849  1.00  0.00     0.130 A 
ATOM     15  C   UNL     1     -51.396  14.529  -3.588  1.00  0.00     0.020 A 
ATOM     16  C   UNL     1     -52.148  14.918  -0.924  1.00  0.00     0.093 A 
ATOM     17  C   UNL     1     -51.242  13.497  -2.659  1.00  0.00     0.047 A 
ATOM     18  C   UNL     1     -51.617  13.689  -1.325  1.00  0.00     0.119 A 
BRANCH  14  19
ATOM     19  O   UNL     1     -52.825  17.186  -1.431  1.00  0.00    -0.507 OA
ATOM     20  H   UNL     1     -52.386  17.727  -0.694  1.00  0.00     0.293 HD
ENDBRANCH  14  19
BRANCH  18  21
ATOM     21  O   UNL     1     -51.469  12.667  -0.390  1.00  0.00    -0.508 OA
ATOM     22  H   UNL     1     -52.269  12.273   0.094  1.00  0.00     0.293 HD
ENDBRANCH  18  21
ENDBRANCH  11  13
ENDBRANCH   2  11
TORSDOF 6
ENDMDL
MODEL 4
REMARK VINA RESULT:    -4.897     15.967     17.496
REMARK INTER + INTRA:          -6.745
REMARK INTER:                  -6.539
REMARK INTRA:                  -0.206
REMARK UNBOUND:                -0.560
REMARK SMILES O=C(C=Cc1ccc(O)cc1)c1ccc(O)cc1O
REMARK SMILES IDX 4 1 3 2 5 3 6 4 7 5 8 6 11 7 10 8 9 9 2 11 1 12 12 13 18 14
REMARK SMILES IDX 13 15 17 16 14 17 15 18 19 19 16 21
REMARK H PARENT 9 10 19 20 16 22
REMARK Flexibility Score: inf
ROOT
ATOM      1  C   UNL     1     -53.077  24.966 -14.660  1.00  0.00     0.012 C 
ATOM      2  C   UNL     1     -54.074  24.997 -15.556  1.00  0.00     0.053 C 
ENDROOT
BRANCH   1   3
ATOM      3  C   UNL     1     -51.732  25.542 -14.907  1.00  0.00    -0.025 A 
ATOM      4  C   UNL     1     -50.965  25.033 -15.969  1.00  0.00     0.012 A 
ATOM      5  C   UNL     1     -49.698  25.554 -16.244  1.00  0.00     0.047 A 
ATOM      6  C   UNL     1     -49.182  26.597 -15.471  1.00  0.00     0.115 A 
ATOM      7  C   UNL     1     -51.212  26.605 -14.140  1.00  0.00     0.012 A 
ATOM      8  C   UNL     1     -49.944  27.124 -14.420  1.00  0.00     0.047 A 
BRANCH   6   9
ATOM      9  O   UNL     1     -47.918  27.106 -15.757  1.00  0.00    -0.508 OA
ATOM     10  H   UNL     1     -47.309  26.665 -16.436  1.00  0.00     0.293 HD
ENDBRANCH   6   9
ENDBRANCH   1   3
BRANCH   2  11
ATOM     11  C   UNL     1     -55.415  24.442 -15.278  1.00  0.00     0.189 C 
ATOM     12  O   UNL     1     -55.508  23.208 -15.034  1.00  0.00    -0.289 OA
BRANCH  11  13
ATOM     13  C   UNL     1     -56.643  25.275 -15.247  1.00  0.00     0.064 A 
ATOM     14  C   UNL     1     -57.014  26.054 -16.362  1.00  0.00     0.130 A 
ATOM     15  C   UNL     1     -57.474  25.261 -14.112  1.00  0.00     0.020 A 
ATOM     16  C   UNL     1     -58.192  26.814 -16.322  1.00  0.00     0.093 A 
ATOM     17  C   UNL     1     -58.644  26.024 -14.081  1.00  0.00     0.047 A 
ATOM     18  C   UNL     1     -59.005  26.803 -15.186  1.00  0.00     0.119 A 
BRANCH  14  19
ATOM     19  O   UNL     1     -56.207  26.083 -17.499  1.00  0.00    -0.507 OA
ATOM     20  H   UNL     1     -55.293  26.520 -17.491  1.00  0.00     0.293 HD
ENDBRANCH  14  19
BRANCH  18  21
ATOM     21  O   UNL     1     -60.170  27.567 -15.167  1.00  0.00    -0.508 OA
ATOM     22  H   UNL     1     -60.226  28.459 -15.647  1.00  0.00     0.293 HD
ENDBRANCH  18  21
ENDBRANCH  11  13
ENDBRANCH   2  11
TORSDOF 6
ENDMDL
MODEL 5
REMARK VINA RESULT:    -4.844     16.019     17.862
REMARK INTER + INTRA:          -6.678
REMARK INTER:                  -6.054
REMARK INTRA:                  -0.624
REMARK UNBOUND:                -0.560
REMARK SMILES O=C(C=Cc1ccc(O)cc1)c1ccc(O)cc1O
REMARK SMILES IDX 4 1 3 2 5 3 6 4 7 5 8 6 11 7 10 8 9 9 2 11 1 12 12 13 18 14
REMARK SMILES IDX 13 15 17 16 14 17 15 18 19 19 16 21
REMARK H PARENT 9 10 19 20 16 22
REMARK Flexibility Score: inf
ROOT
ATOM      1  C   UNL     1     -54.450  24.980 -15.698  1.00  0.00     0.012 C 
ATOM      2  C   UNL     1     -53.471  25.366 -14.868  1.00  0.00     0.053 C 
ENDROOT
BRANCH   1   3
ATOM      3  C   UNL     1     -55.824  25.542 -15.668  1.00  0.00    -0.025 A 
ATOM      4  C   UNL     1     -56.622  25.310 -14.534  1.00  0.00     0.012 A 
ATOM      5  C   UNL     1     -57.917  25.830 -14.459  1.00  0.00     0.047 A 
ATOM      6  C   UNL     1     -58.430  26.596 -15.508  1.00  0.00     0.115 A 
ATOM      7  C   UNL     1     -56.342  26.328 -16.716  1.00  0.00     0.012 A 
ATOM      8  C   UNL     1     -57.638  26.847 -16.636  1.00  0.00     0.047 A 
BRANCH   6   9
ATOM      9  O   UNL     1     -59.722  27.107 -15.419  1.00  0.00    -0.508 OA
ATOM     10  H   UNL     1     -60.287  27.269 -16.245  1.00  0.00     0.293 HD
ENDBRANCH   6   9
ENDBRANCH   1   3
BRANCH   2  11
ATOM     11  C   UNL     1     -52.102  24.814 -14.935  1.00  0.00     0.189 C 
ATOM     12  O   UNL     1     -51.965  23.561 -14.885  1.00  0.00    -0.289 OA
BRANCH  11  13
ATOM     13  C   UNL     1     -50.896  25.664 -15.086  1.00  0.00     0.064 A 
ATOM     14  C   UNL     1     -49.970  25.425 -16.122  1.00  0.00     0.130 A 
ATOM     15  C   UNL     1     -50.686  26.750 -14.216  1.00  0.00     0.020 A 
ATOM     16  C   UNL     1     -48.849  26.256 -16.264  1.00  0.00     0.093 A 
ATOM     17  C   UNL     1     -49.566  27.571 -14.363  1.00  0.00     0.047 A 
ATOM     18  C   UNL     1     -48.644  27.325 -15.387  1.00  0.00     0.119 A 
BRANCH  14  19
ATOM     19  O   UNL     1     -50.155  24.355 -16.998  1.00  0.00    -0.507 OA
ATOM     20  H   UNL     1     -49.410  24.029 -17.603  1.00  0.00     0.293 HD
ENDBRANCH  14  19
BRANCH  18  21
ATOM     21  O   UNL     1     -47.523  28.138 -15.545  1.00  0.00    -0.508 OA
ATOM     22  H   UNL     1     -47.047  28.543 -14.746  1.00  0.00     0.293 HD
ENDBRANCH  18  21
ENDBRANCH  11  13
ENDBRANCH   2  11
TORSDOF 6
ENDMDL
MODEL 6
REMARK VINA RESULT:    -4.839     13.846     17.099
REMARK INTER + INTRA:          -6.672
REMARK INTER:                  -5.996
REMARK INTRA:                  -0.676
REMARK UNBOUND:                -0.560
REMARK SMILES O=C(C=Cc1ccc(O)cc1)c1ccc(O)cc1O
REMARK SMILES IDX 4 1 3 2 5 3 6 4 7 5 8 6 11 7 10 8 9 9 2 11 1 12 12 13 18 14
REMARK SMILES IDX 13 15 17 16 14 17 15 18 19 19 16 21
REMARK H PARENT 9 10 19 20 16 22
REMARK Flexibility Score: inf
ROOT
ATOM      1  C   UNL     1     -56.234  21.742 -14.897  1.00  0.00     0.012 C 
ATOM      2  C   UNL     1     -55.470  22.807 -14.615  1.00  0.00     0.053 C 
ENDROOT
BRANCH   1   3
ATOM      3  C   UNL     1     -55.690  20.438 -15.352  1.00  0.00    -0.025 A 
ATOM      4  C   UNL     1     -56.350  19.759 -16.391  1.00  0.00     0.012 A 
ATOM      5  C   UNL     1     -55.865  18.534 -16.859  1.00  0.00     0.047 A 
ATOM      6  C   UNL     1     -54.712  17.975 -16.304  1.00  0.00     0.115 A 
ATOM      7  C   UNL     1     -54.518  19.875 -14.807  1.00  0.00     0.012 A 
ATOM      8  C   UNL     1     -54.038  18.650 -15.279  1.00  0.00     0.047 A 
BRANCH   6   9
ATOM      9  O   UNL     1     -54.242  16.754 -16.780  1.00  0.00    -0.508 OA
ATOM     10  H   UNL     1     -53.250  16.551 -16.831  1.00  0.00     0.293 HD
ENDBRANCH   6   9
ENDBRANCH   1   3
BRANCH   2  11
ATOM     11  C   UNL     1     -56.031  24.088 -14.135  1.00  0.00     0.189 C 
ATOM     12  O   UNL     1     -55.967  24.338 -12.901  1.00  0.00    -0.289 OA
BRANCH  11  13
ATOM     13  C   UNL     1     -56.636  25.094 -15.043  1.00  0.00     0.064 A 
ATOM     14  C   UNL     1     -57.970  25.514 -14.867  1.00  0.00     0.130 A 
ATOM     15  C   UNL     1     -55.864  25.672 -16.067  1.00  0.00     0.020 A 
ATOM     16  C   UNL     1     -58.516  26.486 -15.719  1.00  0.00     0.093 A 
ATOM     17  C   UNL     1     -56.417  26.638 -16.912  1.00  0.00     0.047 A 
ATOM     18  C   UNL     1     -57.745  27.046 -16.740  1.00  0.00     0.119 A 
BRANCH  14  19
ATOM     19  O   UNL     1     -58.756  24.956 -13.858  1.00  0.00    -0.507 OA
ATOM     20  H   UNL     1     -59.769  24.977 -13.901  1.00  0.00     0.293 HD
ENDBRANCH  14  19
BRANCH  18  21
ATOM     21  O   UNL     1     -58.306  28.009 -17.576  1.00  0.00    -0.508 OA
ATOM     22  H   UNL     1     -57.802  28.854 -17.823  1.00  0.00     0.293 HD
ENDBRANCH  18  21
ENDBRANCH  11  13
ENDBRANCH   2  11
TORSDOF 6
ENDMDL
MODEL 7
REMARK VINA RESULT:    -4.779     12.230     15.374
REMARK INTER + INTRA:          -6.596
REMARK INTER:                  -5.940
REMARK INTRA:                  -0.656
REMARK UNBOUND:                -0.560
REMARK SMILES O=C(C=Cc1ccc(O)cc1)c1ccc(O)cc1O
REMARK SMILES IDX 4 1 3 2 5 3 6 4 7 5 8 6 11 7 10 8 9 9 2 11 1 12 12 13 18 14
REMARK SMILES IDX 13 15 17 16 14 17 15 18 19 19 16 21
REMARK H PARENT 9 10 19 20 16 22
REMARK Flexibility Score: inf
ROOT
ATOM      1  C   UNL     1     -58.322  26.082 -12.707  1.00  0.00     0.012 C 
ATOM      2  C   UNL     1     -59.330  25.397 -12.146  1.00  0.00     0.053 C 
ENDROOT
BRANCH   1   3
ATOM      3  C   UNL     1     -58.405  26.716 -14.047  1.00  0.00    -0.025 A 
ATOM      4  C   UNL     1     -58.173  25.922 -15.183  1.00  0.00     0.012 A 
ATOM      5  C   UNL     1     -58.252  26.476 -16.464  1.00  0.00     0.047 A 
ATOM      6  C   UNL     1     -58.571  27.826 -16.630  1.00  0.00     0.115 A 
ATOM      7  C   UNL     1     -58.741  28.074 -14.221  1.00  0.00     0.012 A 
ATOM      8  C   UNL     1     -58.819  28.623 -15.505  1.00  0.00     0.047 A 
BRANCH   6   9
ATOM      9  O   UNL     1     -58.646  28.364 -17.912  1.00  0.00    -0.508 OA
ATOM     10  H   UNL     1     -58.444  27.806 -18.734  1.00  0.00     0.293 HD
ENDBRANCH   6   9
ENDBRANCH   1   3
BRANCH   2  11
ATOM     11  C   UNL     1     -59.236  24.798 -10.799  1.00  0.00     0.189 C 
ATOM     12  O   UNL     1     -59.385  25.555  -9.801  1.00  0.00    -0.289 OA
BRANCH  11  13
ATOM     13  C   UNL     1     -59.003  23.350 -10.574  1.00  0.00     0.064 A 
ATOM     14  C   UNL     1     -59.782  22.631  -9.645  1.00  0.00     0.130 A 
ATOM     15  C   UNL     1     -58.025  22.670 -11.322  1.00  0.00     0.020 A 
ATOM     16  C   UNL     1     -59.564  21.256  -9.467  1.00  0.00     0.093 A 
ATOM     17  C   UNL     1     -57.813  21.302 -11.135  1.00  0.00     0.047 A 
ATOM     18  C   UNL     1     -58.582  20.592 -10.206  1.00  0.00     0.119 A 
BRANCH  14  19
ATOM     19  O   UNL     1     -60.759  23.281  -8.892  1.00  0.00    -0.507 OA
ATOM     20  H   UNL     1     -61.744  23.065  -8.999  1.00  0.00     0.293 HD
ENDBRANCH  14  19
BRANCH  18  21
ATOM     21  O   UNL     1     -58.381  19.227 -10.012  1.00  0.00    -0.508 OA
ATOM     22  H   UNL     1     -57.809  18.879  -9.250  1.00  0.00     0.293 HD
ENDBRANCH  18  21
ENDBRANCH  11  13
ENDBRANCH   2  11
TORSDOF 6
ENDMDL
MODEL 8
REMARK VINA RESULT:    -4.670     12.874     16.983
REMARK INTER + INTRA:          -6.458
REMARK INTER:                  -5.846
REMARK INTRA:                  -0.612
REMARK UNBOUND:                -0.560
REMARK SMILES O=C(C=Cc1ccc(O)cc1)c1ccc(O)cc1O
REMARK SMILES IDX 4 1 3 2 5 3 6 4 7 5 8 6 11 7 10 8 9 9 2 11 1 12 12 13 18 14
REMARK SMILES IDX 13 15 17 16 14 17 15 18 19 19 16 21
REMARK H PARENT 9 10 19 20 16 22
REMARK Flexibility Score: inf
ROOT
ATOM      1  C   UNL     1     -58.540  24.718 -11.439  1.00  0.00     0.012 C 
ATOM      2  C   UNL     1     -58.169  24.267 -12.646  1.00  0.00     0.053 C 
ENDROOT
BRANCH   1   3
ATOM      3  C   UNL     1     -59.524  24.026 -10.571  1.00  0.00    -0.025 A 
ATOM      4  C   UNL     1     -59.175  22.784 -10.012  1.00  0.00     0.012 A 
ATOM      5  C   UNL     1     -60.067  22.104  -9.179  1.00  0.00     0.047 A 
ATOM      6  C   UNL     1     -61.316  22.656  -8.884  1.00  0.00     0.115 A 
ATOM      7  C   UNL     1     -60.780  24.585 -10.257  1.00  0.00     0.012 A 
ATOM      8  C   UNL     1     -61.669  23.900  -9.422  1.00  0.00     0.047 A 
BRANCH   6   9
ATOM      9  O   UNL     1     -62.195  21.966  -8.052  1.00  0.00    -0.508 OA
ATOM     10  H   UNL     1     -62.604  21.082  -8.330  1.00  0.00     0.293 HD
ENDBRANCH   6   9
ENDBRANCH   1   3
BRANCH   2  11
ATOM     11  C   UNL     1     -57.164  24.958 -13.483  1.00  0.00     0.189 C 
ATOM     12  O   UNL     1     -55.945  24.774 -13.219  1.00  0.00    -0.289 OA
BRANCH  11  13
ATOM     13  C   UNL     1     -57.529  25.828 -14.627  1.00  0.00     0.064 A 
ATOM     14  C   UNL     1     -56.743  25.847 -15.798  1.00  0.00     0.130 A 
ATOM     15  C   UNL     1     -58.694  26.615 -14.570  1.00  0.00     0.020 A 
ATOM     16  C   UNL     1     -57.120  26.657 -16.880  1.00  0.00     0.093 A 
ATOM     17  C   UNL     1     -59.059  27.421 -15.651  1.00  0.00     0.047 A 
ATOM     18  C   UNL     1     -58.272  27.445 -16.808  1.00  0.00     0.119 A 
BRANCH  14  19
ATOM     19  O   UNL     1     -55.585  25.075 -15.880  1.00  0.00    -0.507 OA
ATOM     20  H   UNL     1     -55.403  24.473 -16.675  1.00  0.00     0.293 HD
ENDBRANCH  14  19
BRANCH  18  21
ATOM     21  O   UNL     1     -58.627  28.243 -17.894  1.00  0.00    -0.508 OA
ATOM     22  H   UNL     1     -59.599  28.409 -18.133  1.00  0.00     0.293 HD
ENDBRANCH  18  21
ENDBRANCH  11  13
ENDBRANCH   2  11
TORSDOF 6
ENDMDL
MODEL 9
REMARK VINA RESULT:    -4.654     12.467     15.358
REMARK INTER + INTRA:          -6.438
REMARK INTER:                  -5.835
REMARK INTRA:                  -0.603
REMARK UNBOUND:                -0.560
REMARK SMILES O=C(C=Cc1ccc(O)cc1)c1ccc(O)cc1O
REMARK SMILES IDX 4 1 3 2 5 3 6 4 7 5 8 6 11 7 10 8 9 9 2 11 1 12 12 13 18 14
REMARK SMILES IDX 13 15 17 16 14 17 15 18 19 19 16 21
REMARK H PARENT 9 10 19 20 16 22
REMARK Flexibility Score: inf
ROOT
ATOM      1  C   UNL     1     -57.874  24.859 -13.406  1.00  0.00     0.012 C 
ATOM      2  C   UNL     1     -58.524  25.027 -12.246  1.00  0.00     0.053 C 
ENDROOT
BRANCH   1   3
ATOM      3  C   UNL     1     -58.043  25.752 -14.580  1.00  0.00    -0.025 A 
ATOM      4  C   UNL     1     -59.118  26.657 -14.589  1.00  0.00     0.012 A 
ATOM      5  C   UNL     1     -59.308  27.523 -15.669  1.00  0.00     0.047 A 
ATOM      6  C   UNL     1     -58.423  27.506 -16.750  1.00  0.00     0.115 A 
ATOM      7  C   UNL     1     -57.145  25.750 -15.667  1.00  0.00     0.012 A 
ATOM      8  C   UNL     1     -57.339  26.619 -16.745  1.00  0.00     0.047 A 
BRANCH   6   9
ATOM      9  O   UNL     1     -58.625  28.375 -17.819  1.00  0.00    -0.508 OA
ATOM     10  H   UNL     1     -57.970  29.121 -18.028  1.00  0.00     0.293 HD
ENDBRANCH   6   9
ENDBRANCH   1   3
BRANCH   2  11
ATOM     11  C   UNL     1     -58.318  24.143 -11.080  1.00  0.00     0.189 C 
ATOM     12  O   UNL     1     -57.134  23.887 -10.730  1.00  0.00    -0.289 OA
BRANCH  11  13
ATOM     13  C   UNL     1     -59.439  23.571 -10.293  1.00  0.00     0.064 A 
ATOM     14  C   UNL     1     -59.366  22.260  -9.782  1.00  0.00     0.130 A 
ATOM     15  C   UNL     1     -60.574  24.355 -10.013  1.00  0.00     0.020 A 
ATOM     16  C   UNL     1     -60.426  21.747  -9.018  1.00  0.00     0.093 A 
ATOM     17  C   UNL     1     -61.625  23.835  -9.254  1.00  0.00     0.047 A 
ATOM     18  C   UNL     1     -61.554  22.529  -8.756  1.00  0.00     0.119 A 
BRANCH  14  19
ATOM     19  O   UNL     1     -58.252  21.463 -10.045  1.00  0.00    -0.507 OA
ATOM     20  H   UNL     1     -57.610  21.679 -10.799  1.00  0.00     0.293 HD
ENDBRANCH  14  19
BRANCH  18  21
ATOM     21  O   UNL     1     -62.595  22.000  -7.996  1.00  0.00    -0.508 OA
ATOM     22  H   UNL     1     -62.701  20.999  -7.868  1.00  0.00     0.293 HD
ENDBRANCH  18  21
ENDBRANCH  11  13
ENDBRANCH   2  11
TORSDOF 6
ENDMDL
