MODEL 1
REMARK VINA RESULT:    -5.598      0.000      0.000
REMARK INTER + INTRA:          -7.595
REMARK INTER:                  -7.888
REMARK INTRA:                   0.293
REMARK UNBOUND:                 0.293
REMARK SMILES CC1=CCCC(C)=CCC(C)(C)C=CC1
REMARK SMILES IDX 2 1 3 2 1 3 4 4 5 5 6 6 7 7 8 8 15 10 14 11 13 12 10 13
REMARK SMILES IDX 11 14 12 15 9 16
REMARK H PARENT
REMARK Flexibility Score: 60.00
ROOT
ATOM      1  C   UNL     1      -4.072 -16.229   7.064  1.00  0.00    -0.074 C 
ATOM      2  C   UNL     1      -4.268 -17.449   7.624  1.00  0.00    -0.027 C 
ATOM      3  C   UNL     1      -5.149 -15.689   6.156  1.00  0.00     0.039 C 
ENDROOT
BRANCH   2   4
ATOM      4  C   UNL     1      -3.306 -18.155   8.551  1.00  0.00     0.032 C 
BRANCH   4   5
ATOM      5  C   UNL     1      -3.874 -18.253   9.977  1.00  0.00     0.034 C 
BRANCH   5   6
ATOM      6  C   UNL     1      -4.390 -16.944  10.553  1.00  0.00    -0.077 C 
ATOM      7  C   UNL     1      -5.864 -16.841  10.866  1.00  0.00     0.039 C 
ATOM      8  C   UNL     1      -3.608 -15.893  10.917  1.00  0.00    -0.027 CG0
ATOM      9  G   UNL     1      -2.150 -15.642  10.571  1.00  0.00     0.000 G0
ENDBRANCH   5   6
ENDBRANCH   4   5
ENDBRANCH   2   4
BRANCH   1  10
ATOM     10  C   UNL     1      -2.826 -15.390   7.290  1.00  0.00     0.057 C 
BRANCH  10  11
ATOM     11  C   UNL     1      -3.188 -14.087   7.957  1.00  0.00    -0.026 C 
ATOM     12  C   UNL     1      -2.673 -13.557   9.092  1.00  0.00    -0.024 C 
BRANCH  12  13
ATOM     13  C   UNL     1      -1.730 -14.199  10.113  1.00  0.00    -0.014 C 
ATOM     14  C   UNL     1      -1.628 -13.281  11.353  1.00  0.00     0.016 C 
ATOM     15  C   UNL     1      -0.318 -14.271   9.482  1.00  0.00     0.016 C 
BRANCH  13  16
ATOM     16  C   UNL     1      -2.139 -15.635  10.567  1.00  0.00     0.038 CG0
ATOM     17  G   UNL     1      -3.599 -15.868  10.918  1.00  0.00     0.000 G0
ENDBRANCH  13  16
ENDBRANCH  12  13
ENDBRANCH  10  11
ENDBRANCH   1  10
TORSDOF 0
ENDMDL
MODEL 2
REMARK VINA RESULT:    -5.202      1.308      3.674
REMARK INTER + INTRA:          -7.037
REMARK INTER:                  -8.112
REMARK INTRA:                   1.075
REMARK UNBOUND:                 0.293
REMARK SMILES CC1=CCCC(C)=CCC(C)(C)C=CC1
REMARK SMILES IDX 2 1 3 2 1 3 4 4 5 5 6 6 7 7 8 8 15 10 14 11 13 12 10 13
REMARK SMILES IDX 11 14 12 15 9 16
REMARK H PARENT
REMARK Flexibility Score: 60.00
ROOT
ATOM      1  C   UNL     1      -4.277 -14.088   7.528  1.00  0.00    -0.074 C 
ATOM      2  C   UNL     1      -3.338 -13.516   8.324  1.00  0.00    -0.027 C 
ATOM      3  C   UNL     1      -5.333 -13.194   6.930  1.00  0.00     0.039 C 
ENDROOT
BRANCH   2   4
ATOM      4  C   UNL     1      -2.208 -14.245   9.014  1.00  0.00     0.032 C 
BRANCH   4   5
ATOM      5  C   UNL     1      -2.065 -13.796  10.478  1.00  0.00     0.034 C 
BRANCH   5   6
ATOM      6  C   UNL     1      -2.372 -14.870  11.509  1.00  0.00    -0.077 C 
ATOM      7  C   UNL     1      -2.465 -14.452  12.959  1.00  0.00     0.039 C 
ATOM      8  C   UNL     1      -2.684 -16.160  11.219  1.00  0.00    -0.027 CG0
ATOM      9  G   UNL     1      -2.507 -16.897   9.903  1.00  0.00     0.000 G0
ENDBRANCH   5   6
ENDBRANCH   4   5
ENDBRANCH   2   4
BRANCH   1  10
ATOM     10  C   UNL     1      -4.327 -15.576   7.224  1.00  0.00     0.057 C 
BRANCH  10  11
ATOM     11  C   UNL     1      -5.273 -16.269   8.173  1.00  0.00    -0.026 C 
ATOM     12  C   UNL     1      -4.974 -17.160   9.148  1.00  0.00    -0.024 C 
BRANCH  12  13
ATOM     13  C   UNL     1      -3.643 -17.855   9.443  1.00  0.00    -0.014 C 
ATOM     14  C   UNL     1      -3.183 -18.623   8.182  1.00  0.00     0.016 C 
ATOM     15  C   UNL     1      -3.889 -18.908  10.552  1.00  0.00     0.016 C 
BRANCH  13  16
ATOM     16  C   UNL     1      -2.500 -16.904   9.915  1.00  0.00     0.038 CG0
ATOM     17  G   UNL     1      -2.703 -16.162  11.225  1.00  0.00     0.000 G0
ENDBRANCH  13  16
ENDBRANCH  12  13
ENDBRANCH  10  11
ENDBRANCH   1  10
TORSDOF 0
ENDMDL
MODEL 3
REMARK VINA RESULT:    -4.990      1.518      3.367
REMARK INTER + INTRA:          -6.738
REMARK INTER:                  -8.442
REMARK INTRA:                   1.704
REMARK UNBOUND:                 0.293
REMARK SMILES CC1=CCCC(C)=CCC(C)(C)C=CC1
REMARK SMILES IDX 2 1 3 2 1 3 4 4 5 5 6 6 7 7 8 8 15 10 14 11 13 12 10 13
REMARK SMILES IDX 11 14 12 15 9 16
REMARK H PARENT
REMARK Flexibility Score: 60.00
ROOT
ATOM      1  C   UNL     1      -4.853 -16.831   9.646  1.00  0.00    -0.074 C 
ATOM      2  C   UNL     1      -5.444 -16.608   8.445  1.00  0.00    -0.027 C 
ATOM      3  C   UNL     1      -5.678 -16.611  10.889  1.00  0.00     0.039 C 
ENDROOT
BRANCH   2   4
ATOM      4  C   UNL     1      -4.782 -16.769   7.096  1.00  0.00     0.032 C 
BRANCH   4   5
ATOM      5  C   UNL     1      -4.870 -15.473   6.272  1.00  0.00     0.034 C 
BRANCH   5   6
ATOM      6  C   UNL     1      -4.635 -14.195   7.060  1.00  0.00    -0.077 C 
ATOM      7  C   UNL     1      -5.622 -13.065   6.887  1.00  0.00     0.039 C 
ATOM      8  C   UNL     1      -3.667 -14.029   8.000  1.00  0.00    -0.027 CG0
ATOM      9  G   UNL     1      -2.451 -14.900   8.263  1.00  0.00     0.000 G0
ENDBRANCH   5   6
ENDBRANCH   4   5
ENDBRANCH   2   4
BRANCH   1  10
ATOM     10  C   UNL     1      -3.408 -17.272   9.802  1.00  0.00     0.057 C 
BRANCH  10  11
ATOM     11  C   UNL     1      -2.739 -16.487  10.902  1.00  0.00    -0.026 C 
ATOM     12  C   UNL     1      -2.055 -15.322  10.801  1.00  0.00    -0.024 C 
BRANCH  12  13
ATOM     13  C   UNL     1      -1.603 -14.577   9.542  1.00  0.00    -0.014 C 
ATOM     14  C   UNL     1      -0.113 -14.894   9.275  1.00  0.00     0.016 C 
ATOM     15  C   UNL     1      -1.701 -13.058   9.825  1.00  0.00     0.016 C 
BRANCH  13  16
ATOM     16  C   UNL     1      -2.437 -14.893   8.262  1.00  0.00     0.038 CG0
ATOM     17  G   UNL     1      -3.667 -14.042   8.001  1.00  0.00     0.000 G0
ENDBRANCH  13  16
ENDBRANCH  12  13
ENDBRANCH  10  11
ENDBRANCH   1  10
TORSDOF 0
ENDMDL
MODEL 4
REMARK VINA RESULT:    -4.743      1.527      4.239
REMARK INTER + INTRA:          -6.391
REMARK INTER:                  -6.821
REMARK INTRA:                   0.431
REMARK UNBOUND:                 0.293
REMARK SMILES CC1=CCCC(C)=CCC(C)(C)C=CC1
REMARK SMILES IDX 2 1 3 2 1 3 4 4 5 5 6 6 7 7 8 8 15 10 14 11 13 12 10 13
REMARK SMILES IDX 11 14 12 15 9 16
REMARK H PARENT
REMARK Flexibility Score: 60.00
ROOT
ATOM      1  C   UNL     1      -3.810 -17.418  10.605  1.00  0.00    -0.074 C 
ATOM      2  C   UNL     1      -2.603 -17.166  11.171  1.00  0.00    -0.027 C 
ATOM      3  C   UNL     1      -4.199 -18.859  10.387  1.00  0.00     0.039 C 
ENDROOT
BRANCH   2   4
ATOM      4  C   UNL     1      -2.038 -15.795  11.463  1.00  0.00     0.032 C 
BRANCH   4   5
ATOM      5  C   UNL     1      -1.242 -15.251  10.264  1.00  0.00     0.034 C 
BRANCH   5   6
ATOM      6  C   UNL     1      -1.859 -14.041   9.582  1.00  0.00    -0.077 C 
ATOM      7  C   UNL     1      -1.643 -12.686  10.215  1.00  0.00     0.039 C 
ATOM      8  C   UNL     1      -2.494 -14.065   8.381  1.00  0.00    -0.027 CG0
ATOM      9  G   UNL     1      -3.002 -15.272   7.610  1.00  0.00     0.000 G0
ENDBRANCH   5   6
ENDBRANCH   4   5
ENDBRANCH   2   4
BRANCH   1  10
ATOM     10  C   UNL     1      -4.777 -16.331  10.167  1.00  0.00     0.057 C 
BRANCH  10  11
ATOM     11  C   UNL     1      -5.536 -16.772   8.941  1.00  0.00    -0.026 C 
ATOM     12  C   UNL     1      -5.362 -16.369   7.660  1.00  0.00    -0.024 C 
BRANCH  12  13
ATOM     13  C   UNL     1      -4.494 -15.231   7.117  1.00  0.00    -0.014 C 
ATOM     14  C   UNL     1      -5.129 -13.878   7.511  1.00  0.00     0.016 C 
ATOM     15  C   UNL     1      -4.513 -15.310   5.571  1.00  0.00     0.016 C 
BRANCH  13  16
ATOM     16  C   UNL     1      -3.008 -15.262   7.592  1.00  0.00     0.038 CG0
ATOM     17  G   UNL     1      -2.497 -14.061   8.369  1.00  0.00     0.000 G0
ENDBRANCH  13  16
ENDBRANCH  12  13
ENDBRANCH  10  11
ENDBRANCH   1  10
TORSDOF 0
ENDMDL
MODEL 5
REMARK VINA RESULT:    -4.651      1.574      4.842
REMARK INTER + INTRA:          -6.260
REMARK INTER:                  -7.405
REMARK INTRA:                   1.145
REMARK UNBOUND:                 0.293
REMARK SMILES CC1=CCCC(C)=CCC(C)(C)C=CC1
REMARK SMILES IDX 2 1 3 2 1 3 4 4 5 5 6 6 7 7 8 8 15 10 14 11 13 12 10 13
REMARK SMILES IDX 11 14 12 15 9 16
REMARK H PARENT
REMARK Flexibility Score: 60.00
ROOT
ATOM      1  C   UNL     1      -2.241 -16.439  11.982  1.00  0.00    -0.074 C 
ATOM      2  C   UNL     1      -2.211 -15.086  12.087  1.00  0.00    -0.027 C 
ATOM      3  C   UNL     1      -1.672 -17.247  13.122  1.00  0.00     0.039 C 
ENDROOT
BRANCH   2   4
ATOM      4  C   UNL     1      -2.727 -14.114  11.052  1.00  0.00     0.032 C 
BRANCH   4   5
ATOM      5  C   UNL     1      -1.590 -13.603  10.150  1.00  0.00     0.034 C 
BRANCH   5   6
ATOM      6  C   UNL     1      -1.067 -14.614   9.143  1.00  0.00    -0.077 C 
ATOM      7  C   UNL     1       0.405 -14.951   9.178  1.00  0.00     0.039 C 
ATOM      8  C   UNL     1      -1.842 -15.330   8.285  1.00  0.00    -0.027 CG0
ATOM      9  G   UNL     1      -3.295 -15.092   7.909  1.00  0.00     0.000 G0
ENDBRANCH   5   6
ENDBRANCH   4   5
ENDBRANCH   2   4
BRANCH   1  10
ATOM     10  C   UNL     1      -2.799 -17.177  10.777  1.00  0.00     0.057 C 
BRANCH  10  11
ATOM     11  C   UNL     1      -4.248 -16.814  10.569  1.00  0.00    -0.026 C 
ATOM     12  C   UNL     1      -4.879 -16.529   9.405  1.00  0.00    -0.024 C 
BRANCH  12  13
ATOM     13  C   UNL     1      -4.281 -16.308   8.013  1.00  0.00    -0.014 C 
ATOM     14  C   UNL     1      -5.428 -16.128   6.993  1.00  0.00     0.016 C 
ATOM     15  C   UNL     1      -3.513 -17.592   7.613  1.00  0.00     0.016 C 
BRANCH  13  16
ATOM     16  C   UNL     1      -3.301 -15.098   7.909  1.00  0.00     0.038 CG0
ATOM     17  G   UNL     1      -1.849 -15.340   8.283  1.00  0.00     0.000 G0
ENDBRANCH  13  16
ENDBRANCH  12  13
ENDBRANCH  10  11
ENDBRANCH   1  10
TORSDOF 0
ENDMDL
MODEL 6
REMARK VINA RESULT:    -4.625      1.563      3.866
REMARK INTER + INTRA:          -6.225
REMARK INTER:                  -8.142
REMARK INTRA:                   1.918
REMARK UNBOUND:                 0.293
REMARK SMILES CC1=CCCC(C)=CCC(C)(C)C=CC1
REMARK SMILES IDX 2 1 3 2 1 3 4 4 5 5 6 6 7 7 8 8 15 10 14 11 13 12 10 13
REMARK SMILES IDX 11 14 12 15 9 16
REMARK H PARENT
REMARK Flexibility Score: 60.00
ROOT
ATOM      1  C   UNL     1      -2.281 -14.523  10.321  1.00  0.00    -0.074 C 
ATOM      2  C   UNL     1      -2.107 -15.852  10.531  1.00  0.00    -0.027 C 
ATOM      3  C   UNL     1      -1.998 -13.585  11.468  1.00  0.00     0.039 C 
ENDROOT
BRANCH   2   4
ATOM      4  C   UNL     1      -2.344 -16.942   9.511  1.00  0.00     0.032 C 
BRANCH   4   5
ATOM      5  C   UNL     1      -3.665 -17.683   9.780  1.00  0.00     0.034 C 
BRANCH   5   6
ATOM      6  C   UNL     1      -4.872 -16.783   9.994  1.00  0.00    -0.077 C 
ATOM      7  C   UNL     1      -5.308 -16.511  11.415  1.00  0.00     0.039 C 
ATOM      8  C   UNL     1      -5.523 -16.109   9.010  1.00  0.00    -0.027 CG0
ATOM      9  G   UNL     1      -5.427 -16.313   7.507  1.00  0.00     0.000 G0
ENDBRANCH   5   6
ENDBRANCH   4   5
ENDBRANCH   2   4
BRANCH   1  10
ATOM     10  C   UNL     1      -2.758 -13.935   9.004  1.00  0.00     0.057 C 
BRANCH  10  11
ATOM     11  C   UNL     1      -2.347 -14.825   7.857  1.00  0.00    -0.026 C 
ATOM     12  C   UNL     1      -3.118 -15.300   6.850  1.00  0.00    -0.024 C 
BRANCH  12  13
ATOM     13  C   UNL     1      -4.639 -15.234   6.687  1.00  0.00    -0.014 C 
ATOM     14  C   UNL     1      -4.994 -15.375   5.189  1.00  0.00     0.016 C 
ATOM     15  C   UNL     1      -5.108 -13.828   7.135  1.00  0.00     0.016 C 
BRANCH  13  16
ATOM     16  C   UNL     1      -5.429 -16.300   7.508  1.00  0.00     0.038 CG0
ATOM     17  G   UNL     1      -5.513 -16.104   9.012  1.00  0.00     0.000 G0
ENDBRANCH  13  16
ENDBRANCH  12  13
ENDBRANCH  10  11
ENDBRANCH   1  10
TORSDOF 0
ENDMDL
MODEL 7
REMARK VINA RESULT:    -4.611      1.591      4.745
REMARK INTER + INTRA:          -6.204
REMARK INTER:                  -7.409
REMARK INTRA:                   1.205
REMARK UNBOUND:                 0.293
REMARK SMILES CC1=CCCC(C)=CCC(C)(C)C=CC1
REMARK SMILES IDX 2 1 3 2 1 3 4 4 5 5 6 6 7 7 8 8 15 10 14 11 13 12 10 13
REMARK SMILES IDX 11 14 12 15 9 16
REMARK H PARENT
REMARK Flexibility Score: 60.00
ROOT
ATOM      1  C   UNL     1      -2.634 -14.715  11.651  1.00  0.00    -0.074 C 
ATOM      2  C   UNL     1      -1.834 -14.021  10.802  1.00  0.00    -0.027 C 
ATOM      3  C   UNL     1      -2.423 -14.523  13.132  1.00  0.00     0.039 C 
ENDROOT
BRANCH   2   4
ATOM      4  C   UNL     1      -1.890 -14.085   9.293  1.00  0.00     0.032 C 
BRANCH   4   5
ATOM      5  C   UNL     1      -3.143 -13.378   8.750  1.00  0.00     0.034 C 
BRANCH   5   6
ATOM      6  C   UNL     1      -3.902 -14.149   7.683  1.00  0.00    -0.077 C 
ATOM      7  C   UNL     1      -4.991 -13.425   6.926  1.00  0.00     0.039 C 
ATOM      8  C   UNL     1      -3.602 -15.410   7.273  1.00  0.00    -0.027 CG0
ATOM      9  G   UNL     1      -2.697 -16.427   7.948  1.00  0.00     0.000 G0
ENDBRANCH   5   6
ENDBRANCH   4   5
ENDBRANCH   2   4
BRANCH   1  10
ATOM     10  C   UNL     1      -3.713 -15.680  11.190  1.00  0.00     0.057 C 
BRANCH  10  11
ATOM     11  C   UNL     1      -3.176 -17.089  11.165  1.00  0.00    -0.026 C 
ATOM     12  C   UNL     1      -2.965 -17.884  10.089  1.00  0.00    -0.024 C 
BRANCH  12  13
ATOM     13  C   UNL     1      -3.381 -17.664   8.632  1.00  0.00    -0.014 C 
ATOM     14  C   UNL     1      -4.917 -17.497   8.564  1.00  0.00     0.016 C 
ATOM     15  C   UNL     1      -3.027 -18.942   7.834  1.00  0.00     0.016 C 
BRANCH  13  16
ATOM     16  C   UNL     1      -2.698 -16.446   7.935  1.00  0.00     0.038 CG0
ATOM     17  G   UNL     1      -3.604 -15.416   7.281  1.00  0.00     0.000 G0
ENDBRANCH  13  16
ENDBRANCH  12  13
ENDBRANCH  10  11
ENDBRANCH   1  10
TORSDOF 0
ENDMDL
MODEL 8
REMARK VINA RESULT:    -4.529      1.360      4.312
REMARK INTER + INTRA:          -6.089
REMARK INTER:                  -6.805
REMARK INTRA:                   0.716
REMARK UNBOUND:                 0.293
REMARK SMILES CC1=CCCC(C)=CCC(C)(C)C=CC1
REMARK SMILES IDX 2 1 3 2 1 3 4 4 5 5 6 6 7 7 8 8 15 10 14 11 13 12 10 13
REMARK SMILES IDX 11 14 12 15 9 16
REMARK H PARENT
REMARK Flexibility Score: 60.00
ROOT
ATOM      1  C   UNL     1      -1.983 -13.754   9.691  1.00  0.00    -0.074 C 
ATOM      2  C   UNL     1      -2.724 -13.341   8.631  1.00  0.00    -0.027 C 
ATOM      3  C   UNL     1      -1.613 -12.729  10.734  1.00  0.00     0.039 C 
ENDROOT
BRANCH   2   4
ATOM      4  C   UNL     1      -3.186 -14.216   7.489  1.00  0.00     0.032 C 
BRANCH   4   5
ATOM      5  C   UNL     1      -4.718 -14.353   7.473  1.00  0.00     0.034 C 
BRANCH   5   6
ATOM      6  C   UNL     1      -5.234 -15.738   7.122  1.00  0.00    -0.077 C 
ATOM      7  C   UNL     1      -5.684 -15.987   5.701  1.00  0.00     0.039 C 
ATOM      8  C   UNL     1      -5.215 -16.810   7.958  1.00  0.00    -0.027 CG0
ATOM      9  G   UNL     1      -4.988 -16.827   9.460  1.00  0.00     0.000 G0
ENDBRANCH   5   6
ENDBRANCH   4   5
ENDBRANCH   2   4
BRANCH   1  10
ATOM     10  C   UNL     1      -1.497 -15.182   9.872  1.00  0.00     0.057 C 
BRANCH  10  11
ATOM     11  C   UNL     1      -2.134 -15.798  11.092  1.00  0.00    -0.026 C 
ATOM     12  C   UNL     1      -2.996 -16.842  11.148  1.00  0.00    -0.024 C 
BRANCH  12  13
ATOM     13  C   UNL     1      -3.711 -17.564  10.003  1.00  0.00    -0.014 C 
ATOM     14  C   UNL     1      -4.087 -18.992  10.462  1.00  0.00     0.016 C 
ATOM     15  C   UNL     1      -2.709 -17.712   8.831  1.00  0.00     0.016 C 
BRANCH  13  16
ATOM     16  C   UNL     1      -4.986 -16.840   9.470  1.00  0.00     0.038 CG0
ATOM     17  G   UNL     1      -5.196 -16.810   7.966  1.00  0.00     0.000 G0
ENDBRANCH  13  16
ENDBRANCH  12  13
ENDBRANCH  10  11
ENDBRANCH   1  10
TORSDOF 0
ENDMDL
MODEL 9
REMARK VINA RESULT:    -4.396      1.191      3.808
REMARK INTER + INTRA:          -5.902
REMARK INTER:                  -6.590
REMARK INTRA:                   0.689
REMARK UNBOUND:                 0.293
REMARK SMILES CC1=CCCC(C)=CCC(C)(C)C=CC1
REMARK SMILES IDX 2 1 3 2 1 3 4 4 5 5 6 6 7 7 8 8 15 10 14 11 13 12 10 13
REMARK SMILES IDX 11 14 12 15 9 16
REMARK H PARENT
REMARK Flexibility Score: 60.00
ROOT
ATOM      1  C   UNL     1      -4.860 -15.274   6.688  1.00  0.00    -0.074 C 
ATOM      2  C   UNL     1      -4.129 -14.230   7.154  1.00  0.00    -0.027 C 
ATOM      3  C   UNL     1      -5.159 -15.320   5.210  1.00  0.00     0.039 C 
ENDROOT
BRANCH   2   4
ATOM      4  C   UNL     1      -3.734 -14.009   8.596  1.00  0.00     0.032 C 
BRANCH   4   5
ATOM      5  C   UNL     1      -2.209 -13.873   8.743  1.00  0.00     0.034 C 
BRANCH   5   6
ATOM      6  C   UNL     1      -1.459 -15.189   8.874  1.00  0.00    -0.077 C 
ATOM      7  C   UNL     1      -0.244 -15.401   8.000  1.00  0.00     0.039 C 
ATOM      8  C   UNL     1      -1.726 -16.147   9.801  1.00  0.00    -0.027 CG0
ATOM      9  G   UNL     1      -2.958 -16.291  10.677  1.00  0.00     0.000 G0
ENDBRANCH   5   6
ENDBRANCH   4   5
ENDBRANCH   2   4
BRANCH   1  10
ATOM     10  C   UNL     1      -5.401 -16.384   7.573  1.00  0.00     0.057 C 
BRANCH  10  11
ATOM     11  C   UNL     1      -4.374 -17.478   7.723  1.00  0.00    -0.026 C 
ATOM     12  C   UNL     1      -3.838 -17.969   8.866  1.00  0.00    -0.024 C 
BRANCH  12  13
ATOM     13  C   UNL     1      -3.968 -17.441  10.297  1.00  0.00    -0.014 C 
ATOM     14  C   UNL     1      -3.806 -18.618  11.287  1.00  0.00     0.016 C 
ATOM     15  C   UNL     1      -5.403 -16.890  10.475  1.00  0.00     0.016 C 
BRANCH  13  16
ATOM     16  C   UNL     1      -2.958 -16.311  10.669  1.00  0.00     0.038 CG0
ATOM     17  G   UNL     1      -1.723 -16.162   9.797  1.00  0.00     0.000 G0
ENDBRANCH  13  16
ENDBRANCH  12  13
ENDBRANCH  10  11
ENDBRANCH   1  10
TORSDOF 0
ENDMDL
