MODEL 1
REMARK VINA RESULT:    -4.496      0.000      0.000
REMARK INTER + INTRA:          -9.312
REMARK INTER:                  -7.650
REMARK INTRA:                  -1.662
REMARK UNBOUND:                -1.662
REMARK SMILES CCCCCCCCCCCCCC(=O)[O-]
REMARK SMILES IDX 8 1 9 2 10 3 11 4 12 5 13 6 14 7 15 8 16 9 7 10 6 11 5 12
REMARK SMILES IDX 4 13 3 14 2 15 1 16
REMARK H PARENT
REMARK Flexibility Score: inf
ROOT
ATOM      1  C   UNL     1      12.754 -30.985  21.586  1.00  0.00     0.000 C 
ENDROOT
BRANCH   1   2
ATOM      2  C   UNL     1      13.368 -31.932  20.539  1.00  0.00     0.000 C 
BRANCH   2   3
ATOM      3  C   UNL     1      14.196 -33.063  21.166  1.00  0.00     0.000 C 
BRANCH   3   4
ATOM      4  C   UNL     1      14.822 -33.951  20.080  1.00  0.00     0.000 C 
BRANCH   4   5
ATOM      5  C   UNL     1      15.650 -35.107  20.665  1.00  0.00     0.006 C 
BRANCH   5   6
ATOM      6  C   UNL     1      16.031 -36.153  19.610  1.00  0.00     0.053 C 
BRANCH   6   7
ATOM      7  C   UNL     1      17.262 -36.893  20.030  1.00  0.00     0.041 C 
ATOM      8  O   UNL     1      17.851 -37.655  19.219  1.00  0.00    -0.550 OA
ATOM      9  O   UNL     1      17.787 -36.702  21.301  1.00  0.00    -0.550 OA
ENDBRANCH   6   7
ENDBRANCH   5   6
ENDBRANCH   4   5
ENDBRANCH   3   4
ENDBRANCH   2   3
ENDBRANCH   1   2
BRANCH   1  10
ATOM     10  C   UNL     1      13.764 -30.339  22.551  1.00  0.00     0.000 C 
BRANCH  10  11
ATOM     11  C   UNL     1      14.618 -29.249  21.884  1.00  0.00    -0.000 C 
BRANCH  11  12
ATOM     12  C   UNL     1      16.103 -29.628  21.901  1.00  0.00    -0.000 C 
BRANCH  12  13
ATOM     13  C   UNL     1      16.383 -30.708  22.957  1.00  0.00    -0.000 C 
BRANCH  13  14
ATOM     14  C   UNL     1      17.394 -31.760  22.474  1.00  0.00    -0.000 C 
BRANCH  14  15
ATOM     15  C   UNL     1      17.649 -31.685  20.960  1.00  0.00    -0.003 C 
ATOM     16  C   UNL     1      18.533 -32.838  20.494  1.00  0.00     0.004 C 
ENDBRANCH  14  15
ENDBRANCH  13  14
ENDBRANCH  12  13
ENDBRANCH  11  12
ENDBRANCH  10  11
ENDBRANCH   1  10
TORSDOF 12
ENDMDL
MODEL 2
REMARK VINA RESULT:    -4.434      1.086      3.179
REMARK INTER + INTRA:          -9.207
REMARK INTER:                  -7.710
REMARK INTRA:                  -1.496
REMARK UNBOUND:                -1.662
REMARK SMILES CCCCCCCCCCCCCC(=O)[O-]
REMARK SMILES IDX 8 1 9 2 10 3 11 4 12 5 13 6 14 7 15 8 16 9 7 10 6 11 5 12
REMARK SMILES IDX 4 13 3 14 2 15 1 16
REMARK H PARENT
REMARK Flexibility Score: inf
ROOT
ATOM      1  C   UNL     1      17.407 -31.670  22.516  1.00  0.00     0.000 C 
ENDROOT
BRANCH   1   2
ATOM      2  C   UNL     1      17.822 -31.697  21.033  1.00  0.00     0.000 C 
BRANCH   2   3
ATOM      3  C   UNL     1      17.344 -32.959  20.300  1.00  0.00     0.000 C 
BRANCH   3   4
ATOM      4  C   UNL     1      15.927 -33.349  20.746  1.00  0.00     0.000 C 
BRANCH   4   5
ATOM      5  C   UNL     1      15.800 -34.845  21.077  1.00  0.00     0.006 C 
BRANCH   5   6
ATOM      6  C   UNL     1      16.115 -35.744  19.875  1.00  0.00     0.053 C 
BRANCH   6   7
ATOM      7  C   UNL     1      17.202 -36.713  20.218  1.00  0.00     0.041 C 
ATOM      8  O   UNL     1      17.640 -37.510  19.347  1.00  0.00    -0.550 OA
ATOM      9  O   UNL     1      17.766 -36.702  21.487  1.00  0.00    -0.550 OA
ENDBRANCH   6   7
ENDBRANCH   5   6
ENDBRANCH   4   5
ENDBRANCH   3   4
ENDBRANCH   2   3
ENDBRANCH   1   2
BRANCH   1  10
ATOM     10  C   UNL     1      16.722 -30.371  22.976  1.00  0.00     0.000 C 
BRANCH  10  11
ATOM     11  C   UNL     1      16.226 -29.507  21.806  1.00  0.00    -0.000 C 
BRANCH  11  12
ATOM     12  C   UNL     1      14.702 -29.596  21.664  1.00  0.00    -0.000 C 
BRANCH  12  13
ATOM     13  C   UNL     1      14.000 -28.932  22.858  1.00  0.00    -0.000 C 
BRANCH  13  14
ATOM     14  C   UNL     1      13.158 -29.924  23.677  1.00  0.00    -0.000 C 
BRANCH  14  15
ATOM     15  C   UNL     1      13.155 -31.336  23.073  1.00  0.00    -0.003 C 
ATOM     16  C   UNL     1      13.791 -32.343  24.028  1.00  0.00     0.004 C 
ENDBRANCH  14  15
ENDBRANCH  13  14
ENDBRANCH  12  13
ENDBRANCH  11  12
ENDBRANCH  10  11
ENDBRANCH   1  10
TORSDOF 12
ENDMDL
MODEL 3
REMARK VINA RESULT:    -4.424      3.994      6.093
REMARK INTER + INTRA:          -9.189
REMARK INTER:                  -7.745
REMARK INTRA:                  -1.444
REMARK UNBOUND:                -1.662
REMARK SMILES CCCCCCCCCCCCCC(=O)[O-]
REMARK SMILES IDX 8 1 9 2 10 3 11 4 12 5 13 6 14 7 15 8 16 9 7 10 6 11 5 12
REMARK SMILES IDX 4 13 3 14 2 15 1 16
REMARK H PARENT
REMARK Flexibility Score: inf
ROOT
ATOM      1  C   UNL     1      14.639 -34.206  20.005  1.00  0.00     0.000 C 
ENDROOT
BRANCH   1   2
ATOM      2  C   UNL     1      14.421 -32.995  20.931  1.00  0.00     0.000 C 
BRANCH   2   3
ATOM      3  C   UNL     1      14.706 -33.311  22.407  1.00  0.00     0.000 C 
BRANCH   3   4
ATOM      4  C   UNL     1      14.994 -32.025  23.197  1.00  0.00     0.000 C 
BRANCH   4   5
ATOM      5  C   UNL     1      13.714 -31.254  23.559  1.00  0.00     0.006 C 
BRANCH   5   6
ATOM      6  C   UNL     1      13.678 -29.849  22.945  1.00  0.00     0.053 C 
BRANCH   6   7
ATOM      7  C   UNL     1      12.523 -29.070  23.492  1.00  0.00     0.041 C 
ATOM      8  O   UNL     1      11.405 -29.105  22.915  1.00  0.00    -0.550 OA
ATOM      9  O   UNL     1      12.668 -28.346  24.668  1.00  0.00    -0.550 OA
ENDBRANCH   6   7
ENDBRANCH   5   6
ENDBRANCH   4   5
ENDBRANCH   3   4
ENDBRANCH   2   3
ENDBRANCH   1   2
BRANCH   1  10
ATOM     10  C   UNL     1      15.827 -35.108  20.382  1.00  0.00     0.000 C 
BRANCH  10  11
ATOM     11  C   UNL     1      16.821 -35.305  19.227  1.00  0.00    -0.000 C 
BRANCH  11  12
ATOM     12  C   UNL     1      17.897 -34.212  19.236  1.00  0.00    -0.000 C 
BRANCH  12  13
ATOM     13  C   UNL     1      18.458 -34.006  20.651  1.00  0.00    -0.000 C 
BRANCH  13  14
ATOM     14  C   UNL     1      18.806 -32.537  20.941  1.00  0.00    -0.000 C 
BRANCH  14  15
ATOM     15  C   UNL     1      17.642 -31.582  20.637  1.00  0.00    -0.003 C 
ATOM     16  C   UNL     1      17.859 -30.224  21.300  1.00  0.00     0.004 C 
ENDBRANCH  14  15
ENDBRANCH  13  14
ENDBRANCH  12  13
ENDBRANCH  11  12
ENDBRANCH  10  11
ENDBRANCH   1  10
TORSDOF 12
ENDMDL
MODEL 4
REMARK VINA RESULT:    -4.419      2.150      4.248
REMARK INTER + INTRA:          -9.181
REMARK INTER:                  -7.656
REMARK INTRA:                  -1.525
REMARK UNBOUND:                -1.662
REMARK SMILES CCCCCCCCCCCCCC(=O)[O-]
REMARK SMILES IDX 8 1 9 2 10 3 11 4 12 5 13 6 14 7 15 8 16 9 7 10 6 11 5 12
REMARK SMILES IDX 4 13 3 14 2 15 1 16
REMARK H PARENT
REMARK Flexibility Score: inf
ROOT
ATOM      1  C   UNL     1      16.846 -30.973  22.029  1.00  0.00     0.000 C 
ENDROOT
BRANCH   1   2
ATOM      2  C   UNL     1      16.885 -31.380  23.514  1.00  0.00     0.000 C 
BRANCH   2   3
ATOM      3  C   UNL     1      16.488 -32.846  23.745  1.00  0.00     0.000 C 
BRANCH   3   4
ATOM      4  C   UNL     1      17.264 -33.779  22.803  1.00  0.00     0.000 C 
BRANCH   4   5
ATOM      5  C   UNL     1      16.356 -34.800  22.100  1.00  0.00     0.006 C 
BRANCH   5   6
ATOM      6  C   UNL     1      15.030 -34.187  21.632  1.00  0.00     0.053 C 
BRANCH   6   7
ATOM      7  C   UNL     1      14.953 -34.190  20.137  1.00  0.00     0.041 C 
ATOM      8  O   UNL     1      15.826 -34.791  19.459  1.00  0.00    -0.550 OA
ATOM      9  O   UNL     1      13.889 -33.569  19.496  1.00  0.00    -0.550 OA
ENDBRANCH   6   7
ENDBRANCH   5   6
ENDBRANCH   4   5
ENDBRANCH   3   4
ENDBRANCH   2   3
ENDBRANCH   1   2
BRANCH   1  10
ATOM     10  C   UNL     1      16.498 -29.496  21.769  1.00  0.00     0.000 C 
BRANCH  10  11
ATOM     11  C   UNL     1      14.989 -29.257  21.601  1.00  0.00    -0.000 C 
BRANCH  11  12
ATOM     12  C   UNL     1      14.264 -30.556  21.231  1.00  0.00    -0.000 C 
BRANCH  12  13
ATOM     13  C   UNL     1      13.142 -30.864  22.233  1.00  0.00    -0.000 C 
BRANCH  13  14
ATOM     14  C   UNL     1      13.339 -30.151  23.580  1.00  0.00    -0.000 C 
BRANCH  14  15
ATOM     15  C   UNL     1      12.286 -29.061  23.832  1.00  0.00    -0.003 C 
ATOM     16  C   UNL     1      12.945 -27.740  24.222  1.00  0.00     0.004 C 
ENDBRANCH  14  15
ENDBRANCH  13  14
ENDBRANCH  12  13
ENDBRANCH  11  12
ENDBRANCH  10  11
ENDBRANCH   1  10
TORSDOF 12
ENDMDL
MODEL 5
REMARK VINA RESULT:    -4.396      3.235      5.446
REMARK INTER + INTRA:          -9.143
REMARK INTER:                  -7.246
REMARK INTRA:                  -1.896
REMARK UNBOUND:                -1.662
REMARK SMILES CCCCCCCCCCCCCC(=O)[O-]
REMARK SMILES IDX 8 1 9 2 10 3 11 4 12 5 13 6 14 7 15 8 16 9 7 10 6 11 5 12
REMARK SMILES IDX 4 13 3 14 2 15 1 16
REMARK H PARENT
REMARK Flexibility Score: inf
ROOT
ATOM      1  C   UNL     1      16.639 -35.304  19.383  1.00  0.00     0.000 C 
ENDROOT
BRANCH   1   2
ATOM      2  C   UNL     1      15.437 -35.059  20.313  1.00  0.00     0.000 C 
BRANCH   2   3
ATOM      3  C   UNL     1      14.564 -33.877  19.866  1.00  0.00     0.000 C 
BRANCH   3   4
ATOM      4  C   UNL     1      14.138 -33.024  21.070  1.00  0.00     0.000 C 
BRANCH   4   5
ATOM      5  C   UNL     1      13.422 -31.729  20.654  1.00  0.00     0.006 C 
BRANCH   5   6
ATOM      6  C   UNL     1      13.895 -30.509  21.454  1.00  0.00     0.053 C 
BRANCH   6   7
ATOM      7  C   UNL     1      13.091 -30.364  22.709  1.00  0.00     0.041 C 
ATOM      8  O   UNL     1      12.029 -29.690  22.707  1.00  0.00    -0.550 OA
ATOM      9  O   UNL     1      13.491 -31.016  23.868  1.00  0.00    -0.550 OA
ENDBRANCH   6   7
ENDBRANCH   5   6
ENDBRANCH   4   5
ENDBRANCH   3   4
ENDBRANCH   2   3
ENDBRANCH   1   2
BRANCH   1  10
ATOM     10  C   UNL     1      17.470 -34.052  19.050  1.00  0.00     0.000 C 
BRANCH  10  11
ATOM     11  C   UNL     1      18.303 -33.551  20.239  1.00  0.00    -0.000 C 
BRANCH  11  12
ATOM     12  C   UNL     1      18.124 -32.042  20.439  1.00  0.00    -0.000 C 
BRANCH  12  13
ATOM     13  C   UNL     1      17.445 -31.742  21.784  1.00  0.00    -0.000 C 
BRANCH  13  14
ATOM     14  C   UNL     1      17.437 -32.956  22.726  1.00  0.00    -0.000 C 
BRANCH  14  15
ATOM     15  C   UNL     1      16.629 -32.704  24.009  1.00  0.00    -0.003 C 
ATOM     16  C   UNL     1      15.706 -33.880  24.317  1.00  0.00     0.004 C 
ENDBRANCH  14  15
ENDBRANCH  13  14
ENDBRANCH  12  13
ENDBRANCH  11  12
ENDBRANCH  10  11
ENDBRANCH   1  10
TORSDOF 12
ENDMDL
MODEL 6
REMARK VINA RESULT:    -4.355      4.364      5.877
REMARK INTER + INTRA:          -9.072
REMARK INTER:                  -7.178
REMARK INTRA:                  -1.894
REMARK UNBOUND:                -1.662
REMARK SMILES CCCCCCCCCCCCCC(=O)[O-]
REMARK SMILES IDX 8 1 9 2 10 3 11 4 12 5 13 6 14 7 15 8 16 9 7 10 6 11 5 12
REMARK SMILES IDX 4 13 3 14 2 15 1 16
REMARK H PARENT
REMARK Flexibility Score: inf
ROOT
ATOM      1  C   UNL     1      15.397 -32.815  21.074  1.00  0.00     0.000 C 
ENDROOT
BRANCH   1   2
ATOM      2  C   UNL     1      13.879 -32.702  20.843  1.00  0.00     0.000 C 
BRANCH   2   3
ATOM      3  C   UNL     1      13.351 -31.270  21.013  1.00  0.00     0.000 C 
BRANCH   3   4
ATOM      4  C   UNL     1      14.501 -30.291  21.290  1.00  0.00     0.000 C 
BRANCH   4   5
ATOM      5  C   UNL     1      14.427 -29.673  22.695  1.00  0.00     0.006 C 
BRANCH   5   6
ATOM      6  C   UNL     1      13.173 -30.106  23.465  1.00  0.00     0.053 C 
BRANCH   6   7
ATOM      7  C   UNL     1      12.328 -28.917  23.799  1.00  0.00     0.041 C 
ATOM      8  O   UNL     1      12.738 -28.059  24.624  1.00  0.00    -0.550 OA
ATOM      9  O   UNL     1      11.109 -28.731  23.160  1.00  0.00    -0.550 OA
ENDBRANCH   6   7
ENDBRANCH   5   6
ENDBRANCH   4   5
ENDBRANCH   3   4
ENDBRANCH   2   3
ENDBRANCH   1   2
BRANCH   1  10
ATOM     10  C   UNL     1      15.811 -33.715  22.253  1.00  0.00     0.000 C 
BRANCH  10  11
ATOM     11  C   UNL     1      15.696 -33.011  23.614  1.00  0.00    -0.000 C 
BRANCH  11  12
ATOM     12  C   UNL     1      17.081 -32.652  24.165  1.00  0.00    -0.000 C 
BRANCH  12  13
ATOM     13  C   UNL     1      17.609 -31.359  23.527  1.00  0.00    -0.000 C 
BRANCH  13  14
ATOM     14  C   UNL     1      18.838 -31.598  22.636  1.00  0.00    -0.000 C 
BRANCH  14  15
ATOM     15  C   UNL     1      18.650 -31.056  21.210  1.00  0.00    -0.003 C 
ATOM     16  C   UNL     1      18.146 -29.615  21.232  1.00  0.00     0.004 C 
ENDBRANCH  14  15
ENDBRANCH  13  14
ENDBRANCH  12  13
ENDBRANCH  11  12
ENDBRANCH  10  11
ENDBRANCH   1  10
TORSDOF 12
ENDMDL
MODEL 7
REMARK VINA RESULT:    -4.310      3.161      6.222
REMARK INTER + INTRA:          -8.996
REMARK INTER:                  -6.989
REMARK INTRA:                  -2.008
REMARK UNBOUND:                -1.662
REMARK SMILES CCCCCCCCCCCCCC(=O)[O-]
REMARK SMILES IDX 8 1 9 2 10 3 11 4 12 5 13 6 14 7 15 8 16 9 7 10 6 11 5 12
REMARK SMILES IDX 4 13 3 14 2 15 1 16
REMARK H PARENT
REMARK Flexibility Score: inf
ROOT
ATOM      1  C   UNL     1      18.700 -34.023  20.868  1.00  0.00     0.000 C 
ENDROOT
BRANCH   1   2
ATOM      2  C   UNL     1      18.759 -32.689  21.635  1.00  0.00     0.000 C 
BRANCH   2   3
ATOM      3  C   UNL     1      17.846 -31.610  21.033  1.00  0.00     0.000 C 
BRANCH   3   4
ATOM      4  C   UNL     1      17.052 -30.888  22.131  1.00  0.00     0.000 C 
BRANCH   4   5
ATOM      5  C   UNL     1      15.831 -30.135  21.581  1.00  0.00     0.006 C 
BRANCH   5   6
ATOM      6  C   UNL     1      15.015 -29.447  22.683  1.00  0.00     0.053 C 
BRANCH   6   7
ATOM      7  C   UNL     1      13.712 -30.154  22.885  1.00  0.00     0.041 C 
ATOM      8  O   UNL     1      13.258 -30.328  24.047  1.00  0.00    -0.550 OA
ATOM      9  O   UNL     1      12.974 -30.578  21.788  1.00  0.00    -0.550 OA
ENDBRANCH   6   7
ENDBRANCH   5   6
ENDBRANCH   4   5
ENDBRANCH   3   4
ENDBRANCH   2   3
ENDBRANCH   1   2
BRANCH   1  10
ATOM     10  C   UNL     1      17.949 -33.969  19.526  1.00  0.00     0.000 C 
BRANCH  10  11
ATOM     11  C   UNL     1      17.223 -35.281  19.191  1.00  0.00    -0.000 C 
BRANCH  11  12
ATOM     12  C   UNL     1      16.018 -35.493  20.115  1.00  0.00    -0.000 C 
BRANCH  12  13
ATOM     13  C   UNL     1      14.954 -34.408  19.888  1.00  0.00    -0.000 C 
BRANCH  13  14
ATOM     14  C   UNL     1      14.644 -33.608  21.162  1.00  0.00    -0.000 C 
BRANCH  14  15
ATOM     15  C   UNL     1      15.355 -34.170  22.403  1.00  0.00    -0.003 C 
ATOM     16  C   UNL     1      14.865 -33.485  23.675  1.00  0.00     0.004 C 
ENDBRANCH  14  15
ENDBRANCH  13  14
ENDBRANCH  12  13
ENDBRANCH  11  12
ENDBRANCH  10  11
ENDBRANCH   1  10
TORSDOF 12
ENDMDL
MODEL 8
REMARK VINA RESULT:    -4.288      1.781      4.169
REMARK INTER + INTRA:          -8.959
REMARK INTER:                  -7.741
REMARK INTRA:                  -1.218
REMARK UNBOUND:                -1.662
REMARK SMILES CCCCCCCCCCCCCC(=O)[O-]
REMARK SMILES IDX 8 1 9 2 10 3 11 4 12 5 13 6 14 7 15 8 16 9 7 10 6 11 5 12
REMARK SMILES IDX 4 13 3 14 2 15 1 16
REMARK H PARENT
REMARK Flexibility Score: inf
ROOT
ATOM      1  C   UNL     1      17.054 -31.033  21.612  1.00  0.00     0.000 C 
ENDROOT
BRANCH   1   2
ATOM      2  C   UNL     1      18.475 -30.904  21.033  1.00  0.00     0.000 C 
BRANCH   2   3
ATOM      3  C   UNL     1      19.204 -32.251  20.927  1.00  0.00     0.000 C 
BRANCH   3   4
ATOM      4  C   UNL     1      18.202 -33.415  20.894  1.00  0.00     0.000 C 
BRANCH   4   5
ATOM      5  C   UNL     1      18.203 -34.159  19.549  1.00  0.00     0.006 C 
BRANCH   5   6
ATOM      6  C   UNL     1      16.798 -34.303  18.952  1.00  0.00     0.053 C 
BRANCH   6   7
ATOM      7  C   UNL     1      16.012 -35.329  19.708  1.00  0.00     0.041 C 
ATOM      8  O   UNL     1      16.387 -36.530  19.722  1.00  0.00    -0.550 OA
ATOM      9  O   UNL     1      14.894 -34.947  20.437  1.00  0.00    -0.550 OA
ENDBRANCH   6   7
ENDBRANCH   5   6
ENDBRANCH   4   5
ENDBRANCH   3   4
ENDBRANCH   2   3
ENDBRANCH   1   2
BRANCH   1  10
ATOM     10  C   UNL     1      16.955 -30.861  23.138  1.00  0.00     0.000 C 
BRANCH  10  11
ATOM     11  C   UNL     1      16.415 -32.111  23.849  1.00  0.00    -0.000 C 
BRANCH  11  12
ATOM     12  C   UNL     1      15.181 -32.664  23.127  1.00  0.00    -0.000 C 
BRANCH  12  13
ATOM     13  C   UNL     1      13.895 -32.315  23.891  1.00  0.00    -0.000 C 
BRANCH  13  14
ATOM     14  C   UNL     1      13.065 -31.229  23.188  1.00  0.00    -0.000 C 
BRANCH  14  15
ATOM     15  C   UNL     1      13.447 -29.810  23.635  1.00  0.00    -0.003 C 
ATOM     16  C   UNL     1      12.215 -28.915  23.736  1.00  0.00     0.004 C 
ENDBRANCH  14  15
ENDBRANCH  13  14
ENDBRANCH  12  13
ENDBRANCH  11  12
ENDBRANCH  10  11
ENDBRANCH   1  10
TORSDOF 12
ENDMDL
MODEL 9
REMARK VINA RESULT:    -4.219      3.653      5.906
REMARK INTER + INTRA:          -8.841
REMARK INTER:                  -6.922
REMARK INTRA:                  -1.919
REMARK UNBOUND:                -1.662
REMARK SMILES CCCCCCCCCCCCCC(=O)[O-]
REMARK SMILES IDX 8 1 9 2 10 3 11 4 12 5 13 6 14 7 15 8 16 9 7 10 6 11 5 12
REMARK SMILES IDX 4 13 3 14 2 15 1 16
REMARK H PARENT
REMARK Flexibility Score: inf
ROOT
ATOM      1  C   UNL     1      16.823 -30.748  21.753  1.00  0.00     0.000 C 
ENDROOT
BRANCH   1   2
ATOM      2  C   UNL     1      17.206 -31.213  23.170  1.00  0.00     0.000 C 
BRANCH   2   3
ATOM      3  C   UNL     1      16.072 -31.969  23.879  1.00  0.00     0.000 C 
BRANCH   3   4
ATOM      4  C   UNL     1      14.900 -32.225  22.920  1.00  0.00     0.000 C 
BRANCH   4   5
ATOM      5  C   UNL     1      13.539 -31.875  23.541  1.00  0.00     0.006 C 
BRANCH   5   6
ATOM      6  C   UNL     1      12.781 -30.808  22.741  1.00  0.00     0.053 C 
BRANCH   6   7
ATOM      7  C   UNL     1      13.101 -29.442  23.259  1.00  0.00     0.041 C 
ATOM      8  O   UNL     1      14.046 -28.779  22.757  1.00  0.00    -0.550 OA
ATOM      9  O   UNL     1      12.325 -28.880  24.264  1.00  0.00    -0.550 OA
ENDBRANCH   6   7
ENDBRANCH   5   6
ENDBRANCH   4   5
ENDBRANCH   3   4
ENDBRANCH   2   3
ENDBRANCH   1   2
BRANCH   1  10
ATOM     10  C   UNL     1      17.724 -31.286  20.627  1.00  0.00     0.000 C 
BRANCH  10  11
ATOM     11  C   UNL     1      18.705 -32.366  21.108  1.00  0.00    -0.000 C 
BRANCH  11  12
ATOM     12  C   UNL     1      18.346 -33.736  20.522  1.00  0.00    -0.000 C 
BRANCH  12  13
ATOM     13  C   UNL     1      17.767 -34.662  21.602  1.00  0.00    -0.000 C 
BRANCH  13  14
ATOM     14  C   UNL     1      16.333 -35.115  21.287  1.00  0.00    -0.000 C 
BRANCH  14  15
ATOM     15  C   UNL     1      15.912 -34.789  19.846  1.00  0.00    -0.003 C 
ATOM     16  C   UNL     1      14.621 -33.976  19.821  1.00  0.00     0.004 C 
ENDBRANCH  14  15
ENDBRANCH  13  14
ENDBRANCH  12  13
ENDBRANCH  11  12
ENDBRANCH  10  11
ENDBRANCH   1  10
TORSDOF 12
ENDMDL
