MODEL 1
REMARK VINA RESULT:    -3.095      0.000      0.000
REMARK INTER + INTRA:          -3.491
REMARK INTER:                  -3.456
REMARK INTRA:                  -0.035
REMARK UNBOUND:                -0.035
REMARK SMILES CCCC(=O)[O-]
REMARK SMILES IDX 3 1 4 2 5 3 6 4 2 5 1 6
REMARK H PARENT
REMARK Flexibility Score: inf
ROOT
ATOM      1  C   UNL     1       7.258  -4.730 -32.439  1.00  0.00     0.052 C 
ENDROOT
BRANCH   1   2
ATOM      2  C   UNL     1       8.206  -4.813 -33.593  1.00  0.00     0.041 C 
ATOM      3  O   UNL     1       8.563  -3.767 -34.197  1.00  0.00    -0.550 OA
ATOM      4  O   UNL     1       8.733  -6.041 -33.974  1.00  0.00    -0.550 OA
ENDBRANCH   1   2
BRANCH   1   5
ATOM      5  C   UNL     1       7.453  -5.923 -31.499  1.00  0.00     0.003 C 
ATOM      6  C   UNL     1       6.150  -6.694 -31.310  1.00  0.00     0.004 C 
ENDBRANCH   1   5
TORSDOF 2
ENDMDL
MODEL 2
REMARK VINA RESULT:    -3.009      1.167      1.487
REMARK INTER + INTRA:          -3.396
REMARK INTER:                  -3.329
REMARK INTRA:                  -0.067
REMARK UNBOUND:                -0.035
REMARK SMILES CCCC(=O)[O-]
REMARK SMILES IDX 3 1 4 2 5 3 6 4 2 5 1 6
REMARK H PARENT
REMARK Flexibility Score: inf
ROOT
ATOM      1  C   UNL     1       7.618  -6.151 -31.708  1.00  0.00     0.052 C 
ENDROOT
BRANCH   1   2
ATOM      2  C   UNL     1       7.717  -5.101 -32.769  1.00  0.00     0.041 C 
ATOM      3  O   UNL     1       7.249  -3.949 -32.566  1.00  0.00    -0.550 OA
ATOM      4  O   UNL     1       8.367  -5.379 -33.965  1.00  0.00    -0.550 OA
ENDBRANCH   1   2
BRANCH   1   5
ATOM      5  C   UNL     1       6.153  -6.513 -31.448  1.00  0.00     0.003 C 
ATOM      6  C   UNL     1       5.476  -7.016 -32.720  1.00  0.00     0.004 C 
ENDBRANCH   1   5
TORSDOF 2
ENDMDL
MODEL 3
REMARK VINA RESULT:    -2.957      1.192      1.775
REMARK INTER + INTRA:          -3.338
REMARK INTER:                  -3.333
REMARK INTRA:                  -0.005
REMARK UNBOUND:                -0.035
REMARK SMILES CCCC(=O)[O-]
REMARK SMILES IDX 3 1 4 2 5 3 6 4 2 5 1 6
REMARK H PARENT
REMARK Flexibility Score: inf
ROOT
ATOM      1  C   UNL     1       6.770  -5.190 -33.151  1.00  0.00     0.052 C 
ENDROOT
BRANCH   1   2
ATOM      2  C   UNL     1       7.352  -3.868 -33.540  1.00  0.00     0.041 C 
ATOM      3  O   UNL     1       8.533  -3.798 -33.972  1.00  0.00    -0.550 OA
ATOM      4  O   UNL     1       6.575  -2.719 -33.471  1.00  0.00    -0.550 OA
ENDBRANCH   1   2
BRANCH   1   5
ATOM      5  C   UNL     1       7.236  -5.588 -31.748  1.00  0.00     0.003 C 
ATOM      6  C   UNL     1       6.433  -6.770 -31.215  1.00  0.00     0.004 C 
ENDBRANCH   1   5
TORSDOF 2
ENDMDL
MODEL 4
REMARK VINA RESULT:    -2.939     12.144     12.662
REMARK INTER + INTRA:          -3.317
REMARK INTER:                  -3.312
REMARK INTRA:                  -0.005
REMARK UNBOUND:                -0.035
REMARK SMILES CCCC(=O)[O-]
REMARK SMILES IDX 3 1 4 2 5 3 6 4 2 5 1 6
REMARK H PARENT
REMARK Flexibility Score: inf
ROOT
ATOM      1  C   UNL     1      14.743  -4.859 -22.139  1.00  0.00     0.052 C 
ENDROOT
BRANCH   1   2
ATOM      2  C   UNL     1      13.982  -3.625 -21.768  1.00  0.00     0.041 C 
ATOM      3  O   UNL     1      12.756  -3.697 -21.489  1.00  0.00    -0.550 OA
ATOM      4  O   UNL     1      14.637  -2.403 -21.685  1.00  0.00    -0.550 OA
ENDBRANCH   1   2
BRANCH   1   5
ATOM      5  C   UNL     1      14.281  -5.385 -23.500  1.00  0.00     0.003 C 
ATOM      6  C   UNL     1      15.338  -6.285 -24.131  1.00  0.00     0.004 C 
ENDBRANCH   1   5
TORSDOF 2
ENDMDL
MODEL 5
REMARK VINA RESULT:    -2.923     11.957     12.453
REMARK INTER + INTRA:          -3.300
REMARK INTER:                  -3.250
REMARK INTRA:                  -0.049
REMARK UNBOUND:                -0.035
REMARK SMILES CCCC(=O)[O-]
REMARK SMILES IDX 3 1 4 2 5 3 6 4 2 5 1 6
REMARK H PARENT
REMARK Flexibility Score: inf
ROOT
ATOM      1  C   UNL     1      14.099  -5.758 -23.598  1.00  0.00     0.052 C 
ENDROOT
BRANCH   1   2
ATOM      2  C   UNL     1      13.933  -4.729 -22.525  1.00  0.00     0.041 C 
ATOM      3  O   UNL     1      14.147  -3.513 -22.774  1.00  0.00    -0.550 OA
ATOM      4  O   UNL     1      13.495  -5.106 -21.262  1.00  0.00    -0.550 OA
ENDBRANCH   1   2
BRANCH   1   5
ATOM      5  C   UNL     1      15.583  -5.971 -23.909  1.00  0.00     0.003 C 
ATOM      6  C   UNL     1      16.344  -6.439 -22.673  1.00  0.00     0.004 C 
ENDBRANCH   1   5
TORSDOF 2
ENDMDL
MODEL 6
REMARK VINA RESULT:    -2.845     13.421     14.130
REMARK INTER + INTRA:          -3.212
REMARK INTER:                  -3.174
REMARK INTRA:                  -0.039
REMARK UNBOUND:                -0.035
REMARK SMILES CCCC(=O)[O-]
REMARK SMILES IDX 3 1 4 2 5 3 6 4 2 5 1 6
REMARK H PARENT
REMARK Flexibility Score: inf
ROOT
ATOM      1  C   UNL     1       4.127 -11.696 -20.827  1.00  0.00     0.052 C 
ENDROOT
BRANCH   1   2
ATOM      2  C   UNL     1       5.183 -12.699 -21.170  1.00  0.00     0.041 C 
ATOM      3  O   UNL     1       5.512 -12.886 -22.371  1.00  0.00    -0.550 OA
ATOM      4  O   UNL     1       5.836 -13.394 -20.161  1.00  0.00    -0.550 OA
ENDBRANCH   1   2
BRANCH   1   5
ATOM      5  C   UNL     1       2.733 -12.282 -21.070  1.00  0.00     0.003 C 
ATOM      6  C   UNL     1       2.108 -11.709 -22.339  1.00  0.00     0.004 C 
ENDBRANCH   1   5
TORSDOF 2
ENDMDL
MODEL 7
REMARK VINA RESULT:    -2.795      2.403      3.334
REMARK INTER + INTRA:          -3.156
REMARK INTER:                  -3.118
REMARK INTRA:                  -0.038
REMARK UNBOUND:                -0.035
REMARK SMILES CCCC(=O)[O-]
REMARK SMILES IDX 3 1 4 2 5 3 6 4 2 5 1 6
REMARK H PARENT
REMARK Flexibility Score: inf
ROOT
ATOM      1  C   UNL     1       7.293  -5.403 -31.859  1.00  0.00     0.052 C 
ENDROOT
BRANCH   1   2
ATOM      2  C   UNL     1       6.337  -6.553 -31.894  1.00  0.00     0.041 C 
ATOM      3  O   UNL     1       5.437  -6.603 -32.773  1.00  0.00    -0.550 OA
ATOM      4  O   UNL     1       6.469  -7.595 -30.985  1.00  0.00    -0.550 OA
ENDBRANCH   1   2
BRANCH   1   5
ATOM      5  C   UNL     1       7.480  -4.819 -33.262  1.00  0.00     0.003 C 
ATOM      6  C   UNL     1       7.014  -3.368 -33.322  1.00  0.00     0.004 C 
ENDBRANCH   1   5
TORSDOF 2
ENDMDL
MODEL 8
REMARK VINA RESULT:    -2.789     13.849     14.395
REMARK INTER + INTRA:          -3.150
REMARK INTER:                  -3.118
REMARK INTRA:                  -0.032
REMARK UNBOUND:                -0.035
REMARK SMILES CCCC(=O)[O-]
REMARK SMILES IDX 3 1 4 2 5 3 6 4 2 5 1 6
REMARK H PARENT
REMARK Flexibility Score: inf
ROOT
ATOM      1  C   UNL     1       3.721 -11.814 -20.823  1.00  0.00     0.052 C 
ENDROOT
BRANCH   1   2
ATOM      2  C   UNL     1       2.545 -12.218 -21.654  1.00  0.00     0.041 C 
ATOM      3  O   UNL     1       1.988 -11.382 -22.414  1.00  0.00    -0.550 OA
ATOM      4  O   UNL     1       2.092 -13.531 -21.626  1.00  0.00    -0.550 OA
ENDBRANCH   1   2
BRANCH   1   5
ATOM      5  C   UNL     1       4.981 -12.550 -21.285  1.00  0.00     0.003 C 
ATOM      6  C   UNL     1       5.613 -13.333 -20.138  1.00  0.00     0.004 C 
ENDBRANCH   1   5
TORSDOF 2
ENDMDL
MODEL 9
REMARK VINA RESULT:    -2.767      1.951      3.115
REMARK INTER + INTRA:          -3.125
REMARK INTER:                  -3.061
REMARK INTRA:                  -0.064
REMARK UNBOUND:                -0.035
REMARK SMILES CCCC(=O)[O-]
REMARK SMILES IDX 3 1 4 2 5 3 6 4 2 5 1 6
REMARK H PARENT
REMARK Flexibility Score: inf
ROOT
ATOM      1  C   UNL     1       6.561  -4.629 -33.935  1.00  0.00     0.052 C 
ENDROOT
BRANCH   1   2
ATOM      2  C   UNL     1       7.537  -5.214 -32.963  1.00  0.00     0.041 C 
ATOM      3  O   UNL     1       7.300  -5.176 -31.727  1.00  0.00    -0.550 OA
ATOM      4  O   UNL     1       8.686  -5.843 -33.425  1.00  0.00    -0.550 OA
ENDBRANCH   1   2
BRANCH   1   5
ATOM      5  C   UNL     1       6.557  -3.101 -33.836  1.00  0.00     0.003 C 
ATOM      6  C   UNL     1       7.813  -2.505 -34.464  1.00  0.00     0.004 C 
ENDBRANCH   1   5
TORSDOF 2
ENDMDL
