MODEL 1
REMARK VINA RESULT:    -4.550      0.000      0.000
REMARK INTER + INTRA:          -4.855
REMARK INTER:                  -5.614
REMARK INTRA:                   0.759
REMARK UNBOUND:                 0.759
REMARK SMILES CC1=CC=CC(C)(C)CC1=O
REMARK SMILES IDX 1 1 2 2 3 3 10 4 11 5 9 6 4 8 5 9 6 10 7 11 8 12
REMARK H PARENT
REMARK Flexibility Score: 80.00
ROOT
ATOM      1  C   UNL     1      22.631 -25.260  21.595  1.00  0.00     0.048 C 
ATOM      2  C   UNL     1      22.947 -23.915  20.982  1.00  0.00    -0.008 C 
ATOM      3  C   UNL     1      22.282 -22.840  21.457  1.00  0.00     0.007 C 
ENDROOT
BRANCH   2   4
ATOM      4  C   UNL     1      23.909 -23.896  19.852  1.00  0.00     0.159 C 
ATOM      5  O   UNL     1      24.253 -24.991  19.328  1.00  0.00    -0.295 OA
BRANCH   4   6
ATOM      6  C   UNL     1      24.511 -22.641  19.300  1.00  0.00     0.091 CG0
ATOM      7  G   UNL     1      23.460 -21.647  18.759  1.00  0.00     0.000 G0
ENDBRANCH   4   6
ENDBRANCH   2   4
BRANCH   3   8
ATOM      8  C   UNL     1      22.354 -21.418  21.044  1.00  0.00    -0.003 C 
ATOM      9  C   UNL     1      22.836 -20.892  19.911  1.00  0.00    -0.020 C 
BRANCH   9  10
ATOM     10  C   UNL     1      23.464 -21.648  18.765  1.00  0.00    -0.010 CG0
ATOM     11  C   UNL     1      22.365 -22.344  17.928  1.00  0.00     0.016 C 
ATOM     12  C   UNL     1      24.188 -20.633  17.853  1.00  0.00     0.016 C 
ATOM     13  G   UNL     1      24.514 -22.641  19.310  1.00  0.00     0.000 G0
ENDBRANCH   9  10
ENDBRANCH   3   8
TORSDOF 0
ENDMDL
MODEL 2
REMARK VINA RESULT:    -4.524      2.067      4.301
REMARK INTER + INTRA:          -4.823
REMARK INTER:                  -5.582
REMARK INTRA:                   0.759
REMARK UNBOUND:                 0.759
REMARK SMILES CC1=CC=CC(C)(C)CC1=O
REMARK SMILES IDX 1 1 2 2 3 3 10 4 11 5 9 6 4 8 5 9 6 10 7 11 8 12
REMARK H PARENT
REMARK Flexibility Score: 80.00
ROOT
ATOM      1  C   UNL     1      23.747 -18.937  15.999  1.00  0.00     0.048 C 
ATOM      2  C   UNL     1      23.740 -20.302  16.649  1.00  0.00    -0.008 C 
ATOM      3  C   UNL     1      23.057 -21.287  16.029  1.00  0.00     0.007 C 
ENDROOT
BRANCH   2   4
ATOM      4  C   UNL     1      24.424 -20.428  17.960  1.00  0.00     0.159 C 
ATOM      5  O   UNL     1      24.818 -19.382  18.545  1.00  0.00    -0.295 OA
BRANCH   4   6
ATOM      6  C   UNL     1      24.689 -21.741  18.630  1.00  0.00     0.091 CG0
ATOM      7  G   UNL     1      23.406 -22.560  18.897  1.00  0.00     0.000 G0
ENDBRANCH   4   6
ENDBRANCH   2   4
BRANCH   3   8
ATOM      8  C   UNL     1      22.847 -22.699  16.430  1.00  0.00    -0.003 C 
ATOM      9  C   UNL     1      22.982 -23.261  17.637  1.00  0.00    -0.020 C 
BRANCH   9  10
ATOM     10  C   UNL     1      23.419 -22.570  18.907  1.00  0.00    -0.010 CG0
ATOM     11  C   UNL     1      22.258 -21.719  19.471  1.00  0.00     0.016 C 
ATOM     12  C   UNL     1      23.768 -23.652  19.953  1.00  0.00     0.016 C 
ATOM     13  G   UNL     1      24.690 -21.736  18.634  1.00  0.00     0.000 G0
ENDBRANCH   9  10
ENDBRANCH   3   8
TORSDOF 0
ENDMDL
MODEL 3
REMARK VINA RESULT:    -4.506      1.721      2.586
REMARK INTER + INTRA:          -4.800
REMARK INTER:                  -5.559
REMARK INTRA:                   0.759
REMARK UNBOUND:                 0.759
REMARK SMILES CC1=CC=CC(C)(C)CC1=O
REMARK SMILES IDX 1 1 2 2 3 3 10 4 11 5 9 6 4 8 5 9 6 10 7 11 8 12
REMARK H PARENT
REMARK Flexibility Score: 80.00
ROOT
ATOM      1  C   UNL     1      22.863 -23.998  22.483  1.00  0.00     0.048 C 
ATOM      2  C   UNL     1      22.916 -23.693  21.004  1.00  0.00    -0.008 C 
ATOM      3  C   UNL     1      23.611 -24.539  20.214  1.00  0.00     0.007 C 
ENDROOT
BRANCH   2   4
ATOM      4  C   UNL     1      22.260 -22.442  20.549  1.00  0.00     0.159 C 
ATOM      5  O   UNL     1      21.868 -21.611  21.414  1.00  0.00    -0.295 OA
BRANCH   4   6
ATOM      6  C   UNL     1      22.024 -22.109  19.108  1.00  0.00     0.091 CG0
ATOM      7  G   UNL     1      23.322 -22.052  18.273  1.00  0.00     0.000 G0
ENDBRANCH   4   6
ENDBRANCH   2   4
BRANCH   3   8
ATOM      8  C   UNL     1      23.863 -24.490  18.754  1.00  0.00    -0.003 C 
ATOM      9  C   UNL     1      23.757 -23.451  17.915  1.00  0.00    -0.020 C 
BRANCH   9  10
ATOM     10  C   UNL     1      23.317 -22.051  18.269  1.00  0.00    -0.010 CG0
ATOM     11  C   UNL     1      24.464 -21.303  18.987  1.00  0.00     0.016 C 
ATOM     12  C   UNL     1      23.001 -21.296  16.959  1.00  0.00     0.016 C 
ATOM     13  G   UNL     1      22.025 -22.110  19.114  1.00  0.00     0.000 G0
ENDBRANCH   9  10
ENDBRANCH   3   8
TORSDOF 0
ENDMDL
MODEL 4
REMARK VINA RESULT:    -4.476      1.801      4.063
REMARK INTER + INTRA:          -4.763
REMARK INTER:                  -5.514
REMARK INTRA:                   0.751
REMARK UNBOUND:                 0.759
REMARK SMILES CC1=CC=CC(C)(C)CC1=O
REMARK SMILES IDX 1 1 2 2 3 3 10 4 11 5 9 6 4 8 5 9 6 10 7 11 8 12
REMARK H PARENT
REMARK Flexibility Score: 80.00
ROOT
ATOM      1  C   UNL     1      24.089 -20.124  15.147  1.00  0.00     0.048 C 
ATOM      2  C   UNL     1      23.766 -20.475  16.581  1.00  0.00    -0.008 C 
ATOM      3  C   UNL     1      24.368 -19.756  17.552  1.00  0.00     0.007 C 
ENDROOT
BRANCH   2   4
ATOM      4  C   UNL     1      22.869 -21.636  16.806  1.00  0.00     0.159 C 
ATOM      5  O   UNL     1      22.585 -22.383  15.830  1.00  0.00    -0.295 OA
BRANCH   4   6
ATOM      6  C   UNL     1      22.265 -21.968  18.135  1.00  0.00     0.091 CG0
ATOM      7  G   UNL     1      23.317 -22.228  19.236  1.00  0.00     0.000 G0
ENDBRANCH   4   6
ENDBRANCH   2   4
BRANCH   3   8
ATOM      8  C   UNL     1      24.274 -19.882  19.026  1.00  0.00    -0.003 C 
ATOM      9  C   UNL     1      23.846 -20.917  19.759  1.00  0.00    -0.020 C 
BRANCH   9  10
ATOM     10  C   UNL     1      23.316 -22.231  19.235  1.00  0.00    -0.010 CG0
ATOM     11  C   UNL     1      24.488 -23.118  18.754  1.00  0.00     0.016 C 
ATOM     12  C   UNL     1      22.607 -22.965  20.395  1.00  0.00     0.016 C 
ATOM     13  G   UNL     1      22.275 -21.967  18.125  1.00  0.00     0.000 G0
ENDBRANCH   9  10
ENDBRANCH   3   8
TORSDOF 0
ENDMDL
MODEL 5
REMARK VINA RESULT:    -4.178      1.634      2.825
REMARK INTER + INTRA:          -4.396
REMARK INTER:                  -5.140
REMARK INTRA:                   0.743
REMARK UNBOUND:                 0.759
REMARK SMILES CC1=CC=CC(C)(C)CC1=O
REMARK SMILES IDX 1 1 2 2 3 3 10 4 11 5 9 6 4 8 5 9 6 10 7 11 8 12
REMARK H PARENT
REMARK Flexibility Score: 80.00
ROOT
ATOM      1  C   UNL     1      24.056 -24.569  17.797  1.00  0.00     0.048 C 
ATOM      2  C   UNL     1      23.616 -23.739  18.980  1.00  0.00    -0.008 C 
ATOM      3  C   UNL     1      23.359 -24.385  20.137  1.00  0.00     0.007 C 
ENDROOT
BRANCH   2   4
ATOM      4  C   UNL     1      23.426 -22.284  18.752  1.00  0.00     0.159 C 
ATOM      5  O   UNL     1      23.442 -21.847  17.569  1.00  0.00    -0.295 OA
BRANCH   4   6
ATOM      6  C   UNL     1      23.229 -21.294  19.858  1.00  0.00     0.091 CG0
ATOM      7  G   UNL     1      21.986 -21.588  20.726  1.00  0.00     0.000 G0
ENDBRANCH   4   6
ENDBRANCH   2   4
BRANCH   3   8
ATOM      8  C   UNL     1      22.891 -23.856  21.441  1.00  0.00    -0.003 C 
ATOM      9  C   UNL     1      22.298 -22.687  21.712  1.00  0.00    -0.020 C 
BRANCH   9  10
ATOM     10  C   UNL     1      21.981 -21.589  20.724  1.00  0.00    -0.010 CG0
ATOM     11  C   UNL     1      20.731 -21.969  19.897  1.00  0.00     0.016 C 
ATOM     12  C   UNL     1      21.656 -20.303  21.516  1.00  0.00     0.016 C 
ATOM     13  G   UNL     1      23.217 -21.311  19.840  1.00  0.00     0.000 G0
ENDBRANCH   9  10
ENDBRANCH   3   8
TORSDOF 0
ENDMDL
MODEL 6
REMARK VINA RESULT:    -4.163      2.331      3.657
REMARK INTER + INTRA:          -4.378
REMARK INTER:                  -5.129
REMARK INTRA:                   0.751
REMARK UNBOUND:                 0.759
REMARK SMILES CC1=CC=CC(C)(C)CC1=O
REMARK SMILES IDX 1 1 2 2 3 3 10 4 11 5 9 6 4 8 5 9 6 10 7 11 8 12
REMARK H PARENT
REMARK Flexibility Score: 80.00
ROOT
ATOM      1  C   UNL     1      22.445 -23.345  16.351  1.00  0.00     0.048 C 
ATOM      2  C   UNL     1      22.998 -22.067  16.940  1.00  0.00    -0.008 C 
ATOM      3  C   UNL     1      23.368 -21.092  16.082  1.00  0.00     0.007 C 
ENDROOT
BRANCH   2   4
ATOM      4  C   UNL     1      23.160 -22.018  18.414  1.00  0.00     0.159 C 
ATOM      5  O   UNL     1      23.041 -23.086  19.075  1.00  0.00    -0.295 OA
BRANCH   4   6
ATOM      6  C   UNL     1      23.448 -20.759  19.172  1.00  0.00     0.091 CG0
ATOM      7  G   UNL     1      24.774 -20.084  18.754  1.00  0.00     0.000 G0
ENDBRANCH   4   6
ENDBRANCH   2   4
BRANCH   3   8
ATOM      8  C   UNL     1      23.960 -19.761  16.353  1.00  0.00    -0.003 C 
ATOM      9  C   UNL     1      24.565 -19.316  17.462  1.00  0.00    -0.020 C 
BRANCH   9  10
ATOM     10  C   UNL     1      24.766 -20.086  18.746  1.00  0.00    -0.010 CG0
ATOM     11  C   UNL     1      25.926 -21.095  18.580  1.00  0.00     0.016 C 
ATOM     12  C   UNL     1      25.159 -19.085  19.855  1.00  0.00     0.016 C 
ATOM     13  G   UNL     1      23.441 -20.765  19.159  1.00  0.00     0.000 G0
ENDBRANCH   9  10
ENDBRANCH   3   8
TORSDOF 0
ENDMDL
MODEL 7
REMARK VINA RESULT:    -4.094      1.726      3.220
REMARK INTER + INTRA:          -4.293
REMARK INTER:                  -5.033
REMARK INTRA:                   0.740
REMARK UNBOUND:                 0.759
REMARK SMILES CC1=CC=CC(C)(C)CC1=O
REMARK SMILES IDX 1 1 2 2 3 3 10 4 11 5 9 6 4 8 5 9 6 10 7 11 8 12
REMARK H PARENT
REMARK Flexibility Score: 80.00
ROOT
ATOM      1  C   UNL     1      22.296 -20.570  20.886  1.00  0.00     0.048 C 
ATOM      2  C   UNL     1      22.695 -21.945  20.402  1.00  0.00    -0.008 C 
ATOM      3  C   UNL     1      22.650 -22.960  21.292  1.00  0.00     0.007 C 
ENDROOT
BRANCH   2   4
ATOM      4  C   UNL     1      23.180 -22.054  19.004  1.00  0.00     0.159 C 
ATOM      5  O   UNL     1      23.433 -20.997  18.364  1.00  0.00    -0.295 OA
BRANCH   4   6
ATOM      6  C   UNL     1      23.377 -23.360  18.297  1.00  0.00     0.091 CG0
ATOM      7  G   UNL     1      24.386 -24.291  19.004  1.00  0.00     0.000 G0
ENDBRANCH   4   6
ENDBRANCH   2   4
BRANCH   3   8
ATOM      8  C   UNL     1      23.002 -24.390  21.124  1.00  0.00    -0.003 C 
ATOM      9  C   UNL     1      23.741 -24.970  20.170  1.00  0.00    -0.020 C 
BRANCH   9  10
ATOM     10  C   UNL     1      24.387 -24.282  18.991  1.00  0.00    -0.010 CG0
ATOM     11  C   UNL     1      25.664 -23.539  19.447  1.00  0.00     0.016 C 
ATOM     12  C   UNL     1      24.803 -25.362  17.968  1.00  0.00     0.016 C 
ATOM     13  G   UNL     1      23.364 -23.345  18.311  1.00  0.00     0.000 G0
ENDBRANCH   9  10
ENDBRANCH   3   8
TORSDOF 0
ENDMDL
MODEL 8
REMARK VINA RESULT:    -3.882      1.874      3.210
REMARK INTER + INTRA:          -4.031
REMARK INTER:                  -4.776
REMARK INTRA:                   0.746
REMARK UNBOUND:                 0.759
REMARK SMILES CC1=CC=CC(C)(C)CC1=O
REMARK SMILES IDX 1 1 2 2 3 3 10 4 11 5 9 6 4 8 5 9 6 10 7 11 8 12
REMARK H PARENT
REMARK Flexibility Score: 80.00
ROOT
ATOM      1  C   UNL     1      22.372 -19.130  21.616  1.00  0.00     0.048 C 
ATOM      2  C   UNL     1      23.055 -20.167  20.755  1.00  0.00    -0.008 C 
ATOM      3  C   UNL     1      24.053 -19.750  19.946  1.00  0.00     0.007 C 
ENDROOT
BRANCH   2   4
ATOM      4  C   UNL     1      22.521 -21.550  20.811  1.00  0.00     0.159 C 
ATOM      5  O   UNL     1      21.430 -21.757  21.410  1.00  0.00    -0.295 OA
BRANCH   4   6
ATOM      6  C   UNL     1      23.215 -22.729  20.202  1.00  0.00     0.091 CG0
ATOM      7  G   UNL     1      23.443 -22.585  18.681  1.00  0.00     0.000 G0
ENDBRANCH   4   6
ENDBRANCH   2   4
BRANCH   3   8
ATOM      8  C   UNL     1      24.879 -20.514  18.981  1.00  0.00    -0.003 C 
ATOM      9  C   UNL     1      24.639 -21.708  18.426  1.00  0.00    -0.020 C 
BRANCH   9  10
ATOM     10  C   UNL     1      23.445 -22.595  18.684  1.00  0.00    -0.010 CG0
ATOM     11  C   UNL     1      22.211 -22.051  17.928  1.00  0.00     0.016 C 
ATOM     12  C   UNL     1      23.759 -24.004  18.133  1.00  0.00     0.016 C 
ATOM     13  G   UNL     1      23.204 -22.716  20.206  1.00  0.00     0.000 G0
ENDBRANCH   9  10
ENDBRANCH   3   8
TORSDOF 0
ENDMDL
MODEL 9
REMARK VINA RESULT:    -3.795      2.866      4.114
REMARK INTER + INTRA:          -3.924
REMARK INTER:                  -4.959
REMARK INTRA:                   1.035
REMARK UNBOUND:                 0.759
REMARK SMILES CC1=CC=CC(C)(C)CC1=O
REMARK SMILES IDX 1 1 2 2 3 3 10 4 11 5 9 6 4 8 5 9 6 10 7 11 8 12
REMARK H PARENT
REMARK Flexibility Score: 80.00
ROOT
ATOM      1  C   UNL     1      27.773 -18.202  20.051  1.00  0.00     0.048 C 
ATOM      2  C   UNL     1      26.521 -19.021  19.842  1.00  0.00    -0.008 C 
ATOM      3  C   UNL     1      25.387 -18.593  20.436  1.00  0.00     0.007 C 
ENDROOT
BRANCH   2   4
ATOM      4  C   UNL     1      26.657 -20.276  19.062  1.00  0.00     0.159 C 
ATOM      5  O   UNL     1      27.712 -20.467  18.396  1.00  0.00    -0.295 OA
BRANCH   4   6
ATOM      6  C   UNL     1      25.599 -21.335  19.009  1.00  0.00     0.091 CG0
ATOM      7  G   UNL     1      24.239 -20.814  18.494  1.00  0.00     0.000 G0
ENDBRANCH   4   6
ENDBRANCH   2   4
BRANCH   3   8
ATOM      8  C   UNL     1      24.030 -19.189  20.439  1.00  0.00    -0.003 C 
ATOM      9  C   UNL     1      23.526 -20.143  19.646  1.00  0.00    -0.020 C 
BRANCH   9  10
ATOM     10  C   UNL     1      24.239 -20.836  18.509  1.00  0.00    -0.010 CG0
ATOM     11  C   UNL     1      23.352 -21.968  17.942  1.00  0.00     0.016 C 
ATOM     12  C   UNL     1      24.474 -19.804  17.383  1.00  0.00     0.016 C 
ATOM     13  G   UNL     1      25.616 -21.344  18.992  1.00  0.00     0.000 G0
ENDBRANCH   9  10
ENDBRANCH   3   8
TORSDOF 0
ENDMDL
