MODEL 1
REMARK VINA RESULT:    -1.899      0.000      0.000
REMARK INTER + INTRA:          -1.899
REMARK INTER:                  -1.899
REMARK INTRA:                   0.000
REMARK UNBOUND:                 0.000
REMARK SMILES C=C1CCC[C@]2(C)CC(=O)C(=C(C)C)C[C@H]12
REMARK SMILES IDX 13 1 12 2 11 3 15 4 16 5 2 6 1 7 3 8 4 9 5 10 6 11 8 12 9 13
REMARK SMILES IDX 10 14 7 15 14 16
REMARK H PARENT
REMARK Flexibility Score: inf
ROOT
ATOM      1  C   UNL     1      -4.214 -17.327  -5.331  1.00  0.00     0.039 C 
ATOM      2  C   UNL     1      -3.014 -16.595  -5.885  1.00  0.00    -0.070 C 
ATOM      3  C   UNL     1      -3.137 -15.361  -6.453  1.00  0.00    -0.006 C 
ATOM      4  C   UNL     1      -4.474 -14.656  -6.568  1.00  0.00     0.047 C 
ATOM      5  C   UNL     1      -4.372 -13.115  -6.426  1.00  0.00     0.025 C 
ATOM      6  C   UNL     1      -5.713 -12.502  -6.795  1.00  0.00    -0.073 C 
ATOM      7  C   UNL     1      -6.591 -12.156  -5.841  1.00  0.00     0.008 C 
ATOM      8  C   UNL     1      -6.105 -12.435  -8.257  1.00  0.00     0.031 C 
ATOM      9  C   UNL     1      -4.960 -11.896  -9.125  1.00  0.00     0.005 C 
ATOM     10  C   UNL     1      -3.606 -12.554  -8.802  1.00  0.00     0.008 C 
ATOM     11  C   UNL     1      -3.239 -12.473  -7.290  1.00  0.00    -0.018 C 
ATOM     12  C   UNL     1      -1.890 -13.193  -7.029  1.00  0.00     0.088 C 
ATOM     13  C   UNL     1      -2.004 -14.680  -7.121  1.00  0.00     0.159 C 
ATOM     14  O   UNL     1      -1.136 -15.330  -7.764  1.00  0.00    -0.295 OA
ATOM     15  C   UNL     1      -3.043 -10.990  -6.875  1.00  0.00     0.012 C 
ATOM     16  C   UNL     1      -1.669 -17.268  -5.748  1.00  0.00     0.039 C 
ENDROOT
TORSDOF 0
ENDMDL
MODEL 2
REMARK VINA RESULT:    -0.767      1.663      3.137
REMARK INTER + INTRA:          -0.767
REMARK INTER:                  -0.767
REMARK INTRA:                   0.000
REMARK UNBOUND:                 0.000
REMARK SMILES C=C1CCC[C@]2(C)CC(=O)C(=C(C)C)C[C@H]12
REMARK SMILES IDX 13 1 12 2 11 3 15 4 16 5 2 6 1 7 3 8 4 9 5 10 6 11 8 12 9 13
REMARK SMILES IDX 10 14 7 15 14 16
REMARK H PARENT
REMARK Flexibility Score: inf
ROOT
ATOM      1  C   UNL     1      -1.127 -16.270  -5.739  1.00  0.00     0.039 C 
ATOM      2  C   UNL     1      -2.624 -16.455  -5.835  1.00  0.00    -0.070 C 
ATOM      3  C   UNL     1      -3.431 -15.466  -6.314  1.00  0.00    -0.006 C 
ATOM      4  C   UNL     1      -2.882 -14.129  -6.775  1.00  0.00     0.047 C 
ATOM      5  C   UNL     1      -3.665 -13.520  -7.966  1.00  0.00     0.025 C 
ATOM      6  C   UNL     1      -3.190 -12.092  -8.182  1.00  0.00    -0.073 C 
ATOM      7  C   UNL     1      -2.277 -11.813  -9.125  1.00  0.00     0.008 C 
ATOM      8  C   UNL     1      -3.643 -11.020  -7.213  1.00  0.00     0.031 C 
ATOM      9  C   UNL     1      -5.153 -11.096  -6.952  1.00  0.00     0.005 C 
ATOM     10  C   UNL     1      -5.638 -12.531  -6.671  1.00  0.00     0.008 C 
ATOM     11  C   UNL     1      -5.217 -13.540  -7.781  1.00  0.00    -0.018 C 
ATOM     12  C   UNL     1      -5.697 -14.968  -7.413  1.00  0.00     0.088 C 
ATOM     13  C   UNL     1      -4.908 -15.570  -6.295  1.00  0.00     0.159 C 
ATOM     14  O   UNL     1      -5.511 -16.155  -5.355  1.00  0.00    -0.295 OA
ATOM     15  C   UNL     1      -5.907 -13.166  -9.120  1.00  0.00     0.012 C 
ATOM     16  C   UNL     1      -3.184 -17.793  -5.412  1.00  0.00     0.039 C 
ENDROOT
TORSDOF 0
ENDMDL
MODEL 3
REMARK VINA RESULT:    -0.602      1.728      4.744
REMARK INTER + INTRA:          -0.602
REMARK INTER:                  -0.602
REMARK INTRA:                   0.000
REMARK UNBOUND:                 0.000
REMARK SMILES C=C1CCC[C@]2(C)CC(=O)C(=C(C)C)C[C@H]12
REMARK SMILES IDX 13 1 12 2 11 3 15 4 16 5 2 6 1 7 3 8 4 9 5 10 6 11 8 12 9 13
REMARK SMILES IDX 10 14 7 15 14 16
REMARK H PARENT
REMARK Flexibility Score: inf
ROOT
ATOM      1  C   UNL     1      -6.240 -13.294  -9.114  1.00  0.00     0.039 C 
ATOM      2  C   UNL     1      -4.962 -12.712  -8.555  1.00  0.00    -0.070 C 
ATOM      3  C   UNL     1      -4.244 -13.368  -7.599  1.00  0.00    -0.006 C 
ATOM      4  C   UNL     1      -4.679 -14.709  -7.040  1.00  0.00     0.047 C 
ATOM      5  C   UNL     1      -3.494 -15.641  -6.682  1.00  0.00     0.025 C 
ATOM      6  C   UNL     1      -4.031 -16.839  -5.915  1.00  0.00    -0.073 C 
ATOM      7  C   UNL     1      -4.265 -18.001  -6.544  1.00  0.00     0.008 C 
ATOM      8  C   UNL     1      -4.445 -16.653  -4.471  1.00  0.00     0.031 C 
ATOM      9  C   UNL     1      -3.384 -15.882  -3.673  1.00  0.00     0.005 C 
ATOM     10  C   UNL     1      -2.876 -14.630  -4.413  1.00  0.00     0.008 C 
ATOM     11  C   UNL     1      -2.367 -14.942  -5.852  1.00  0.00    -0.018 C 
ATOM     12  C   UNL     1      -1.915 -13.635  -6.554  1.00  0.00     0.088 C 
ATOM     13  C   UNL     1      -3.064 -12.762  -6.940  1.00  0.00     0.159 C 
ATOM     14  O   UNL     1      -3.012 -11.526  -6.699  1.00  0.00    -0.295 OA
ATOM     15  C   UNL     1      -1.123 -15.867  -5.781  1.00  0.00     0.012 C 
ATOM     16  C   UNL     1      -4.495 -11.393  -9.125  1.00  0.00     0.039 C 
ENDROOT
TORSDOF 0
ENDMDL
MODEL 4
REMARK VINA RESULT:    -0.162      1.634      2.442
REMARK INTER + INTRA:          -0.162
REMARK INTER:                  -0.162
REMARK INTRA:                   0.000
REMARK UNBOUND:                 0.000
REMARK SMILES C=C1CCC[C@]2(C)CC(=O)C(=C(C)C)C[C@H]12
REMARK SMILES IDX 13 1 12 2 11 3 15 4 16 5 2 6 1 7 3 8 4 9 5 10 6 11 8 12 9 13
REMARK SMILES IDX 10 14 7 15 14 16
REMARK H PARENT
REMARK Flexibility Score: inf
ROOT
ATOM      1  C   UNL     1      -4.880 -19.078  -7.191  1.00  0.00     0.039 C 
ATOM      2  C   UNL     1      -3.769 -18.496  -6.348  1.00  0.00    -0.070 C 
ATOM      3  C   UNL     1      -3.407 -17.186  -6.459  1.00  0.00    -0.006 C 
ATOM      4  C   UNL     1      -4.087 -16.240  -7.430  1.00  0.00     0.047 C 
ATOM      5  C   UNL     1      -4.194 -14.787  -6.900  1.00  0.00     0.025 C 
ATOM      6  C   UNL     1      -4.663 -13.889  -8.034  1.00  0.00    -0.073 C 
ATOM      7  C   UNL     1      -5.956 -13.546  -8.141  1.00  0.00     0.008 C 
ATOM      8  C   UNL     1      -3.680 -13.520  -9.124  1.00  0.00     0.031 C 
ATOM      9  C   UNL     1      -2.334 -13.066  -8.543  1.00  0.00     0.005 C 
ATOM     10  C   UNL     1      -1.817 -14.002  -7.435  1.00  0.00     0.008 C 
ATOM     11  C   UNL     1      -2.861 -14.232  -6.301  1.00  0.00    -0.018 C 
ATOM     12  C   UNL     1      -2.294 -15.217  -5.246  1.00  0.00     0.088 C 
ATOM     13  C   UNL     1      -2.238 -16.625  -5.744  1.00  0.00     0.159 C 
ATOM     14  O   UNL     1      -1.198 -17.310  -5.549  1.00  0.00    -0.295 OA
ATOM     15  C   UNL     1      -3.138 -12.895  -5.563  1.00  0.00     0.012 C 
ATOM     16  C   UNL     1      -3.103 -19.416  -5.351  1.00  0.00     0.039 C 
ENDROOT
TORSDOF 0
ENDMDL
MODEL 5
REMARK VINA RESULT:     0.597      1.841      2.118
REMARK INTER + INTRA:           0.597
REMARK INTER:                   0.597
REMARK INTRA:                   0.000
REMARK UNBOUND:                 0.000
REMARK SMILES C=C1CCC[C@]2(C)CC(=O)C(=C(C)C)C[C@H]12
REMARK SMILES IDX 13 1 12 2 11 3 15 4 16 5 2 6 1 7 3 8 4 9 5 10 6 11 8 12 9 13
REMARK SMILES IDX 10 14 7 15 14 16
REMARK H PARENT
REMARK Flexibility Score: inf
ROOT
ATOM      1  C   UNL     1      -3.707 -14.562  -2.736  1.00  0.00     0.039 C 
ATOM      2  C   UNL     1      -2.814 -15.108  -3.826  1.00  0.00    -0.070 C 
ATOM      3  C   UNL     1      -3.077 -14.870  -5.143  1.00  0.00    -0.006 C 
ATOM      4  C   UNL     1      -4.271 -14.052  -5.592  1.00  0.00     0.047 C 
ATOM      5  C   UNL     1      -3.998 -13.211  -6.866  1.00  0.00     0.025 C 
ATOM      6  C   UNL     1      -5.314 -12.631  -7.359  1.00  0.00    -0.073 C 
ATOM      7  C   UNL     1      -5.659 -11.370  -7.056  1.00  0.00     0.008 C 
ATOM      8  C   UNL     1      -6.296 -13.547  -8.059  1.00  0.00     0.031 C 
ATOM      9  C   UNL     1      -5.605 -14.407  -9.125  1.00  0.00     0.005 C 
ATOM     10  C   UNL     1      -4.301 -15.051  -8.619  1.00  0.00     0.008 C 
ATOM     11  C   UNL     1      -3.308 -14.013  -8.017  1.00  0.00    -0.018 C 
ATOM     12  C   UNL     1      -2.040 -14.732  -7.487  1.00  0.00     0.088 C 
ATOM     13  C   UNL     1      -2.298 -15.502  -6.232  1.00  0.00     0.159 C 
ATOM     14  O   UNL     1      -1.850 -16.675  -6.122  1.00  0.00    -0.295 OA
ATOM     15  C   UNL     1      -2.837 -13.033  -9.125  1.00  0.00     0.012 C 
ATOM     16  C   UNL     1      -1.600 -15.898  -3.395  1.00  0.00     0.039 C 
ENDROOT
TORSDOF 0
ENDMDL
MODEL 6
REMARK VINA RESULT:     0.694      1.858      5.103
REMARK INTER + INTRA:           0.694
REMARK INTER:                   0.694
REMARK INTRA:                   0.000
REMARK UNBOUND:                 0.000
REMARK SMILES C=C1CCC[C@]2(C)CC(=O)C(=C(C)C)C[C@H]12
REMARK SMILES IDX 13 1 12 2 11 3 15 4 16 5 2 6 1 7 3 8 4 9 5 10 6 11 8 12 9 13
REMARK SMILES IDX 10 14 7 15 14 16
REMARK H PARENT
REMARK Flexibility Score: inf
ROOT
ATOM      1  C   UNL     1      -2.243 -11.232  -8.126  1.00  0.00     0.039 C 
ATOM      2  C   UNL     1      -3.565 -11.942  -8.301  1.00  0.00    -0.070 C 
ATOM      3  C   UNL     1      -3.797 -13.159  -7.731  1.00  0.00    -0.006 C 
ATOM      4  C   UNL     1      -2.751 -13.871  -6.896  1.00  0.00     0.047 C 
ATOM      5  C   UNL     1      -3.351 -14.693  -5.727  1.00  0.00     0.025 C 
ATOM      6  C   UNL     1      -2.251 -15.547  -5.116  1.00  0.00    -0.073 C 
ATOM      7  C   UNL     1      -1.611 -15.143  -4.008  1.00  0.00     0.008 C 
ATOM      8  C   UNL     1      -1.784 -16.777  -5.866  1.00  0.00     0.031 C 
ATOM      9  C   UNL     1      -2.966 -17.620  -6.362  1.00  0.00     0.005 C 
ATOM     10  C   UNL     1      -4.061 -16.773  -7.038  1.00  0.00     0.008 C 
ATOM     11  C   UNL     1      -4.556 -15.598  -6.142  1.00  0.00    -0.018 C 
ATOM     12  C   UNL     1      -5.621 -14.763  -6.900  1.00  0.00     0.088 C 
ATOM     13  C   UNL     1      -5.030 -13.935  -7.996  1.00  0.00     0.159 C 
ATOM     14  O   UNL     1      -5.589 -13.912  -9.125  1.00  0.00    -0.295 OA
ATOM     15  C   UNL     1      -5.248 -16.161  -4.872  1.00  0.00     0.012 C 
ATOM     16  C   UNL     1      -4.631 -11.231  -9.102  1.00  0.00     0.039 C 
ENDROOT
TORSDOF 0
ENDMDL
