MODEL 1
REMARK VINA RESULT:    -3.360      0.000      0.000
REMARK INTER + INTRA:          -6.712
REMARK INTER:                  -5.717
REMARK INTRA:                  -0.995
REMARK UNBOUND:                -0.995
REMARK SMILES CCCCCCCCCCCCCC(=O)[O-]
REMARK SMILES IDX 8 1 9 2 10 3 11 4 12 5 13 6 14 7 15 8 16 9 7 10 6 11 5 12
REMARK SMILES IDX 4 13 3 14 2 15 1 16
REMARK H PARENT
REMARK Flexibility Score: inf
ROOT
ATOM      1  C   UNL     1      66.342  66.618  44.985  1.00  0.00     0.000 C 
ENDROOT
BRANCH   1   2
ATOM      2  C   UNL     1      66.491  65.998  43.584  1.00  0.00     0.000 C 
BRANCH   2   3
ATOM      3  C   UNL     1      67.959  65.850  43.148  1.00  0.00     0.000 C 
BRANCH   3   4
ATOM      4  C   UNL     1      68.099  65.496  41.658  1.00  0.00     0.000 C 
BRANCH   4   5
ATOM      5  C   UNL     1      66.752  65.512  40.916  1.00  0.00     0.006 C 
BRANCH   5   6
ATOM      6  C   UNL     1      66.632  66.705  39.957  1.00  0.00     0.053 C 
BRANCH   6   7
ATOM      7  C   UNL     1      67.002  66.332  38.555  1.00  0.00     0.041 C 
ATOM      8  O   UNL     1      67.255  65.134  38.263  1.00  0.00    -0.550 OA
ATOM      9  O   UNL     1      67.036  67.303  37.561  1.00  0.00    -0.550 OA
ENDBRANCH   6   7
ENDBRANCH   5   6
ENDBRANCH   4   5
ENDBRANCH   3   4
ENDBRANCH   2   3
ENDBRANCH   1   2
BRANCH   1  10
ATOM     10  C   UNL     1      66.046  65.616  46.116  1.00  0.00     0.000 C 
BRANCH  10  11
ATOM     11  C   UNL     1      67.074  65.678  47.256  1.00  0.00    -0.000 C 
BRANCH  11  12
ATOM     12  C   UNL     1      66.386  65.918  48.605  1.00  0.00    -0.000 C 
BRANCH  12  13
ATOM     13  C   UNL     1      66.672  67.336  49.125  1.00  0.00    -0.000 C 
BRANCH  13  14
ATOM     14  C   UNL     1      65.785  68.400  48.461  1.00  0.00    -0.000 C 
BRANCH  14  15
ATOM     15  C   UNL     1      64.294  68.032  48.494  1.00  0.00    -0.003 C 
ATOM     16  C   UNL     1      63.625  68.332  47.155  1.00  0.00     0.004 C 
ENDBRANCH  14  15
ENDBRANCH  13  14
ENDBRANCH  12  13
ENDBRANCH  11  12
ENDBRANCH  10  11
ENDBRANCH   1  10
TORSDOF 12
ENDMDL
MODEL 2
REMARK VINA RESULT:    -3.328     23.311     25.452
REMARK INTER + INTRA:          -6.659
REMARK INTER:                  -4.983
REMARK INTRA:                  -1.676
REMARK UNBOUND:                -0.995
REMARK SMILES CCCCCCCCCCCCCC(=O)[O-]
REMARK SMILES IDX 8 1 9 2 10 3 11 4 12 5 13 6 14 7 15 8 16 9 7 10 6 11 5 12
REMARK SMILES IDX 4 13 3 14 2 15 1 16
REMARK H PARENT
REMARK Flexibility Score: inf
ROOT
ATOM      1  C   UNL     1      55.289  81.873  32.414  1.00  0.00     0.000 C 
ENDROOT
BRANCH   1   2
ATOM      2  C   UNL     1      53.841  81.743  32.922  1.00  0.00     0.000 C 
BRANCH   2   3
ATOM      3  C   UNL     1      52.809  81.687  31.782  1.00  0.00     0.000 C 
BRANCH   3   4
ATOM      4  C   UNL     1      52.218  83.068  31.453  1.00  0.00     0.000 C 
BRANCH   4   5
ATOM      5  C   UNL     1      51.918  83.243  29.954  1.00  0.00     0.006 C 
BRANCH   5   6
ATOM      6  C   UNL     1      50.631  82.520  29.534  1.00  0.00     0.053 C 
BRANCH   6   7
ATOM      7  C   UNL     1      49.406  83.263  29.972  1.00  0.00     0.041 C 
ATOM      8  O   UNL     1      48.854  84.087  29.198  1.00  0.00    -0.550 OA
ATOM      9  O   UNL     1      48.855  83.020  31.225  1.00  0.00    -0.550 OA
ENDBRANCH   6   7
ENDBRANCH   5   6
ENDBRANCH   4   5
ENDBRANCH   3   4
ENDBRANCH   2   3
ENDBRANCH   1   2
BRANCH   1  10
ATOM     10  C   UNL     1      56.078  83.065  32.985  1.00  0.00     0.000 C 
BRANCH  10  11
ATOM     11  C   UNL     1      55.484  84.424  32.586  1.00  0.00    -0.000 C 
BRANCH  11  12
ATOM     12  C   UNL     1      55.521  84.615  31.065  1.00  0.00    -0.000 C 
BRANCH  12  13
ATOM     13  C   UNL     1      56.937  84.384  30.515  1.00  0.00    -0.000 C 
BRANCH  13  14
ATOM     14  C   UNL     1      56.938  83.618  29.184  1.00  0.00    -0.000 C 
BRANCH  14  15
ATOM     15  C   UNL     1      55.582  82.966  28.875  1.00  0.00    -0.003 C 
ATOM     16  C   UNL     1      55.691  81.444  28.879  1.00  0.00     0.004 C 
ENDBRANCH  14  15
ENDBRANCH  13  14
ENDBRANCH  12  13
ENDBRANCH  11  12
ENDBRANCH  10  11
ENDBRANCH   1  10
TORSDOF 12
ENDMDL
MODEL 3
REMARK VINA RESULT:    -3.273     23.024     25.257
REMARK INTER + INTRA:          -6.565
REMARK INTER:                  -4.872
REMARK INTRA:                  -1.693
REMARK UNBOUND:                -0.995
REMARK SMILES CCCCCCCCCCCCCC(=O)[O-]
REMARK SMILES IDX 8 1 9 2 10 3 11 4 12 5 13 6 14 7 15 8 16 9 7 10 6 11 5 12
REMARK SMILES IDX 4 13 3 14 2 15 1 16
REMARK H PARENT
REMARK Flexibility Score: inf
ROOT
ATOM      1  C   UNL     1      52.401  81.321  31.744  1.00  0.00     0.000 C 
ENDROOT
BRANCH   1   2
ATOM      2  C   UNL     1      53.448  82.074  32.586  1.00  0.00     0.000 C 
BRANCH   2   3
ATOM      3  C   UNL     1      54.892  81.793  32.136  1.00  0.00     0.000 C 
BRANCH   3   4
ATOM      4  C   UNL     1      55.842  82.966  32.433  1.00  0.00     0.000 C 
BRANCH   4   5
ATOM      5  C   UNL     1      55.246  84.326  32.031  1.00  0.00     0.006 C 
BRANCH   5   6
ATOM      6  C   UNL     1      55.524  84.668  30.561  1.00  0.00     0.053 C 
BRANCH   6   7
ATOM      7  C   UNL     1      56.784  84.027  30.067  1.00  0.00     0.041 C 
ATOM      8  O   UNL     1      57.905  84.504  30.385  1.00  0.00    -0.550 OA
ATOM      9  O   UNL     1      56.722  82.882  29.282  1.00  0.00    -0.550 OA
ENDBRANCH   6   7
ENDBRANCH   5   6
ENDBRANCH   4   5
ENDBRANCH   3   4
ENDBRANCH   2   3
ENDBRANCH   1   2
BRANCH   1  10
ATOM     10  C   UNL     1      52.515  81.524  30.223  1.00  0.00     0.000 C 
BRANCH  10  11
ATOM     11  C   UNL     1      51.455  82.487  29.666  1.00  0.00    -0.000 C 
BRANCH  11  12
ATOM     12  C   UNL     1      52.067  83.860  29.360  1.00  0.00    -0.000 C 
BRANCH  12  13
ATOM     13  C   UNL     1      51.893  84.818  30.549  1.00  0.00    -0.000 C 
BRANCH  13  14
ATOM     14  C   UNL     1      50.450  84.857  31.072  1.00  0.00    -0.000 C 
BRANCH  14  15
ATOM     15  C   UNL     1      50.375  85.064  32.592  1.00  0.00    -0.003 C 
ATOM     16  C   UNL     1      51.771  85.125  33.206  1.00  0.00     0.004 C 
ENDBRANCH  14  15
ENDBRANCH  13  14
ENDBRANCH  12  13
ENDBRANCH  11  12
ENDBRANCH  10  11
ENDBRANCH   1  10
TORSDOF 12
ENDMDL
MODEL 4
REMARK VINA RESULT:    -3.259     23.768     25.901
REMARK INTER + INTRA:          -6.540
REMARK INTER:                  -4.598
REMARK INTRA:                  -1.942
REMARK UNBOUND:                -0.995
REMARK SMILES CCCCCCCCCCCCCC(=O)[O-]
REMARK SMILES IDX 8 1 9 2 10 3 11 4 12 5 13 6 14 7 15 8 16 9 7 10 6 11 5 12
REMARK SMILES IDX 4 13 3 14 2 15 1 16
REMARK H PARENT
REMARK Flexibility Score: inf
ROOT
ATOM      1  C   UNL     1      53.363  81.527  31.390  1.00  0.00     0.000 C 
ENDROOT
BRANCH   1   2
ATOM      2  C   UNL     1      52.228  82.522  31.694  1.00  0.00     0.000 C 
BRANCH   2   3
ATOM      3  C   UNL     1      52.189  83.705  30.711  1.00  0.00     0.000 C 
BRANCH   3   4
ATOM      4  C   UNL     1      51.777  85.022  31.389  1.00  0.00     0.000 C 
BRANCH   4   5
ATOM      5  C   UNL     1      51.182  84.806  32.791  1.00  0.00     0.006 C 
BRANCH   5   6
ATOM      6  C   UNL     1      49.681  85.125  32.838  1.00  0.00     0.053 C 
BRANCH   6   7
ATOM      7  C   UNL     1      48.849  83.949  32.428  1.00  0.00     0.041 C 
ATOM      8  O   UNL     1      48.606  83.739  31.212  1.00  0.00    -0.550 OA
ATOM      9  O   UNL     1      48.367  83.067  33.388  1.00  0.00    -0.550 OA
ENDBRANCH   6   7
ENDBRANCH   5   6
ENDBRANCH   4   5
ENDBRANCH   3   4
ENDBRANCH   2   3
ENDBRANCH   1   2
BRANCH   1  10
ATOM     10  C   UNL     1      53.788  81.450  29.912  1.00  0.00     0.000 C 
BRANCH  10  11
ATOM     11  C   UNL     1      55.309  81.547  29.720  1.00  0.00    -0.000 C 
BRANCH  11  12
ATOM     12  C   UNL     1      55.708  82.924  29.177  1.00  0.00    -0.000 C 
BRANCH  12  13
ATOM     13  C   UNL     1      56.481  83.730  30.233  1.00  0.00    -0.000 C 
BRANCH  13  14
ATOM     14  C   UNL     1      55.664  84.902  30.798  1.00  0.00    -0.000 C 
BRANCH  14  15
ATOM     15  C   UNL     1      55.353  84.740  32.293  1.00  0.00    -0.003 C 
ATOM     16  C   UNL     1      56.125  83.568  32.891  1.00  0.00     0.004 C 
ENDBRANCH  14  15
ENDBRANCH  13  14
ENDBRANCH  12  13
ENDBRANCH  11  12
ENDBRANCH  10  11
ENDBRANCH   1  10
TORSDOF 12
ENDMDL
MODEL 5
REMARK VINA RESULT:    -3.255     24.273     25.855
REMARK INTER + INTRA:          -6.534
REMARK INTER:                  -4.917
REMARK INTRA:                  -1.617
REMARK UNBOUND:                -0.995
REMARK SMILES CCCCCCCCCCCCCC(=O)[O-]
REMARK SMILES IDX 8 1 9 2 10 3 11 4 12 5 13 6 14 7 15 8 16 9 7 10 6 11 5 12
REMARK SMILES IDX 4 13 3 14 2 15 1 16
REMARK H PARENT
REMARK Flexibility Score: inf
ROOT
ATOM      1  C   UNL     1      53.514  81.550  29.793  1.00  0.00     0.000 C 
ENDROOT
BRANCH   1   2
ATOM      2  C   UNL     1      53.426  81.723  31.320  1.00  0.00     0.000 C 
BRANCH   2   3
ATOM      3  C   UNL     1      52.181  82.513  31.762  1.00  0.00     0.000 C 
BRANCH   3   4
ATOM      4  C   UNL     1      51.968  83.790  30.933  1.00  0.00     0.000 C 
BRANCH   4   5
ATOM      5  C   UNL     1      50.592  84.434  31.180  1.00  0.00     0.006 C 
BRANCH   5   6
ATOM      6  C   UNL     1      50.089  84.193  32.610  1.00  0.00     0.053 C 
BRANCH   6   7
ATOM      7  C   UNL     1      48.688  83.663  32.626  1.00  0.00     0.041 C 
ATOM      8  O   UNL     1      48.056  83.577  33.710  1.00  0.00    -0.550 OA
ATOM      9  O   UNL     1      48.069  83.294  31.438  1.00  0.00    -0.550 OA
ENDBRANCH   6   7
ENDBRANCH   5   6
ENDBRANCH   4   5
ENDBRANCH   3   4
ENDBRANCH   2   3
ENDBRANCH   1   2
BRANCH   1  10
ATOM     10  C   UNL     1      54.889  81.105  29.263  1.00  0.00     0.000 C 
BRANCH  10  11
ATOM     11  C   UNL     1      55.916  82.246  29.226  1.00  0.00    -0.000 C 
BRANCH  11  12
ATOM     12  C   UNL     1      55.221  83.606  29.082  1.00  0.00    -0.000 C 
BRANCH  12  13
ATOM     13  C   UNL     1      55.782  84.621  30.090  1.00  0.00    -0.000 C 
BRANCH  13  14
ATOM     14  C   UNL     1      56.630  83.959  31.187  1.00  0.00    -0.000 C 
BRANCH  14  15
ATOM     15  C   UNL     1      55.956  84.007  32.566  1.00  0.00    -0.003 C 
ATOM     16  C   UNL     1      54.919  85.124  32.631  1.00  0.00     0.004 C 
ENDBRANCH  14  15
ENDBRANCH  13  14
ENDBRANCH  12  13
ENDBRANCH  11  12
ENDBRANCH  10  11
ENDBRANCH   1  10
TORSDOF 12
ENDMDL
MODEL 6
REMARK VINA RESULT:    -3.073     23.583     25.588
REMARK INTER + INTRA:          -6.224
REMARK INTER:                  -4.472
REMARK INTRA:                  -1.752
REMARK UNBOUND:                -0.995
REMARK SMILES CCCCCCCCCCCCCC(=O)[O-]
REMARK SMILES IDX 8 1 9 2 10 3 11 4 12 5 13 6 14 7 15 8 16 9 7 10 6 11 5 12
REMARK SMILES IDX 4 13 3 14 2 15 1 16
REMARK H PARENT
REMARK Flexibility Score: inf
ROOT
ATOM      1  C   UNL     1      52.170  81.587  31.016  1.00  0.00     0.000 C 
ENDROOT
BRANCH   1   2
ATOM      2  C   UNL     1      53.006  81.929  29.770  1.00  0.00     0.000 C 
BRANCH   2   3
ATOM      3  C   UNL     1      54.452  81.408  29.858  1.00  0.00     0.000 C 
BRANCH   3   4
ATOM      4  C   UNL     1      55.466  82.371  29.218  1.00  0.00     0.000 C 
BRANCH   4   5
ATOM      5  C   UNL     1      55.482  83.752  29.896  1.00  0.00     0.006 C 
BRANCH   5   6
ATOM      6  C   UNL     1      56.529  83.835  31.015  1.00  0.00     0.053 C 
BRANCH   6   7
ATOM      7  C   UNL     1      55.902  83.756  32.373  1.00  0.00     0.041 C 
ATOM      8  O   UNL     1      55.824  82.652  32.972  1.00  0.00    -0.550 OA
ATOM      9  O   UNL     1      55.432  84.908  32.992  1.00  0.00    -0.550 OA
ENDBRANCH   6   7
ENDBRANCH   5   6
ENDBRANCH   4   5
ENDBRANCH   3   4
ENDBRANCH   2   3
ENDBRANCH   1   2
BRANCH   1  10
ATOM     10  C   UNL     1      52.300  82.580  32.185  1.00  0.00     0.000 C 
BRANCH  10  11
ATOM     11  C   UNL     1      52.270  84.047  31.731  1.00  0.00    -0.000 C 
BRANCH  11  12
ATOM     12  C   UNL     1      51.295  84.867  32.586  1.00  0.00    -0.000 C 
BRANCH  12  13
ATOM     13  C   UNL     1      49.902  84.917  31.939  1.00  0.00    -0.000 C 
BRANCH  13  14
ATOM     14  C   UNL     1      49.961  84.859  30.405  1.00  0.00    -0.000 C 
BRANCH  14  15
ATOM     15  C   UNL     1      49.232  83.635  29.830  1.00  0.00    -0.003 C 
ATOM     16  C   UNL     1      48.341  82.983  30.882  1.00  0.00     0.004 C 
ENDBRANCH  14  15
ENDBRANCH  13  14
ENDBRANCH  12  13
ENDBRANCH  11  12
ENDBRANCH  10  11
ENDBRANCH   1  10
TORSDOF 12
ENDMDL
MODEL 7
REMARK VINA RESULT:    -3.062     23.304     25.543
REMARK INTER + INTRA:          -6.205
REMARK INTER:                  -4.681
REMARK INTRA:                  -1.524
REMARK UNBOUND:                -0.995
REMARK SMILES CCCCCCCCCCCCCC(=O)[O-]
REMARK SMILES IDX 8 1 9 2 10 3 11 4 12 5 13 6 14 7 15 8 16 9 7 10 6 11 5 12
REMARK SMILES IDX 4 13 3 14 2 15 1 16
REMARK H PARENT
REMARK Flexibility Score: inf
ROOT
ATOM      1  C   UNL     1      53.863  82.759  32.202  1.00  0.00     0.000 C 
ENDROOT
BRANCH   1   2
ATOM      2  C   UNL     1      53.287  84.185  32.144  1.00  0.00     0.000 C 
BRANCH   2   3
ATOM      3  C   UNL     1      51.883  84.290  32.766  1.00  0.00     0.000 C 
BRANCH   3   4
ATOM      4  C   UNL     1      50.787  84.529  31.714  1.00  0.00     0.000 C 
BRANCH   4   5
ATOM      5  C   UNL     1      49.668  83.475  31.775  1.00  0.00     0.006 C 
BRANCH   5   6
ATOM      6  C   UNL     1      49.555  82.674  30.470  1.00  0.00     0.053 C 
BRANCH   6   7
ATOM      7  C   UNL     1      50.880  82.131  30.032  1.00  0.00     0.041 C 
ATOM      8  O   UNL     1      51.397  81.157  30.639  1.00  0.00    -0.550 OA
ATOM      9  O   UNL     1      51.531  82.681  28.934  1.00  0.00    -0.550 OA
ENDBRANCH   6   7
ENDBRANCH   5   6
ENDBRANCH   4   5
ENDBRANCH   3   4
ENDBRANCH   2   3
ENDBRANCH   1   2
BRANCH   1  10
ATOM     10  C   UNL     1      55.349  82.669  32.593  1.00  0.00     0.000 C 
BRANCH  10  11
ATOM     11  C   UNL     1      56.097  83.999  32.417  1.00  0.00    -0.000 C 
BRANCH  11  12
ATOM     12  C   UNL     1      56.902  84.008  31.111  1.00  0.00    -0.000 C 
BRANCH  12  13
ATOM     13  C   UNL     1      56.153  84.770  30.007  1.00  0.00    -0.000 C 
BRANCH  13  14
ATOM     14  C   UNL     1      55.466  83.833  29.003  1.00  0.00    -0.000 C 
BRANCH  14  15
ATOM     15  C   UNL     1      56.102  82.436  28.965  1.00  0.00    -0.003 C 
ATOM     16  C   UNL     1      55.034  81.346  28.941  1.00  0.00     0.004 C 
ENDBRANCH  14  15
ENDBRANCH  13  14
ENDBRANCH  12  13
ENDBRANCH  11  12
ENDBRANCH  10  11
ENDBRANCH   1  10
TORSDOF 12
ENDMDL
MODEL 8
REMARK VINA RESULT:    -3.057     23.589     26.070
REMARK INTER + INTRA:          -6.198
REMARK INTER:                  -4.375
REMARK INTRA:                  -1.823
REMARK UNBOUND:                -0.995
REMARK SMILES CCCCCCCCCCCCCC(=O)[O-]
REMARK SMILES IDX 8 1 9 2 10 3 11 4 12 5 13 6 14 7 15 8 16 9 7 10 6 11 5 12
REMARK SMILES IDX 4 13 3 14 2 15 1 16
REMARK H PARENT
REMARK Flexibility Score: inf
ROOT
ATOM      1  C   UNL     1      53.722  83.719  32.214  1.00  0.00     0.000 C 
ENDROOT
BRANCH   1   2
ATOM      2  C   UNL     1      52.303  84.209  31.875  1.00  0.00     0.000 C 
BRANCH   2   3
ATOM      3  C   UNL     1      52.081  84.404  30.365  1.00  0.00     0.000 C 
BRANCH   3   4
ATOM      4  C   UNL     1      51.399  83.193  29.708  1.00  0.00     0.000 C 
BRANCH   4   5
ATOM      5  C   UNL     1      50.574  82.364  30.706  1.00  0.00     0.006 C 
BRANCH   5   6
ATOM      6  C   UNL     1      49.073  82.675  30.617  1.00  0.00     0.053 C 
BRANCH   6   7
ATOM      7  C   UNL     1      48.644  83.656  31.664  1.00  0.00     0.041 C 
ATOM      8  O   UNL     1      48.906  83.444  32.876  1.00  0.00    -0.550 OA
ATOM      9  O   UNL     1      47.981  84.821  31.297  1.00  0.00    -0.550 OA
ENDBRANCH   6   7
ENDBRANCH   5   6
ENDBRANCH   4   5
ENDBRANCH   3   4
ENDBRANCH   2   3
ENDBRANCH   1   2
BRANCH   1  10
ATOM     10  C   UNL     1      53.859  82.199  32.417  1.00  0.00     0.000 C 
BRANCH  10  11
ATOM     11  C   UNL     1      55.061  81.601  31.671  1.00  0.00    -0.000 C 
BRANCH  11  12
ATOM     12  C   UNL     1      54.786  81.515  30.165  1.00  0.00    -0.000 C 
BRANCH  12  13
ATOM     13  C   UNL     1      55.863  82.265  29.365  1.00  0.00    -0.000 C 
BRANCH  13  14
ATOM     14  C   UNL     1      55.413  83.670  28.939  1.00  0.00    -0.000 C 
BRANCH  14  15
ATOM     15  C   UNL     1      56.378  84.769  29.408  1.00  0.00    -0.003 C 
ATOM     16  C   UNL     1      57.295  84.258  30.516  1.00  0.00     0.004 C 
ENDBRANCH  14  15
ENDBRANCH  13  14
ENDBRANCH  12  13
ENDBRANCH  11  12
ENDBRANCH  10  11
ENDBRANCH   1  10
TORSDOF 12
ENDMDL
