MODEL 1
REMARK VINA RESULT:    -3.853      0.000      0.000
REMARK INTER + INTRA:          -3.853
REMARK INTER:                  -3.853
REMARK INTRA:                   0.000
REMARK UNBOUND:                 0.000
REMARK SMILES CC(C)=C1CC[C@@H](C)CC1=O
REMARK SMILES IDX 8 1 7 2 6 3 5 4 4 5 2 6 1 7 3 8 10 9 11 10 9 11
REMARK H PARENT
REMARK Flexibility Score: inf
ROOT
ATOM      1  C   UNL     1      78.249  14.939  -0.109  1.00  0.00     0.008 C 
ATOM      2  C   UNL     1      79.007  15.121   1.210  1.00  0.00    -0.006 C 
ATOM      3  C   UNL     1      78.483  14.145   2.275  1.00  0.00     0.008 C 
ATOM      4  C   UNL     1      79.297  14.243   3.571  1.00  0.00     0.039 C 
ATOM      5  C   UNL     1      79.403  15.672   4.089  1.00  0.00    -0.006 C 
ATOM      6  C   UNL     1      79.481  15.938   5.426  1.00  0.00    -0.070 C 
ATOM      7  C   UNL     1      79.485  14.824   6.448  1.00  0.00     0.039 C 
ATOM      8  C   UNL     1      79.529  17.354   5.954  1.00  0.00     0.039 C 
ATOM      9  C   UNL     1      79.531  16.737   3.050  1.00  0.00     0.159 C 
ATOM     10  O   UNL     1      80.192  17.788   3.268  1.00  0.00    -0.295 OA
ATOM     11  C   UNL     1      78.873  16.567   1.712  1.00  0.00     0.084 C 
ENDROOT
TORSDOF 0
ENDMDL
MODEL 2
REMARK VINA RESULT:    -3.639      1.368      4.141
REMARK INTER + INTRA:          -3.639
REMARK INTER:                  -3.639
REMARK INTRA:                   0.000
REMARK UNBOUND:                 0.000
REMARK SMILES CC(C)=C1CC[C@@H](C)CC1=O
REMARK SMILES IDX 8 1 7 2 6 3 5 4 4 5 2 6 1 7 3 8 10 9 11 10 9 11
REMARK H PARENT
REMARK Flexibility Score: inf
ROOT
ATOM      1  C   UNL     1      79.755  15.055   7.066  1.00  0.00     0.008 C 
ATOM      2  C   UNL     1      79.213  14.899   5.642  1.00  0.00    -0.006 C 
ATOM      3  C   UNL     1      80.212  14.130   4.762  1.00  0.00     0.008 C 
ATOM      4  C   UNL     1      79.642  13.876   3.361  1.00  0.00     0.039 C 
ATOM      5  C   UNL     1      79.137  15.150   2.696  1.00  0.00    -0.006 C 
ATOM      6  C   UNL     1      79.196  15.315   1.341  1.00  0.00    -0.070 C 
ATOM      7  C   UNL     1      79.747  14.231   0.443  1.00  0.00     0.039 C 
ATOM      8  C   UNL     1      78.751  16.597   0.675  1.00  0.00     0.039 C 
ATOM      9  C   UNL     1      78.478  16.143   3.596  1.00  0.00     0.159 C 
ATOM     10  O   UNL     1      77.541  16.879   3.184  1.00  0.00    -0.295 OA
ATOM     11  C   UNL     1      78.921  16.275   5.024  1.00  0.00     0.084 C 
ENDROOT
TORSDOF 0
ENDMDL
MODEL 3
REMARK VINA RESULT:    -3.420      2.152      3.295
REMARK INTER + INTRA:          -3.420
REMARK INTER:                  -3.420
REMARK INTRA:                   0.000
REMARK UNBOUND:                 0.000
REMARK SMILES CC(C)=C1CC[C@@H](C)CC1=O
REMARK SMILES IDX 8 1 7 2 6 3 5 4 4 5 2 6 1 7 3 8 10 9 11 10 9 11
REMARK H PARENT
REMARK Flexibility Score: inf
ROOT
ATOM      1  C   UNL     1      79.865  17.521   1.982  1.00  0.00     0.008 C 
ATOM      2  C   UNL     1      79.428  17.005   3.357  1.00  0.00    -0.006 C 
ATOM      3  C   UNL     1      80.094  17.819   4.478  1.00  0.00     0.008 C 
ATOM      4  C   UNL     1      79.590  17.383   5.859  1.00  0.00     0.039 C 
ATOM      5  C   UNL     1      79.711  15.880   6.078  1.00  0.00    -0.006 C 
ATOM      6  C   UNL     1      79.946  15.360   7.318  1.00  0.00    -0.070 C 
ATOM      7  C   UNL     1      80.077  16.254   8.531  1.00  0.00     0.039 C 
ATOM      8  C   UNL     1      80.123  13.875   7.538  1.00  0.00     0.039 C 
ATOM      9  C   UNL     1      79.443  15.021   4.886  1.00  0.00     0.159 C 
ATOM     10  O   UNL     1      78.928  13.877   5.005  1.00  0.00    -0.295 OA
ATOM     11  C   UNL     1      79.779  15.517   3.510  1.00  0.00     0.084 C 
ENDROOT
TORSDOF 0
ENDMDL
MODEL 4
REMARK VINA RESULT:    -3.382      1.882      2.640
REMARK INTER + INTRA:          -3.382
REMARK INTER:                  -3.382
REMARK INTRA:                   0.000
REMARK UNBOUND:                 0.000
REMARK SMILES CC(C)=C1CC[C@@H](C)CC1=O
REMARK SMILES IDX 8 1 7 2 6 3 5 4 4 5 2 6 1 7 3 8 10 9 11 10 9 11
REMARK H PARENT
REMARK Flexibility Score: inf
ROOT
ATOM      1  C   UNL     1      77.740  18.302   0.625  1.00  0.00     0.008 C 
ATOM      2  C   UNL     1      78.026  17.065   1.483  1.00  0.00    -0.006 C 
ATOM      3  C   UNL     1      78.033  17.432   2.976  1.00  0.00     0.008 C 
ATOM      4  C   UNL     1      78.216  16.189   3.856  1.00  0.00     0.039 C 
ATOM      5  C   UNL     1      79.430  15.361   3.451  1.00  0.00    -0.006 C 
ATOM      6  C   UNL     1      80.146  14.654   4.374  1.00  0.00    -0.070 C 
ATOM      7  C   UNL     1      79.753  14.647   5.834  1.00  0.00     0.039 C 
ATOM      8  C   UNL     1      81.385  13.875   3.994  1.00  0.00     0.039 C 
ATOM      9  C   UNL     1      79.710  15.281   1.986  1.00  0.00     0.159 C 
ATOM     10  O   UNL     1      80.224  14.252   1.473  1.00  0.00    -0.295 OA
ATOM     11  C   UNL     1      79.372  16.438   1.091  1.00  0.00     0.084 C 
ENDROOT
TORSDOF 0
ENDMDL
MODEL 5
REMARK VINA RESULT:    -3.007      1.499      4.624
REMARK INTER + INTRA:          -3.007
REMARK INTER:                  -3.007
REMARK INTRA:                   0.000
REMARK UNBOUND:                 0.000
REMARK SMILES CC(C)=C1CC[C@@H](C)CC1=O
REMARK SMILES IDX 8 1 7 2 6 3 5 4 4 5 2 6 1 7 3 8 10 9 11 10 9 11
REMARK H PARENT
REMARK Flexibility Score: inf
ROOT
ATOM      1  C   UNL     1      79.744  15.699   7.660  1.00  0.00     0.008 C 
ATOM      2  C   UNL     1      80.076  15.881   6.175  1.00  0.00    -0.006 C 
ATOM      3  C   UNL     1      79.362  17.118   5.608  1.00  0.00     0.008 C 
ATOM      4  C   UNL     1      79.763  17.375   4.150  1.00  0.00     0.039 C 
ATOM      5  C   UNL     1      79.586  16.143   3.270  1.00  0.00    -0.006 C 
ATOM      6  C   UNL     1      79.257  16.256   1.950  1.00  0.00    -0.070 C 
ATOM      7  C   UNL     1      79.073  17.608   1.300  1.00  0.00     0.039 C 
ATOM      8  C   UNL     1      79.024  15.040   1.081  1.00  0.00     0.039 C 
ATOM      9  C   UNL     1      79.906  14.831   3.908  1.00  0.00     0.159 C 
ATOM     10  O   UNL     1      80.380  13.875   3.237  1.00  0.00    -0.295 OA
ATOM     11  C   UNL     1      79.674  14.631   5.377  1.00  0.00     0.084 C 
ENDROOT
TORSDOF 0
ENDMDL
MODEL 6
REMARK VINA RESULT:    -2.960      1.749      4.554
REMARK INTER + INTRA:          -2.960
REMARK INTER:                  -2.960
REMARK INTRA:                   0.000
REMARK UNBOUND:                 0.000
REMARK SMILES CC(C)=C1CC[C@@H](C)CC1=O
REMARK SMILES IDX 8 1 7 2 6 3 5 4 4 5 2 6 1 7 3 8 10 9 11 10 9 11
REMARK H PARENT
REMARK Flexibility Score: inf
ROOT
ATOM      1  C   UNL     1      79.772  18.005   5.897  1.00  0.00     0.008 C 
ATOM      2  C   UNL     1      79.765  16.966   4.771  1.00  0.00    -0.006 C 
ATOM      3  C   UNL     1      79.745  17.655   3.398  1.00  0.00     0.008 C 
ATOM      4  C   UNL     1      79.840  16.633   2.258  1.00  0.00     0.039 C 
ATOM      5  C   UNL     1      78.795  15.530   2.374  1.00  0.00    -0.006 C 
ATOM      6  C   UNL     1      78.266  14.935   1.265  1.00  0.00    -0.070 C 
ATOM      7  C   UNL     1      78.710  15.331  -0.125  1.00  0.00     0.039 C 
ATOM      8  C   UNL     1      77.188  13.880   1.366  1.00  0.00     0.039 C 
ATOM      9  C   UNL     1      78.479  15.070   3.759  1.00  0.00     0.159 C 
ATOM     10  O   UNL     1      78.154  13.875   3.994  1.00  0.00    -0.295 OA
ATOM     11  C   UNL     1      78.551  16.034   4.908  1.00  0.00     0.084 C 
ENDROOT
TORSDOF 0
ENDMDL
MODEL 7
REMARK VINA RESULT:    -2.867      1.913      3.271
REMARK INTER + INTRA:          -2.867
REMARK INTER:                  -2.867
REMARK INTRA:                   0.000
REMARK UNBOUND:                 0.000
REMARK SMILES CC(C)=C1CC[C@@H](C)CC1=O
REMARK SMILES IDX 8 1 7 2 6 3 5 4 4 5 2 6 1 7 3 8 10 9 11 10 9 11
REMARK H PARENT
REMARK Flexibility Score: inf
ROOT
ATOM      1  C   UNL     1      81.106  19.505   1.407  1.00  0.00     0.008 C 
ATOM      2  C   UNL     1      80.141  18.619   2.201  1.00  0.00    -0.006 C 
ATOM      3  C   UNL     1      80.778  18.177   3.528  1.00  0.00     0.008 C 
ATOM      4  C   UNL     1      79.789  17.373   4.382  1.00  0.00     0.039 C 
ATOM      5  C   UNL     1      79.168  16.212   3.618  1.00  0.00    -0.006 C 
ATOM      6  C   UNL     1      78.811  15.055   4.250  1.00  0.00    -0.070 C 
ATOM      7  C   UNL     1      79.001  14.887   5.741  1.00  0.00     0.039 C 
ATOM      8  C   UNL     1      78.246  13.875   3.493  1.00  0.00     0.039 C 
ATOM      9  C   UNL     1      78.870  16.460   2.175  1.00  0.00     0.159 C 
ATOM     10  O   UNL     1      77.890  15.911   1.604  1.00  0.00    -0.295 OA
ATOM     11  C   UNL     1      79.741  17.385   1.376  1.00  0.00     0.084 C 
ENDROOT
TORSDOF 0
ENDMDL
MODEL 8
REMARK VINA RESULT:    -2.665      1.871      3.628
REMARK INTER + INTRA:          -2.665
REMARK INTER:                  -2.665
REMARK INTRA:                   0.000
REMARK UNBOUND:                 0.000
REMARK SMILES CC(C)=C1CC[C@@H](C)CC1=O
REMARK SMILES IDX 8 1 7 2 6 3 5 4 4 5 2 6 1 7 3 8 10 9 11 10 9 11
REMARK H PARENT
REMARK Flexibility Score: inf
ROOT
ATOM      1  C   UNL     1      80.636  19.511   1.749  1.00  0.00     0.008 C 
ATOM      2  C   UNL     1      80.302  18.017   1.777  1.00  0.00    -0.006 C 
ATOM      3  C   UNL     1      79.005  17.737   1.001  1.00  0.00     0.008 C 
ATOM      4  C   UNL     1      78.709  16.234   0.932  1.00  0.00     0.039 C 
ATOM      5  C   UNL     1      78.724  15.571   2.303  1.00  0.00    -0.006 C 
ATOM      6  C   UNL     1      77.919  14.505   2.585  1.00  0.00    -0.070 C 
ATOM      7  C   UNL     1      76.993  13.924   1.541  1.00  0.00     0.039 C 
ATOM      8  C   UNL     1      77.884  13.875   3.959  1.00  0.00     0.039 C 
ATOM      9  C   UNL     1      79.744  16.082   3.267  1.00  0.00     0.159 C 
ATOM     10  O   UNL     1      80.275  15.324   4.122  1.00  0.00    -0.295 OA
ATOM     11  C   UNL     1      80.164  17.523   3.226  1.00  0.00     0.084 C 
ENDROOT
TORSDOF 0
ENDMDL
