MODEL 1
REMARK VINA RESULT:    -2.118      0.000      0.000
REMARK INTER + INTRA:          -4.611
REMARK INTER:                  -3.851
REMARK INTRA:                  -0.761
REMARK UNBOUND:                -0.761
REMARK SMILES CCCCCCCCCCCCCCCC(=O)[O-]
REMARK SMILES IDX 9 1 10 2 11 3 12 4 13 5 14 6 15 7 16 8 17 9 18 10 8 11 7 12
REMARK SMILES IDX 6 13 5 14 4 15 3 16 2 17 1 18
REMARK H PARENT
REMARK Flexibility Score: inf
ROOT
ATOM      1  C   UNL     1     -29.512 -20.987 -20.337  1.00  0.00     0.000 C 
ENDROOT
BRANCH   1   2
ATOM      2  C   UNL     1     -30.768 -20.475 -21.064  1.00  0.00     0.000 C 
BRANCH   2   3
ATOM      3  C   UNL     1     -31.632 -21.621 -21.618  1.00  0.00     0.000 C 
BRANCH   3   4
ATOM      4  C   UNL     1     -31.846 -21.516 -23.138  1.00  0.00     0.000 C 
BRANCH   4   5
ATOM      5  C   UNL     1     -30.560 -21.143 -23.892  1.00  0.00     0.000 C 
BRANCH   5   6
ATOM      6  C   UNL     1     -30.728 -19.894 -24.771  1.00  0.00     0.006 C 
BRANCH   6   7
ATOM      7  C   UNL     1     -31.479 -20.229 -26.062  1.00  0.00     0.053 C 
BRANCH   7   8
ATOM      8  C   UNL     1     -31.110 -21.596 -26.544  1.00  0.00     0.041 C 
ATOM      9  O   UNL     1     -29.964 -21.812 -27.020  1.00  0.00    -0.550 OA
ATOM     10  O   UNL     1     -32.048 -22.621 -26.518  1.00  0.00    -0.550 OA
ENDBRANCH   7   8
ENDBRANCH   6   7
ENDBRANCH   5   6
ENDBRANCH   4   5
ENDBRANCH   3   4
ENDBRANCH   2   3
ENDBRANCH   1   2
BRANCH   1  11
ATOM     11  C   UNL     1     -29.118 -22.411 -20.765  1.00  0.00     0.000 C 
BRANCH  11  12
ATOM     12  C   UNL     1     -28.101 -23.058 -19.808  1.00  0.00    -0.000 C 
BRANCH  12  13
ATOM     13  C   UNL     1     -27.710 -22.128 -18.648  1.00  0.00    -0.000 C 
BRANCH  13  14
ATOM     14  C   UNL     1     -26.810 -22.818 -17.612  1.00  0.00    -0.000 C 
BRANCH  14  15
ATOM     15  C   UNL     1     -27.549 -23.010 -16.283  1.00  0.00    -0.000 C 
BRANCH  15  16
ATOM     16  C   UNL     1     -29.062 -23.124 -16.504  1.00  0.00    -0.000 C 
BRANCH  16  17
ATOM     17  C   UNL     1     -29.836 -22.569 -15.303  1.00  0.00    -0.003 C 
ATOM     18  C   UNL     1     -31.297 -23.012 -15.337  1.00  0.00     0.004 C 
ENDBRANCH  16  17
ENDBRANCH  15  16
ENDBRANCH  14  15
ENDBRANCH  13  14
ENDBRANCH  12  13
ENDBRANCH  11  12
ENDBRANCH   1  11
TORSDOF 14
ENDMDL
MODEL 2
REMARK VINA RESULT:    -1.911      3.917      7.416
REMARK INTER + INTRA:          -4.236
REMARK INTER:                  -2.856
REMARK INTRA:                  -1.380
REMARK UNBOUND:                -0.761
REMARK SMILES CCCCCCCCCCCCCCCC(=O)[O-]
REMARK SMILES IDX 9 1 10 2 11 3 12 4 13 5 14 6 15 7 16 8 17 9 18 10 8 11 7 12
REMARK SMILES IDX 6 13 5 14 4 15 3 16 2 17 1 18
REMARK H PARENT
REMARK Flexibility Score: inf
ROOT
ATOM      1  C   UNL     1     -32.498 -19.476 -22.122  1.00  0.00     0.000 C 
ENDROOT
BRANCH   1   2
ATOM      2  C   UNL     1     -32.397 -20.991 -21.869  1.00  0.00     0.000 C 
BRANCH   2   3
ATOM      3  C   UNL     1     -31.188 -21.360 -20.992  1.00  0.00     0.000 C 
BRANCH   3   4
ATOM      4  C   UNL     1     -30.723 -22.811 -21.209  1.00  0.00     0.000 C 
BRANCH   4   5
ATOM      5  C   UNL     1     -29.405 -23.125 -20.484  1.00  0.00     0.000 C 
BRANCH   5   6
ATOM      6  C   UNL     1     -29.157 -22.208 -19.277  1.00  0.00     0.006 C 
BRANCH   6   7
ATOM      7  C   UNL     1     -27.867 -22.598 -18.550  1.00  0.00     0.053 C 
BRANCH   7   8
ATOM      8  C   UNL     1     -28.136 -22.841 -17.098  1.00  0.00     0.041 C 
ATOM      9  O   UNL     1     -29.310 -22.769 -16.650  1.00  0.00    -0.550 OA
ATOM     10  O   UNL     1     -27.082 -23.095 -16.228  1.00  0.00    -0.550 OA
ENDBRANCH   7   8
ENDBRANCH   6   7
ENDBRANCH   5   6
ENDBRANCH   4   5
ENDBRANCH   3   4
ENDBRANCH   2   3
ENDBRANCH   1   2
BRANCH   1  11
ATOM     11  C   UNL     1     -32.892 -19.143 -23.571  1.00  0.00     0.000 C 
BRANCH  11  12
ATOM     12  C   UNL     1     -31.680 -19.090 -24.518  1.00  0.00    -0.000 C 
BRANCH  12  13
ATOM     13  C   UNL     1     -31.730 -20.182 -25.600  1.00  0.00    -0.000 C 
BRANCH  13  14
ATOM     14  C   UNL     1     -30.801 -21.366 -25.291  1.00  0.00    -0.000 C 
BRANCH  14  15
ATOM     15  C   UNL     1     -29.599 -20.917 -24.452  1.00  0.00    -0.000 C 
BRANCH  15  16
ATOM     16  C   UNL     1     -28.847 -22.122 -23.876  1.00  0.00    -0.000 C 
BRANCH  16  17
ATOM     17  C   UNL     1     -27.566 -21.679 -23.159  1.00  0.00    -0.003 C 
ATOM     18  C   UNL     1     -26.950 -22.831 -22.370  1.00  0.00     0.004 C 
ENDBRANCH  16  17
ENDBRANCH  15  16
ENDBRANCH  14  15
ENDBRANCH  13  14
ENDBRANCH  12  13
ENDBRANCH  11  12
ENDBRANCH   1  11
TORSDOF 14
ENDMDL
MODEL 3
REMARK VINA RESULT:    -1.891      4.048      7.586
REMARK INTER + INTRA:          -4.199
REMARK INTER:                  -2.831
REMARK INTRA:                  -1.368
REMARK UNBOUND:                -0.761
REMARK SMILES CCCCCCCCCCCCCCCC(=O)[O-]
REMARK SMILES IDX 9 1 10 2 11 3 12 4 13 5 14 6 15 7 16 8 17 9 18 10 8 11 7 12
REMARK SMILES IDX 6 13 5 14 4 15 3 16 2 17 1 18
REMARK H PARENT
REMARK Flexibility Score: inf
ROOT
ATOM      1  C   UNL     1     -29.077 -21.826 -24.006  1.00  0.00     0.000 C 
ENDROOT
BRANCH   1   2
ATOM      2  C   UNL     1     -28.220 -21.600 -22.748  1.00  0.00     0.000 C 
BRANCH   2   3
ATOM      3  C   UNL     1     -27.992 -22.897 -21.953  1.00  0.00     0.000 C 
BRANCH   3   4
ATOM      4  C   UNL     1     -28.795 -22.933 -20.641  1.00  0.00     0.000 C 
BRANCH   4   5
ATOM      5  C   UNL     1     -28.770 -21.590 -19.895  1.00  0.00     0.000 C 
BRANCH   5   6
ATOM      6  C   UNL     1     -28.245 -21.719 -18.456  1.00  0.00     0.006 C 
BRANCH   6   7
ATOM      7  C   UNL     1     -28.682 -23.047 -17.831  1.00  0.00     0.053 C 
BRANCH   7   8
ATOM      8  C   UNL     1     -28.351 -23.074 -16.372  1.00  0.00     0.041 C 
ATOM      9  O   UNL     1     -29.272 -23.055 -15.514  1.00  0.00    -0.550 OA
ATOM     10  O   UNL     1     -27.025 -23.068 -15.958  1.00  0.00    -0.550 OA
ENDBRANCH   7   8
ENDBRANCH   6   7
ENDBRANCH   5   6
ENDBRANCH   4   5
ENDBRANCH   3   4
ENDBRANCH   2   3
ENDBRANCH   1   2
BRANCH   1  11
ATOM     11  C   UNL     1     -29.538 -20.509 -24.653  1.00  0.00     0.000 C 
BRANCH  11  12
ATOM     12  C   UNL     1     -30.639 -20.720 -25.707  1.00  0.00    -0.000 C 
BRANCH  12  13
ATOM     13  C   UNL     1     -32.048 -20.465 -25.147  1.00  0.00    -0.000 C 
BRANCH  13  14
ATOM     14  C   UNL     1     -32.070 -19.359 -24.080  1.00  0.00    -0.000 C 
BRANCH  14  15
ATOM     15  C   UNL     1     -33.205 -19.589 -23.075  1.00  0.00    -0.000 C 
BRANCH  15  16
ATOM     16  C   UNL     1     -32.671 -19.625 -21.639  1.00  0.00    -0.000 C 
BRANCH  16  17
ATOM     17  C   UNL     1     -31.501 -20.608 -21.512  1.00  0.00    -0.003 C 
ATOM     18  C   UNL     1     -31.931 -22.027 -21.871  1.00  0.00     0.004 C 
ENDBRANCH  16  17
ENDBRANCH  15  16
ENDBRANCH  14  15
ENDBRANCH  13  14
ENDBRANCH  12  13
ENDBRANCH  11  12
ENDBRANCH   1  11
TORSDOF 14
ENDMDL
MODEL 4
REMARK VINA RESULT:    -1.589      2.498      3.699
REMARK INTER + INTRA:          -3.650
REMARK INTER:                  -3.439
REMARK INTRA:                  -0.211
REMARK UNBOUND:                -0.761
REMARK SMILES CCCCCCCCCCCCCCCC(=O)[O-]
REMARK SMILES IDX 9 1 10 2 11 3 12 4 13 5 14 6 15 7 16 8 17 9 18 10 8 11 7 12
REMARK SMILES IDX 6 13 5 14 4 15 3 16 2 17 1 18
REMARK H PARENT
REMARK Flexibility Score: inf
ROOT
ATOM      1  C   UNL     1     -28.122 -21.381 -23.506  1.00  0.00     0.000 C 
ENDROOT
BRANCH   1   2
ATOM      2  C   UNL     1     -29.501 -21.325 -24.185  1.00  0.00     0.000 C 
BRANCH   2   3
ATOM      3  C   UNL     1     -29.488 -20.478 -25.470  1.00  0.00     0.000 C 
BRANCH   3   4
ATOM      4  C   UNL     1     -30.835 -20.513 -26.213  1.00  0.00     0.000 C 
BRANCH   4   5
ATOM      5  C   UNL     1     -32.029 -20.706 -25.266  1.00  0.00     0.000 C 
BRANCH   5   6
ATOM      6  C   UNL     1     -31.916 -19.862 -23.987  1.00  0.00     0.006 C 
BRANCH   6   7
ATOM      7  C   UNL     1     -32.529 -20.596 -22.791  1.00  0.00     0.053 C 
BRANCH   7   8
ATOM      8  C   UNL     1     -32.208 -19.882 -21.516  1.00  0.00     0.041 C 
ATOM      9  O   UNL     1     -31.344 -20.350 -20.728  1.00  0.00    -0.550 OA
ATOM     10  O   UNL     1     -32.901 -18.728 -21.170  1.00  0.00    -0.550 OA
ENDBRANCH   7   8
ENDBRANCH   6   7
ENDBRANCH   5   6
ENDBRANCH   4   5
ENDBRANCH   3   4
ENDBRANCH   2   3
ENDBRANCH   1   2
BRANCH   1  11
ATOM     11  C   UNL     1     -28.056 -22.431 -22.384  1.00  0.00     0.000 C 
BRANCH  11  12
ATOM     12  C   UNL     1     -29.409 -23.123 -22.140  1.00  0.00    -0.000 C 
BRANCH  12  13
ATOM     13  C   UNL     1     -29.822 -23.103 -20.658  1.00  0.00    -0.000 C 
BRANCH  13  14
ATOM     14  C   UNL     1     -28.789 -22.401 -19.764  1.00  0.00    -0.000 C 
BRANCH  14  15
ATOM     15  C   UNL     1     -28.673 -23.101 -18.404  1.00  0.00    -0.000 C 
BRANCH  15  16
ATOM     16  C   UNL     1     -27.276 -22.913 -17.804  1.00  0.00    -0.000 C 
BRANCH  16  17
ATOM     17  C   UNL     1     -27.305 -23.081 -16.280  1.00  0.00    -0.003 C 
ATOM     18  C   UNL     1     -28.732 -22.994 -15.744  1.00  0.00     0.004 C 
ENDBRANCH  16  17
ENDBRANCH  15  16
ENDBRANCH  14  15
ENDBRANCH  13  14
ENDBRANCH  12  13
ENDBRANCH  11  12
ENDBRANCH   1  11
TORSDOF 14
ENDMDL
MODEL 5
REMARK VINA RESULT:    -1.196      2.478      6.612
REMARK INTER + INTRA:          -2.936
REMARK INTER:                  -2.117
REMARK INTRA:                  -0.818
REMARK UNBOUND:                -0.761
REMARK SMILES CCCCCCCCCCCCCCCC(=O)[O-]
REMARK SMILES IDX 9 1 10 2 11 3 12 4 13 5 14 6 15 7 16 8 17 9 18 10 8 11 7 12
REMARK SMILES IDX 6 13 5 14 4 15 3 16 2 17 1 18
REMARK H PARENT
REMARK Flexibility Score: inf
ROOT
ATOM      1  C   UNL     1     -27.178 -23.047 -20.692  1.00  0.00     0.000 C 
ENDROOT
BRANCH   1   2
ATOM      2  C   UNL     1     -28.645 -23.123 -20.234  1.00  0.00     0.000 C 
BRANCH   2   3
ATOM      3  C   UNL     1     -28.846 -22.564 -18.815  1.00  0.00     0.000 C 
BRANCH   3   4
ATOM      4  C   UNL     1     -28.697 -21.034 -18.756  1.00  0.00     0.000 C 
BRANCH   4   5
ATOM      5  C   UNL     1     -29.109 -20.349 -20.068  1.00  0.00     0.000 C 
BRANCH   5   6
ATOM      6  C   UNL     1     -30.598 -19.971 -20.098  1.00  0.00     0.006 C 
BRANCH   6   7
ATOM      7  C   UNL     1     -31.365 -20.849 -21.092  1.00  0.00     0.053 C 
BRANCH   7   8
ATOM      8  C   UNL     1     -32.451 -20.064 -21.757  1.00  0.00     0.041 C 
ATOM      9  O   UNL     1     -32.814 -18.955 -21.282  1.00  0.00    -0.550 OA
ATOM     10  O   UNL     1     -33.101 -20.580 -22.872  1.00  0.00    -0.550 OA
ENDBRANCH   7   8
ENDBRANCH   6   7
ENDBRANCH   5   6
ENDBRANCH   4   5
ENDBRANCH   3   4
ENDBRANCH   2   3
ENDBRANCH   1   2
BRANCH   1  11
ATOM     11  C   UNL     1     -27.030 -23.096 -22.222  1.00  0.00     0.000 C 
BRANCH  11  12
ATOM     12  C   UNL     1     -28.346 -22.783 -22.954  1.00  0.00    -0.000 C 
BRANCH  12  13
ATOM     13  C   UNL     1     -28.588 -21.272 -23.111  1.00  0.00    -0.000 C 
BRANCH  13  14
ATOM     14  C   UNL     1     -29.058 -20.891 -24.524  1.00  0.00    -0.000 C 
BRANCH  14  15
ATOM     15  C   UNL     1     -30.555 -21.173 -24.699  1.00  0.00    -0.000 C 
BRANCH  15  16
ATOM     16  C   UNL     1     -31.193 -20.178 -25.675  1.00  0.00    -0.000 C 
BRANCH  16  17
ATOM     17  C   UNL     1     -31.191 -20.731 -27.104  1.00  0.00    -0.003 C 
ATOM     18  C   UNL     1     -30.788 -22.203 -27.125  1.00  0.00     0.004 C 
ENDBRANCH  16  17
ENDBRANCH  15  16
ENDBRANCH  14  15
ENDBRANCH  13  14
ENDBRANCH  12  13
ENDBRANCH  11  12
ENDBRANCH   1  11
TORSDOF 14
ENDMDL
MODEL 6
REMARK VINA RESULT:    -1.175      2.223      3.536
REMARK INTER + INTRA:          -2.898
REMARK INTER:                  -2.035
REMARK INTRA:                  -0.863
REMARK UNBOUND:                -0.761
REMARK SMILES CCCCCCCCCCCCCCCC(=O)[O-]
REMARK SMILES IDX 9 1 10 2 11 3 12 4 13 5 14 6 15 7 16 8 17 9 18 10 8 11 7 12
REMARK SMILES IDX 6 13 5 14 4 15 3 16 2 17 1 18
REMARK H PARENT
REMARK Flexibility Score: inf
ROOT
ATOM      1  C   UNL     1     -31.953 -20.509 -22.103  1.00  0.00     0.000 C 
ENDROOT
BRANCH   1   2
ATOM      2  C   UNL     1     -32.617 -20.030 -23.406  1.00  0.00     0.000 C 
BRANCH   2   3
ATOM      3  C   UNL     1     -31.599 -19.455 -24.406  1.00  0.00     0.000 C 
BRANCH   3   4
ATOM      4  C   UNL     1     -31.480 -20.307 -25.682  1.00  0.00     0.000 C 
BRANCH   4   5
ATOM      5  C   UNL     1     -30.453 -21.441 -25.542  1.00  0.00     0.000 C 
BRANCH   5   6
ATOM      6  C   UNL     1     -29.355 -21.126 -24.514  1.00  0.00     0.006 C 
BRANCH   6   7
ATOM      7  C   UNL     1     -29.002 -22.369 -23.693  1.00  0.00     0.053 C 
BRANCH   7   8
ATOM      8  C   UNL     1     -27.649 -22.220 -23.070  1.00  0.00     0.041 C 
ATOM      9  O   UNL     1     -26.874 -21.304 -23.451  1.00  0.00    -0.550 OA
ATOM     10  O   UNL     1     -27.223 -23.125 -22.105  1.00  0.00    -0.550 OA
ENDBRANCH   7   8
ENDBRANCH   6   7
ENDBRANCH   5   6
ENDBRANCH   4   5
ENDBRANCH   3   4
ENDBRANCH   2   3
ENDBRANCH   1   2
BRANCH   1  11
ATOM     11  C   UNL     1     -31.779 -22.036 -22.054  1.00  0.00     0.000 C 
BRANCH  11  12
ATOM     12  C   UNL     1     -30.741 -22.481 -21.009  1.00  0.00    -0.000 C 
BRANCH  12  13
ATOM     13  C   UNL     1     -30.155 -21.298 -20.219  1.00  0.00    -0.000 C 
BRANCH  13  14
ATOM     14  C   UNL     1     -28.738 -21.577 -19.697  1.00  0.00    -0.000 C 
BRANCH  14  15
ATOM     15  C   UNL     1     -28.649 -22.972 -19.066  1.00  0.00    -0.000 C 
BRANCH  15  16
ATOM     16  C   UNL     1     -29.333 -23.001 -17.695  1.00  0.00    -0.000 C 
BRANCH  16  17
ATOM     17  C   UNL     1     -28.299 -23.106 -16.568  1.00  0.00    -0.003 C 
ATOM     18  C   UNL     1     -26.896 -22.783 -17.075  1.00  0.00     0.004 C 
ENDBRANCH  16  17
ENDBRANCH  15  16
ENDBRANCH  14  15
ENDBRANCH  13  14
ENDBRANCH  12  13
ENDBRANCH  11  12
ENDBRANCH   1  11
TORSDOF 14
ENDMDL
MODEL 7
REMARK VINA RESULT:    -1.131      1.470      2.810
REMARK INTER + INTRA:          -2.818
REMARK INTER:                  -3.103
REMARK INTRA:                   0.285
REMARK UNBOUND:                -0.761
REMARK SMILES CCCCCCCCCCCCCCCC(=O)[O-]
REMARK SMILES IDX 9 1 10 2 11 3 12 4 13 5 14 6 15 7 16 8 17 9 18 10 8 11 7 12
REMARK SMILES IDX 6 13 5 14 4 15 3 16 2 17 1 18
REMARK H PARENT
REMARK Flexibility Score: inf
ROOT
ATOM      1  C   UNL     1     -30.336 -20.964 -20.456  1.00  0.00     0.000 C 
ENDROOT
BRANCH   1   2
ATOM      2  C   UNL     1     -31.201 -19.780 -20.923  1.00  0.00     0.000 C 
BRANCH   2   3
ATOM      3  C   UNL     1     -32.576 -20.229 -21.447  1.00  0.00     0.000 C 
BRANCH   3   4
ATOM      4  C   UNL     1     -33.184 -19.226 -22.443  1.00  0.00     0.000 C 
BRANCH   4   5
ATOM      5  C   UNL     1     -32.675 -19.433 -23.877  1.00  0.00     0.000 C 
BRANCH   5   6
ATOM      6  C   UNL     1     -32.041 -20.816 -24.090  1.00  0.00     0.006 C 
BRANCH   6   7
ATOM      7  C   UNL     1     -30.715 -20.700 -24.846  1.00  0.00     0.053 C 
BRANCH   7   8
ATOM      8  C   UNL     1     -30.804 -21.387 -26.172  1.00  0.00     0.041 C 
ATOM      9  O   UNL     1     -30.060 -21.030 -27.123  1.00  0.00    -0.550 OA
ATOM     10  O   UNL     1     -31.747 -22.388 -26.376  1.00  0.00    -0.550 OA
ENDBRANCH   7   8
ENDBRANCH   6   7
ENDBRANCH   5   6
ENDBRANCH   4   5
ENDBRANCH   3   4
ENDBRANCH   2   3
ENDBRANCH   1   2
BRANCH   1  11
ATOM     11  C   UNL     1     -30.881 -22.320 -20.932  1.00  0.00     0.000 C 
BRANCH  11  12
ATOM     12  C   UNL     1     -30.015 -22.952 -22.037  1.00  0.00    -0.000 C 
BRANCH  12  13
ATOM     13  C   UNL     1     -28.845 -22.048 -22.457  1.00  0.00    -0.000 C 
BRANCH  13  14
ATOM     14  C   UNL     1     -27.498 -22.788 -22.470  1.00  0.00    -0.000 C 
BRANCH  14  15
ATOM     15  C   UNL     1     -27.000 -23.046 -21.043  1.00  0.00    -0.000 C 
BRANCH  15  16
ATOM     16  C   UNL     1     -28.169 -23.125 -20.056  1.00  0.00    -0.000 C 
BRANCH  16  17
ATOM     17  C   UNL     1     -27.667 -23.108 -18.607  1.00  0.00    -0.003 C 
ATOM     18  C   UNL     1     -28.685 -22.450 -17.679  1.00  0.00     0.004 C 
ENDBRANCH  16  17
ENDBRANCH  15  16
ENDBRANCH  14  15
ENDBRANCH  13  14
ENDBRANCH  12  13
ENDBRANCH  11  12
ENDBRANCH   1  11
TORSDOF 14
ENDMDL
MODEL 8
REMARK VINA RESULT:    -0.842      3.814      8.221
REMARK INTER + INTRA:          -2.292
REMARK INTER:                  -1.277
REMARK INTRA:                  -1.015
REMARK UNBOUND:                -0.761
REMARK SMILES CCCCCCCCCCCCCCCC(=O)[O-]
REMARK SMILES IDX 9 1 10 2 11 3 12 4 13 5 14 6 15 7 16 8 17 9 18 10 8 11 7 12
REMARK SMILES IDX 6 13 5 14 4 15 3 16 2 17 1 18
REMARK H PARENT
REMARK Flexibility Score: inf
ROOT
ATOM      1  C   UNL     1     -31.590 -20.807 -21.068  1.00  0.00     0.000 C 
ENDROOT
BRANCH   1   2
ATOM      2  C   UNL     1     -31.839 -22.316 -20.898  1.00  0.00     0.000 C 
BRANCH   2   3
ATOM      3  C   UNL     1     -30.531 -23.125 -20.853  1.00  0.00     0.000 C 
BRANCH   3   4
ATOM      4  C   UNL     1     -29.354 -22.379 -21.506  1.00  0.00     0.000 C 
BRANCH   4   5
ATOM      5  C   UNL     1     -28.118 -22.312 -20.596  1.00  0.00     0.000 C 
BRANCH   5   6
ATOM      6  C   UNL     1     -28.333 -23.015 -19.247  1.00  0.00     0.006 C 
BRANCH   6   7
ATOM      7  C   UNL     1     -27.981 -22.085 -18.083  1.00  0.00     0.053 C 
BRANCH   7   8
ATOM      8  C   UNL     1     -28.273 -22.749 -16.774  1.00  0.00     0.041 C 
ATOM      9  O   UNL     1     -29.464 -22.927 -16.405  1.00  0.00    -0.550 OA
ATOM     10  O   UNL     1     -27.231 -23.123 -15.935  1.00  0.00    -0.550 OA
ENDBRANCH   7   8
ENDBRANCH   6   7
ENDBRANCH   5   6
ENDBRANCH   4   5
ENDBRANCH   3   4
ENDBRANCH   2   3
ENDBRANCH   1   2
BRANCH   1  11
ATOM     11  C   UNL     1     -32.374 -20.207 -22.247  1.00  0.00     0.000 C 
BRANCH  11  12
ATOM     12  C   UNL     1     -31.712 -20.494 -23.606  1.00  0.00    -0.000 C 
BRANCH  12  13
ATOM     13  C   UNL     1     -31.839 -19.315 -24.585  1.00  0.00    -0.000 C 
BRANCH  13  14
ATOM     14  C   UNL     1     -31.533 -19.713 -26.037  1.00  0.00    -0.000 C 
BRANCH  14  15
ATOM     15  C   UNL     1     -30.187 -20.440 -26.135  1.00  0.00    -0.000 C 
BRANCH  15  16
ATOM     16  C   UNL     1     -30.292 -21.675 -27.037  1.00  0.00    -0.000 C 
BRANCH  16  17
ATOM     17  C   UNL     1     -31.736 -22.185 -27.105  1.00  0.00    -0.003 C 
ATOM     18  C   UNL     1     -32.067 -23.067 -25.904  1.00  0.00     0.004 C 
ENDBRANCH  16  17
ENDBRANCH  15  16
ENDBRANCH  14  15
ENDBRANCH  13  14
ENDBRANCH  12  13
ENDBRANCH  11  12
ENDBRANCH   1  11
TORSDOF 14
ENDMDL
MODEL 9
REMARK VINA RESULT:    -0.620      1.915      4.504
REMARK INTER + INTRA:          -1.887
REMARK INTER:                  -1.271
REMARK INTRA:                  -0.617
REMARK UNBOUND:                -0.761
REMARK SMILES CCCCCCCCCCCCCCCC(=O)[O-]
REMARK SMILES IDX 9 1 10 2 11 3 12 4 13 5 14 6 15 7 16 8 17 9 18 10 8 11 7 12
REMARK SMILES IDX 6 13 5 14 4 15 3 16 2 17 1 18
REMARK H PARENT
REMARK Flexibility Score: inf
ROOT
ATOM      1  C   UNL     1     -27.586 -22.274 -19.999  1.00  0.00     0.000 C 
ENDROOT
BRANCH   1   2
ATOM      2  C   UNL     1     -26.956 -23.125 -21.115  1.00  0.00     0.000 C 
BRANCH   2   3
ATOM      3  C   UNL     1     -27.745 -23.040 -22.433  1.00  0.00     0.000 C 
BRANCH   3   4
ATOM      4  C   UNL     1     -27.266 -21.887 -23.333  1.00  0.00     0.000 C 
BRANCH   4   5
ATOM      5  C   UNL     1     -28.407 -20.946 -23.747  1.00  0.00     0.000 C 
BRANCH   5   6
ATOM      6  C   UNL     1     -29.605 -21.694 -24.353  1.00  0.00     0.006 C 
BRANCH   6   7
ATOM      7  C   UNL     1     -30.693 -20.714 -24.800  1.00  0.00     0.053 C 
BRANCH   7   8
ATOM      8  C   UNL     1     -30.809 -20.702 -26.292  1.00  0.00     0.041 C 
ATOM      9  O   UNL     1     -31.375 -19.741 -26.876  1.00  0.00    -0.550 OA
ATOM     10  O   UNL     1     -30.339 -21.778 -27.036  1.00  0.00    -0.550 OA
ENDBRANCH   7   8
ENDBRANCH   6   7
ENDBRANCH   5   6
ENDBRANCH   4   5
ENDBRANCH   3   4
ENDBRANCH   2   3
ENDBRANCH   1   2
BRANCH   1  11
ATOM     11  C   UNL     1     -28.308 -23.124 -18.940  1.00  0.00     0.000 C 
BRANCH  11  12
ATOM     12  C   UNL     1     -29.835 -22.932 -18.966  1.00  0.00    -0.000 C 
BRANCH  12  13
ATOM     13  C   UNL     1     -30.421 -23.063 -20.382  1.00  0.00    -0.000 C 
BRANCH  13  14
ATOM     14  C   UNL     1     -30.428 -21.730 -21.147  1.00  0.00    -0.000 C 
BRANCH  14  15
ATOM     15  C   UNL     1     -31.862 -21.261 -21.420  1.00  0.00    -0.000 C 
BRANCH  15  16
ATOM     16  C   UNL     1     -32.033 -19.779 -21.066  1.00  0.00    -0.000 C 
BRANCH  16  17
ATOM     17  C   UNL     1     -32.840 -19.047 -22.145  1.00  0.00    -0.003 C 
ATOM     18  C   UNL     1     -33.666 -20.026 -22.975  1.00  0.00     0.004 C 
ENDBRANCH  16  17
ENDBRANCH  15  16
ENDBRANCH  14  15
ENDBRANCH  13  14
ENDBRANCH  12  13
ENDBRANCH  11  12
ENDBRANCH   1  11
TORSDOF 14
ENDMDL
