MODEL 1
REMARK VINA RESULT:    -3.459      0.000      0.000
REMARK INTER + INTRA:          -3.560
REMARK INTER:                  -3.560
REMARK INTRA:                   0.000
REMARK UNBOUND:                 0.000
REMARK SMILES CC1(C)[C@H]2CC[C@]1(C)[C@H](O)C2
REMARK SMILES IDX 1 1 2 2 4 3 5 4 6 5 7 6 9 7 11 8 8 9 3 10 10 11
REMARK H PARENT 10 12
REMARK Flexibility Score: inf
ROOT
ATOM      1  C   UNL     1       0.074   2.542  -7.612  1.00  0.00     0.012 C 
ATOM      2  C   UNL     1      -0.025   3.691  -6.560  1.00  0.00    -0.025 C 
ATOM      3  C   UNL     1       1.283   3.941  -5.792  1.00  0.00    -0.002 C 
ATOM      4  C   UNL     1       0.884   5.009  -4.745  1.00  0.00     0.005 C 
ATOM      5  C   UNL     1      -0.560   4.611  -4.384  1.00  0.00     0.010 C 
ATOM      6  C   UNL     1      -0.795   3.350  -5.263  1.00  0.00    -0.001 C 
ATOM      7  C   UNL     1       0.052   2.190  -4.657  1.00  0.00     0.121 C 
ATOM      8  C   UNL     1       1.496   2.624  -5.002  1.00  0.00     0.036 C 
ATOM      9  C   UNL     1      -2.277   2.998  -5.438  1.00  0.00     0.015 C 
ATOM     10  C   UNL     1      -0.545   4.939  -7.342  1.00  0.00     0.012 C 
ENDROOT
BRANCH   7  11
ATOM     11  O   UNL     1      -0.136   2.065  -3.270  1.00  0.00    -0.393 OA
ATOM     12  H   UNL     1       0.652   1.571  -2.923  1.00  0.00     0.210 HD
ENDBRANCH   7  11
TORSDOF 1
ENDMDL
MODEL 2
REMARK VINA RESULT:    -3.398     12.884     14.191
REMARK INTER + INTRA:          -3.498
REMARK INTER:                  -3.498
REMARK INTRA:                   0.000
REMARK UNBOUND:                 0.000
REMARK SMILES CC1(C)[C@H]2CC[C@]1(C)[C@H](O)C2
REMARK SMILES IDX 1 1 2 2 4 3 5 4 6 5 7 6 9 7 11 8 8 9 3 10 10 11
REMARK H PARENT 10 12
REMARK Flexibility Score: inf
ROOT
ATOM      1  C   UNL     1       0.387  -0.440   7.826  1.00  0.00     0.012 C 
ATOM      2  C   UNL     1      -0.705   0.344   8.619  1.00  0.00    -0.025 C 
ATOM      3  C   UNL     1      -2.141  -0.113   8.312  1.00  0.00    -0.002 C 
ATOM      4  C   UNL     1      -3.012   0.890   9.106  1.00  0.00     0.005 C 
ATOM      5  C   UNL     1      -2.214   2.203   8.989  1.00  0.00     0.010 C 
ATOM      6  C   UNL     1      -0.991   1.782   8.126  1.00  0.00    -0.001 C 
ATOM      7  C   UNL     1      -1.500   1.550   6.671  1.00  0.00     0.121 C 
ATOM      8  C   UNL     1      -2.324   0.248   6.816  1.00  0.00     0.036 C 
ATOM      9  C   UNL     1       0.183   2.764   8.213  1.00  0.00     0.015 C 
ATOM     10  C   UNL     1      -0.310   0.216  10.125  1.00  0.00     0.012 C 
ENDROOT
BRANCH   7  11
ATOM     11  O   UNL     1      -2.291   2.616   6.209  1.00  0.00    -0.393 OA
ATOM     12  H   UNL     1      -1.736   3.435   6.293  1.00  0.00     0.210 HD
ENDBRANCH   7  11
TORSDOF 1
ENDMDL
MODEL 3
REMARK VINA RESULT:    -3.347     12.701     13.988
REMARK INTER + INTRA:          -3.445
REMARK INTER:                  -3.445
REMARK INTRA:                   0.000
REMARK UNBOUND:                 0.000
REMARK SMILES CC1(C)[C@H]2CC[C@]1(C)[C@H](O)C2
REMARK SMILES IDX 1 1 2 2 4 3 5 4 6 5 7 6 9 7 11 8 8 9 3 10 10 11
REMARK H PARENT 10 12
REMARK Flexibility Score: inf
ROOT
ATOM      1  C   UNL     1      -2.550  -0.696   8.651  1.00  0.00     0.012 C 
ATOM      2  C   UNL     1      -1.405   0.360   8.566  1.00  0.00    -0.025 C 
ATOM      3  C   UNL     1      -1.716   1.672   9.307  1.00  0.00    -0.002 C 
ATOM      4  C   UNL     1      -0.507   2.573   8.959  1.00  0.00     0.005 C 
ATOM      5  C   UNL     1      -0.181   2.165   7.509  1.00  0.00     0.010 C 
ATOM      6  C   UNL     1      -1.262   1.088   7.209  1.00  0.00    -0.001 C 
ATOM      7  C   UNL     1      -2.630   1.822   7.068  1.00  0.00     0.121 C 
ATOM      8  C   UNL     1      -2.923   2.251   8.525  1.00  0.00     0.036 C 
ATOM      9  C   UNL     1      -0.918   0.200   6.007  1.00  0.00     0.015 C 
ATOM     10  C   UNL     1      -0.120  -0.364   9.079  1.00  0.00     0.012 C 
ENDROOT
BRANCH   7  11
ATOM     11  O   UNL     1      -2.552   2.929   6.206  1.00  0.00    -0.393 OA
ATOM     12  H   UNL     1      -2.104   3.653   6.718  1.00  0.00     0.210 HD
ENDBRANCH   7  11
TORSDOF 1
ENDMDL
MODEL 4
REMARK VINA RESULT:    -3.322      1.133      2.863
REMARK INTER + INTRA:          -3.419
REMARK INTER:                  -3.419
REMARK INTRA:                   0.000
REMARK UNBOUND:                 0.000
REMARK SMILES CC1(C)[C@H]2CC[C@]1(C)[C@H](O)C2
REMARK SMILES IDX 1 1 2 2 4 3 5 4 6 5 7 6 9 7 11 8 8 9 3 10 10 11
REMARK H PARENT 10 12
REMARK Flexibility Score: inf
ROOT
ATOM      1  C   UNL     1       0.509   5.520  -4.208  1.00  0.00     0.012 C 
ATOM      2  C   UNL     1       0.408   4.659  -5.506  1.00  0.00    -0.025 C 
ATOM      3  C   UNL     1      -1.028   4.506  -6.036  1.00  0.00    -0.002 C 
ATOM      4  C   UNL     1      -0.867   3.520  -7.219  1.00  0.00     0.005 C 
ATOM      5  C   UNL     1       0.244   2.573  -6.728  1.00  0.00     0.010 C 
ATOM      6  C   UNL     1       0.565   3.132  -5.313  1.00  0.00    -0.001 C 
ATOM      7  C   UNL     1      -0.635   2.778  -4.383  1.00  0.00     0.121 C 
ATOM      8  C   UNL     1      -1.746   3.715  -4.913  1.00  0.00     0.036 C 
ATOM      9  C   UNL     1       1.920   2.664  -4.767  1.00  0.00     0.015 C 
ATOM     10  C   UNL     1       1.391   5.313  -6.527  1.00  0.00     0.012 C 
ENDROOT
BRANCH   7  11
ATOM     11  O   UNL     1      -1.003   1.426  -4.484  1.00  0.00    -0.393 OA
ATOM     12  H   UNL     1      -1.981   1.387  -4.318  1.00  0.00     0.210 HD
ENDBRANCH   7  11
TORSDOF 1
ENDMDL
MODEL 5
REMARK VINA RESULT:    -3.320      1.507      2.978
REMARK INTER + INTRA:          -3.417
REMARK INTER:                  -3.417
REMARK INTRA:                   0.000
REMARK UNBOUND:                 0.000
REMARK SMILES CC1(C)[C@H]2CC[C@]1(C)[C@H](O)C2
REMARK SMILES IDX 1 1 2 2 4 3 5 4 6 5 7 6 9 7 11 8 8 9 3 10 10 11
REMARK H PARENT 10 12
REMARK Flexibility Score: inf
ROOT
ATOM      1  C   UNL     1       0.094   5.426  -5.497  1.00  0.00     0.012 C 
ATOM      2  C   UNL     1      -1.095   4.775  -6.270  1.00  0.00    -0.025 C 
ATOM      3  C   UNL     1      -2.419   4.782  -5.487  1.00  0.00    -0.002 C 
ATOM      4  C   UNL     1      -3.377   3.977  -6.399  1.00  0.00     0.005 C 
ATOM      5  C   UNL     1      -2.450   2.907  -7.008  1.00  0.00     0.010 C 
ATOM      6  C   UNL     1      -1.079   3.231  -6.349  1.00  0.00    -0.001 C 
ATOM      7  C   UNL     1      -1.166   2.809  -4.851  1.00  0.00     0.121 C 
ATOM      8  C   UNL     1      -2.124   3.874  -4.266  1.00  0.00     0.036 C 
ATOM      9  C   UNL     1       0.113   2.612  -7.090  1.00  0.00     0.015 C 
ATOM     10  C   UNL     1      -1.169   5.519  -7.641  1.00  0.00     0.012 C 
ENDROOT
BRANCH   7  11
ATOM     11  O   UNL     1      -1.677   1.509  -4.695  1.00  0.00    -0.393 OA
ATOM     12  H   UNL     1      -1.909   1.412  -3.734  1.00  0.00     0.210 HD
ENDBRANCH   7  11
TORSDOF 1
ENDMDL
MODEL 6
REMARK VINA RESULT:    -3.280      1.590      2.689
REMARK INTER + INTRA:          -3.375
REMARK INTER:                  -3.375
REMARK INTRA:                   0.000
REMARK UNBOUND:                 0.000
REMARK SMILES CC1(C)[C@H]2CC[C@]1(C)[C@H](O)C2
REMARK SMILES IDX 1 1 2 2 4 3 5 4 6 5 7 6 9 7 11 8 8 9 3 10 10 11
REMARK H PARENT 10 12
REMARK Flexibility Score: inf
ROOT
ATOM      1  C   UNL     1      -0.951   5.777  -6.428  1.00  0.00     0.012 C 
ATOM      2  C   UNL     1      -0.482   4.561  -5.570  1.00  0.00    -0.025 C 
ATOM      3  C   UNL     1       0.170   3.438  -6.394  1.00  0.00    -0.002 C 
ATOM      4  C   UNL     1       0.413   2.323  -5.347  1.00  0.00     0.005 C 
ATOM      5  C   UNL     1      -0.807   2.455  -4.417  1.00  0.00     0.010 C 
ATOM      6  C   UNL     1      -1.603   3.623  -5.064  1.00  0.00    -0.001 C 
ATOM      7  C   UNL     1      -2.228   3.089  -6.389  1.00  0.00     0.121 C 
ATOM      8  C   UNL     1      -0.985   2.934  -7.297  1.00  0.00     0.036 C 
ATOM      9  C   UNL     1      -2.629   4.259  -4.118  1.00  0.00     0.015 C 
ATOM     10  C   UNL     1       0.448   5.154  -4.465  1.00  0.00     0.012 C 
ENDROOT
BRANCH   7  11
ATOM     11  O   UNL     1      -2.894   1.866  -6.206  1.00  0.00    -0.393 OA
ATOM     12  H   UNL     1      -3.659   2.050  -5.601  1.00  0.00     0.210 HD
ENDBRANCH   7  11
TORSDOF 1
ENDMDL
MODEL 7
REMARK VINA RESULT:    -3.277     12.720     13.987
REMARK INTER + INTRA:          -3.373
REMARK INTER:                  -3.373
REMARK INTRA:                   0.000
REMARK UNBOUND:                 0.000
REMARK SMILES CC1(C)[C@H]2CC[C@]1(C)[C@H](O)C2
REMARK SMILES IDX 1 1 2 2 4 3 5 4 6 5 7 6 9 7 11 8 8 9 3 10 10 11
REMARK H PARENT 10 12
REMARK Flexibility Score: inf
ROOT
ATOM      1  C   UNL     1      -2.850   0.731   9.648  1.00  0.00     0.012 C 
ATOM      2  C   UNL     1      -2.118   0.346   8.325  1.00  0.00    -0.025 C 
ATOM      3  C   UNL     1      -0.698  -0.202   8.539  1.00  0.00    -0.002 C 
ATOM      4  C   UNL     1      -0.160  -0.372   7.098  1.00  0.00     0.005 C 
ATOM      5  C   UNL     1      -0.791   0.820   6.353  1.00  0.00     0.010 C 
ATOM      6  C   UNL     1      -1.600   1.531   7.475  1.00  0.00    -0.001 C 
ATOM      7  C   UNL     1      -0.576   2.216   8.431  1.00  0.00     0.121 C 
ATOM      8  C   UNL     1       0.068   1.003   9.144  1.00  0.00     0.036 C 
ATOM      9  C   UNL     1      -2.671   2.489   6.940  1.00  0.00     0.015 C 
ATOM     10  C   UNL     1      -3.072  -0.645   7.585  1.00  0.00     0.012 C 
ENDROOT
BRANCH   7  11
ATOM     11  O   UNL     1       0.378   2.974   7.731  1.00  0.00    -0.393 OA
ATOM     12  H   UNL     1       0.259   2.757   6.769  1.00  0.00     0.210 HD
ENDBRANCH   7  11
TORSDOF 1
ENDMDL
MODEL 8
REMARK VINA RESULT:    -3.276     12.579     13.871
REMARK INTER + INTRA:          -3.372
REMARK INTER:                  -3.372
REMARK INTRA:                   0.000
REMARK UNBOUND:                 0.000
REMARK SMILES CC1(C)[C@H]2CC[C@]1(C)[C@H](O)C2
REMARK SMILES IDX 1 1 2 2 4 3 5 4 6 5 7 6 9 7 11 8 8 9 3 10 10 11
REMARK H PARENT 10 12
REMARK Flexibility Score: inf
ROOT
ATOM      1  C   UNL     1      -0.444   2.447   8.993  1.00  0.00     0.012 C 
ATOM      2  C   UNL     1      -1.538   1.361   8.750  1.00  0.00    -0.025 C 
ATOM      3  C   UNL     1      -0.973  -0.058   8.572  1.00  0.00    -0.002 C 
ATOM      4  C   UNL     1      -2.224  -0.898   8.218  1.00  0.00     0.005 C 
ATOM      5  C   UNL     1      -3.065   0.078   7.374  1.00  0.00     0.010 C 
ATOM      6  C   UNL     1      -2.174   1.352   7.340  1.00  0.00    -0.001 C 
ATOM      7  C   UNL     1      -0.956   1.049   6.416  1.00  0.00     0.121 C 
ATOM      8  C   UNL     1      -0.142   0.045   7.267  1.00  0.00     0.036 C 
ATOM      9  C   UNL     1      -2.940   2.621   6.945  1.00  0.00     0.015 C 
ATOM     10  C   UNL     1      -2.541   1.495   9.939  1.00  0.00     0.012 C 
ENDROOT
BRANCH   7  11
ATOM     11  O   UNL     1      -1.348   0.492   5.187  1.00  0.00    -0.393 OA
ATOM     12  H   UNL     1      -2.205   0.928   4.941  1.00  0.00     0.210 HD
ENDBRANCH   7  11
TORSDOF 1
ENDMDL
MODEL 9
REMARK VINA RESULT:    -3.167      1.851      2.923
REMARK INTER + INTRA:          -3.260
REMARK INTER:                  -3.260
REMARK INTRA:                   0.000
REMARK UNBOUND:                 0.000
REMARK SMILES CC1(C)[C@H]2CC[C@]1(C)[C@H](O)C2
REMARK SMILES IDX 1 1 2 2 4 3 5 4 6 5 7 6 9 7 11 8 8 9 3 10 10 11
REMARK H PARENT 10 12
REMARK Flexibility Score: inf
ROOT
ATOM      1  C   UNL     1      -2.451   5.814  -6.289  1.00  0.00     0.012 C 
ATOM      2  C   UNL     1      -2.105   4.630  -5.333  1.00  0.00    -0.025 C 
ATOM      3  C   UNL     1      -0.639   4.616  -4.871  1.00  0.00    -0.002 C 
ATOM      4  C   UNL     1      -0.531   3.299  -4.065  1.00  0.00     0.005 C 
ATOM      5  C   UNL     1      -1.463   2.346  -4.839  1.00  0.00     0.010 C 
ATOM      6  C   UNL     1      -1.972   3.243  -6.004  1.00  0.00    -0.001 C 
ATOM      7  C   UNL     1      -0.784   3.451  -6.991  1.00  0.00     0.121 C 
ATOM      8  C   UNL     1       0.152   4.382  -6.184  1.00  0.00     0.036 C 
ATOM      9  C   UNL     1      -3.239   2.702  -6.678  1.00  0.00     0.015 C 
ATOM     10  C   UNL     1      -3.135   4.714  -4.162  1.00  0.00     0.012 C 
ENDROOT
BRANCH   7  11
ATOM     11  O   UNL     1      -0.152   2.241  -7.325  1.00  0.00    -0.393 OA
ATOM     12  H   UNL     1       0.548   2.464  -7.992  1.00  0.00     0.210 HD
ENDBRANCH   7  11
TORSDOF 1
ENDMDL
