MODEL 1
REMARK VINA RESULT:    -4.635      0.000      0.000
REMARK INTER + INTRA:          -6.310
REMARK INTER:                  -6.532
REMARK INTRA:                   0.222
REMARK UNBOUND:                 0.222
REMARK SMILES CC1=CCC(=C(C)C)C(=O)CC(C)=CCC1
REMARK SMILES IDX 12 1 14 2 13 3 15 4 16 5 2 6 1 7 3 8 11 10 9 11 10 12 5 13
REMARK SMILES IDX 6 14 7 15 8 16 4 17
REMARK H PARENT
REMARK Flexibility Score: 60.00
ROOT
ATOM      1  C   UNL     1      25.795  56.421  11.072  1.00  0.00    -0.070 C 
ATOM      2  C   UNL     1      24.714  56.415  10.261  1.00  0.00    -0.027 C 
ATOM      3  C   UNL     1      25.785  57.359  12.252  1.00  0.00     0.039 C 
ENDROOT
BRANCH   2   4
ATOM      4  C   UNL     1      24.575  55.620   8.981  1.00  0.00     0.032 C 
BRANCH   4   5
ATOM      5  C   UNL     1      24.328  54.110   9.179  1.00  0.00     0.034 C 
BRANCH   5   6
ATOM      6  C   UNL     1      25.290  53.239   8.393  1.00  0.00    -0.077 C 
ATOM      7  C   UNL     1      25.241  53.321   6.887  1.00  0.00     0.039 C 
ATOM      8  C   UNL     1      26.141  52.343   8.951  1.00  0.00    -0.023 CG0
ATOM      9  G   UNL     1      26.374  52.101  10.430  1.00  0.00     0.000 G0
ENDBRANCH   5   6
ENDBRANCH   4   5
ENDBRANCH   2   4
BRANCH   1  10
ATOM     10  C   UNL     1      27.041  55.603  10.802  1.00  0.00     0.111 C 
BRANCH  10  11
ATOM     11  C   UNL     1      27.037  54.311  11.576  1.00  0.00     0.163 C 
ATOM     12  O   UNL     1      26.691  54.346  12.787  1.00  0.00    -0.294 OA
BRANCH  11  13
ATOM     13  C   UNL     1      27.485  53.018  10.977  1.00  0.00    -0.002 C 
ATOM     14  C   UNL     1      28.817  52.729  10.854  1.00  0.00    -0.069 C 
ATOM     15  C   UNL     1      29.305  51.505  10.113  1.00  0.00     0.039 C 
ATOM     16  C   UNL     1      29.873  53.630  11.457  1.00  0.00     0.039 C 
BRANCH  13  17
ATOM     17  C   UNL     1      26.409  52.094  10.432  1.00  0.00     0.066 CG0
ATOM     18  G   UNL     1      26.138  52.331   8.958  1.00  0.00     0.000 G0
ENDBRANCH  13  17
ENDBRANCH  11  13
ENDBRANCH  10  11
ENDBRANCH   1  10
TORSDOF 0
ENDMDL
MODEL 2
REMARK VINA RESULT:    -4.634      7.438      8.970
REMARK INTER + INTRA:          -6.308
REMARK INTER:                  -6.525
REMARK INTRA:                   0.218
REMARK UNBOUND:                 0.222
REMARK SMILES CC1=CCC(=C(C)C)C(=O)CC(C)=CCC1
REMARK SMILES IDX 12 1 14 2 13 3 15 4 16 5 2 6 1 7 3 8 11 10 9 11 10 12 5 13
REMARK SMILES IDX 6 14 7 15 8 16 4 17
REMARK H PARENT
REMARK Flexibility Score: 60.00
ROOT
ATOM      1  C   UNL     1      24.628  50.394  18.835  1.00  0.00    -0.070 C 
ATOM      2  C   UNL     1      25.392  49.607  18.045  1.00  0.00    -0.027 C 
ATOM      3  C   UNL     1      24.839  50.314  20.326  1.00  0.00     0.039 C 
ENDROOT
BRANCH   2   4
ATOM      4  C   UNL     1      25.264  49.473  16.543  1.00  0.00     0.032 C 
BRANCH   4   5
ATOM      5  C   UNL     1      25.694  50.720  15.743  1.00  0.00     0.034 C 
BRANCH   5   6
ATOM      6  C   UNL     1      26.933  51.393  16.306  1.00  0.00    -0.077 C 
ATOM      7  C   UNL     1      28.245  50.656  16.194  1.00  0.00     0.039 C 
ATOM      8  C   UNL     1      26.927  52.578  16.964  1.00  0.00    -0.023 CG0
ATOM      9  G   UNL     1      25.741  53.498  17.181  1.00  0.00     0.000 G0
ENDBRANCH   5   6
ENDBRANCH   4   5
ENDBRANCH   2   4
BRANCH   1  10
ATOM     10  C   UNL     1      23.518  51.278  18.303  1.00  0.00     0.111 C 
BRANCH  10  11
ATOM     11  C   UNL     1      23.755  52.728  18.633  1.00  0.00     0.163 C 
ATOM     12  O   UNL     1      22.757  53.443  18.918  1.00  0.00    -0.294 OA
BRANCH  11  13
ATOM     13  C   UNL     1      25.111  53.352  18.573  1.00  0.00    -0.002 C 
ATOM     14  C   UNL     1      25.716  53.818  19.707  1.00  0.00    -0.069 C 
ATOM     15  C   UNL     1      27.014  54.594  19.661  1.00  0.00     0.039 C 
ATOM     16  C   UNL     1      25.111  53.579  21.074  1.00  0.00     0.039 C 
BRANCH  13  17
ATOM     17  C   UNL     1      25.735  53.528  17.199  1.00  0.00     0.066 CG0
ATOM     18  G   UNL     1      26.897  52.583  16.967  1.00  0.00     0.000 G0
ENDBRANCH  13  17
ENDBRANCH  11  13
ENDBRANCH  10  11
ENDBRANCH   1  10
TORSDOF 0
ENDMDL
MODEL 3
REMARK VINA RESULT:    -4.510      6.135      8.386
REMARK INTER + INTRA:          -6.134
REMARK INTER:                  -6.304
REMARK INTRA:                   0.170
REMARK UNBOUND:                 0.222
REMARK SMILES CC1=CCC(=C(C)C)C(=O)CC(C)=CCC1
REMARK SMILES IDX 12 1 14 2 13 3 15 4 16 5 2 6 1 7 3 8 11 10 9 11 10 12 5 13
REMARK SMILES IDX 6 14 7 15 8 16 4 17
REMARK H PARENT
REMARK Flexibility Score: 60.00
ROOT
ATOM      1  C   UNL     1      29.286  49.034  16.241  1.00  0.00    -0.070 C 
ATOM      2  C   UNL     1      30.259  49.957  16.081  1.00  0.00    -0.027 C 
ATOM      3  C   UNL     1      29.441  47.714  15.529  1.00  0.00     0.039 C 
ENDROOT
BRANCH   2   4
ATOM      4  C   UNL     1      30.239  51.367  16.631  1.00  0.00     0.032 C 
BRANCH   4   5
ATOM      5  C   UNL     1      29.745  52.441  15.640  1.00  0.00     0.034 C 
BRANCH   5   6
ATOM      6  C   UNL     1      28.783  53.435  16.267  1.00  0.00    -0.077 C 
ATOM      7  C   UNL     1      29.371  54.589  17.041  1.00  0.00     0.039 C 
ATOM      8  C   UNL     1      27.433  53.315  16.237  1.00  0.00    -0.023 CG0
ATOM      9  G   UNL     1      26.625  52.256  15.513  1.00  0.00     0.000 G0
ENDBRANCH   5   6
ENDBRANCH   4   5
ENDBRANCH   2   4
BRANCH   1  10
ATOM     10  C   UNL     1      28.014  49.293  17.022  1.00  0.00     0.111 C 
BRANCH  10  11
ATOM     11  C   UNL     1      26.906  49.791  16.132  1.00  0.00     0.163 C 
ATOM     12  O   UNL     1      26.601  49.102  15.122  1.00  0.00    -0.294 OA
BRANCH  11  13
ATOM     13  C   UNL     1      26.210  51.092  16.370  1.00  0.00    -0.002 C 
ATOM     14  C   UNL     1      25.193  51.183  17.280  1.00  0.00    -0.069 C 
ATOM     15  C   UNL     1      24.366  52.440  17.431  1.00  0.00     0.039 C 
ATOM     16  C   UNL     1      24.843  50.021  18.184  1.00  0.00     0.039 C 
BRANCH  13  17
ATOM     17  C   UNL     1      26.616  52.268  15.497  1.00  0.00     0.066 CG0
ATOM     18  G   UNL     1      27.426  53.299  16.259  1.00  0.00     0.000 G0
ENDBRANCH  13  17
ENDBRANCH  11  13
ENDBRANCH  10  11
ENDBRANCH   1  10
TORSDOF 0
ENDMDL
MODEL 4
REMARK VINA RESULT:    -4.493      1.702      3.571
REMARK INTER + INTRA:          -6.109
REMARK INTER:                  -6.412
REMARK INTRA:                   0.303
REMARK UNBOUND:                 0.222
REMARK SMILES CC1=CCC(=C(C)C)C(=O)CC(C)=CCC1
REMARK SMILES IDX 12 1 14 2 13 3 15 4 16 5 2 6 1 7 3 8 11 10 9 11 10 12 5 13
REMARK SMILES IDX 6 14 7 15 8 16 4 17
REMARK H PARENT
REMARK Flexibility Score: 60.00
ROOT
ATOM      1  C   UNL     1      24.080  54.905   9.256  1.00  0.00    -0.070 C 
ATOM      2  C   UNL     1      24.445  56.041   9.890  1.00  0.00    -0.027 C 
ATOM      3  C   UNL     1      22.612  54.688   8.988  1.00  0.00     0.039 C 
ENDROOT
BRANCH   2   4
ATOM      4  C   UNL     1      25.848  56.395  10.333  1.00  0.00     0.032 C 
BRANCH   4   5
ATOM      5  C   UNL     1      26.129  56.176  11.834  1.00  0.00     0.034 C 
BRANCH   5   6
ATOM      6  C   UNL     1      27.521  55.636  12.109  1.00  0.00    -0.077 C 
ATOM      7  C   UNL     1      28.643  56.633  12.259  1.00  0.00     0.039 C 
ATOM      8  C   UNL     1      27.833  54.318  12.159  1.00  0.00    -0.023 CG0
ATOM      9  G   UNL     1      26.876  53.146  12.053  1.00  0.00     0.000 G0
ENDBRANCH   5   6
ENDBRANCH   4   5
ENDBRANCH   2   4
BRANCH   1  10
ATOM     10  C   UNL     1      25.058  53.809   8.887  1.00  0.00     0.111 C 
BRANCH  10  11
ATOM     11  C   UNL     1      25.300  52.869  10.038  1.00  0.00     0.163 C 
ATOM     12  O   UNL     1      24.306  52.287  10.550  1.00  0.00    -0.294 OA
BRANCH  11  13
ATOM     13  C   UNL     1      26.656  52.655  10.626  1.00  0.00    -0.002 C 
ATOM     14  C   UNL     1      27.624  51.988   9.927  1.00  0.00    -0.069 C 
ATOM     15  C   UNL     1      28.951  51.617  10.551  1.00  0.00     0.039 C 
ATOM     16  C   UNL     1      27.410  51.582   8.484  1.00  0.00     0.039 C 
BRANCH  13  17
ATOM     17  C   UNL     1      26.878  53.124  12.055  1.00  0.00     0.066 CG0
ATOM     18  G   UNL     1      27.815  54.313  12.133  1.00  0.00     0.000 G0
ENDBRANCH  13  17
ENDBRANCH  11  13
ENDBRANCH  10  11
ENDBRANCH   1  10
TORSDOF 0
ENDMDL
MODEL 5
REMARK VINA RESULT:    -4.483      1.725      4.202
REMARK INTER + INTRA:          -6.095
REMARK INTER:                  -6.184
REMARK INTRA:                   0.089
REMARK UNBOUND:                 0.222
REMARK SMILES CC1=CCC(=C(C)C)C(=O)CC(C)=CCC1
REMARK SMILES IDX 12 1 14 2 13 3 15 4 16 5 2 6 1 7 3 8 11 10 9 11 10 12 5 13
REMARK SMILES IDX 6 14 7 15 8 16 4 17
REMARK H PARENT
REMARK Flexibility Score: 60.00
ROOT
ATOM      1  C   UNL     1      29.047  57.151  11.451  1.00  0.00    -0.070 C 
ATOM      2  C   UNL     1      30.093  56.342  11.728  1.00  0.00    -0.027 C 
ATOM      3  C   UNL     1      29.002  58.501  12.122  1.00  0.00     0.039 C 
ENDROOT
BRANCH   2   4
ATOM      4  C   UNL     1      30.267  54.922  11.234  1.00  0.00     0.032 C 
BRANCH   4   5
ATOM      5  C   UNL     1      29.609  53.843  12.118  1.00  0.00     0.034 C 
BRANCH   5   6
ATOM      6  C   UNL     1      28.778  52.848  11.327  1.00  0.00    -0.077 C 
ATOM      7  C   UNL     1      29.512  51.808  10.518  1.00  0.00     0.039 C 
ATOM      8  C   UNL     1      27.425  52.876  11.245  1.00  0.00    -0.023 CG0
ATOM      9  G   UNL     1      26.484  53.811  11.979  1.00  0.00     0.000 G0
ENDBRANCH   5   6
ENDBRANCH   4   5
ENDBRANCH   2   4
BRANCH   1  10
ATOM     10  C   UNL     1      27.882  56.735  10.576  1.00  0.00     0.111 C 
BRANCH  10  11
ATOM     11  C   UNL     1      26.701  56.290  11.397  1.00  0.00     0.163 C 
ATOM     12  O   UNL     1      26.328  57.027  12.349  1.00  0.00    -0.294 OA
BRANCH  11  13
ATOM     13  C   UNL     1      26.006  54.989  11.162  1.00  0.00    -0.002 C 
ATOM     14  C   UNL     1      24.948  54.908  10.299  1.00  0.00    -0.069 C 
ATOM     15  C   UNL     1      24.125  53.647  10.157  1.00  0.00     0.039 C 
ATOM     16  C   UNL     1      24.546  56.087   9.439  1.00  0.00     0.039 C 
BRANCH  13  17
ATOM     17  C   UNL     1      26.462  53.797  11.987  1.00  0.00     0.066 CG0
ATOM     18  G   UNL     1      27.429  52.908  11.231  1.00  0.00     0.000 G0
ENDBRANCH  13  17
ENDBRANCH  11  13
ENDBRANCH  10  11
ENDBRANCH   1  10
TORSDOF 0
ENDMDL
MODEL 6
REMARK VINA RESULT:    -4.461      5.696      7.564
REMARK INTER + INTRA:          -6.065
REMARK INTER:                  -6.487
REMARK INTRA:                   0.421
REMARK UNBOUND:                 0.222
REMARK SMILES CC1=CCC(=C(C)C)C(=O)CC(C)=CCC1
REMARK SMILES IDX 12 1 14 2 13 3 15 4 16 5 2 6 1 7 3 8 11 10 9 11 10 12 5 13
REMARK SMILES IDX 6 14 7 15 8 16 4 17
REMARK H PARENT
REMARK Flexibility Score: 60.00
ROOT
ATOM      1  C   UNL     1      27.233  51.073  13.908  1.00  0.00    -0.070 C 
ATOM      2  C   UNL     1      27.492  52.234  14.550  1.00  0.00    -0.027 C 
ATOM      3  C   UNL     1      27.809  50.888  12.527  1.00  0.00     0.039 C 
ENDROOT
BRANCH   2   4
ATOM      4  C   UNL     1      26.929  52.645  15.893  1.00  0.00     0.032 C 
BRANCH   4   5
ATOM      5  C   UNL     1      27.908  52.506  17.077  1.00  0.00     0.034 C 
BRANCH   5   6
ATOM      6  C   UNL     1      29.319  52.151  16.646  1.00  0.00    -0.077 C 
ATOM      7  C   UNL     1      30.215  53.273  16.184  1.00  0.00     0.039 C 
ATOM      8  C   UNL     1      29.804  50.886  16.582  1.00  0.00    -0.023 CG0
ATOM      9  G   UNL     1      29.098  49.614  17.007  1.00  0.00     0.000 G0
ENDBRANCH   5   6
ENDBRANCH   4   5
ENDBRANCH   2   4
BRANCH   1  10
ATOM     10  C   UNL     1      26.325  49.998  14.468  1.00  0.00     0.111 C 
BRANCH  10  11
ATOM     11  C   UNL     1      26.857  49.437  15.760  1.00  0.00     0.163 C 
ATOM     12  O   UNL     1      26.089  49.412  16.758  1.00  0.00    -0.294 OA
BRANCH  11  13
ATOM     13  C   UNL     1      28.269  48.974  15.910  1.00  0.00    -0.002 C 
ATOM     14  C   UNL     1      28.758  47.960  15.132  1.00  0.00    -0.069 C 
ATOM     15  C   UNL     1      30.128  47.362  15.365  1.00  0.00     0.039 C 
ATOM     16  C   UNL     1      27.945  47.382  13.995  1.00  0.00     0.039 C 
BRANCH  13  17
ATOM     17  C   UNL     1      29.096  49.607  17.016  1.00  0.00     0.066 CG0
ATOM     18  G   UNL     1      29.800  50.870  16.560  1.00  0.00     0.000 G0
ENDBRANCH  13  17
ENDBRANCH  11  13
ENDBRANCH  10  11
ENDBRANCH   1  10
TORSDOF 0
ENDMDL
MODEL 7
REMARK VINA RESULT:    -4.461      1.607      3.567
REMARK INTER + INTRA:          -6.064
REMARK INTER:                  -6.642
REMARK INTRA:                   0.578
REMARK UNBOUND:                 0.222
REMARK SMILES CC1=CCC(=C(C)C)C(=O)CC(C)=CCC1
REMARK SMILES IDX 12 1 14 2 13 3 15 4 16 5 2 6 1 7 3 8 11 10 9 11 10 12 5 13
REMARK SMILES IDX 6 14 7 15 8 16 4 17
REMARK H PARENT
REMARK Flexibility Score: 60.00
ROOT
ATOM      1  C   UNL     1      27.509  52.088  10.196  1.00  0.00    -0.070 C 
ATOM      2  C   UNL     1      27.382  51.871   8.869  1.00  0.00    -0.027 C 
ATOM      3  C   UNL     1      28.893  52.336  10.741  1.00  0.00     0.039 C 
ENDROOT
BRANCH   2   4
ATOM      4  C   UNL     1      26.099  51.511   8.151  1.00  0.00     0.032 C 
BRANCH   4   5
ATOM      5  C   UNL     1      25.348  52.706   7.528  1.00  0.00     0.034 C 
BRANCH   5   6
ATOM      6  C   UNL     1      24.262  53.265   8.429  1.00  0.00    -0.077 C 
ATOM      7  C   UNL     1      22.877  52.679   8.306  1.00  0.00     0.039 C 
ATOM      8  C   UNL     1      24.438  54.300   9.287  1.00  0.00    -0.023 CG0
ATOM      9  G   UNL     1      25.733  55.028   9.589  1.00  0.00     0.000 G0
ENDBRANCH   5   6
ENDBRANCH   4   5
ENDBRANCH   2   4
BRANCH   1  10
ATOM     10  C   UNL     1      26.349  52.004  11.168  1.00  0.00     0.111 C 
BRANCH  10  11
ATOM     11  C   UNL     1      25.845  53.371  11.551  1.00  0.00     0.163 C 
ATOM     12  O   UNL     1      24.920  53.445  12.403  1.00  0.00    -0.294 OA
BRANCH  11  13
ATOM     13  C   UNL     1      26.358  54.621  10.915  1.00  0.00    -0.002 C 
ATOM     14  C   UNL     1      27.290  55.396  11.549  1.00  0.00    -0.069 C 
ATOM     15  C   UNL     1      27.712  56.744  11.008  1.00  0.00     0.039 C 
ATOM     16  C   UNL     1      27.946  54.939  12.834  1.00  0.00     0.039 C 
BRANCH  13  17
ATOM     17  C   UNL     1      25.734  55.036   9.593  1.00  0.00     0.066 CG0
ATOM     18  G   UNL     1      24.445  54.292   9.305  1.00  0.00     0.000 G0
ENDBRANCH  13  17
ENDBRANCH  11  13
ENDBRANCH  10  11
ENDBRANCH   1  10
TORSDOF 0
ENDMDL
MODEL 8
REMARK VINA RESULT:    -4.276      6.967      8.427
REMARK INTER + INTRA:          -5.804
REMARK INTER:                  -5.924
REMARK INTRA:                   0.120
REMARK UNBOUND:                 0.222
REMARK SMILES CC1=CCC(=C(C)C)C(=O)CC(C)=CCC1
REMARK SMILES IDX 12 1 14 2 13 3 15 4 16 5 2 6 1 7 3 8 11 10 9 11 10 12 5 13
REMARK SMILES IDX 6 14 7 15 8 16 4 17
REMARK H PARENT
REMARK Flexibility Score: 60.00
ROOT
ATOM      1  C   UNL     1      27.799  53.627  17.053  1.00  0.00    -0.070 C 
ATOM      2  C   UNL     1      28.592  52.691  16.487  1.00  0.00    -0.027 C 
ATOM      3  C   UNL     1      28.464  54.771  17.776  1.00  0.00     0.039 C 
ENDROOT
BRANCH   2   4
ATOM      4  C   UNL     1      28.118  51.426  15.805  1.00  0.00     0.032 C 
BRANCH   4   5
ATOM      5  C   UNL     1      27.769  50.267  16.761  1.00  0.00     0.034 C 
BRANCH   5   6
ATOM      6  C   UNL     1      26.448  49.596  16.430  1.00  0.00    -0.077 C 
ATOM      7  C   UNL     1      26.360  48.818  15.140  1.00  0.00     0.039 C 
ATOM      8  C   UNL     1      25.325  49.708  17.180  1.00  0.00    -0.023 CG0
ATOM      9  G   UNL     1      25.181  50.418  18.512  1.00  0.00     0.000 G0
ENDBRANCH   5   6
ENDBRANCH   4   5
ENDBRANCH   2   4
BRANCH   1  10
ATOM     10  C   UNL     1      26.287  53.535  17.072  1.00  0.00     0.111 C 
BRANCH  10  11
ATOM     11  C   UNL     1      25.784  52.910  18.347  1.00  0.00     0.163 C 
ATOM     12  O   UNL     1      26.331  53.251  19.431  1.00  0.00    -0.294 OA
BRANCH  11  13
ATOM     13  C   UNL     1      24.716  51.867  18.361  1.00  0.00    -0.002 C 
ATOM     14  C   UNL     1      23.395  52.219  18.324  1.00  0.00    -0.069 C 
ATOM     15  C   UNL     1      22.290  51.200  18.495  1.00  0.00     0.039 C 
ATOM     16  C   UNL     1      22.972  53.656  18.111  1.00  0.00     0.039 C 
BRANCH  13  17
ATOM     17  C   UNL     1      25.158  50.420  18.512  1.00  0.00     0.066 CG0
ATOM     18  G   UNL     1      25.322  49.724  17.176  1.00  0.00     0.000 G0
ENDBRANCH  13  17
ENDBRANCH  11  13
ENDBRANCH  10  11
ENDBRANCH   1  10
TORSDOF 0
ENDMDL
MODEL 9
REMARK VINA RESULT:    -4.271      1.776      3.619
REMARK INTER + INTRA:          -5.797
REMARK INTER:                  -6.954
REMARK INTRA:                   1.157
REMARK UNBOUND:                 0.222
REMARK SMILES CC1=CCC(=C(C)C)C(=O)CC(C)=CCC1
REMARK SMILES IDX 12 1 14 2 13 3 15 4 16 5 2 6 1 7 3 8 11 10 9 11 10 12 5 13
REMARK SMILES IDX 6 14 7 15 8 16 4 17
REMARK H PARENT
REMARK Flexibility Score: 60.00
ROOT
ATOM      1  C   UNL     1      24.906  51.961   7.929  1.00  0.00    -0.070 C 
ATOM      2  C   UNL     1      24.402  52.905   7.104  1.00  0.00    -0.027 C 
ATOM      3  C   UNL     1      23.998  50.832   8.348  1.00  0.00     0.039 C 
ENDROOT
BRANCH   2   4
ATOM      4  C   UNL     1      25.120  54.158   6.652  1.00  0.00     0.032 C 
BRANCH   4   5
ATOM      5  C   UNL     1      24.850  55.407   7.517  1.00  0.00     0.034 C 
BRANCH   5   6
ATOM      6  C   UNL     1      24.207  55.080   8.853  1.00  0.00    -0.077 C 
ATOM      7  C   UNL     1      22.707  54.924   8.891  1.00  0.00     0.039 C 
ATOM      8  C   UNL     1      24.883  54.988  10.024  1.00  0.00    -0.023 CG0
ATOM      9  G   UNL     1      26.383  55.091  10.226  1.00  0.00     0.000 G0
ENDBRANCH   5   6
ENDBRANCH   4   5
ENDBRANCH   2   4
BRANCH   1  10
ATOM     10  C   UNL     1      26.299  52.032   8.522  1.00  0.00     0.111 C 
BRANCH  10  11
ATOM     11  C   UNL     1      26.274  52.533   9.942  1.00  0.00     0.163 C 
ATOM     12  O   UNL     1      25.526  51.943  10.766  1.00  0.00    -0.294 OA
BRANCH  11  13
ATOM     13  C   UNL     1      27.052  53.730  10.382  1.00  0.00    -0.002 C 
ATOM     14  C   UNL     1      28.275  53.588  10.978  1.00  0.00    -0.069 C 
ATOM     15  C   UNL     1      29.014  54.765  11.576  1.00  0.00     0.039 C 
ATOM     16  C   UNL     1      28.950  52.237  11.071  1.00  0.00     0.039 C 
BRANCH  13  17
ATOM     17  C   UNL     1      26.387  55.087  10.225  1.00  0.00     0.066 CG0
ATOM     18  G   UNL     1      24.890  54.975  10.011  1.00  0.00     0.000 G0
ENDBRANCH  13  17
ENDBRANCH  11  13
ENDBRANCH  10  11
ENDBRANCH   1  10
TORSDOF 0
ENDMDL
