MODEL 1
REMARK VINA RESULT:    -7.145      0.000      0.000
REMARK INTER + INTRA:          -8.823
REMARK INTER:                  -8.607
REMARK INTRA:                  -0.216
REMARK UNBOUND:                -0.216
REMARK SMILES O=c1c(O)c(-c2ccc(O)c(O)c2)oc2cc(O)cc(O)c12
REMARK SMILES IDX 5 1 3 2 2 3 1 4 22 5 20 6 19 7 17 8 16 9 15 10 14 11 6 12
REMARK SMILES IDX 7 13 8 14 9 15 13 16 11 17 10 18 12 20 4 22 21 24 18 26
REMARK H PARENT 10 19 12 21 4 23 21 25 18 27
REMARK Flexibility Score: inf
ROOT
ATOM      1  C   UNL     1     183.748 -19.236  23.945  1.00  0.00     0.180 A 
ATOM      2  C   UNL     1     183.239 -17.982  24.324  1.00  0.00     0.208 A 
ATOM      3  C   UNL     1     184.078 -16.858  24.256  1.00  0.00     0.238 A 
ATOM      4  O   UNL     1     183.635 -15.748  24.647  1.00  0.00    -0.285 OA
ATOM      5  C   UNL     1     185.410 -17.000  23.796  1.00  0.00     0.111 A 
ATOM      6  C   UNL     1     186.336 -15.923  23.649  1.00  0.00     0.134 A 
ATOM      7  C   UNL     1     187.666 -16.198  23.310  1.00  0.00     0.093 A 
ATOM      8  C   UNL     1     188.089 -17.504  23.049  1.00  0.00     0.123 A 
ATOM      9  C   UNL     1     187.178 -18.555  23.132  1.00  0.00     0.094 A 
ATOM     10  C   UNL     1     185.853 -18.316  23.503  1.00  0.00     0.146 A 
ATOM     11  O   UNL     1     185.020 -19.348  23.581  1.00  0.00    -0.452 OA
ENDROOT
BRANCH   1  12
ATOM     12  C   UNL     1     182.917 -20.462  23.966  1.00  0.00     0.025 A 
ATOM     13  C   UNL     1     182.557 -21.031  25.196  1.00  0.00     0.016 A 
ATOM     14  C   UNL     1     181.791 -22.200  25.239  1.00  0.00     0.051 A 
ATOM     15  C   UNL     1     181.388 -22.824  24.054  1.00  0.00     0.157 A 
ATOM     16  C   UNL     1     182.529 -21.103  22.776  1.00  0.00     0.062 A 
ATOM     17  C   UNL     1     181.762 -22.277  22.816  1.00  0.00     0.158 A 
BRANCH  15  18
ATOM     18  O   UNL     1     180.623 -23.987  24.127  1.00  0.00    -0.504 OA
ATOM     19  H   UNL     1     180.846 -24.739  24.769  1.00  0.00     0.293 HD
ENDBRANCH  15  18
BRANCH  17  20
ATOM     20  O   UNL     1     181.376 -22.902  21.631  1.00  0.00    -0.504 OA
ATOM     21  H   UNL     1     181.764 -23.796  21.352  1.00  0.00     0.293 HD
ENDBRANCH  17  20
ENDBRANCH   1  12
BRANCH   2  22
ATOM     22  O   UNL     1     181.929 -17.868  24.796  1.00  0.00    -0.502 OA
ATOM     23  H   UNL     1     181.385 -18.669  25.093  1.00  0.00     0.293 HD
ENDBRANCH   2  22
BRANCH   6  24
ATOM     24  O   UNL     1     185.995 -14.575  23.796  1.00  0.00    -0.507 OA
ATOM     25  H   UNL     1     185.794 -13.947  23.033  1.00  0.00     0.293 HD
ENDBRANCH   6  24
BRANCH   8  26
ATOM     26  O   UNL     1     189.411 -17.766  22.698  1.00  0.00    -0.508 OA
ATOM     27  H   UNL     1     189.771 -18.712  22.658  1.00  0.00     0.293 HD
ENDBRANCH   8  26
TORSDOF 6
ENDMDL
MODEL 2
REMARK VINA RESULT:    -7.132     12.032     14.684
REMARK INTER + INTRA:          -8.808
REMARK INTER:                  -8.514
REMARK INTRA:                  -0.294
REMARK UNBOUND:                -0.216
REMARK SMILES O=c1c(O)c(-c2ccc(O)c(O)c2)oc2cc(O)cc(O)c12
REMARK SMILES IDX 5 1 3 2 2 3 1 4 22 5 20 6 19 7 17 8 16 9 15 10 14 11 6 12
REMARK SMILES IDX 7 13 8 14 9 15 13 16 11 17 10 18 12 20 4 22 21 24 18 26
REMARK H PARENT 10 19 12 21 4 23 21 25 18 27
REMARK Flexibility Score: inf
ROOT
ATOM      1  C   UNL     1     182.786 -25.146  35.433  1.00  0.00     0.180 A 
ATOM      2  C   UNL     1     182.988 -23.867  35.978  1.00  0.00     0.208 A 
ATOM      3  C   UNL     1     182.969 -23.711  37.373  1.00  0.00     0.238 A 
ATOM      4  O   UNL     1     183.097 -22.556  37.854  1.00  0.00    -0.285 OA
ATOM      5  C   UNL     1     182.764 -24.838  38.206  1.00  0.00     0.111 A 
ATOM      6  C   UNL     1     182.765 -24.804  39.633  1.00  0.00     0.134 A 
ATOM      7  C   UNL     1     182.422 -25.955  40.352  1.00  0.00     0.093 A 
ATOM      8  C   UNL     1     182.141 -27.156  39.697  1.00  0.00     0.123 A 
ATOM      9  C   UNL     1     182.195 -27.215  38.307  1.00  0.00     0.094 A 
ATOM     10  C   UNL     1     182.500 -26.074  37.560  1.00  0.00     0.146 A 
ATOM     11  O   UNL     1     182.530 -26.172  36.236  1.00  0.00    -0.452 OA
ENDROOT
BRANCH   1  12
ATOM     12  C   UNL     1     182.816 -25.394  33.973  1.00  0.00     0.025 A 
ATOM     13  C   UNL     1     181.678 -25.117  33.201  1.00  0.00     0.016 A 
ATOM     14  C   UNL     1     181.678 -25.363  31.825  1.00  0.00     0.051 A 
ATOM     15  C   UNL     1     182.808 -25.902  31.204  1.00  0.00     0.157 A 
ATOM     16  C   UNL     1     183.945 -25.956  33.350  1.00  0.00     0.062 A 
ATOM     17  C   UNL     1     183.946 -26.205  31.969  1.00  0.00     0.158 A 
BRANCH  15  18
ATOM     18  O   UNL     1     182.780 -26.135  29.829  1.00  0.00    -0.504 OA
ATOM     19  H   UNL     1     183.570 -25.925  29.231  1.00  0.00     0.293 HD
ENDBRANCH  15  18
BRANCH  17  20
ATOM     20  O   UNL     1     185.072 -26.757  31.358  1.00  0.00    -0.504 OA
ATOM     21  H   UNL     1     185.977 -26.753  31.812  1.00  0.00     0.293 HD
ENDBRANCH  17  20
ENDBRANCH   1  12
BRANCH   2  22
ATOM     22  O   UNL     1     183.167 -22.765  35.139  1.00  0.00    -0.502 OA
ATOM     23  H   UNL     1     182.802 -22.734  34.194  1.00  0.00     0.293 HD
ENDBRANCH   2  22
BRANCH   6  24
ATOM     24  O   UNL     1     183.121 -23.680  40.386  1.00  0.00    -0.507 OA
ATOM     25  H   UNL     1     183.330 -22.772  39.999  1.00  0.00     0.293 HD
ENDBRANCH   6  24
BRANCH   8  26
ATOM     26  O   UNL     1     181.815 -28.301  40.422  1.00  0.00    -0.508 OA
ATOM     27  H   UNL     1     180.858 -28.512  40.676  1.00  0.00     0.293 HD
ENDBRANCH   8  26
TORSDOF 6
ENDMDL
MODEL 3
REMARK VINA RESULT:    -6.997      1.514      6.896
REMARK INTER + INTRA:          -8.645
REMARK INTER:                  -8.537
REMARK INTRA:                  -0.108
REMARK UNBOUND:                -0.216
REMARK SMILES O=c1c(O)c(-c2ccc(O)c(O)c2)oc2cc(O)cc(O)c12
REMARK SMILES IDX 5 1 3 2 2 3 1 4 22 5 20 6 19 7 17 8 16 9 15 10 14 11 6 12
REMARK SMILES IDX 7 13 8 14 9 15 13 16 11 17 10 18 12 20 4 22 21 24 18 26
REMARK H PARENT 10 19 12 21 4 23 21 25 18 27
REMARK Flexibility Score: inf
ROOT
ATOM      1  C   UNL     1     183.672 -19.392  24.444  1.00  0.00     0.180 A 
ATOM      2  C   UNL     1     183.251 -19.607  25.768  1.00  0.00     0.208 A 
ATOM      3  C   UNL     1     182.436 -20.714  26.051  1.00  0.00     0.238 A 
ATOM      4  O   UNL     1     182.018 -20.871  27.227  1.00  0.00    -0.285 OA
ATOM      5  C   UNL     1     182.064 -21.600  25.011  1.00  0.00     0.111 A 
ATOM      6  C   UNL     1     181.274 -22.776  25.191  1.00  0.00     0.134 A 
ATOM      7  C   UNL     1     180.859 -23.506  24.072  1.00  0.00     0.093 A 
ATOM      8  C   UNL     1     181.259 -23.142  22.784  1.00  0.00     0.123 A 
ATOM      9  C   UNL     1     182.079 -22.031  22.603  1.00  0.00     0.094 A 
ATOM     10  C   UNL     1     182.480 -21.261  23.698  1.00  0.00     0.146 A 
ATOM     11  O   UNL     1     183.253 -20.203  23.480  1.00  0.00    -0.452 OA
ENDROOT
BRANCH   1  12
ATOM     12  C   UNL     1     184.553 -18.261  24.071  1.00  0.00     0.025 A 
ATOM     13  C   UNL     1     184.106 -16.945  24.263  1.00  0.00     0.016 A 
ATOM     14  C   UNL     1     184.912 -15.863  23.899  1.00  0.00     0.051 A 
ATOM     15  C   UNL     1     186.169 -16.079  23.325  1.00  0.00     0.157 A 
ATOM     16  C   UNL     1     185.808 -18.477  23.475  1.00  0.00     0.062 A 
ATOM     17  C   UNL     1     186.618 -17.392  23.107  1.00  0.00     0.158 A 
BRANCH  15  18
ATOM     18  O   UNL     1     186.952 -14.981  22.975  1.00  0.00    -0.504 OA
ATOM     19  H   UNL     1     187.610 -15.012  22.205  1.00  0.00     0.293 HD
ENDBRANCH  15  18
BRANCH  17  20
ATOM     20  O   UNL     1     187.864 -17.615  22.522  1.00  0.00    -0.504 OA
ATOM     21  H   UNL     1     188.542 -18.242  22.940  1.00  0.00     0.293 HD
ENDBRANCH  17  20
ENDBRANCH   1  12
BRANCH   2  22
ATOM     22  O   UNL     1     183.611 -18.708  26.775  1.00  0.00    -0.502 OA
ATOM     23  H   UNL     1     184.015 -19.008  27.654  1.00  0.00     0.293 HD
ENDBRANCH   2  22
BRANCH   6  24
ATOM     24  O   UNL     1     180.898 -23.279  26.440  1.00  0.00    -0.507 OA
ATOM     25  H   UNL     1     180.965 -22.770  27.309  1.00  0.00     0.293 HD
ENDBRANCH   6  24
BRANCH   8  26
ATOM     26  O   UNL     1     180.854 -23.884  21.677  1.00  0.00    -0.508 OA
ATOM     27  H   UNL     1     181.143 -23.637  20.738  1.00  0.00     0.293 HD
ENDBRANCH   8  26
TORSDOF 6
ENDMDL
MODEL 4
REMARK VINA RESULT:    -6.977      3.374      4.270
REMARK INTER + INTRA:          -8.621
REMARK INTER:                  -8.335
REMARK INTRA:                  -0.286
REMARK UNBOUND:                -0.216
REMARK SMILES O=c1c(O)c(-c2ccc(O)c(O)c2)oc2cc(O)cc(O)c12
REMARK SMILES IDX 5 1 3 2 2 3 1 4 22 5 20 6 19 7 17 8 16 9 15 10 14 11 6 12
REMARK SMILES IDX 7 13 8 14 9 15 13 16 11 17 10 18 12 20 4 22 21 24 18 26
REMARK H PARENT 10 19 12 21 4 23 21 25 18 27
REMARK Flexibility Score: inf
ROOT
ATOM      1  C   UNL     1     181.030 -18.465  25.614  1.00  0.00     0.180 A 
ATOM      2  C   UNL     1     179.867 -17.717  25.869  1.00  0.00     0.208 A 
ATOM      3  C   UNL     1     179.995 -16.393  26.320  1.00  0.00     0.238 A 
ATOM      4  O   UNL     1     178.952 -15.747  26.598  1.00  0.00    -0.285 OA
ATOM      5  C   UNL     1     181.282 -15.829  26.495  1.00  0.00     0.111 A 
ATOM      6  C   UNL     1     181.529 -14.486  26.909  1.00  0.00     0.134 A 
ATOM      7  C   UNL     1     182.841 -14.076  27.175  1.00  0.00     0.093 A 
ATOM      8  C   UNL     1     183.920 -14.940  26.979  1.00  0.00     0.123 A 
ATOM      9  C   UNL     1     183.694 -16.235  26.519  1.00  0.00     0.094 A 
ATOM     10  C   UNL     1     182.393 -16.685  26.279  1.00  0.00     0.146 A 
ATOM     11  O   UNL     1     182.222 -17.930  25.850  1.00  0.00    -0.452 OA
ENDROOT
BRANCH   1  12
ATOM     12  C   UNL     1     180.976 -19.858  25.113  1.00  0.00     0.025 A 
ATOM     13  C   UNL     1     180.733 -20.906  26.012  1.00  0.00     0.016 A 
ATOM     14  C   UNL     1     180.699 -22.230  25.564  1.00  0.00     0.051 A 
ATOM     15  C   UNL     1     180.922 -22.526  24.216  1.00  0.00     0.157 A 
ATOM     16  C   UNL     1     181.221 -20.159  23.761  1.00  0.00     0.062 A 
ATOM     17  C   UNL     1     181.190 -21.487  23.310  1.00  0.00     0.158 A 
BRANCH  15  18
ATOM     18  O   UNL     1     180.880 -23.855  23.798  1.00  0.00    -0.504 OA
ATOM     19  H   UNL     1     180.020 -24.297  23.495  1.00  0.00     0.293 HD
ENDBRANCH  15  18
BRANCH  17  20
ATOM     20  O   UNL     1     181.428 -21.776  21.967  1.00  0.00    -0.504 OA
ATOM     21  H   UNL     1     182.023 -22.548  21.688  1.00  0.00     0.293 HD
ENDBRANCH  17  20
ENDBRANCH   1  12
BRANCH   2  22
ATOM     22  O   UNL     1     178.607 -18.299  25.711  1.00  0.00    -0.502 OA
ATOM     23  H   UNL     1     177.922 -18.327  26.457  1.00  0.00     0.293 HD
ENDBRANCH   2  22
BRANCH   6  24
ATOM     24  O   UNL     1     180.532 -13.516  27.046  1.00  0.00    -0.507 OA
ATOM     25  H   UNL     1     180.702 -12.535  27.213  1.00  0.00     0.293 HD
ENDBRANCH   6  24
BRANCH   8  26
ATOM     26  O   UNL     1     185.224 -14.518  27.232  1.00  0.00    -0.508 OA
ATOM     27  H   UNL     1     185.436 -13.551  27.445  1.00  0.00     0.293 HD
ENDBRANCH   8  26
TORSDOF 6
ENDMDL
MODEL 5
REMARK VINA RESULT:    -6.919      5.812      8.080
REMARK INTER + INTRA:          -8.551
REMARK INTER:                  -8.217
REMARK INTRA:                  -0.334
REMARK UNBOUND:                -0.216
REMARK SMILES O=c1c(O)c(-c2ccc(O)c(O)c2)oc2cc(O)cc(O)c12
REMARK SMILES IDX 5 1 3 2 2 3 1 4 22 5 20 6 19 7 17 8 16 9 15 10 14 11 6 12
REMARK SMILES IDX 7 13 8 14 9 15 13 16 11 17 10 18 12 20 4 22 21 24 18 26
REMARK H PARENT 10 19 12 21 4 23 21 25 18 27
REMARK Flexibility Score: inf
ROOT
ATOM      1  C   UNL     1     180.001 -14.488  26.844  1.00  0.00     0.180 A 
ATOM      2  C   UNL     1     179.991 -15.770  26.268  1.00  0.00     0.208 A 
ATOM      3  C   UNL     1     181.201 -16.326  25.823  1.00  0.00     0.238 A 
ATOM      4  O   UNL     1     181.179 -17.450  25.260  1.00  0.00    -0.285 OA
ATOM      5  C   UNL     1     182.408 -15.600  25.974  1.00  0.00     0.111 A 
ATOM      6  C   UNL     1     183.697 -16.082  25.595  1.00  0.00     0.134 A 
ATOM      7  C   UNL     1     184.803 -15.227  25.669  1.00  0.00     0.093 A 
ATOM      8  C   UNL     1     184.678 -13.929  26.170  1.00  0.00     0.123 A 
ATOM      9  C   UNL     1     183.435 -13.469  26.598  1.00  0.00     0.094 A 
ATOM     10  C   UNL     1     182.306 -14.286  26.502  1.00  0.00     0.146 A 
ATOM     11  O   UNL     1     181.138 -13.805  26.911  1.00  0.00    -0.452 OA
ENDROOT
BRANCH   1  12
ATOM     12  C   UNL     1     178.770 -13.846  27.359  1.00  0.00     0.025 A 
ATOM     13  C   UNL     1     178.053 -12.966  26.534  1.00  0.00     0.016 A 
ATOM     14  C   UNL     1     176.900 -12.333  27.007  1.00  0.00     0.051 A 
ATOM     15  C   UNL     1     176.455 -12.558  28.313  1.00  0.00     0.157 A 
ATOM     16  C   UNL     1     178.333 -14.054  28.679  1.00  0.00     0.062 A 
ATOM     17  C   UNL     1     177.177 -13.418  29.156  1.00  0.00     0.158 A 
BRANCH  15  18
ATOM     18  O   UNL     1     175.300 -11.915  28.756  1.00  0.00    -0.504 OA
ATOM     19  H   UNL     1     174.402 -12.382  28.787  1.00  0.00     0.293 HD
ENDBRANCH  15  18
BRANCH  17  20
ATOM     20  O   UNL     1     176.748 -13.635  30.465  1.00  0.00    -0.504 OA
ATOM     21  H   UNL     1     176.150 -12.972  30.944  1.00  0.00     0.293 HD
ENDBRANCH  17  20
ENDBRANCH   1  12
BRANCH   2  22
ATOM     22  O   UNL     1     178.787 -16.460  26.109  1.00  0.00    -0.502 OA
ATOM     23  H   UNL     1     178.660 -17.414  26.426  1.00  0.00     0.293 HD
ENDBRANCH   2  22
BRANCH   6  24
ATOM     24  O   UNL     1     183.947 -17.390  25.170  1.00  0.00    -0.507 OA
ATOM     25  H   UNL     1     183.768 -17.735  24.238  1.00  0.00     0.293 HD
ENDBRANCH   6  24
BRANCH   8  26
ATOM     26  O   UNL     1     185.787 -13.090  26.255  1.00  0.00    -0.508 OA
ATOM     27  H   UNL     1     186.357 -12.881  25.444  1.00  0.00     0.293 HD
ENDBRANCH   8  26
TORSDOF 6
ENDMDL
MODEL 6
REMARK VINA RESULT:    -6.797      4.270      6.905
REMARK INTER + INTRA:          -8.404
REMARK INTER:                  -8.074
REMARK INTRA:                  -0.330
REMARK UNBOUND:                -0.216
REMARK SMILES O=c1c(O)c(-c2ccc(O)c(O)c2)oc2cc(O)cc(O)c12
REMARK SMILES IDX 5 1 3 2 2 3 1 4 22 5 20 6 19 7 17 8 16 9 15 10 14 11 6 12
REMARK SMILES IDX 7 13 8 14 9 15 13 16 11 17 10 18 12 20 4 22 21 24 18 26
REMARK H PARENT 10 19 12 21 4 23 21 25 18 27
REMARK Flexibility Score: inf
ROOT
ATOM      1  C   UNL     1     181.674 -22.878  27.817  1.00  0.00     0.180 A 
ATOM      2  C   UNL     1     180.544 -22.974  26.987  1.00  0.00     0.208 A 
ATOM      3  C   UNL     1     180.626 -22.495  25.669  1.00  0.00     0.238 A 
ATOM      4  O   UNL     1     179.596 -22.534  24.948  1.00  0.00    -0.285 OA
ATOM      5  C   UNL     1     181.839 -21.942  25.194  1.00  0.00     0.111 A 
ATOM      6  C   UNL     1     182.047 -21.463  23.865  1.00  0.00     0.134 A 
ATOM      7  C   UNL     1     183.247 -20.817  23.544  1.00  0.00     0.093 A 
ATOM      8  C   UNL     1     184.272 -20.690  24.485  1.00  0.00     0.123 A 
ATOM      9  C   UNL     1     184.101 -21.207  25.767  1.00  0.00     0.094 A 
ATOM     10  C   UNL     1     182.902 -21.825  26.128  1.00  0.00     0.146 A 
ATOM     11  O   UNL     1     182.777 -22.295  27.364  1.00  0.00    -0.452 OA
ENDROOT
BRANCH   1  12
ATOM     12  C   UNL     1     181.673 -23.383  29.210  1.00  0.00     0.025 A 
ATOM     13  C   UNL     1     181.324 -22.518  30.258  1.00  0.00     0.016 A 
ATOM     14  C   UNL     1     181.336 -22.968  31.581  1.00  0.00     0.051 A 
ATOM     15  C   UNL     1     181.712 -24.282  31.878  1.00  0.00     0.157 A 
ATOM     16  C   UNL     1     182.070 -24.698  29.512  1.00  0.00     0.062 A 
ATOM     17  C   UNL     1     182.086 -25.150  30.839  1.00  0.00     0.158 A 
BRANCH  15  18
ATOM     18  O   UNL     1     181.712 -24.703  33.207  1.00  0.00    -0.504 OA
ATOM     19  H   UNL     1     181.218 -25.534  33.508  1.00  0.00     0.293 HD
ENDBRANCH  15  18
BRANCH  17  20
ATOM     20  O   UNL     1     182.475 -26.458  31.129  1.00  0.00    -0.504 OA
ATOM     21  H   UNL     1     183.295 -26.654  31.691  1.00  0.00     0.293 HD
ENDBRANCH  17  20
ENDBRANCH   1  12
BRANCH   2  22
ATOM     22  O   UNL     1     179.350 -23.503  27.482  1.00  0.00    -0.502 OA
ATOM     23  H   UNL     1     178.441 -23.143  27.212  1.00  0.00     0.293 HD
ENDBRANCH   2  22
BRANCH   6  24
ATOM     24  O   UNL     1     181.125 -21.621  22.826  1.00  0.00    -0.507 OA
ATOM     25  H   UNL     1     181.068 -22.430  22.226  1.00  0.00     0.293 HD
ENDBRANCH   6  24
BRANCH   8  26
ATOM     26  O   UNL     1     185.468 -20.059  24.152  1.00  0.00    -0.508 OA
ATOM     27  H   UNL     1     186.355 -20.370  24.530  1.00  0.00     0.293 HD
ENDBRANCH   8  26
TORSDOF 6
ENDMDL
MODEL 7
REMARK VINA RESULT:    -6.756      4.023      7.831
REMARK INTER + INTRA:          -8.355
REMARK INTER:                  -8.071
REMARK INTRA:                  -0.284
REMARK UNBOUND:                -0.216
REMARK SMILES O=c1c(O)c(-c2ccc(O)c(O)c2)oc2cc(O)cc(O)c12
REMARK SMILES IDX 5 1 3 2 2 3 1 4 22 5 20 6 19 7 17 8 16 9 15 10 14 11 6 12
REMARK SMILES IDX 7 13 8 14 9 15 13 16 11 17 10 18 12 20 4 22 21 24 18 26
REMARK H PARENT 10 19 12 21 4 23 21 25 18 27
REMARK Flexibility Score: inf
ROOT
ATOM      1  C   UNL     1     180.449 -17.563  26.061  1.00  0.00     0.180 A 
ATOM      2  C   UNL     1     181.628 -17.629  25.299  1.00  0.00     0.208 A 
ATOM      3  C   UNL     1     181.933 -18.818  24.618  1.00  0.00     0.238 A 
ATOM      4  O   UNL     1     183.015 -18.890  23.981  1.00  0.00    -0.285 OA
ATOM      5  C   UNL     1     181.048 -19.921  24.695  1.00  0.00     0.111 A 
ATOM      6  C   UNL     1     181.237 -21.162  24.015  1.00  0.00     0.134 A 
ATOM      7  C   UNL     1     180.366 -22.228  24.268  1.00  0.00     0.093 A 
ATOM      8  C   UNL     1     179.275 -22.079  25.128  1.00  0.00     0.123 A 
ATOM      9  C   UNL     1     179.048 -20.854  25.751  1.00  0.00     0.094 A 
ATOM     10  C   UNL     1     179.920 -19.782  25.546  1.00  0.00     0.146 A 
ATOM     11  O   UNL     1     179.673 -18.636  26.168  1.00  0.00    -0.452 OA
ENDROOT
BRANCH   1  12
ATOM     12  C   UNL     1     180.047 -16.336  26.787  1.00  0.00     0.025 A 
ATOM     13  C   UNL     1     180.155 -16.293  28.185  1.00  0.00     0.016 A 
ATOM     14  C   UNL     1     179.762 -15.153  28.891  1.00  0.00     0.051 A 
ATOM     15  C   UNL     1     179.242 -14.046  28.214  1.00  0.00     0.157 A 
ATOM     16  C   UNL     1     179.505 -15.230  26.109  1.00  0.00     0.062 A 
ATOM     17  C   UNL     1     179.108 -14.085  26.816  1.00  0.00     0.158 A 
BRANCH  15  18
ATOM     18  O   UNL     1     178.861 -12.922  28.944  1.00  0.00    -0.504 OA
ATOM     19  H   UNL     1     178.991 -11.981  28.592  1.00  0.00     0.293 HD
ENDBRANCH  15  18
BRANCH  17  20
ATOM     20  O   UNL     1     178.576 -12.990  26.135  1.00  0.00    -0.504 OA
ATOM     21  H   UNL     1     177.785 -12.473  26.499  1.00  0.00     0.293 HD
ENDBRANCH  17  20
ENDBRANCH   1  12
BRANCH   2  22
ATOM     22  O   UNL     1     182.498 -16.537  25.253  1.00  0.00    -0.502 OA
ATOM     23  H   UNL     1     182.646 -15.925  26.047  1.00  0.00     0.293 HD
ENDBRANCH   2  22
BRANCH   6  24
ATOM     24  O   UNL     1     182.240 -21.387  23.067  1.00  0.00    -0.507 OA
ATOM     25  H   UNL     1     182.405 -22.267  22.603  1.00  0.00     0.293 HD
ENDBRANCH   6  24
BRANCH   8  26
ATOM     26  O   UNL     1     178.405 -23.141  25.362  1.00  0.00    -0.508 OA
ATOM     27  H   UNL     1     177.725 -23.432  24.670  1.00  0.00     0.293 HD
ENDBRANCH   8  26
TORSDOF 6
ENDMDL
MODEL 8
REMARK VINA RESULT:    -6.751      3.724      6.743
REMARK INTER + INTRA:          -8.349
REMARK INTER:                  -8.061
REMARK INTRA:                  -0.289
REMARK UNBOUND:                -0.216
REMARK SMILES O=c1c(O)c(-c2ccc(O)c(O)c2)oc2cc(O)cc(O)c12
REMARK SMILES IDX 5 1 3 2 2 3 1 4 22 5 20 6 19 7 17 8 16 9 15 10 14 11 6 12
REMARK SMILES IDX 7 13 8 14 9 15 13 16 11 17 10 18 12 20 4 22 21 24 18 26
REMARK H PARENT 10 19 12 21 4 23 21 25 18 27
REMARK Flexibility Score: inf
ROOT
ATOM      1  C   UNL     1     181.417 -17.889  25.981  1.00  0.00     0.180 A 
ATOM      2  C   UNL     1     182.492 -18.358  26.755  1.00  0.00     0.208 A 
ATOM      3  C   UNL     1     183.223 -19.468  26.302  1.00  0.00     0.238 A 
ATOM      4  O   UNL     1     184.150 -19.917  27.026  1.00  0.00    -0.285 OA
ATOM      5  C   UNL     1     182.882 -20.084  25.074  1.00  0.00     0.111 A 
ATOM      6  C   UNL     1     183.579 -21.189  24.500  1.00  0.00     0.134 A 
ATOM      7  C   UNL     1     183.073 -21.801  23.347  1.00  0.00     0.093 A 
ATOM      8  C   UNL     1     181.932 -21.306  22.710  1.00  0.00     0.123 A 
ATOM      9  C   UNL     1     181.278 -20.192  23.230  1.00  0.00     0.094 A 
ATOM     10  C   UNL     1     181.738 -19.582  24.400  1.00  0.00     0.146 A 
ATOM     11  O   UNL     1     181.079 -18.528  24.867  1.00  0.00    -0.452 OA
ENDROOT
BRANCH   1  12
ATOM     12  C   UNL     1     180.614 -16.710  26.380  1.00  0.00     0.025 A 
ATOM     13  C   UNL     1     181.129 -15.422  26.172  1.00  0.00     0.016 A 
ATOM     14  C   UNL     1     180.398 -14.295  26.560  1.00  0.00     0.051 A 
ATOM     15  C   UNL     1     179.150 -14.440  27.173  1.00  0.00     0.157 A 
ATOM     16  C   UNL     1     179.369 -16.854  27.016  1.00  0.00     0.062 A 
ATOM     17  C   UNL     1     178.634 -15.725  27.408  1.00  0.00     0.158 A 
BRANCH  15  18
ATOM     18  O   UNL     1     178.442 -13.299  27.547  1.00  0.00    -0.504 OA
ATOM     19  H   UNL     1     178.894 -12.502  27.980  1.00  0.00     0.293 HD
ENDBRANCH  15  18
BRANCH  17  20
ATOM     20  O   UNL     1     177.396 -15.877  28.033  1.00  0.00    -0.504 OA
ATOM     21  H   UNL     1     176.667 -15.179  27.943  1.00  0.00     0.293 HD
ENDBRANCH  17  20
ENDBRANCH   1  12
BRANCH   2  22
ATOM     22  O   UNL     1     182.799 -17.749  27.975  1.00  0.00    -0.502 OA
ATOM     23  H   UNL     1     182.297 -17.959  28.830  1.00  0.00     0.293 HD
ENDBRANCH   2  22
BRANCH   6  24
ATOM     24  O   UNL     1     184.778 -21.702  25.003  1.00  0.00    -0.507 OA
ATOM     25  H   UNL     1     185.595 -21.149  25.218  1.00  0.00     0.293 HD
ENDBRANCH   6  24
BRANCH   8  26
ATOM     26  O   UNL     1     181.445 -21.912  21.554  1.00  0.00    -0.508 OA
ATOM     27  H   UNL     1     181.290 -22.912  21.504  1.00  0.00     0.293 HD
ENDBRANCH   8  26
TORSDOF 6
ENDMDL
MODEL 9
REMARK VINA RESULT:    -6.744      4.200      7.612
REMARK INTER + INTRA:          -8.340
REMARK INTER:                  -8.049
REMARK INTRA:                  -0.291
REMARK UNBOUND:                -0.216
REMARK SMILES O=c1c(O)c(-c2ccc(O)c(O)c2)oc2cc(O)cc(O)c12
REMARK SMILES IDX 5 1 3 2 2 3 1 4 22 5 20 6 19 7 17 8 16 9 15 10 14 11 6 12
REMARK SMILES IDX 7 13 8 14 9 15 13 16 11 17 10 18 12 20 4 22 21 24 18 26
REMARK H PARENT 10 19 12 21 4 23 21 25 18 27
REMARK Flexibility Score: inf
ROOT
ATOM      1  C   UNL     1     180.804 -18.069  26.304  1.00  0.00     0.180 A 
ATOM      2  C   UNL     1     180.162 -18.928  27.212  1.00  0.00     0.208 A 
ATOM      3  C   UNL     1     179.986 -20.277  26.865  1.00  0.00     0.238 A 
ATOM      4  O   UNL     1     179.363 -21.029  27.658  1.00  0.00    -0.285 OA
ATOM      5  C   UNL     1     180.467 -20.753  25.621  1.00  0.00     0.111 A 
ATOM      6  C   UNL     1     180.379 -22.109  25.183  1.00  0.00     0.134 A 
ATOM      7  C   UNL     1     180.771 -22.440  23.880  1.00  0.00     0.093 A 
ATOM      8  C   UNL     1     181.309 -21.478  23.022  1.00  0.00     0.123 A 
ATOM      9  C   UNL     1     181.454 -20.164  23.462  1.00  0.00     0.094 A 
ATOM     10  C   UNL     1     181.038 -19.795  24.743  1.00  0.00     0.146 A 
ATOM     11  O   UNL     1     181.186 -18.530  25.118  1.00  0.00    -0.452 OA
ENDROOT
BRANCH   1  12
ATOM     12  C   UNL     1     181.048 -16.640  26.609  1.00  0.00     0.025 A 
ATOM     13  C   UNL     1     182.305 -16.242  27.089  1.00  0.00     0.016 A 
ATOM     14  C   UNL     1     182.551 -14.902  27.404  1.00  0.00     0.051 A 
ATOM     15  C   UNL     1     181.542 -13.945  27.256  1.00  0.00     0.157 A 
ATOM     16  C   UNL     1     180.029 -15.680  26.481  1.00  0.00     0.062 A 
ATOM     17  C   UNL     1     180.273 -14.336  26.798  1.00  0.00     0.158 A 
BRANCH  15  18
ATOM     18  O   UNL     1     181.818 -12.616  27.575  1.00  0.00    -0.504 OA
ATOM     19  H   UNL     1     182.575 -12.104  27.139  1.00  0.00     0.293 HD
ENDBRANCH  15  18
BRANCH  17  20
ATOM     20  O   UNL     1     179.258 -13.388  26.663  1.00  0.00    -0.504 OA
ATOM     21  H   UNL     1     179.373 -12.567  26.080  1.00  0.00     0.293 HD
ENDBRANCH  17  20
ENDBRANCH   1  12
BRANCH   2  22
ATOM     22  O   UNL     1     179.675 -18.433  28.424  1.00  0.00    -0.502 OA
ATOM     23  H   UNL     1     178.745 -18.647  28.766  1.00  0.00     0.293 HD
ENDBRANCH   2  22
BRANCH   6  24
ATOM     24  O   UNL     1     179.943 -23.163  25.991  1.00  0.00    -0.507 OA
ATOM     25  H   UNL     1     180.028 -23.190  26.996  1.00  0.00     0.293 HD
ENDBRANCH   6  24
BRANCH   8  26
ATOM     26  O   UNL     1     181.710 -21.820  21.733  1.00  0.00    -0.508 OA
ATOM     27  H   UNL     1     181.248 -22.555  21.212  1.00  0.00     0.293 HD
ENDBRANCH   8  26
TORSDOF 6
ENDMDL
