MODEL 1
REMARK VINA RESULT:    -4.243      0.000      0.000
REMARK INTER + INTRA:          -6.939
REMARK INTER:                  -6.228
REMARK INTRA:                  -0.711
REMARK UNBOUND:                -0.711
REMARK SMILES O=C([O-])CCCCCCCC(=O)[O-]
REMARK SMILES IDX 7 1 6 2 5 3 4 4 2 5 1 6 3 7 8 8 9 9 10 10 11 11 12 12 13 13
REMARK H PARENT
REMARK Flexibility Score: inf
ROOT
ATOM      1  C   UNL     1       1.642   2.064  -5.495  1.00  0.00     0.000 C 
ENDROOT
BRANCH   1   2
ATOM      2  C   UNL     1       2.506   1.941  -4.227  1.00  0.00     0.000 C 
BRANCH   2   3
ATOM      3  C   UNL     1       4.000   1.670  -4.484  1.00  0.00     0.006 C 
BRANCH   3   4
ATOM      4  C   UNL     1       4.272   0.245  -4.981  1.00  0.00     0.053 C 
BRANCH   4   5
ATOM      5  C   UNL     1       5.091  -0.510  -3.981  1.00  0.00     0.041 C 
ATOM      6  O   UNL     1       4.645  -0.714  -2.821  1.00  0.00    -0.550 OA
ATOM      7  O   UNL     1       6.326  -1.031  -4.345  1.00  0.00    -0.550 OA
ENDBRANCH   4   5
ENDBRANCH   3   4
ENDBRANCH   2   3
ENDBRANCH   1   2
BRANCH   1   8
ATOM      8  C   UNL     1       0.230   1.488  -5.317  1.00  0.00     0.000 C 
BRANCH   8   9
ATOM      9  C   UNL     1       0.149   0.612  -4.058  1.00  0.00     0.006 C 
BRANCH   9  10
ATOM     10  C   UNL     1      -0.227  -0.840  -4.383  1.00  0.00     0.053 C 
BRANCH  10  11
ATOM     11  C   UNL     1       0.948  -1.617  -4.889  1.00  0.00     0.041 C 
ATOM     12  O   UNL     1       1.831  -2.025  -4.088  1.00  0.00    -0.550 OA
ATOM     13  O   UNL     1       1.052  -1.920  -6.240  1.00  0.00    -0.550 OA
ENDBRANCH  10  11
ENDBRANCH   9  10
ENDBRANCH   8   9
ENDBRANCH   1   8
TORSDOF 8
ENDMDL
MODEL 2
REMARK VINA RESULT:    -4.201      1.386      1.984
REMARK INTER + INTRA:          -6.877
REMARK INTER:                  -6.129
REMARK INTRA:                  -0.748
REMARK UNBOUND:                -0.711
REMARK SMILES O=C([O-])CCCCCCCC(=O)[O-]
REMARK SMILES IDX 7 1 6 2 5 3 4 4 2 5 1 6 3 7 8 8 9 9 10 10 11 11 12 12 13 13
REMARK H PARENT
REMARK Flexibility Score: inf
ROOT
ATOM      1  C   UNL     1       3.859   2.932  -3.748  1.00  0.00     0.000 C 
ENDROOT
BRANCH   1   2
ATOM      2  C   UNL     1       5.303   2.703  -4.231  1.00  0.00     0.000 C 
BRANCH   2   3
ATOM      3  C   UNL     1       5.720   1.225  -4.352  1.00  0.00     0.006 C 
BRANCH   3   4
ATOM      4  C   UNL     1       5.385   0.406  -3.100  1.00  0.00     0.053 C 
BRANCH   4   5
ATOM      5  C   UNL     1       4.913  -0.962  -3.482  1.00  0.00     0.041 C 
ATOM      6  O   UNL     1       4.060  -1.559  -2.774  1.00  0.00    -0.550 OA
ATOM      7  O   UNL     1       5.377  -1.557  -4.648  1.00  0.00    -0.550 OA
ENDBRANCH   4   5
ENDBRANCH   3   4
ENDBRANCH   2   3
ENDBRANCH   1   2
BRANCH   1   8
ATOM      8  C   UNL     1       2.809   2.593  -4.816  1.00  0.00     0.000 C 
BRANCH   8   9
ATOM      9  C   UNL     1       1.966   1.381  -4.393  1.00  0.00     0.006 C 
BRANCH   9  10
ATOM     10  C   UNL     1       1.979   0.267  -5.448  1.00  0.00     0.053 C 
BRANCH  10  11
ATOM     11  C   UNL     1       1.162  -0.913  -5.019  1.00  0.00     0.041 C 
ATOM     12  O   UNL     1       0.496  -0.868  -3.951  1.00  0.00    -0.550 OA
ATOM     13  O   UNL     1       1.113  -2.050  -5.815  1.00  0.00    -0.550 OA
ENDBRANCH  10  11
ENDBRANCH   9  10
ENDBRANCH   8   9
ENDBRANCH   1   8
TORSDOF 8
ENDMDL
MODEL 3
REMARK VINA RESULT:    -4.185      1.078      4.065
REMARK INTER + INTRA:          -6.854
REMARK INTER:                  -6.188
REMARK INTRA:                  -0.666
REMARK UNBOUND:                -0.711
REMARK SMILES O=C([O-])CCCCCCCC(=O)[O-]
REMARK SMILES IDX 7 1 6 2 5 3 4 4 2 5 1 6 3 7 8 8 9 9 10 10 11 11 12 12 13 13
REMARK H PARENT
REMARK Flexibility Score: inf
ROOT
ATOM      1  C   UNL     1       2.978   2.418  -4.840  1.00  0.00     0.000 C 
ENDROOT
BRANCH   1   2
ATOM      2  C   UNL     1       1.818   1.688  -4.139  1.00  0.00     0.000 C 
BRANCH   2   3
ATOM      3  C   UNL     1       0.834   0.974  -5.084  1.00  0.00     0.006 C 
BRANCH   3   4
ATOM      4  C   UNL     1       0.123  -0.211  -4.421  1.00  0.00     0.053 C 
BRANCH   4   5
ATOM      5  C   UNL     1       0.860  -1.484  -4.697  1.00  0.00     0.041 C 
ATOM      6  O   UNL     1       1.181  -2.248  -3.749  1.00  0.00    -0.550 OA
ATOM      7  O   UNL     1       1.149  -1.851  -6.005  1.00  0.00    -0.550 OA
ENDBRANCH   4   5
ENDBRANCH   3   4
ENDBRANCH   2   3
ENDBRANCH   1   2
BRANCH   1   8
ATOM      8  C   UNL     1       4.188   2.642  -3.922  1.00  0.00     0.000 C 
BRANCH   8   9
ATOM      9  C   UNL     1       5.307   1.636  -4.231  1.00  0.00     0.006 C 
BRANCH   9  10
ATOM     10  C   UNL     1       5.381   0.510  -3.191  1.00  0.00     0.053 C 
BRANCH  10  11
ATOM     11  C   UNL     1       4.644  -0.712  -3.643  1.00  0.00     0.041 C 
ATOM     12  O   UNL     1       4.288  -1.584  -2.807  1.00  0.00    -0.550 OA
ATOM     13  O   UNL     1       4.321  -0.873  -4.985  1.00  0.00    -0.550 OA
ENDBRANCH  10  11
ENDBRANCH   9  10
ENDBRANCH   8   9
ENDBRANCH   1   8
TORSDOF 8
ENDMDL
MODEL 4
REMARK VINA RESULT:    -4.150      0.472      3.922
REMARK INTER + INTRA:          -6.802
REMARK INTER:                  -6.130
REMARK INTRA:                  -0.672
REMARK UNBOUND:                -0.711
REMARK SMILES O=C([O-])CCCCCCCC(=O)[O-]
REMARK SMILES IDX 7 1 6 2 5 3 4 4 2 5 1 6 3 7 8 8 9 9 10 10 11 11 12 12 13 13
REMARK H PARENT
REMARK Flexibility Score: inf
ROOT
ATOM      1  C   UNL     1       1.869   1.905  -5.492  1.00  0.00     0.000 C 
ENDROOT
BRANCH   1   2
ATOM      2  C   UNL     1       0.388   1.559  -5.248  1.00  0.00     0.000 C 
BRANCH   2   3
ATOM      3  C   UNL     1       0.129   0.617  -4.059  1.00  0.00     0.006 C 
BRANCH   3   4
ATOM      4  C   UNL     1      -0.268  -0.799  -4.494  1.00  0.00     0.053 C 
BRANCH   4   5
ATOM      5  C   UNL     1       0.930  -1.549  -4.985  1.00  0.00     0.041 C 
ATOM      6  O   UNL     1       1.704  -2.112  -4.168  1.00  0.00    -0.550 OA
ATOM      7  O   UNL     1       1.162  -1.670  -6.349  1.00  0.00    -0.550 OA
ENDBRANCH   4   5
ENDBRANCH   3   4
ENDBRANCH   2   3
ENDBRANCH   1   2
BRANCH   1   8
ATOM      8  C   UNL     1       2.594   2.370  -4.221  1.00  0.00     0.000 C 
BRANCH   8   9
ATOM      9  C   UNL     1       4.007   1.772  -4.145  1.00  0.00     0.006 C 
BRANCH   9  10
ATOM     10  C   UNL     1       4.103   0.415  -4.854  1.00  0.00     0.053 C 
BRANCH  10  11
ATOM     11  C   UNL     1       4.700  -0.633  -3.967  1.00  0.00     0.041 C 
ATOM     12  O   UNL     1       4.752  -0.455  -2.721  1.00  0.00    -0.550 OA
ATOM     13  O   UNL     1       5.169  -1.821  -4.512  1.00  0.00    -0.550 OA
ENDBRANCH  10  11
ENDBRANCH   9  10
ENDBRANCH   8   9
ENDBRANCH   1   8
TORSDOF 8
ENDMDL
MODEL 5
REMARK VINA RESULT:    -3.981      1.499      4.388
REMARK INTER + INTRA:          -6.555
REMARK INTER:                  -5.892
REMARK INTRA:                  -0.662
REMARK UNBOUND:                -0.711
REMARK SMILES O=C([O-])CCCCCCCC(=O)[O-]
REMARK SMILES IDX 7 1 6 2 5 3 4 4 2 5 1 6 3 7 8 8 9 9 10 10 11 11 12 12 13 13
REMARK H PARENT
REMARK Flexibility Score: inf
ROOT
ATOM      1  C   UNL     1       4.673   2.679  -3.688  1.00  0.00     0.000 C 
ENDROOT
BRANCH   1   2
ATOM      2  C   UNL     1       3.624   2.432  -4.787  1.00  0.00     0.000 C 
BRANCH   2   3
ATOM      3  C   UNL     1       2.275   1.885  -4.285  1.00  0.00     0.006 C 
BRANCH   3   4
ATOM      4  C   UNL     1       1.511   1.102  -5.360  1.00  0.00     0.053 C 
BRANCH   4   5
ATOM      5  C   UNL     1       1.281  -0.308  -4.914  1.00  0.00     0.041 C 
ATOM      6  O   UNL     1       1.959  -1.247  -5.406  1.00  0.00    -0.550 OA
ATOM      7  O   UNL     1       0.351  -0.579  -3.918  1.00  0.00    -0.550 OA
ENDBRANCH   4   5
ENDBRANCH   3   4
ENDBRANCH   2   3
ENDBRANCH   1   2
BRANCH   1   8
ATOM      8  C   UNL     1       5.798   1.634  -3.687  1.00  0.00     0.000 C 
BRANCH   8   9
ATOM      9  C   UNL     1       5.438   0.441  -2.789  1.00  0.00     0.006 C 
BRANCH   9  10
ATOM     10  C   UNL     1       4.928  -0.761  -3.596  1.00  0.00     0.053 C 
BRANCH  10  11
ATOM     11  C   UNL     1       5.714  -0.957  -4.855  1.00  0.00     0.041 C 
ATOM     12  O   UNL     1       6.877  -1.437  -4.809  1.00  0.00    -0.550 OA
ATOM     13  O   UNL     1       5.149  -0.639  -6.084  1.00  0.00    -0.550 OA
ENDBRANCH  10  11
ENDBRANCH   9  10
ENDBRANCH   8   9
ENDBRANCH   1   8
TORSDOF 8
ENDMDL
MODEL 6
REMARK VINA RESULT:    -3.964      1.906      2.830
REMARK INTER + INTRA:          -6.528
REMARK INTER:                  -5.850
REMARK INTRA:                  -0.679
REMARK UNBOUND:                -0.711
REMARK SMILES O=C([O-])CCCCCCCC(=O)[O-]
REMARK SMILES IDX 7 1 6 2 5 3 4 4 2 5 1 6 3 7 8 8 9 9 10 10 11 11 12 12 13 13
REMARK H PARENT
REMARK Flexibility Score: inf
ROOT
ATOM      1  C   UNL     1       4.240   3.268  -3.751  1.00  0.00     0.000 C 
ENDROOT
BRANCH   1   2
ATOM      2  C   UNL     1       5.288   2.339  -4.390  1.00  0.00     0.000 C 
BRANCH   2   3
ATOM      3  C   UNL     1       6.114   1.509  -3.392  1.00  0.00     0.006 C 
BRANCH   3   4
ATOM      4  C   UNL     1       5.323   0.344  -2.784  1.00  0.00     0.053 C 
BRANCH   4   5
ATOM      5  C   UNL     1       5.222  -0.785  -3.760  1.00  0.00     0.041 C 
ATOM      6  O   UNL     1       6.211  -1.095  -4.475  1.00  0.00    -0.550 OA
ATOM      7  O   UNL     1       4.051  -1.528  -3.845  1.00  0.00    -0.550 OA
ENDBRANCH   4   5
ENDBRANCH   3   4
ENDBRANCH   2   3
ENDBRANCH   1   2
BRANCH   1   8
ATOM      8  C   UNL     1       2.799   2.775  -3.951  1.00  0.00     0.000 C 
BRANCH   8   9
ATOM      9  C   UNL     1       2.656   2.019  -5.280  1.00  0.00     0.006 C 
BRANCH   9  10
ATOM     10  C   UNL     1       1.814   0.745  -5.137  1.00  0.00     0.053 C 
BRANCH  10  11
ATOM     11  C   UNL     1       0.427   1.048  -4.659  1.00  0.00     0.041 C 
ATOM     12  O   UNL     1       0.013   0.569  -3.570  1.00  0.00    -0.550 OA
ATOM     13  O   UNL     1      -0.396   1.885  -5.401  1.00  0.00    -0.550 OA
ENDBRANCH  10  11
ENDBRANCH   9  10
ENDBRANCH   8   9
ENDBRANCH   1   8
TORSDOF 8
ENDMDL
MODEL 7
REMARK VINA RESULT:    -3.623      2.471      5.139
REMARK INTER + INTRA:          -6.028
REMARK INTER:                  -5.449
REMARK INTRA:                  -0.580
REMARK UNBOUND:                -0.711
REMARK SMILES O=C([O-])CCCCCCCC(=O)[O-]
REMARK SMILES IDX 7 1 6 2 5 3 4 4 2 5 1 6 3 7 8 8 9 9 10 10 11 11 12 12 13 13
REMARK H PARENT
REMARK Flexibility Score: inf
ROOT
ATOM      1  C   UNL     1       5.212  -0.252  -3.391  1.00  0.00     0.000 C 
ENDROOT
BRANCH   1   2
ATOM      2  C   UNL     1       4.009  -0.956  -4.044  1.00  0.00     0.000 C 
BRANCH   2   3
ATOM      3  C   UNL     1       3.284  -0.134  -5.126  1.00  0.00     0.006 C 
BRANCH   3   4
ATOM      4  C   UNL     1       1.772  -0.039  -4.891  1.00  0.00     0.053 C 
BRANCH   4   5
ATOM      5  C   UNL     1       1.164  -1.406  -4.844  1.00  0.00     0.041 C 
ATOM      6  O   UNL     1       1.183  -2.143  -5.865  1.00  0.00    -0.550 OA
ATOM      7  O   UNL     1       0.621  -1.885  -3.659  1.00  0.00    -0.550 OA
ENDBRANCH   4   5
ENDBRANCH   3   4
ENDBRANCH   2   3
ENDBRANCH   1   2
BRANCH   1   8
ATOM      8  C   UNL     1       5.678   0.987  -4.170  1.00  0.00     0.000 C 
BRANCH   8   9
ATOM      9  C   UNL     1       5.280   2.277  -3.439  1.00  0.00     0.006 C 
BRANCH   9  10
ATOM     10  C   UNL     1       4.725   3.341  -4.396  1.00  0.00     0.053 C 
BRANCH  10  11
ATOM     11  C   UNL     1       3.384   3.840  -3.953  1.00  0.00     0.041 C 
ATOM     12  O   UNL     1       2.529   3.038  -3.494  1.00  0.00    -0.550 OA
ATOM     13  O   UNL     1       3.092   5.197  -4.017  1.00  0.00    -0.550 OA
ENDBRANCH  10  11
ENDBRANCH   9  10
ENDBRANCH   8   9
ENDBRANCH   1   8
TORSDOF 8
ENDMDL
MODEL 8
REMARK VINA RESULT:    -3.540      3.288      4.155
REMARK INTER + INTRA:          -5.906
REMARK INTER:                  -5.446
REMARK INTRA:                  -0.460
REMARK UNBOUND:                -0.711
REMARK SMILES O=C([O-])CCCCCCCC(=O)[O-]
REMARK SMILES IDX 7 1 6 2 5 3 4 4 2 5 1 6 3 7 8 8 9 9 10 10 11 11 12 12 13 13
REMARK H PARENT
REMARK Flexibility Score: inf
ROOT
ATOM      1  C   UNL     1       4.756   0.888  -4.146  1.00  0.00     0.000 C 
ENDROOT
BRANCH   1   2
ATOM      2  C   UNL     1       4.712   2.200  -4.951  1.00  0.00     0.000 C 
BRANCH   2   3
ATOM      3  C   UNL     1       4.863   3.482  -4.112  1.00  0.00     0.006 C 
BRANCH   3   4
ATOM      4  C   UNL     1       3.516   4.102  -3.721  1.00  0.00     0.053 C 
BRANCH   4   5
ATOM      5  C   UNL     1       3.629   5.592  -3.645  1.00  0.00     0.041 C 
ATOM      6  O   UNL     1       4.757   6.136  -3.512  1.00  0.00    -0.550 OA
ATOM      7  O   UNL     1       2.494   6.383  -3.772  1.00  0.00    -0.550 OA
ENDBRANCH   4   5
ENDBRANCH   3   4
ENDBRANCH   2   3
ENDBRANCH   1   2
BRANCH   1   8
ATOM      8  C   UNL     1       3.567  -0.037  -4.440  1.00  0.00     0.000 C 
BRANCH   8   9
ATOM      9  C   UNL     1       2.307   0.776  -4.770  1.00  0.00     0.006 C 
BRANCH   9  10
ATOM     10  C   UNL     1       1.284  -0.037  -5.575  1.00  0.00     0.053 C 
BRANCH  10  11
ATOM     11  C   UNL     1       0.913  -1.309  -4.877  1.00  0.00     0.041 C 
ATOM     12  O   UNL     1       0.275  -1.274  -3.792  1.00  0.00    -0.550 OA
ATOM     13  O   UNL     1       1.244  -2.534  -5.442  1.00  0.00    -0.550 OA
ENDBRANCH  10  11
ENDBRANCH   9  10
ENDBRANCH   8   9
ENDBRANCH   1   8
TORSDOF 8
ENDMDL
MODEL 9
REMARK VINA RESULT:    -3.473     13.110     15.053
REMARK INTER + INTRA:          -5.808
REMARK INTER:                  -5.213
REMARK INTRA:                  -0.595
REMARK UNBOUND:                -0.711
REMARK SMILES O=C([O-])CCCCCCCC(=O)[O-]
REMARK SMILES IDX 7 1 6 2 5 3 4 4 2 5 1 6 3 7 8 8 9 9 10 10 11 11 12 12 13 13
REMARK H PARENT
REMARK Flexibility Score: inf
ROOT
ATOM      1  C   UNL     1       6.899  -7.966   4.715  1.00  0.00     0.000 C 
ENDROOT
BRANCH   1   2
ATOM      2  C   UNL     1       7.670  -7.586   3.438  1.00  0.00     0.000 C 
BRANCH   2   3
ATOM      3  C   UNL     1       8.988  -8.353   3.222  1.00  0.00     0.006 C 
BRANCH   3   4
ATOM      4  C   UNL     1       8.906  -9.818   3.667  1.00  0.00     0.053 C 
BRANCH   4   5
ATOM      5  C   UNL     1       8.436 -10.681   2.539  1.00  0.00     0.041 C 
ATOM      6  O   UNL     1       7.770 -11.723   2.773  1.00  0.00    -0.550 OA
ATOM      7  O   UNL     1       8.691 -10.307   1.225  1.00  0.00    -0.550 OA
ENDBRANCH   4   5
ENDBRANCH   3   4
ENDBRANCH   2   3
ENDBRANCH   1   2
BRANCH   1   8
ATOM      8  C   UNL     1       7.242  -7.069   5.913  1.00  0.00     0.000 C 
BRANCH   8   9
ATOM      9  C   UNL     1       8.387  -7.671   6.740  1.00  0.00     0.006 C 
BRANCH   9  10
ATOM     10  C   UNL     1       8.025  -9.045   7.320  1.00  0.00     0.053 C 
BRANCH  10  11
ATOM     11  C   UNL     1       8.521  -9.202   8.724  1.00  0.00     0.041 C 
ATOM     12  O   UNL     1       8.867 -10.336   9.151  1.00  0.00    -0.550 OA
ATOM     13  O   UNL     1       8.631  -8.092   9.551  1.00  0.00    -0.550 OA
ENDBRANCH  10  11
ENDBRANCH   9  10
ENDBRANCH   8   9
ENDBRANCH   1   8
TORSDOF 8
ENDMDL
