MODEL 1
REMARK VINA RESULT:    -6.795      0.000      0.000
REMARK INTER + INTRA:         -12.400
REMARK INTER:                 -11.561
REMARK INTRA:                  -0.839
REMARK UNBOUND:                -0.839
REMARK SMILES CCCCCCCCCCCCCC(=O)[O-]
REMARK SMILES IDX 8 1 9 2 10 3 11 4 12 5 13 6 14 7 15 8 16 9 7 10 6 11 5 12
REMARK SMILES IDX 4 13 3 14 2 15 1 16
REMARK H PARENT
REMARK Flexibility Score: inf
ROOT
ATOM      1  C   UNL     1     -21.481 -21.692  31.654  1.00  0.00     0.000 C 
ENDROOT
BRANCH   1   2
ATOM      2  C   UNL     1     -21.648 -20.286  31.058  1.00  0.00     0.000 C 
BRANCH   2   3
ATOM      3  C   UNL     1     -22.030 -20.312  29.567  1.00  0.00     0.000 C 
BRANCH   3   4
ATOM      4  C   UNL     1     -21.258 -19.319  28.675  1.00  0.00     0.000 C 
BRANCH   4   5
ATOM      5  C   UNL     1     -20.804 -18.027  29.378  1.00  0.00     0.006 C 
BRANCH   5   6
ATOM      6  C   UNL     1     -19.278 -17.914  29.487  1.00  0.00     0.053 C 
BRANCH   6   7
ATOM      7  C   UNL     1     -18.897 -17.151  30.716  1.00  0.00     0.041 C 
ATOM      8  O   UNL     1     -19.211 -17.587  31.855  1.00  0.00    -0.550 OA
ATOM      9  O   UNL     1     -18.239 -15.933  30.603  1.00  0.00    -0.550 OA
ENDBRANCH   6   7
ENDBRANCH   5   6
ENDBRANCH   4   5
ENDBRANCH   3   4
ENDBRANCH   2   3
ENDBRANCH   1   2
BRANCH   1  10
ATOM     10  C   UNL     1     -22.843 -22.374  31.848  1.00  0.00     0.000 C 
BRANCH  10  11
ATOM     11  C   UNL     1     -22.866 -23.819  31.322  1.00  0.00    -0.000 C 
BRANCH  11  12
ATOM     12  C   UNL     1     -22.358 -23.958  29.871  1.00  0.00    -0.000 C 
BRANCH  12  13
ATOM     13  C   UNL     1     -23.380 -24.663  28.961  1.00  0.00    -0.000 C 
BRANCH  13  14
ATOM     14  C   UNL     1     -23.571 -26.148  29.335  1.00  0.00    -0.000 C 
BRANCH  14  15
ATOM     15  C   UNL     1     -25.024 -26.517  29.675  1.00  0.00    -0.003 C 
ATOM     16  C   UNL     1     -25.363 -26.316  31.151  1.00  0.00     0.004 C 
ENDBRANCH  14  15
ENDBRANCH  13  14
ENDBRANCH  12  13
ENDBRANCH  11  12
ENDBRANCH  10  11
ENDBRANCH   1  10
TORSDOF 12
ENDMDL
MODEL 2
REMARK VINA RESULT:    -6.720      4.240      8.292
REMARK INTER + INTRA:         -12.273
REMARK INTER:                 -11.411
REMARK INTRA:                  -0.862
REMARK UNBOUND:                -0.839
REMARK SMILES CCCCCCCCCCCCCC(=O)[O-]
REMARK SMILES IDX 8 1 9 2 10 3 11 4 12 5 13 6 14 7 15 8 16 9 7 10 6 11 5 12
REMARK SMILES IDX 4 13 3 14 2 15 1 16
REMARK H PARENT
REMARK Flexibility Score: inf
ROOT
ATOM      1  C   UNL     1     -22.857 -22.367  31.820  1.00  0.00     0.000 C 
ENDROOT
BRANCH   1   2
ATOM      2  C   UNL     1     -22.753 -23.778  31.223  1.00  0.00     0.000 C 
BRANCH   2   3
ATOM      3  C   UNL     1     -22.384 -23.768  29.728  1.00  0.00     0.000 C 
BRANCH   3   4
ATOM      4  C   UNL     1     -23.116 -24.816  28.865  1.00  0.00     0.000 C 
BRANCH   4   5
ATOM      5  C   UNL     1     -24.469 -25.290  29.423  1.00  0.00     0.006 C 
BRANCH   5   6
ATOM      6  C   UNL     1     -24.544 -26.813  29.588  1.00  0.00     0.053 C 
BRANCH   6   7
ATOM      7  C   UNL     1     -25.393 -27.170  30.767  1.00  0.00     0.041 C 
ATOM      8  O   UNL     1     -25.355 -26.467  31.811  1.00  0.00    -0.550 OA
ATOM      9  O   UNL     1     -26.188 -28.308  30.733  1.00  0.00    -0.550 OA
ENDBRANCH   6   7
ENDBRANCH   5   6
ENDBRANCH   4   5
ENDBRANCH   3   4
ENDBRANCH   2   3
ENDBRANCH   1   2
BRANCH   1  10
ATOM     10  C   UNL     1     -21.616 -21.531  31.477  1.00  0.00     0.000 C 
BRANCH  10  11
ATOM     11  C   UNL     1     -21.966 -20.193  30.803  1.00  0.00    -0.000 C 
BRANCH  11  12
ATOM     12  C   UNL     1     -21.348 -20.027  29.398  1.00  0.00    -0.000 C 
BRANCH  12  13
ATOM     13  C   UNL     1     -21.029 -18.556  29.073  1.00  0.00    -0.000 C 
BRANCH  13  14
ATOM     14  C   UNL     1     -19.548 -18.208  29.332  1.00  0.00    -0.000 C 
BRANCH  14  15
ATOM     15  C   UNL     1     -19.344 -17.171  30.449  1.00  0.00    -0.003 C 
ATOM     16  C   UNL     1     -18.940 -17.799  31.781  1.00  0.00     0.004 C 
ENDBRANCH  14  15
ENDBRANCH  13  14
ENDBRANCH  12  13
ENDBRANCH  11  12
ENDBRANCH  10  11
ENDBRANCH   1  10
TORSDOF 12
ENDMDL
MODEL 3
REMARK VINA RESULT:    -6.634      1.228      2.106
REMARK INTER + INTRA:         -12.127
REMARK INTER:                 -11.185
REMARK INTRA:                  -0.942
REMARK UNBOUND:                -0.839
REMARK SMILES CCCCCCCCCCCCCC(=O)[O-]
REMARK SMILES IDX 8 1 9 2 10 3 11 4 12 5 13 6 14 7 15 8 16 9 7 10 6 11 5 12
REMARK SMILES IDX 4 13 3 14 2 15 1 16
REMARK H PARENT
REMARK Flexibility Score: inf
ROOT
ATOM      1  C   UNL     1     -22.063 -22.058  28.654  1.00  0.00     0.000 C 
ENDROOT
BRANCH   1   2
ATOM      2  C   UNL     1     -22.486 -20.663  29.139  1.00  0.00     0.000 C 
BRANCH   2   3
ATOM      3  C   UNL     1     -21.361 -19.621  29.011  1.00  0.00     0.000 C 
BRANCH   3   4
ATOM      4  C   UNL     1     -20.823 -19.070  30.348  1.00  0.00     0.000 C 
BRANCH   4   5
ATOM      5  C   UNL     1     -19.353 -18.617  30.323  1.00  0.00     0.006 C 
BRANCH   5   6
ATOM      6  C   UNL     1     -19.135 -17.264  31.013  1.00  0.00     0.053 C 
BRANCH   6   7
ATOM      7  C   UNL     1     -18.419 -16.320  30.099  1.00  0.00     0.041 C 
ATOM      8  O   UNL     1     -17.924 -15.255  30.552  1.00  0.00    -0.550 OA
ATOM      9  O   UNL     1     -18.344 -16.592  28.740  1.00  0.00    -0.550 OA
ENDBRANCH   6   7
ENDBRANCH   5   6
ENDBRANCH   4   5
ENDBRANCH   3   4
ENDBRANCH   2   3
ENDBRANCH   1   2
BRANCH   1  10
ATOM     10  C   UNL     1     -21.853 -23.012  29.838  1.00  0.00     0.000 C 
BRANCH  10  11
ATOM     11  C   UNL     1     -22.358 -22.430  31.170  1.00  0.00    -0.000 C 
BRANCH  11  12
ATOM     12  C   UNL     1     -23.311 -23.372  31.936  1.00  0.00    -0.000 C 
BRANCH  12  13
ATOM     13  C   UNL     1     -23.252 -24.817  31.406  1.00  0.00    -0.000 C 
BRANCH  13  14
ATOM     14  C   UNL     1     -24.657 -25.419  31.192  1.00  0.00    -0.000 C 
BRANCH  14  15
ATOM     15  C   UNL     1     -24.848 -26.063  29.808  1.00  0.00    -0.003 C 
ATOM     16  C   UNL     1     -23.562 -26.109  28.987  1.00  0.00     0.004 C 
ENDBRANCH  14  15
ENDBRANCH  13  14
ENDBRANCH  12  13
ENDBRANCH  11  12
ENDBRANCH  10  11
ENDBRANCH   1  10
TORSDOF 12
ENDMDL
MODEL 4
REMARK VINA RESULT:    -6.620      4.286      7.911
REMARK INTER + INTRA:         -12.104
REMARK INTER:                 -11.081
REMARK INTRA:                  -1.022
REMARK UNBOUND:                -0.839
REMARK SMILES CCCCCCCCCCCCCC(=O)[O-]
REMARK SMILES IDX 8 1 9 2 10 3 11 4 12 5 13 6 14 7 15 8 16 9 7 10 6 11 5 12
REMARK SMILES IDX 4 13 3 14 2 15 1 16
REMARK H PARENT
REMARK Flexibility Score: inf
ROOT
ATOM      1  C   UNL     1     -21.616 -21.852  31.939  1.00  0.00     0.000 C 
ENDROOT
BRANCH   1   2
ATOM      2  C   UNL     1     -23.043 -22.422  31.975  1.00  0.00     0.000 C 
BRANCH   2   3
ATOM      3  C   UNL     1     -23.108 -23.896  31.539  1.00  0.00     0.000 C 
BRANCH   3   4
ATOM      4  C   UNL     1     -22.356 -24.228  30.234  1.00  0.00     0.000 C 
BRANCH   4   5
ATOM      5  C   UNL     1     -23.251 -24.634  29.050  1.00  0.00     0.006 C 
BRANCH   5   6
ATOM      6  C   UNL     1     -23.559 -26.136  29.025  1.00  0.00     0.053 C 
BRANCH   6   7
ATOM      7  C   UNL     1     -24.884 -26.409  29.663  1.00  0.00     0.041 C 
ATOM      8  O   UNL     1     -24.940 -26.950  30.799  1.00  0.00    -0.550 OA
ATOM      9  O   UNL     1     -26.058 -26.113  28.983  1.00  0.00    -0.550 OA
ENDBRANCH   6   7
ENDBRANCH   5   6
ENDBRANCH   4   5
ENDBRANCH   3   4
ENDBRANCH   2   3
ENDBRANCH   1   2
BRANCH   1  10
ATOM     10  C   UNL     1     -21.583 -20.494  31.224  1.00  0.00     0.000 C 
BRANCH  10  11
ATOM     11  C   UNL     1     -22.223 -20.541  29.826  1.00  0.00    -0.000 C 
BRANCH  11  12
ATOM     12  C   UNL     1     -21.528 -19.626  28.795  1.00  0.00    -0.000 C 
BRANCH  12  13
ATOM     13  C   UNL     1     -20.225 -19.017  29.343  1.00  0.00    -0.000 C 
BRANCH  13  14
ATOM     14  C   UNL     1     -20.307 -17.482  29.478  1.00  0.00    -0.000 C 
BRANCH  14  15
ATOM     15  C   UNL     1     -19.688 -16.942  30.778  1.00  0.00    -0.003 C 
ATOM     16  C   UNL     1     -18.844 -17.980  31.514  1.00  0.00     0.004 C 
ENDBRANCH  14  15
ENDBRANCH  13  14
ENDBRANCH  12  13
ENDBRANCH  11  12
ENDBRANCH  10  11
ENDBRANCH   1  10
TORSDOF 12
ENDMDL
MODEL 5
REMARK VINA RESULT:    -6.587      1.440      2.191
REMARK INTER + INTRA:         -12.047
REMARK INTER:                 -11.467
REMARK INTRA:                  -0.580
REMARK UNBOUND:                -0.839
REMARK SMILES CCCCCCCCCCCCCC(=O)[O-]
REMARK SMILES IDX 8 1 9 2 10 3 11 4 12 5 13 6 14 7 15 8 16 9 7 10 6 11 5 12
REMARK SMILES IDX 4 13 3 14 2 15 1 16
REMARK H PARENT
REMARK Flexibility Score: inf
ROOT
ATOM      1  C   UNL     1     -22.343 -23.220  31.077  1.00  0.00     0.000 C 
ENDROOT
BRANCH   1   2
ATOM      2  C   UNL     1     -22.116 -21.791  31.590  1.00  0.00     0.000 C 
BRANCH   2   3
ATOM      3  C   UNL     1     -22.319 -20.725  30.498  1.00  0.00     0.000 C 
BRANCH   3   4
ATOM      4  C   UNL     1     -21.149 -19.736  30.322  1.00  0.00     0.000 C 
BRANCH   4   5
ATOM      5  C   UNL     1     -21.107 -19.010  28.966  1.00  0.00     0.006 C 
BRANCH   5   6
ATOM      6  C   UNL     1     -20.557 -17.582  29.071  1.00  0.00     0.053 C 
BRANCH   6   7
ATOM      7  C   UNL     1     -19.194 -17.592  29.689  1.00  0.00     0.041 C 
ATOM      8  O   UNL     1     -18.231 -18.136  29.089  1.00  0.00    -0.550 OA
ATOM      9  O   UNL     1     -18.999 -17.044  30.950  1.00  0.00    -0.550 OA
ENDBRANCH   6   7
ENDBRANCH   5   6
ENDBRANCH   4   5
ENDBRANCH   3   4
ENDBRANCH   2   3
ENDBRANCH   1   2
BRANCH   1  10
ATOM     10  C   UNL     1     -22.372 -23.257  29.543  1.00  0.00     0.000 C 
BRANCH  10  11
ATOM     11  C   UNL     1     -23.035 -24.530  28.989  1.00  0.00    -0.000 C 
BRANCH  11  12
ATOM     12  C   UNL     1     -23.767 -25.364  30.062  1.00  0.00    -0.000 C 
BRANCH  12  13
ATOM     13  C   UNL     1     -25.144 -25.855  29.578  1.00  0.00    -0.000 C 
BRANCH  13  14
ATOM     14  C   UNL     1     -25.033 -27.068  28.630  1.00  0.00    -0.000 C 
BRANCH  14  15
ATOM     15  C   UNL     1     -26.303 -27.933  28.582  1.00  0.00    -0.003 C 
ATOM     16  C   UNL     1     -26.706 -28.326  27.163  1.00  0.00     0.004 C 
ENDBRANCH  14  15
ENDBRANCH  13  14
ENDBRANCH  12  13
ENDBRANCH  11  12
ENDBRANCH  10  11
ENDBRANCH   1  10
TORSDOF 12
ENDMDL
MODEL 6
REMARK VINA RESULT:    -6.455      1.938      3.472
REMARK INTER + INTRA:         -11.823
REMARK INTER:                 -11.175
REMARK INTRA:                  -0.648
REMARK UNBOUND:                -0.839
REMARK SMILES CCCCCCCCCCCCCC(=O)[O-]
REMARK SMILES IDX 8 1 9 2 10 3 11 4 12 5 13 6 14 7 15 8 16 9 7 10 6 11 5 12
REMARK SMILES IDX 4 13 3 14 2 15 1 16
REMARK H PARENT
REMARK Flexibility Score: inf
ROOT
ATOM      1  C   UNL     1     -22.352 -23.717  29.817  1.00  0.00     0.000 C 
ENDROOT
BRANCH   1   2
ATOM      2  C   UNL     1     -22.945 -23.737  31.234  1.00  0.00     0.000 C 
BRANCH   2   3
ATOM      3  C   UNL     1     -22.755 -22.404  31.979  1.00  0.00     0.000 C 
BRANCH   3   4
ATOM      4  C   UNL     1     -21.569 -21.545  31.495  1.00  0.00     0.000 C 
BRANCH   4   5
ATOM      5  C   UNL     1     -21.954 -20.185  30.887  1.00  0.00     0.006 C 
BRANCH   5   6
ATOM      6  C   UNL     1     -21.253 -19.912  29.550  1.00  0.00     0.053 C 
BRANCH   6   7
ATOM      7  C   UNL     1     -20.352 -18.722  29.667  1.00  0.00     0.041 C 
ATOM      8  O   UNL     1     -19.302 -18.788  30.358  1.00  0.00    -0.550 OA
ATOM      9  O   UNL     1     -20.699 -17.525  29.055  1.00  0.00    -0.550 OA
ENDBRANCH   6   7
ENDBRANCH   5   6
ENDBRANCH   4   5
ENDBRANCH   3   4
ENDBRANCH   2   3
ENDBRANCH   1   2
BRANCH   1  10
ATOM     10  C   UNL     1     -23.118 -24.667  28.885  1.00  0.00     0.000 C 
BRANCH  10  11
ATOM     11  C   UNL     1     -23.722 -25.871  29.628  1.00  0.00    -0.000 C 
BRANCH  11  12
ATOM     12  C   UNL     1     -24.503 -26.836  28.710  1.00  0.00    -0.000 C 
BRANCH  12  13
ATOM     13  C   UNL     1     -25.783 -27.368  29.379  1.00  0.00    -0.000 C 
BRANCH  13  14
ATOM     14  C   UNL     1     -26.595 -28.288  28.442  1.00  0.00    -0.000 C 
BRANCH  14  15
ATOM     15  C   UNL     1     -26.192 -28.173  26.963  1.00  0.00    -0.003 C 
ATOM     16  C   UNL     1     -27.308 -28.583  26.005  1.00  0.00     0.004 C 
ENDBRANCH  14  15
ENDBRANCH  13  14
ENDBRANCH  12  13
ENDBRANCH  11  12
ENDBRANCH  10  11
ENDBRANCH   1  10
TORSDOF 12
ENDMDL
MODEL 7
REMARK VINA RESULT:    -6.436      4.146      8.711
REMARK INTER + INTRA:         -11.791
REMARK INTER:                 -11.256
REMARK INTRA:                  -0.535
REMARK UNBOUND:                -0.839
REMARK SMILES CCCCCCCCCCCCCC(=O)[O-]
REMARK SMILES IDX 8 1 9 2 10 3 11 4 12 5 13 6 14 7 15 8 16 9 7 10 6 11 5 12
REMARK SMILES IDX 4 13 3 14 2 15 1 16
REMARK H PARENT
REMARK Flexibility Score: inf
ROOT
ATOM      1  C   UNL     1     -22.061 -20.640  29.336  1.00  0.00     0.000 C 
ENDROOT
BRANCH   1   2
ATOM      2  C   UNL     1     -22.375 -20.702  30.839  1.00  0.00     0.000 C 
BRANCH   2   3
ATOM      3  C   UNL     1     -22.018 -22.061  31.467  1.00  0.00     0.000 C 
BRANCH   3   4
ATOM      4  C   UNL     1     -22.237 -23.284  30.554  1.00  0.00     0.000 C 
BRANCH   4   5
ATOM      5  C   UNL     1     -23.056 -24.427  31.179  1.00  0.00     0.006 C 
BRANCH   5   6
ATOM      6  C   UNL     1     -23.528 -25.456  30.144  1.00  0.00     0.053 C 
BRANCH   6   7
ATOM      7  C   UNL     1     -24.984 -25.750  30.325  1.00  0.00     0.041 C 
ATOM      8  O   UNL     1     -25.750 -25.788  29.327  1.00  0.00    -0.550 OA
ATOM      9  O   UNL     1     -25.503 -25.930  31.600  1.00  0.00    -0.550 OA
ENDBRANCH   6   7
ENDBRANCH   5   6
ENDBRANCH   4   5
ENDBRANCH   3   4
ENDBRANCH   2   3
ENDBRANCH   1   2
BRANCH   1  10
ATOM     10  C   UNL     1     -21.243 -19.386  28.996  1.00  0.00     0.000 C 
BRANCH  10  11
ATOM     11  C   UNL     1     -20.433 -18.860  30.193  1.00  0.00    -0.000 C 
BRANCH  11  12
ATOM     12  C   UNL     1     -19.015 -18.376  29.818  1.00  0.00    -0.000 C 
BRANCH  12  13
ATOM     13  C   UNL     1     -18.936 -16.844  29.696  1.00  0.00    -0.000 C 
BRANCH  13  14
ATOM     14  C   UNL     1     -18.854 -16.376  28.227  1.00  0.00    -0.000 C 
BRANCH  14  15
ATOM     15  C   UNL     1     -17.532 -15.676  27.875  1.00  0.00    -0.003 C 
ATOM     16  C   UNL     1     -17.266 -15.619  26.373  1.00  0.00     0.004 C 
ENDBRANCH  14  15
ENDBRANCH  13  14
ENDBRANCH  12  13
ENDBRANCH  11  12
ENDBRANCH  10  11
ENDBRANCH   1  10
TORSDOF 12
ENDMDL
MODEL 8
REMARK VINA RESULT:    -6.413      5.272      9.023
REMARK INTER + INTRA:         -11.750
REMARK INTER:                 -11.205
REMARK INTRA:                  -0.545
REMARK UNBOUND:                -0.839
REMARK SMILES CCCCCCCCCCCCCC(=O)[O-]
REMARK SMILES IDX 8 1 9 2 10 3 11 4 12 5 13 6 14 7 15 8 16 9 7 10 6 11 5 12
REMARK SMILES IDX 4 13 3 14 2 15 1 16
REMARK H PARENT
REMARK Flexibility Score: inf
ROOT
ATOM      1  C   UNL     1     -22.429 -23.652  31.230  1.00  0.00     0.000 C 
ENDROOT
BRANCH   1   2
ATOM      2  C   UNL     1     -22.689 -23.860  29.731  1.00  0.00     0.000 C 
BRANCH   2   3
ATOM      3  C   UNL     1     -23.416 -25.182  29.429  1.00  0.00     0.000 C 
BRANCH   3   4
ATOM      4  C   UNL     1     -24.646 -25.471  30.313  1.00  0.00     0.000 C 
BRANCH   4   5
ATOM      5  C   UNL     1     -25.322 -26.831  30.067  1.00  0.00     0.006 C 
BRANCH   5   6
ATOM      6  C   UNL     1     -25.321 -27.237  28.587  1.00  0.00     0.053 C 
BRANCH   6   7
ATOM      7  C   UNL     1     -26.435 -28.196  28.308  1.00  0.00     0.041 C 
ATOM      8  O   UNL     1     -26.917 -28.895  29.237  1.00  0.00    -0.550 OA
ATOM      9  O   UNL     1     -26.907 -28.355  27.011  1.00  0.00    -0.550 OA
ENDBRANCH   6   7
ENDBRANCH   5   6
ENDBRANCH   4   5
ENDBRANCH   3   4
ENDBRANCH   2   3
ENDBRANCH   1   2
BRANCH   1  10
ATOM     10  C   UNL     1     -22.368 -22.157  31.576  1.00  0.00     0.000 C 
BRANCH  10  11
ATOM     11  C   UNL     1     -22.343 -21.257  30.329  1.00  0.00    -0.000 C 
BRANCH  11  12
ATOM     12  C   UNL     1     -21.570 -19.937  30.534  1.00  0.00    -0.000 C 
BRANCH  12  13
ATOM     13  C   UNL     1     -21.181 -19.277  29.198  1.00  0.00    -0.000 C 
BRANCH  13  14
ATOM     14  C   UNL     1     -20.383 -17.971  29.401  1.00  0.00    -0.000 C 
BRANCH  14  15
ATOM     15  C   UNL     1     -19.016 -18.181  30.071  1.00  0.00    -0.003 C 
ATOM     16  C   UNL     1     -18.924 -17.541  31.455  1.00  0.00     0.004 C 
ENDBRANCH  14  15
ENDBRANCH  13  14
ENDBRANCH  12  13
ENDBRANCH  11  12
ENDBRANCH  10  11
ENDBRANCH   1  10
TORSDOF 12
ENDMDL
MODEL 9
REMARK VINA RESULT:    -6.155      3.947      8.814
REMARK INTER + INTRA:         -11.311
REMARK INTER:                 -10.807
REMARK INTRA:                  -0.504
REMARK UNBOUND:                -0.839
REMARK SMILES CCCCCCCCCCCCCC(=O)[O-]
REMARK SMILES IDX 8 1 9 2 10 3 11 4 12 5 13 6 14 7 15 8 16 9 7 10 6 11 5 12
REMARK SMILES IDX 4 13 3 14 2 15 1 16
REMARK H PARENT
REMARK Flexibility Score: inf
ROOT
ATOM      1  C   UNL     1     -20.569 -18.824  29.983  1.00  0.00     0.000 C 
ENDROOT
BRANCH   1   2
ATOM      2  C   UNL     1     -21.397 -19.575  28.929  1.00  0.00     0.000 C 
BRANCH   2   3
ATOM      3  C   UNL     1     -21.994 -20.889  29.463  1.00  0.00     0.000 C 
BRANCH   3   4
ATOM      4  C   UNL     1     -22.091 -20.988  30.999  1.00  0.00     0.000 C 
BRANCH   4   5
ATOM      5  C   UNL     1     -22.482 -22.375  31.540  1.00  0.00     0.006 C 
BRANCH   5   6
ATOM      6  C   UNL     1     -22.141 -23.510  30.567  1.00  0.00     0.053 C 
BRANCH   6   7
ATOM      7  C   UNL     1     -23.203 -24.564  30.602  1.00  0.00     0.041 C 
ATOM      8  O   UNL     1     -23.567 -25.060  31.700  1.00  0.00    -0.550 OA
ATOM      9  O   UNL     1     -23.753 -25.036  29.418  1.00  0.00    -0.550 OA
ENDBRANCH   6   7
ENDBRANCH   5   6
ENDBRANCH   4   5
ENDBRANCH   3   4
ENDBRANCH   2   3
ENDBRANCH   1   2
BRANCH   1  10
ATOM     10  C   UNL     1     -20.138 -17.445  29.465  1.00  0.00     0.000 C 
BRANCH  10  11
ATOM     11  C   UNL     1     -18.617 -17.332  29.266  1.00  0.00    -0.000 C 
BRANCH  11  12
ATOM     12  C   UNL     1     -18.068 -15.906  29.484  1.00  0.00    -0.000 C 
BRANCH  12  13
ATOM     13  C   UNL     1     -17.482 -15.304  28.193  1.00  0.00    -0.000 C 
BRANCH  13  14
ATOM     14  C   UNL     1     -17.989 -16.027  26.927  1.00  0.00    -0.000 C 
BRANCH  14  15
ATOM     15  C   UNL     1     -17.771 -15.229  25.631  1.00  0.00    -0.003 C 
ATOM     16  C   UNL     1     -16.298 -15.083  25.260  1.00  0.00     0.004 C 
ENDBRANCH  14  15
ENDBRANCH  13  14
ENDBRANCH  12  13
ENDBRANCH  11  12
ENDBRANCH  10  11
ENDBRANCH   1  10
TORSDOF 12
ENDMDL
