MODEL 1
REMARK VINA RESULT:    -5.195      0.000      0.000
REMARK INTER + INTRA:          -7.062
REMARK INTER:                  -6.713
REMARK INTRA:                  -0.349
REMARK UNBOUND:                -0.349
REMARK SMILES CCO[C@@H]1O[C@@H](CO)[C@H](O)[C@@H](O)[C@@H]1O
REMARK SMILES IDX 4 1 13 2 11 3 9 4 6 5 5 6 3 7 2 8 1 9 14 10 12 12 7 14 8 15
REMARK SMILES IDX 10 17
REMARK H PARENT 14 11 12 13 8 16 10 18
REMARK Flexibility Score: inf
ROOT
ATOM      1  C   UNL     1      29.832 -37.098 -13.288  1.00  0.00     0.281 C 
ATOM      2  C   UNL     1      29.322 -36.107 -14.356  1.00  0.00     0.202 C 
ATOM      3  C   UNL     1      30.156 -36.228 -15.646  1.00  0.00     0.179 C 
ATOM      4  C   UNL     1      30.227 -37.703 -16.089  1.00  0.00     0.177 C 
ATOM      5  C   UNL     1      30.679 -38.594 -14.901  1.00  0.00     0.178 C 
ATOM      6  O   UNL     1      29.805 -38.427 -13.793  1.00  0.00    -0.341 OA
ENDROOT
BRANCH   1   7
ATOM      7  O   UNL     1      31.132 -36.734 -12.851  1.00  0.00    -0.350 OA
BRANCH   7   8
ATOM      8  C   UNL     1      31.365 -37.224 -11.548  1.00  0.00     0.160 C 
ATOM      9  C   UNL     1      30.063 -37.187 -10.763  1.00  0.00     0.035 C 
ENDBRANCH   7   8
ENDBRANCH   1   7
BRANCH   2  10
ATOM     10  O   UNL     1      29.318 -34.788 -13.867  1.00  0.00    -0.385 OA
ATOM     11  H   UNL     1      28.689 -34.748 -13.099  1.00  0.00     0.211 HD
ENDBRANCH   2  10
BRANCH   3  12
ATOM     12  O   UNL     1      29.624 -35.419 -16.668  1.00  0.00    -0.387 OA
ATOM     13  H   UNL     1      29.237 -34.610 -16.242  1.00  0.00     0.211 HD
ENDBRANCH   3  12
BRANCH   5  14
ATOM     14  C   UNL     1      30.673 -40.080 -15.283  1.00  0.00     0.191 C 
BRANCH  14  15
ATOM     15  O   UNL     1      31.818 -40.401 -16.023  1.00  0.00    -0.394 OA
ATOM     16  H   UNL     1      31.967 -39.641 -16.643  1.00  0.00     0.210 HD
ENDBRANCH  14  15
ENDBRANCH   5  14
BRANCH   4  17
ATOM     17  O   UNL     1      31.086 -37.840 -17.195  1.00  0.00    -0.387 OA
ATOM     18  H   UNL     1      31.897 -38.324 -16.889  1.00  0.00     0.211 HD
ENDBRANCH   4  17
TORSDOF 7
ENDMDL
MODEL 2
REMARK VINA RESULT:    -4.982     10.340     11.266
REMARK INTER + INTRA:          -6.788
REMARK INTER:                  -6.338
REMARK INTRA:                  -0.450
REMARK UNBOUND:                -0.349
REMARK SMILES CCO[C@@H]1O[C@@H](CO)[C@H](O)[C@@H](O)[C@@H]1O
REMARK SMILES IDX 4 1 13 2 11 3 9 4 6 5 5 6 3 7 2 8 1 9 14 10 12 12 7 14 8 15
REMARK SMILES IDX 10 17
REMARK H PARENT 14 11 12 13 8 16 10 18
REMARK Flexibility Score: inf
ROOT
ATOM      1  C   UNL     1      34.841 -39.640  -4.369  1.00  0.00     0.281 C 
ATOM      2  C   UNL     1      34.396 -38.549  -3.373  1.00  0.00     0.202 C 
ATOM      3  C   UNL     1      33.004 -38.006  -3.752  1.00  0.00     0.179 C 
ATOM      4  C   UNL     1      32.018 -39.176  -3.940  1.00  0.00     0.177 C 
ATOM      5  C   UNL     1      32.624 -40.233  -4.903  1.00  0.00     0.178 C 
ATOM      6  O   UNL     1      33.880 -40.687  -4.419  1.00  0.00    -0.341 OA
ENDROOT
BRANCH   1   7
ATOM      7  O   UNL     1      35.068 -39.080  -5.653  1.00  0.00    -0.350 OA
BRANCH   7   8
ATOM      8  C   UNL     1      36.158 -39.721  -6.280  1.00  0.00     0.160 C 
ATOM      9  C   UNL     1      37.453 -39.093  -5.791  1.00  0.00     0.035 C 
ENDBRANCH   7   8
ENDBRANCH   1   7
BRANCH   2  10
ATOM     10  O   UNL     1      35.346 -37.515  -3.290  1.00  0.00    -0.385 OA
ATOM     11  H   UNL     1      35.856 -37.498  -4.143  1.00  0.00     0.211 HD
ENDBRANCH   2  10
BRANCH   3  12
ATOM     12  O   UNL     1      32.535 -37.101  -2.783  1.00  0.00    -0.387 OA
ATOM     13  H   UNL     1      32.272 -36.265  -3.252  1.00  0.00     0.211 HD
ENDBRANCH   3  12
BRANCH   5  14
ATOM     14  C   UNL     1      31.705 -41.455  -5.041  1.00  0.00     0.191 C 
BRANCH  14  15
ATOM     15  O   UNL     1      30.786 -41.500  -3.984  1.00  0.00    -0.394 OA
ATOM     16  H   UNL     1      30.032 -42.063  -4.299  1.00  0.00     0.210 HD
ENDBRANCH  14  15
ENDBRANCH   5  14
BRANCH   4  17
ATOM     17  O   UNL     1      30.779 -38.700  -4.406  1.00  0.00    -0.387 OA
ATOM     18  H   UNL     1      30.793 -37.709  -4.339  1.00  0.00     0.211 HD
ENDBRANCH   4  17
TORSDOF 7
ENDMDL
MODEL 3
REMARK VINA RESULT:    -4.922      1.621      3.552
REMARK INTER + INTRA:          -6.710
REMARK INTER:                  -6.509
REMARK INTRA:                  -0.201
REMARK UNBOUND:                -0.349
REMARK SMILES CCO[C@@H]1O[C@@H](CO)[C@H](O)[C@@H](O)[C@@H]1O
REMARK SMILES IDX 4 1 13 2 11 3 9 4 6 5 5 6 3 7 2 8 1 9 14 10 12 12 7 14 8 15
REMARK SMILES IDX 10 17
REMARK H PARENT 14 11 12 13 8 16 10 18
REMARK Flexibility Score: inf
ROOT
ATOM      1  C   UNL     1      29.955 -37.039 -15.139  1.00  0.00     0.281 C 
ATOM      2  C   UNL     1      30.601 -36.220 -14.001  1.00  0.00     0.202 C 
ATOM      3  C   UNL     1      30.720 -37.074 -12.723  1.00  0.00     0.179 C 
ATOM      4  C   UNL     1      31.408 -38.415 -13.049  1.00  0.00     0.177 C 
ATOM      5  C   UNL     1      30.706 -39.092 -14.258  1.00  0.00     0.178 C 
ATOM      6  O   UNL     1      30.703 -38.224 -15.383  1.00  0.00    -0.341 OA
ENDROOT
BRANCH   1   7
ATOM      7  O   UNL     1      28.600 -37.332 -14.836  1.00  0.00    -0.350 OA
BRANCH   7   8
ATOM      8  C   UNL     1      27.899 -37.672 -16.013  1.00  0.00     0.160 C 
ATOM      9  C   UNL     1      28.082 -36.565 -17.038  1.00  0.00     0.035 C 
ENDBRANCH   7   8
ENDBRANCH   1   7
BRANCH   2  10
ATOM     10  O   UNL     1      29.890 -35.031 -13.761  1.00  0.00    -0.385 OA
ATOM     11  H   UNL     1      29.724 -34.965 -12.783  1.00  0.00     0.211 HD
ENDBRANCH   2  10
BRANCH   3  12
ATOM     12  O   UNL     1      31.418 -36.381 -11.717  1.00  0.00    -0.387 OA
ATOM     13  H   UNL     1      32.228 -35.982 -12.130  1.00  0.00     0.211 HD
ENDBRANCH   3  12
BRANCH   5  14
ATOM     14  C   UNL     1      31.422 -40.386 -14.667  1.00  0.00     0.191 C 
BRANCH  14  15
ATOM     15  O   UNL     1      31.884 -40.296 -15.986  1.00  0.00    -0.394 OA
ATOM     16  H   UNL     1      32.817 -40.633 -15.975  1.00  0.00     0.210 HD
ENDBRANCH  14  15
ENDBRANCH   5  14
BRANCH   4  17
ATOM     17  O   UNL     1      31.411 -39.250 -11.917  1.00  0.00    -0.387 OA
ATOM     18  H   UNL     1      30.742 -38.892 -11.277  1.00  0.00     0.211 HD
ENDBRANCH   4  17
TORSDOF 7
ENDMDL
MODEL 4
REMARK VINA RESULT:    -4.907      1.561      4.298
REMARK INTER + INTRA:          -6.690
REMARK INTER:                  -6.243
REMARK INTRA:                  -0.448
REMARK UNBOUND:                -0.349
REMARK SMILES CCO[C@@H]1O[C@@H](CO)[C@H](O)[C@@H](O)[C@@H]1O
REMARK SMILES IDX 4 1 13 2 11 3 9 4 6 5 5 6 3 7 2 8 1 9 14 10 12 12 7 14 8 15
REMARK SMILES IDX 10 17
REMARK H PARENT 14 11 12 13 8 16 10 18
REMARK Flexibility Score: inf
ROOT
ATOM      1  C   UNL     1      29.944 -39.099 -15.630  1.00  0.00     0.281 C 
ATOM      2  C   UNL     1      30.663 -38.067 -16.524  1.00  0.00     0.202 C 
ATOM      3  C   UNL     1      30.041 -36.668 -16.343  1.00  0.00     0.179 C 
ATOM      4  C   UNL     1      29.972 -36.314 -14.843  1.00  0.00     0.177 C 
ATOM      5  C   UNL     1      29.295 -37.469 -14.056  1.00  0.00     0.178 C 
ATOM      6  O   UNL     1      29.988 -38.691 -14.268  1.00  0.00    -0.341 OA
ENDROOT
BRANCH   1   7
ATOM      7  O   UNL     1      28.609 -39.295 -16.071  1.00  0.00    -0.350 OA
BRANCH   7   8
ATOM      8  C   UNL     1      28.243 -40.652 -15.932  1.00  0.00     0.160 C 
ATOM      9  C   UNL     1      29.244 -41.516 -16.682  1.00  0.00     0.035 C 
ENDBRANCH   7   8
ENDBRANCH   1   7
BRANCH   2  10
ATOM     10  O   UNL     1      30.652 -38.464 -17.872  1.00  0.00    -0.385 OA
ATOM     11  H   UNL     1      29.962 -39.171 -17.978  1.00  0.00     0.211 HD
ENDBRANCH   2  10
BRANCH   3  12
ATOM     12  O   UNL     1      30.766 -35.697 -17.057  1.00  0.00    -0.387 OA
ATOM     13  H   UNL     1      30.589 -34.816 -16.635  1.00  0.00     0.211 HD
ENDBRANCH   3  12
BRANCH   5  14
ATOM     14  C   UNL     1      29.291 -37.188 -12.547  1.00  0.00     0.191 C 
BRANCH  14  15
ATOM     15  O   UNL     1      28.404 -36.148 -12.243  1.00  0.00    -0.394 OA
ATOM     16  H   UNL     1      28.514 -35.966 -11.273  1.00  0.00     0.210 HD
ENDBRANCH  14  15
ENDBRANCH   5  14
BRANCH   4  17
ATOM     17  O   UNL     1      29.294 -35.095 -14.661  1.00  0.00    -0.387 OA
ATOM     18  H   UNL     1      28.392 -35.188 -15.065  1.00  0.00     0.211 HD
ENDBRANCH   4  17
TORSDOF 7
ENDMDL
MODEL 5
REMARK VINA RESULT:    -4.863      9.940     12.052
REMARK INTER + INTRA:          -6.634
REMARK INTER:                  -6.409
REMARK INTRA:                  -0.225
REMARK UNBOUND:                -0.349
REMARK SMILES CCO[C@@H]1O[C@@H](CO)[C@H](O)[C@@H](O)[C@@H]1O
REMARK SMILES IDX 4 1 13 2 11 3 9 4 6 5 5 6 3 7 2 8 1 9 14 10 12 12 7 14 8 15
REMARK SMILES IDX 10 17
REMARK H PARENT 14 11 12 13 8 16 10 18
REMARK Flexibility Score: inf
ROOT
ATOM      1  C   UNL     1      34.842 -40.345  -5.035  1.00  0.00     0.281 C 
ATOM      2  C   UNL     1      35.788 -39.744  -6.097  1.00  0.00     0.202 C 
ATOM      3  C   UNL     1      37.000 -39.072  -5.423  1.00  0.00     0.179 C 
ATOM      4  C   UNL     1      37.655 -40.050  -4.427  1.00  0.00     0.177 C 
ATOM      5  C   UNL     1      36.581 -40.634  -3.471  1.00  0.00     0.178 C 
ATOM      6  O   UNL     1      35.545 -41.266  -4.211  1.00  0.00    -0.341 OA
ENDROOT
BRANCH   1   7
ATOM      7  O   UNL     1      34.238 -39.316  -4.268  1.00  0.00    -0.350 OA
BRANCH   7   8
ATOM      8  C   UNL     1      33.019 -39.769  -3.716  1.00  0.00     0.160 C 
ATOM      9  C   UNL     1      32.217 -40.476  -4.797  1.00  0.00     0.035 C 
ENDBRANCH   7   8
ENDBRANCH   1   7
BRANCH   2  10
ATOM     10  O   UNL     1      35.105 -38.848  -6.939  1.00  0.00    -0.385 OA
ATOM     11  H   UNL     1      34.915 -39.316  -7.795  1.00  0.00     0.211 HD
ENDBRANCH   2  10
BRANCH   3  12
ATOM     12  O   UNL     1      37.929 -38.630  -6.382  1.00  0.00    -0.387 OA
ATOM     13  H   UNL     1      37.545 -38.808  -7.281  1.00  0.00     0.211 HD
ENDBRANCH   3  12
BRANCH   5  14
ATOM     14  C   UNL     1      37.186 -41.680  -2.524  1.00  0.00     0.191 C 
BRANCH  14  15
ATOM     15  O   UNL     1      36.763 -42.967  -2.881  1.00  0.00    -0.394 OA
ATOM     16  H   UNL     1      35.900 -43.114  -2.412  1.00  0.00     0.210 HD
ENDBRANCH  14  15
ENDBRANCH   5  14
BRANCH   4  17
ATOM     17  O   UNL     1      38.686 -39.406  -3.718  1.00  0.00    -0.387 OA
ATOM     18  H   UNL     1      39.280 -40.109  -3.344  1.00  0.00     0.211 HD
ENDBRANCH   4  17
TORSDOF 7
ENDMDL
MODEL 6
REMARK VINA RESULT:    -4.825      1.994      3.582
REMARK INTER + INTRA:          -6.585
REMARK INTER:                  -6.183
REMARK INTRA:                  -0.402
REMARK UNBOUND:                -0.349
REMARK SMILES CCO[C@@H]1O[C@@H](CO)[C@H](O)[C@@H](O)[C@@H]1O
REMARK SMILES IDX 4 1 13 2 11 3 9 4 6 5 5 6 3 7 2 8 1 9 14 10 12 12 7 14 8 15
REMARK SMILES IDX 10 17
REMARK H PARENT 14 11 12 13 8 16 10 18
REMARK Flexibility Score: inf
ROOT
ATOM      1  C   UNL     1      30.030 -37.342 -14.402  1.00  0.00     0.281 C 
ATOM      2  C   UNL     1      30.821 -38.576 -14.888  1.00  0.00     0.202 C 
ATOM      3  C   UNL     1      29.882 -39.576 -15.590  1.00  0.00     0.179 C 
ATOM      4  C   UNL     1      29.054 -38.851 -16.670  1.00  0.00     0.177 C 
ATOM      5  C   UNL     1      28.377 -37.592 -16.063  1.00  0.00     0.178 C 
ATOM      6  O   UNL     1      29.350 -36.730 -15.490  1.00  0.00    -0.341 OA
ENDROOT
BRANCH   1   7
ATOM      7  O   UNL     1      29.132 -37.704 -13.364  1.00  0.00    -0.350 OA
BRANCH   7   8
ATOM      8  C   UNL     1      29.260 -36.814 -12.275  1.00  0.00     0.160 C 
ATOM      9  C   UNL     1      29.975 -37.523 -11.136  1.00  0.00     0.035 C 
ENDBRANCH   7   8
ENDBRANCH   1   7
BRANCH   2  10
ATOM     10  O   UNL     1      31.521 -39.182 -13.830  1.00  0.00    -0.385 OA
ATOM     11  H   UNL     1      30.896 -39.795 -13.359  1.00  0.00     0.211 HD
ENDBRANCH   2  10
BRANCH   3  12
ATOM     12  O   UNL     1      30.610 -40.645 -16.145  1.00  0.00    -0.387 OA
ATOM     13  H   UNL     1      30.822 -40.410 -17.087  1.00  0.00     0.211 HD
ENDBRANCH   3  12
BRANCH   5  14
ATOM     14  C   UNL     1      27.617 -36.796 -17.133  1.00  0.00     0.191 C 
BRANCH  14  15
ATOM     15  O   UNL     1      26.273 -37.189 -17.175  1.00  0.00    -0.394 OA
ATOM     16  H   UNL     1      25.795 -36.481 -17.681  1.00  0.00     0.210 HD
ENDBRANCH  14  15
ENDBRANCH   5  14
BRANCH   4  17
ATOM     17  O   UNL     1      28.109 -39.729 -17.231  1.00  0.00    -0.387 OA
ATOM     18  H   UNL     1      28.606 -40.438 -17.716  1.00  0.00     0.211 HD
ENDBRANCH   4  17
TORSDOF 7
ENDMDL
MODEL 7
REMARK VINA RESULT:    -4.790      1.348      4.062
REMARK INTER + INTRA:          -6.539
REMARK INTER:                  -6.165
REMARK INTRA:                  -0.375
REMARK UNBOUND:                -0.349
REMARK SMILES CCO[C@@H]1O[C@@H](CO)[C@H](O)[C@@H](O)[C@@H]1O
REMARK SMILES IDX 4 1 13 2 11 3 9 4 6 5 5 6 3 7 2 8 1 9 14 10 12 12 7 14 8 15
REMARK SMILES IDX 10 17
REMARK H PARENT 14 11 12 13 8 16 10 18
REMARK Flexibility Score: inf
ROOT
ATOM      1  C   UNL     1      30.593 -38.495 -15.138  1.00  0.00     0.281 C 
ATOM      2  C   UNL     1      30.299 -37.112 -15.758  1.00  0.00     0.202 C 
ATOM      3  C   UNL     1      29.237 -36.364 -14.929  1.00  0.00     0.179 C 
ATOM      4  C   UNL     1      29.643 -36.352 -13.442  1.00  0.00     0.177 C 
ATOM      5  C   UNL     1      29.983 -37.793 -12.972  1.00  0.00     0.178 C 
ATOM      6  O   UNL     1      31.005 -38.354 -13.785  1.00  0.00    -0.341 OA
ENDROOT
BRANCH   1   7
ATOM      7  O   UNL     1      29.460 -39.342 -15.251  1.00  0.00    -0.350 OA
BRANCH   7   8
ATOM      8  C   UNL     1      29.820 -40.561 -15.866  1.00  0.00     0.160 C 
ATOM      9  C   UNL     1      28.567 -41.245 -16.387  1.00  0.00     0.035 C 
ENDBRANCH   7   8
ENDBRANCH   1   7
BRANCH   2  10
ATOM     10  O   UNL     1      29.913 -37.228 -17.105  1.00  0.00    -0.385 OA
ATOM     11  H   UNL     1      30.650 -37.677 -17.598  1.00  0.00     0.211 HD
ENDBRANCH   2  10
BRANCH   3  12
ATOM     12  O   UNL     1      29.051 -35.055 -15.411  1.00  0.00    -0.387 OA
ATOM     13  H   UNL     1      29.865 -34.802 -15.920  1.00  0.00     0.211 HD
ENDBRANCH   3  12
BRANCH   5  14
ATOM     14  C   UNL     1      30.478 -37.805 -11.520  1.00  0.00     0.191 C 
BRANCH  14  15
ATOM     15  O   UNL     1      31.217 -36.648 -11.243  1.00  0.00    -0.394 OA
ATOM     16  H   UNL     1      31.622 -36.368 -12.105  1.00  0.00     0.210 HD
ENDBRANCH  14  15
ENDBRANCH   5  14
BRANCH   4  17
ATOM     17  O   UNL     1      28.622 -35.780 -12.661  1.00  0.00    -0.387 OA
ATOM     18  H   UNL     1      28.750 -36.087 -11.725  1.00  0.00     0.211 HD
ENDBRANCH   4  17
TORSDOF 7
ENDMDL
MODEL 8
REMARK VINA RESULT:    -4.741     10.880     12.875
REMARK INTER + INTRA:          -6.477
REMARK INTER:                  -6.065
REMARK INTRA:                  -0.411
REMARK UNBOUND:                -0.349
REMARK SMILES CCO[C@@H]1O[C@@H](CO)[C@H](O)[C@@H](O)[C@@H]1O
REMARK SMILES IDX 4 1 13 2 11 3 9 4 6 5 5 6 3 7 2 8 1 9 14 10 12 12 7 14 8 15
REMARK SMILES IDX 10 17
REMARK H PARENT 14 11 12 13 8 16 10 18
REMARK Flexibility Score: inf
ROOT
ATOM      1  C   UNL     1      35.838 -40.595  -4.044  1.00  0.00     0.281 C 
ATOM      2  C   UNL     1      35.881 -40.840  -2.520  1.00  0.00     0.202 C 
ATOM      3  C   UNL     1      34.912 -39.889  -1.793  1.00  0.00     0.179 C 
ATOM      4  C   UNL     1      33.514 -39.968  -2.439  1.00  0.00     0.177 C 
ATOM      5  C   UNL     1      33.628 -39.780  -3.976  1.00  0.00     0.178 C 
ATOM      6  O   UNL     1      34.511 -40.744  -4.532  1.00  0.00    -0.341 OA
ENDROOT
BRANCH   1   7
ATOM      7  O   UNL     1      36.367 -39.316  -4.357  1.00  0.00    -0.350 OA
BRANCH   7   8
ATOM      8  C   UNL     1      37.425 -39.439  -5.284  1.00  0.00     0.160 C 
ATOM      9  C   UNL     1      36.859 -39.396  -6.694  1.00  0.00     0.035 C 
ENDBRANCH   7   8
ENDBRANCH   1   7
BRANCH   2  10
ATOM     10  O   UNL     1      37.190 -40.722  -2.021  1.00  0.00    -0.385 OA
ATOM     11  H   UNL     1      37.779 -41.312  -2.562  1.00  0.00     0.211 HD
ENDBRANCH   2  10
BRANCH   3  12
ATOM     12  O   UNL     1      34.850 -40.185  -0.419  1.00  0.00    -0.387 OA
ATOM     13  H   UNL     1      34.271 -40.985  -0.308  1.00  0.00     0.211 HD
ENDBRANCH   3  12
BRANCH   5  14
ATOM     14  C   UNL     1      32.264 -39.943  -4.662  1.00  0.00     0.191 C 
BRANCH  14  15
ATOM     15  O   UNL     1      31.409 -40.725  -3.874  1.00  0.00    -0.394 OA
ATOM     16  H   UNL     1      31.994 -41.234  -3.255  1.00  0.00     0.210 HD
ENDBRANCH  14  15
ENDBRANCH   5  14
BRANCH   4  17
ATOM     17  O   UNL     1      32.655 -39.014  -1.863  1.00  0.00    -0.387 OA
ATOM     18  H   UNL     1      32.609 -39.200  -0.888  1.00  0.00     0.211 HD
ENDBRANCH   4  17
TORSDOF 7
ENDMDL
MODEL 9
REMARK VINA RESULT:    -4.663      1.819      4.471
REMARK INTER + INTRA:          -6.375
REMARK INTER:                  -5.911
REMARK INTRA:                  -0.464
REMARK UNBOUND:                -0.349
REMARK SMILES CCO[C@@H]1O[C@@H](CO)[C@H](O)[C@@H](O)[C@@H]1O
REMARK SMILES IDX 4 1 13 2 11 3 9 4 6 5 5 6 3 7 2 8 1 9 14 10 12 12 7 14 8 15
REMARK SMILES IDX 10 17
REMARK H PARENT 14 11 12 13 8 16 10 18
REMARK Flexibility Score: inf
ROOT
ATOM      1  C   UNL     1      28.720 -37.940 -15.384  1.00  0.00     0.281 C 
ATOM      2  C   UNL     1      29.223 -39.382 -15.607  1.00  0.00     0.202 C 
ATOM      3  C   UNL     1      30.709 -39.502 -15.215  1.00  0.00     0.179 C 
ATOM      4  C   UNL     1      30.925 -38.935 -13.797  1.00  0.00     0.177 C 
ATOM      5  C   UNL     1      30.305 -37.515 -13.692  1.00  0.00     0.178 C 
ATOM      6  O   UNL     1      28.926 -37.547 -14.032  1.00  0.00    -0.341 OA
ENDROOT
BRANCH   1   7
ATOM      7  O   UNL     1      29.351 -37.046 -16.287  1.00  0.00    -0.350 OA
BRANCH   7   8
ATOM      8  C   UNL     1      28.437 -36.059 -16.717  1.00  0.00     0.160 C 
ATOM      9  C   UNL     1      27.229 -36.739 -17.342  1.00  0.00     0.035 C 
ENDBRANCH   7   8
ENDBRANCH   1   7
BRANCH   2  10
ATOM     10  O   UNL     1      29.006 -39.798 -16.933  1.00  0.00    -0.385 OA
ATOM     11  H   UNL     1      28.150 -40.302 -16.959  1.00  0.00     0.211 HD
ENDBRANCH   2  10
BRANCH   3  12
ATOM     12  O   UNL     1      31.146 -40.836 -15.297  1.00  0.00    -0.387 OA
ATOM     13  H   UNL     1      31.559 -40.965 -16.191  1.00  0.00     0.211 HD
ENDBRANCH   3  12
BRANCH   5  14
ATOM     14  C   UNL     1      30.423 -36.958 -12.267  1.00  0.00     0.191 C 
BRANCH  14  15
ATOM     15  O   UNL     1      31.694 -36.405 -12.060  1.00  0.00    -0.394 OA
ATOM     16  H   UNL     1      32.247 -36.688 -12.834  1.00  0.00     0.210 HD
ENDBRANCH  14  15
ENDBRANCH   5  14
BRANCH   4  17
ATOM     17  O   UNL     1      32.295 -38.927 -13.479  1.00  0.00    -0.387 OA
ATOM     18  H   UNL     1      32.751 -38.320 -14.120  1.00  0.00     0.211 HD
ENDBRANCH   4  17
TORSDOF 7
ENDMDL
