MODEL 1
REMARK VINA RESULT:    -3.579      0.000      0.000
REMARK INTER + INTRA:          -3.798
REMARK INTER:                  -3.788
REMARK INTRA:                  -0.010
REMARK UNBOUND:                -0.010
REMARK SMILES O=Cc1ccco1
REMARK SMILES IDX 5 1 6 2 7 3 3 4 4 5 2 6 1 7
REMARK H PARENT
REMARK Flexibility Score: inf
ROOT
ATOM      1  C   UNL     1       3.427  -2.447  15.170  1.00  0.00     0.043 A 
ATOM      2  C   UNL     1       2.344  -3.152  15.655  1.00  0.00     0.196 A 
ATOM      3  O   UNL     1       1.230  -2.583  15.254  1.00  0.00    -0.462 OA
ATOM      4  C   UNL     1       1.535  -1.533  14.526  1.00  0.00     0.166 A 
ATOM      5  C   UNL     1       2.908  -1.400  14.439  1.00  0.00     0.054 A 
ENDROOT
BRANCH   4   6
ATOM      6  C   UNL     1       0.539  -0.654  13.910  1.00  0.00     0.298 C 
ATOM      7  O   UNL     1       0.440   0.551  14.263  1.00  0.00    -0.294 OA
ENDBRANCH   4   6
TORSDOF 1
ENDMDL
MODEL 2
REMARK VINA RESULT:    -3.486      6.983      8.328
REMARK INTER + INTRA:          -3.700
REMARK INTER:                  -3.688
REMARK INTRA:                  -0.011
REMARK UNBOUND:                -0.010
REMARK SMILES O=Cc1ccco1
REMARK SMILES IDX 5 1 6 2 7 3 3 4 4 5 2 6 1 7
REMARK H PARENT
REMARK Flexibility Score: inf
ROOT
ATOM      1  C   UNL     1       3.503   6.127  10.767  1.00  0.00     0.043 A 
ATOM      2  C   UNL     1       2.547   7.097  10.546  1.00  0.00     0.196 A 
ATOM      3  O   UNL     1       1.354   6.612  10.804  1.00  0.00    -0.462 OA
ATOM      4  C   UNL     1       1.485   5.362  11.185  1.00  0.00     0.166 A 
ATOM      5  C   UNL     1       2.819   5.003  11.180  1.00  0.00     0.054 A 
ENDROOT
BRANCH   4   6
ATOM      6  C   UNL     1       0.359   4.503  11.555  1.00  0.00     0.298 C 
ATOM      7  O   UNL     1       0.483   3.249  11.567  1.00  0.00    -0.294 OA
ENDBRANCH   4   6
TORSDOF 1
ENDMDL
MODEL 3
REMARK VINA RESULT:    -3.481      2.281      2.925
REMARK INTER + INTRA:          -3.695
REMARK INTER:                  -3.680
REMARK INTRA:                  -0.015
REMARK UNBOUND:                -0.010
REMARK SMILES O=Cc1ccco1
REMARK SMILES IDX 5 1 6 2 7 3 3 4 4 5 2 6 1 7
REMARK H PARENT
REMARK Flexibility Score: inf
ROOT
ATOM      1  C   UNL     1       2.889  -2.145  14.133  1.00  0.00     0.043 A 
ATOM      2  C   UNL     1       2.718  -3.339  14.803  1.00  0.00     0.196 A 
ATOM      3  O   UNL     1       2.598  -3.111  16.091  1.00  0.00    -0.462 OA
ATOM      4  C   UNL     1       2.684  -1.817  16.296  1.00  0.00     0.166 A 
ATOM      5  C   UNL     1       2.868  -1.158  15.095  1.00  0.00     0.054 A 
ENDROOT
BRANCH   4   6
ATOM      6  C   UNL     1       2.592  -1.195  17.619  1.00  0.00     0.298 C 
ATOM      7  O   UNL     1       3.051  -1.779  18.637  1.00  0.00    -0.294 OA
ENDBRANCH   4   6
TORSDOF 1
ENDMDL
MODEL 4
REMARK VINA RESULT:    -3.446      1.364      3.158
REMARK INTER + INTRA:          -3.658
REMARK INTER:                  -3.648
REMARK INTRA:                  -0.010
REMARK UNBOUND:                -0.010
REMARK SMILES O=Cc1ccco1
REMARK SMILES IDX 5 1 6 2 7 3 3 4 4 5 2 6 1 7
REMARK H PARENT
REMARK Flexibility Score: inf
ROOT
ATOM      1  C   UNL     1       2.374  -0.579  14.844  1.00  0.00     0.043 A 
ATOM      2  C   UNL     1       1.044  -0.859  15.077  1.00  0.00     0.196 A 
ATOM      3  O   UNL     1       0.894  -2.145  15.301  1.00  0.00    -0.462 OA
ATOM      4  C   UNL     1       2.072  -2.722  15.225  1.00  0.00     0.166 A 
ATOM      5  C   UNL     1       3.042  -1.781  14.940  1.00  0.00     0.054 A 
ENDROOT
BRANCH   4   6
ATOM      6  C   UNL     1       2.289  -4.157  15.422  1.00  0.00     0.298 C 
ATOM      7  O   UNL     1       3.005  -4.575  16.370  1.00  0.00    -0.294 OA
ENDBRANCH   4   6
TORSDOF 1
ENDMDL
MODEL 5
REMARK VINA RESULT:    -3.443      8.349      8.831
REMARK INTER + INTRA:          -3.654
REMARK INTER:                  -3.639
REMARK INTRA:                  -0.016
REMARK UNBOUND:                -0.010
REMARK SMILES O=Cc1ccco1
REMARK SMILES IDX 5 1 6 2 7 3 3 4 4 5 2 6 1 7
REMARK H PARENT
REMARK Flexibility Score: inf
ROOT
ATOM      1  C   UNL     1       3.204   5.783  11.508  1.00  0.00     0.043 A 
ATOM      2  C   UNL     1       2.341   6.854  11.395  1.00  0.00     0.196 A 
ATOM      3  O   UNL     1       1.483   6.632  10.425  1.00  0.00    -0.462 OA
ATOM      4  C   UNL     1       1.747   5.460   9.895  1.00  0.00     0.166 A 
ATOM      5  C   UNL     1       2.823   4.879  10.539  1.00  0.00     0.054 A 
ENDROOT
BRANCH   4   6
ATOM      6  C   UNL     1       0.990   4.881   8.783  1.00  0.00     0.298 C 
ATOM      7  O   UNL     1      -0.169   5.293   8.510  1.00  0.00    -0.294 OA
ENDBRANCH   4   6
TORSDOF 1
ENDMDL
MODEL 6
REMARK VINA RESULT:    -3.257      6.923      7.796
REMARK INTER + INTRA:          -3.458
REMARK INTER:                  -3.447
REMARK INTRA:                  -0.011
REMARK UNBOUND:                -0.010
REMARK SMILES O=Cc1ccco1
REMARK SMILES IDX 5 1 6 2 7 3 3 4 4 5 2 6 1 7
REMARK H PARENT
REMARK Flexibility Score: inf
ROOT
ATOM      1  C   UNL     1       0.783   3.397  10.421  1.00  0.00     0.043 A 
ATOM      2  C   UNL     1      -0.032   3.790  11.463  1.00  0.00     0.196 A 
ATOM      3  O   UNL     1       0.453   4.878  12.018  1.00  0.00    -0.462 OA
ATOM      4  C   UNL     1       1.552   5.216  11.385  1.00  0.00     0.166 A 
ATOM      5  C   UNL     1       1.808   4.317  10.367  1.00  0.00     0.054 A 
ENDROOT
BRANCH   4   6
ATOM      6  C   UNL     1       2.365   6.384  11.732  1.00  0.00     0.298 C 
ATOM      7  O   UNL     1       2.064   7.528  11.298  1.00  0.00    -0.294 OA
ENDBRANCH   4   6
TORSDOF 1
ENDMDL
MODEL 7
REMARK VINA RESULT:    -3.253      1.722      3.129
REMARK INTER + INTRA:          -3.453
REMARK INTER:                  -3.442
REMARK INTRA:                  -0.011
REMARK UNBOUND:                -0.010
REMARK SMILES O=Cc1ccco1
REMARK SMILES IDX 5 1 6 2 7 3 3 4 4 5 2 6 1 7
REMARK H PARENT
REMARK Flexibility Score: inf
ROOT
ATOM      1  C   UNL     1       0.618  -0.156  14.278  1.00  0.00     0.043 A 
ATOM      2  C   UNL     1      -0.240  -1.062  14.866  1.00  0.00     0.196 A 
ATOM      3  O   UNL     1       0.397  -1.741  15.792  1.00  0.00    -0.462 OA
ATOM      4  C   UNL     1       1.640  -1.320  15.838  1.00  0.00     0.166 A 
ATOM      5  C   UNL     1       1.836  -0.320  14.904  1.00  0.00     0.054 A 
ENDROOT
BRANCH   4   6
ATOM      6  C   UNL     1       2.647  -1.854  16.757  1.00  0.00     0.298 C 
ATOM      7  O   UNL     1       2.645  -1.526  17.974  1.00  0.00    -0.294 OA
ENDBRANCH   4   6
TORSDOF 1
ENDMDL
MODEL 8
REMARK VINA RESULT:    -3.223      1.582      3.022
REMARK INTER + INTRA:          -3.422
REMARK INTER:                  -3.411
REMARK INTRA:                  -0.011
REMARK UNBOUND:                -0.010
REMARK SMILES O=Cc1ccco1
REMARK SMILES IDX 5 1 6 2 7 3 3 4 4 5 2 6 1 7
REMARK H PARENT
REMARK Flexibility Score: inf
ROOT
ATOM      1  C   UNL     1      -0.100   0.409  14.881  1.00  0.00     0.043 A 
ATOM      2  C   UNL     1      -0.722  -0.736  15.336  1.00  0.00     0.196 A 
ATOM      3  O   UNL     1       0.105  -1.753  15.251  1.00  0.00    -0.462 OA
ATOM      4  C   UNL     1       1.245  -1.325  14.759  1.00  0.00     0.166 A 
ATOM      5  C   UNL     1       1.172   0.032  14.507  1.00  0.00     0.054 A 
ENDROOT
BRANCH   4   6
ATOM      6  C   UNL     1       2.405  -2.187  14.525  1.00  0.00     0.298 C 
ATOM      7  O   UNL     1       3.510  -1.697  14.171  1.00  0.00    -0.294 OA
ENDBRANCH   4   6
TORSDOF 1
ENDMDL
MODEL 9
REMARK VINA RESULT:    -3.136      7.879      9.017
REMARK INTER + INTRA:          -3.329
REMARK INTER:                  -3.314
REMARK INTRA:                  -0.015
REMARK UNBOUND:                -0.010
REMARK SMILES O=Cc1ccco1
REMARK SMILES IDX 5 1 6 2 7 3 3 4 4 5 2 6 1 7
REMARK H PARENT
REMARK Flexibility Score: inf
ROOT
ATOM      1  C   UNL     1       1.820   4.120  10.382  1.00  0.00     0.043 A 
ATOM      2  C   UNL     1       0.709   4.616   9.733  1.00  0.00     0.196 A 
ATOM      3  O   UNL     1       0.687   5.926   9.829  1.00  0.00    -0.462 OA
ATOM      4  C   UNL     1       1.738   6.312  10.516  1.00  0.00     0.166 A 
ATOM      5  C   UNL     1       2.489   5.214  10.890  1.00  0.00     0.054 A 
ENDROOT
BRANCH   4   6
ATOM      6  C   UNL     1       2.041   7.712  10.822  1.00  0.00     0.298 C 
ATOM      7  O   UNL     1       1.623   8.638  10.076  1.00  0.00    -0.294 OA
ENDBRANCH   4   6
TORSDOF 1
ENDMDL
