MODEL 1
REMARK VINA RESULT:    -4.493      0.000      0.000
REMARK INTER + INTRA:          -4.755
REMARK INTER:                  -4.755
REMARK INTRA:                   0.000
REMARK UNBOUND:                 0.000
REMARK SMILES O=c1ccc2cc(O)c(O)cc2o1
REMARK SMILES IDX 4 1 3 2 2 3 1 4 13 5 12 6 11 7 9 8 7 9 6 10 5 11 8 12 10 14
REMARK H PARENT 8 13 10 15
REMARK Flexibility Score: inf
ROOT
ATOM      1  C   UNL     1       1.689  35.847   5.268  1.00  0.00     0.019 A 
ATOM      2  C   UNL     1       2.536  36.945   5.133  1.00  0.00     0.094 A 
ATOM      3  C   UNL     1       2.105  38.194   5.592  1.00  0.00     0.336 A 
ATOM      4  O   UNL     1       2.856  39.198   5.480  1.00  0.00    -0.246 OA
ATOM      5  O   UNL     1       0.905  38.330   6.150  1.00  0.00    -0.423 OA
ATOM      6  C   UNL     1       0.065  37.307   6.297  1.00  0.00     0.142 A 
ATOM      7  C   UNL     1      -1.185  37.510   6.890  1.00  0.00     0.098 A 
ATOM      8  C   UNL     1      -2.074  36.436   7.048  1.00  0.00     0.161 A 
ATOM      9  C   UNL     1      -1.710  35.154   6.611  1.00  0.00     0.158 A 
ATOM     10  C   UNL     1      -0.457  34.945   6.015  1.00  0.00     0.062 A 
ATOM     11  C   UNL     1       0.432  36.017   5.857  1.00  0.00     0.022 A 
ENDROOT
BRANCH   9  12
ATOM     12  O   UNL     1      -2.599  34.092   6.772  1.00  0.00    -0.504 OA
ATOM     13  H   UNL     1      -2.286  33.129   6.746  1.00  0.00     0.293 HD
ENDBRANCH   9  12
BRANCH   8  14
ATOM     14  O   UNL     1      -3.320  36.635   7.639  1.00  0.00    -0.504 OA
ATOM     15  H   UNL     1      -3.528  36.285   8.568  1.00  0.00     0.293 HD
ENDBRANCH   8  14
TORSDOF 2
ENDMDL
MODEL 2
REMARK VINA RESULT:    -4.443      1.403      4.674
REMARK INTER + INTRA:          -4.703
REMARK INTER:                  -4.703
REMARK INTRA:                   0.000
REMARK UNBOUND:                 0.000
REMARK SMILES O=c1ccc2cc(O)c(O)cc2o1
REMARK SMILES IDX 4 1 3 2 2 3 1 4 13 5 12 6 11 7 9 8 7 9 6 10 5 11 8 12 10 14
REMARK H PARENT 8 13 10 15
REMARK Flexibility Score: inf
ROOT
ATOM      1  C   UNL     1       1.437  35.393   5.378  1.00  0.00     0.019 A 
ATOM      2  C   UNL     1       0.240  34.780   5.744  1.00  0.00     0.094 A 
ATOM      3  C   UNL     1      -0.725  35.529   6.425  1.00  0.00     0.336 A 
ATOM      4  O   UNL     1      -1.813  34.993   6.764  1.00  0.00    -0.246 OA
ATOM      5  O   UNL     1      -0.502  36.807   6.719  1.00  0.00    -0.423 OA
ATOM      6  C   UNL     1       0.628  37.430   6.389  1.00  0.00     0.142 A 
ATOM      7  C   UNL     1       0.807  38.776   6.724  1.00  0.00     0.098 A 
ATOM      8  C   UNL     1       1.995  39.437   6.379  1.00  0.00     0.161 A 
ATOM      9  C   UNL     1       3.007  38.749   5.695  1.00  0.00     0.158 A 
ATOM     10  C   UNL     1       2.832  37.399   5.356  1.00  0.00     0.062 A 
ATOM     11  C   UNL     1       1.646  36.737   5.700  1.00  0.00     0.022 A 
ENDROOT
BRANCH   9  12
ATOM     12  O   UNL     1       4.185  39.414   5.355  1.00  0.00    -0.504 OA
ATOM     13  H   UNL     1       4.510  39.460   4.397  1.00  0.00     0.293 HD
ENDBRANCH   9  12
BRANCH   8  14
ATOM     14  O   UNL     1       2.176  40.779   6.712  1.00  0.00    -0.504 OA
ATOM     15  H   UNL     1       1.510  41.489   6.430  1.00  0.00     0.293 HD
ENDBRANCH   8  14
TORSDOF 2
ENDMDL
MODEL 3
REMARK VINA RESULT:    -4.382      1.792      4.657
REMARK INTER + INTRA:          -4.639
REMARK INTER:                  -4.639
REMARK INTRA:                   0.000
REMARK UNBOUND:                 0.000
REMARK SMILES O=c1ccc2cc(O)c(O)cc2o1
REMARK SMILES IDX 4 1 3 2 2 3 1 4 13 5 12 6 11 7 9 8 7 9 6 10 5 11 8 12 10 14
REMARK H PARENT 8 13 10 15
REMARK Flexibility Score: inf
ROOT
ATOM      1  C   UNL     1       2.361  36.406   5.443  1.00  0.00     0.019 A 
ATOM      2  C   UNL     1       1.400  35.396   5.448  1.00  0.00     0.094 A 
ATOM      3  C   UNL     1       0.119  35.681   5.931  1.00  0.00     0.336 A 
ATOM      4  O   UNL     1      -0.763  34.783   5.943  1.00  0.00    -0.246 OA
ATOM      5  O   UNL     1      -0.177  36.899   6.378  1.00  0.00    -0.423 OA
ATOM      6  C   UNL     1       0.710  37.892   6.392  1.00  0.00     0.142 A 
ATOM      7  C   UNL     1       0.342  39.151   6.874  1.00  0.00     0.098 A 
ATOM      8  C   UNL     1       1.273  40.200   6.891  1.00  0.00     0.161 A 
ATOM      9  C   UNL     1       2.578  39.988   6.422  1.00  0.00     0.158 A 
ATOM     10  C   UNL     1       2.952  38.726   5.937  1.00  0.00     0.062 A 
ATOM     11  C   UNL     1       2.024  37.677   5.920  1.00  0.00     0.022 A 
ENDROOT
BRANCH   9  12
ATOM     12  O   UNL     1       3.497  41.036   6.442  1.00  0.00    -0.504 OA
ATOM     13  H   UNL     1       3.679  41.566   7.287  1.00  0.00     0.293 HD
ENDBRANCH   9  12
BRANCH   8  14
ATOM     14  O   UNL     1       0.909  41.457   7.370  1.00  0.00    -0.504 OA
ATOM     15  H   UNL     1       0.684  42.220   6.741  1.00  0.00     0.293 HD
ENDBRANCH   8  14
TORSDOF 2
ENDMDL
MODEL 4
REMARK VINA RESULT:    -4.345      4.533      6.578
REMARK INTER + INTRA:          -4.599
REMARK INTER:                  -4.599
REMARK INTRA:                   0.000
REMARK UNBOUND:                 0.000
REMARK SMILES O=c1ccc2cc(O)c(O)cc2o1
REMARK SMILES IDX 4 1 3 2 2 3 1 4 13 5 12 6 11 7 9 8 7 9 6 10 5 11 8 12 10 14
REMARK H PARENT 8 13 10 15
REMARK Flexibility Score: inf
ROOT
ATOM      1  C   UNL     1       2.731  38.032   6.902  1.00  0.00     0.019 A 
ATOM      2  C   UNL     1       2.208  38.836   5.891  1.00  0.00     0.094 A 
ATOM      3  C   UNL     1       3.041  39.772   5.269  1.00  0.00     0.336 A 
ATOM      4  O   UNL     1       2.587  40.507   4.353  1.00  0.00    -0.246 OA
ATOM      5  O   UNL     1       4.314  39.891   5.637  1.00  0.00    -0.423 OA
ATOM      6  C   UNL     1       4.853  39.143   6.598  1.00  0.00     0.142 A 
ATOM      7  C   UNL     1       6.197  39.313   6.944  1.00  0.00     0.098 A 
ATOM      8  C   UNL     1       6.771  38.529   7.956  1.00  0.00     0.161 A 
ATOM      9  C   UNL     1       5.995  37.570   8.624  1.00  0.00     0.158 A 
ATOM     10  C   UNL     1       4.646  37.395   8.281  1.00  0.00     0.062 A 
ATOM     11  C   UNL     1       4.072  38.178   7.271  1.00  0.00     0.022 A 
ENDROOT
BRANCH   9  12
ATOM     12  O   UNL     1       6.573  36.794   9.628  1.00  0.00    -0.504 OA
ATOM     13  H   UNL     1       6.368  35.806   9.719  1.00  0.00     0.293 HD
ENDBRANCH   9  12
BRANCH   8  14
ATOM     14  O   UNL     1       8.110  38.695   8.302  1.00  0.00    -0.504 OA
ATOM     15  H   UNL     1       8.857  38.340   7.715  1.00  0.00     0.293 HD
ENDBRANCH   8  14
TORSDOF 2
ENDMDL
MODEL 5
REMARK VINA RESULT:    -4.105      1.779      3.152
REMARK INTER + INTRA:          -4.345
REMARK INTER:                  -4.345
REMARK INTRA:                   0.000
REMARK UNBOUND:                 0.000
REMARK SMILES O=c1ccc2cc(O)c(O)cc2o1
REMARK SMILES IDX 4 1 3 2 2 3 1 4 13 5 12 6 11 7 9 8 7 9 6 10 5 11 8 12 10 14
REMARK H PARENT 8 13 10 15
REMARK Flexibility Score: inf
ROOT
ATOM      1  C   UNL     1       1.708  39.715   6.591  1.00  0.00     0.019 A 
ATOM      2  C   UNL     1       2.993  40.192   6.337  1.00  0.00     0.094 A 
ATOM      3  C   UNL     1       3.941  39.325   5.783  1.00  0.00     0.336 A 
ATOM      4  O   UNL     1       5.107  39.737   5.546  1.00  0.00    -0.246 OA
ATOM      5  O   UNL     1       3.619  38.065   5.502  1.00  0.00    -0.423 OA
ATOM      6  C   UNL     1       2.404  37.569   5.730  1.00  0.00     0.142 A 
ATOM      7  C   UNL     1       2.123  36.236   5.415  1.00  0.00     0.098 A 
ATOM      8  C   UNL     1       0.845  35.709   5.653  1.00  0.00     0.161 A 
ATOM      9  C   UNL     1      -0.157  36.520   6.207  1.00  0.00     0.158 A 
ATOM     10  C   UNL     1       0.120  37.858   6.524  1.00  0.00     0.062 A 
ATOM     11  C   UNL     1       1.396  38.386   6.288  1.00  0.00     0.022 A 
ENDROOT
BRANCH   9  12
ATOM     12  O   UNL     1      -1.424  35.988   6.439  1.00  0.00    -0.504 OA
ATOM     13  H   UNL     1      -1.905  36.128   7.320  1.00  0.00     0.293 HD
ENDBRANCH   9  12
BRANCH   8  14
ATOM     14  O   UNL     1       0.561  34.381   5.339  1.00  0.00    -0.504 OA
ATOM     15  H   UNL     1       0.538  33.661   6.053  1.00  0.00     0.293 HD
ENDBRANCH   8  14
TORSDOF 2
ENDMDL
MODEL 6
REMARK VINA RESULT:    -4.073      4.014      5.942
REMARK INTER + INTRA:          -4.311
REMARK INTER:                  -4.311
REMARK INTRA:                   0.000
REMARK UNBOUND:                 0.000
REMARK SMILES O=c1ccc2cc(O)c(O)cc2o1
REMARK SMILES IDX 4 1 3 2 2 3 1 4 13 5 12 6 11 7 9 8 7 9 6 10 5 11 8 12 10 14
REMARK H PARENT 8 13 10 15
REMARK Flexibility Score: inf
ROOT
ATOM      1  C   UNL     1       5.461  37.394   8.401  1.00  0.00     0.019 A 
ATOM      2  C   UNL     1       6.634  37.886   8.971  1.00  0.00     0.094 A 
ATOM      3  C   UNL     1       7.015  39.206   8.707  1.00  0.00     0.336 A 
ATOM      4  O   UNL     1       8.071  39.669   9.213  1.00  0.00    -0.246 OA
ATOM      5  O   UNL     1       6.268  39.979   7.924  1.00  0.00    -0.423 OA
ATOM      6  C   UNL     1       5.141  39.549   7.359  1.00  0.00     0.142 A 
ATOM      7  C   UNL     1       4.397  40.406   6.544  1.00  0.00     0.098 A 
ATOM      8  C   UNL     1       3.209  39.958   5.946  1.00  0.00     0.161 A 
ATOM      9  C   UNL     1       2.765  38.646   6.166  1.00  0.00     0.158 A 
ATOM     10  C   UNL     1       3.509  37.781   6.983  1.00  0.00     0.062 A 
ATOM     11  C   UNL     1       4.695  38.228   7.581  1.00  0.00     0.022 A 
ENDROOT
BRANCH   9  12
ATOM     12  O   UNL     1       1.584  38.209   5.568  1.00  0.00    -0.504 OA
ATOM     13  H   UNL     1       1.202  38.668   4.750  1.00  0.00     0.293 HD
ENDBRANCH   9  12
BRANCH   8  14
ATOM     14  O   UNL     1       2.464  40.811   5.133  1.00  0.00    -0.504 OA
ATOM     15  H   UNL     1       1.479  40.648   4.955  1.00  0.00     0.293 HD
ENDBRANCH   8  14
TORSDOF 2
ENDMDL
MODEL 7
REMARK VINA RESULT:    -3.954      1.756      2.890
REMARK INTER + INTRA:          -4.185
REMARK INTER:                  -4.185
REMARK INTRA:                   0.000
REMARK UNBOUND:                 0.000
REMARK SMILES O=c1ccc2cc(O)c(O)cc2o1
REMARK SMILES IDX 4 1 3 2 2 3 1 4 13 5 12 6 11 7 9 8 7 9 6 10 5 11 8 12 10 14
REMARK H PARENT 8 13 10 15
REMARK Flexibility Score: inf
ROOT
ATOM      1  C   UNL     1      -0.267  39.429   7.187  1.00  0.00     0.019 A 
ATOM      2  C   UNL     1       0.731  40.386   7.013  1.00  0.00     0.094 A 
ATOM      3  C   UNL     1       1.921  40.018   6.376  1.00  0.00     0.336 A 
ATOM      4  O   UNL     1       2.834  40.868   6.210  1.00  0.00    -0.246 OA
ATOM      5  O   UNL     1       2.095  38.772   5.942  1.00  0.00    -0.423 OA
ATOM      6  C   UNL     1       1.168  37.827   6.089  1.00  0.00     0.142 A 
ATOM      7  C   UNL     1       1.407  36.535   5.613  1.00  0.00     0.098 A 
ATOM      8  C   UNL     1       0.434  35.535   5.765  1.00  0.00     0.161 A 
ATOM      9  C   UNL     1      -0.784  35.832   6.394  1.00  0.00     0.158 A 
ATOM     10  C   UNL     1      -1.029  37.128   6.873  1.00  0.00     0.062 A 
ATOM     11  C   UNL     1      -0.058  38.127   6.722  1.00  0.00     0.022 A 
ENDROOT
BRANCH   9  12
ATOM     12  O   UNL     1      -1.746  34.833   6.540  1.00  0.00    -0.504 OA
ATOM     13  H   UNL     1      -2.589  34.823   5.978  1.00  0.00     0.293 HD
ENDBRANCH   9  12
BRANCH   8  14
ATOM     14  O   UNL     1       0.669  34.246   5.291  1.00  0.00    -0.504 OA
ATOM     15  H   UNL     1       0.749  34.052   4.299  1.00  0.00     0.293 HD
ENDBRANCH   8  14
TORSDOF 2
ENDMDL
MODEL 8
REMARK VINA RESULT:    -3.938      1.164      2.330
REMARK INTER + INTRA:          -4.168
REMARK INTER:                  -4.168
REMARK INTRA:                   0.000
REMARK UNBOUND:                 0.000
REMARK SMILES O=c1ccc2cc(O)c(O)cc2o1
REMARK SMILES IDX 4 1 3 2 2 3 1 4 13 5 12 6 11 7 9 8 7 9 6 10 5 11 8 12 10 14
REMARK H PARENT 8 13 10 15
REMARK Flexibility Score: inf
ROOT
ATOM      1  C   UNL     1       0.095  38.501   6.627  1.00  0.00     0.019 A 
ATOM      2  C   UNL     1       1.351  38.398   6.033  1.00  0.00     0.094 A 
ATOM      3  C   UNL     1       1.761  37.162   5.522  1.00  0.00     0.336 A 
ATOM      4  O   UNL     1       2.893  37.049   4.982  1.00  0.00    -0.246 OA
ATOM      5  O   UNL     1       0.962  36.102   5.602  1.00  0.00    -0.423 OA
ATOM      6  C   UNL     1      -0.245  36.156   6.161  1.00  0.00     0.142 A 
ATOM      7  C   UNL     1      -1.041  35.009   6.217  1.00  0.00     0.098 A 
ATOM      8  C   UNL     1      -2.314  35.060   6.806  1.00  0.00     0.161 A 
ATOM      9  C   UNL     1      -2.792  36.266   7.339  1.00  0.00     0.158 A 
ATOM     10  C   UNL     1      -1.996  37.421   7.285  1.00  0.00     0.062 A 
ATOM     11  C   UNL     1      -0.725  37.371   6.698  1.00  0.00     0.022 A 
ENDROOT
BRANCH   9  12
ATOM     12  O   UNL     1      -4.058  36.309   7.922  1.00  0.00    -0.504 OA
ATOM     13  H   UNL     1      -4.296  35.725   8.715  1.00  0.00     0.293 HD
ENDBRANCH   9  12
BRANCH   8  14
ATOM     14  O   UNL     1      -3.111  33.918   6.863  1.00  0.00    -0.504 OA
ATOM     15  H   UNL     1      -2.704  32.990   6.909  1.00  0.00     0.293 HD
ENDBRANCH   8  14
TORSDOF 2
ENDMDL
MODEL 9
REMARK VINA RESULT:    -3.826      1.911      4.425
REMARK INTER + INTRA:          -4.049
REMARK INTER:                  -4.049
REMARK INTRA:                   0.000
REMARK UNBOUND:                 0.000
REMARK SMILES O=c1ccc2cc(O)c(O)cc2o1
REMARK SMILES IDX 4 1 3 2 2 3 1 4 13 5 12 6 11 7 9 8 7 9 6 10 5 11 8 12 10 14
REMARK H PARENT 8 13 10 15
REMARK Flexibility Score: inf
ROOT
ATOM      1  C   UNL     1      -0.611  39.527   7.177  1.00  0.00     0.019 A 
ATOM      2  C   UNL     1      -1.837  39.737   7.805  1.00  0.00     0.094 A 
ATOM      3  C   UNL     1      -2.714  38.658   7.960  1.00  0.00     0.336 A 
ATOM      4  O   UNL     1      -3.826  38.827   8.524  1.00  0.00    -0.246 OA
ATOM      5  O   UNL     1      -2.379  37.449   7.514  1.00  0.00    -0.423 OA
ATOM      6  C   UNL     1      -1.219  37.206   6.909  1.00  0.00     0.142 A 
ATOM      7  C   UNL     1      -0.922  35.915   6.461  1.00  0.00     0.098 A 
ATOM      8  C   UNL     1       0.299  35.653   5.822  1.00  0.00     0.161 A 
ATOM      9  C   UNL     1       1.228  36.687   5.632  1.00  0.00     0.158 A 
ATOM     10  C   UNL     1       0.935  37.984   6.080  1.00  0.00     0.062 A 
ATOM     11  C   UNL     1      -0.285  38.247   6.718  1.00  0.00     0.022 A 
ENDROOT
BRANCH   9  12
ATOM     12  O   UNL     1       2.439  36.418   4.997  1.00  0.00    -0.504 OA
ATOM     13  H   UNL     1       3.293  36.897   5.258  1.00  0.00     0.293 HD
ENDBRANCH   9  12
BRANCH   8  14
ATOM     14  O   UNL     1       0.599  34.367   5.375  1.00  0.00    -0.504 OA
ATOM     15  H   UNL     1       1.292  33.792   5.841  1.00  0.00     0.293 HD
ENDBRANCH   8  14
TORSDOF 2
ENDMDL
