MODEL 1
REMARK VINA RESULT:    -1.409      0.000      0.000
REMARK INTER + INTRA:          -2.569
REMARK INTER:                  -2.233
REMARK INTRA:                  -0.335
REMARK UNBOUND:                -0.335
REMARK SMILES CCCCCCCCCCCC(=O)[O-]
REMARK SMILES IDX 7 1 8 2 9 3 10 4 11 5 12 6 13 7 14 8 6 9 5 10 4 11 3 12 2 13
REMARK SMILES IDX 1 14
REMARK H PARENT
REMARK Flexibility Score: inf
ROOT
ATOM      1  C   UNL     1      23.508  36.668  19.751  1.00  0.00     0.000 C 
ENDROOT
BRANCH   1   2
ATOM      2  C   UNL     1      22.666  36.718  21.033  1.00  0.00     0.000 C 
BRANCH   2   3
ATOM      3  C   UNL     1      22.485  38.165  21.516  1.00  0.00     0.000 C 
BRANCH   3   4
ATOM      4  C   UNL     1      22.294  38.267  23.040  1.00  0.00     0.006 C 
BRANCH   4   5
ATOM      5  C   UNL     1      23.421  39.016  23.770  1.00  0.00     0.053 C 
BRANCH   5   6
ATOM      6  C   UNL     1      23.739  38.399  25.097  1.00  0.00     0.041 C 
ATOM      7  O   UNL     1      23.599  37.160  25.270  1.00  0.00    -0.550 OA
ATOM      8  O   UNL     1      24.157  39.197  26.155  1.00  0.00    -0.550 OA
ENDBRANCH   5   6
ENDBRANCH   4   5
ENDBRANCH   3   4
ENDBRANCH   2   3
ENDBRANCH   1   2
BRANCH   1   9
ATOM      9  C   UNL     1      23.836  35.222  19.364  1.00  0.00     0.000 C 
BRANCH   9  10
ATOM     10  C   UNL     1      24.423  35.153  17.946  1.00  0.00    -0.000 C 
BRANCH  10  11
ATOM     11  C   UNL     1      25.960  35.103  17.943  1.00  0.00    -0.000 C 
BRANCH  11  12
ATOM     12  C   UNL     1      26.598  36.498  17.875  1.00  0.00    -0.000 C 
BRANCH  12  13
ATOM     13  C   UNL     1      28.125  36.409  17.980  1.00  0.00    -0.003 C 
ATOM     14  C   UNL     1      28.699  37.618  18.712  1.00  0.00     0.004 C 
ENDBRANCH  12  13
ENDBRANCH  11  12
ENDBRANCH  10  11
ENDBRANCH   9  10
ENDBRANCH   1   9
TORSDOF 10
ENDMDL
MODEL 2
REMARK VINA RESULT:    -1.382     11.773     13.072
REMARK INTER + INTRA:          -2.524
REMARK INTER:                  -3.034
REMARK INTRA:                   0.510
REMARK UNBOUND:                -0.335
REMARK SMILES CCCCCCCCCCCC(=O)[O-]
REMARK SMILES IDX 7 1 8 2 9 3 10 4 11 5 12 6 13 7 14 8 6 9 5 10 4 11 3 12 2 13
REMARK SMILES IDX 1 14
REMARK H PARENT
REMARK Flexibility Score: inf
ROOT
ATOM      1  C   UNL     1      13.004  40.648  19.299  1.00  0.00     0.000 C 
ENDROOT
BRANCH   1   2
ATOM      2  C   UNL     1      12.768  41.168  17.875  1.00  0.00     0.000 C 
BRANCH   2   3
ATOM      3  C   UNL     1      12.030  42.515  17.897  1.00  0.00     0.000 C 
BRANCH   3   4
ATOM      4  C   UNL     1      12.617  43.500  18.925  1.00  0.00     0.006 C 
BRANCH   4   5
ATOM      5  C   UNL     1      13.455  44.632  18.309  1.00  0.00     0.053 C 
BRANCH   5   6
ATOM      6  C   UNL     1      14.916  44.474  18.604  1.00  0.00     0.041 C 
ATOM      7  O   UNL     1      15.580  45.447  19.048  1.00  0.00    -0.550 OA
ATOM      8  O   UNL     1      15.549  43.263  18.358  1.00  0.00    -0.550 OA
ENDBRANCH   5   6
ENDBRANCH   4   5
ENDBRANCH   3   4
ENDBRANCH   2   3
ENDBRANCH   1   2
BRANCH   1   9
ATOM      9  C   UNL     1      11.875  39.707  19.736  1.00  0.00     0.000 C 
BRANCH   9  10
ATOM     10  C   UNL     1      11.895  39.496  21.258  1.00  0.00    -0.000 C 
BRANCH  10  11
ATOM     11  C   UNL     1      12.593  40.643  22.006  1.00  0.00    -0.000 C 
BRANCH  11  12
ATOM     12  C   UNL     1      13.980  40.968  21.433  1.00  0.00    -0.000 C 
BRANCH  12  13
ATOM     13  C   UNL     1      14.805  41.793  22.428  1.00  0.00    -0.003 C 
ATOM     14  C   UNL     1      15.149  43.165  21.856  1.00  0.00     0.004 C 
ENDBRANCH  12  13
ENDBRANCH  11  12
ENDBRANCH  10  11
ENDBRANCH   9  10
ENDBRANCH   1   9
TORSDOF 10
ENDMDL
MODEL 3
REMARK VINA RESULT:    -1.340     11.211     12.943
REMARK INTER + INTRA:          -2.459
REMARK INTER:                  -1.947
REMARK INTRA:                  -0.512
REMARK UNBOUND:                -0.335
REMARK SMILES CCCCCCCCCCCC(=O)[O-]
REMARK SMILES IDX 7 1 8 2 9 3 10 4 11 5 12 6 13 7 14 8 6 9 5 10 4 11 3 12 2 13
REMARK SMILES IDX 1 14
REMARK H PARENT
REMARK Flexibility Score: inf
ROOT
ATOM      1  C   UNL     1      16.393  43.282  20.550  1.00  0.00     0.000 C 
ENDROOT
BRANCH   1   2
ATOM      2  C   UNL     1      15.223  43.868  21.351  1.00  0.00     0.000 C 
BRANCH   2   3
ATOM      3  C   UNL     1      14.092  42.840  21.502  1.00  0.00     0.000 C 
BRANCH   3   4
ATOM      4  C   UNL     1      14.215  41.667  20.514  1.00  0.00     0.006 C 
BRANCH   4   5
ATOM      5  C   UNL     1      12.876  41.014  20.136  1.00  0.00     0.053 C 
BRANCH   5   6
ATOM      6  C   UNL     1      12.344  40.145  21.234  1.00  0.00     0.041 C 
ATOM      7  O   UNL     1      12.201  38.908  21.050  1.00  0.00    -0.550 OA
ATOM      8  O   UNL     1      11.976  40.707  22.450  1.00  0.00    -0.550 OA
ENDBRANCH   5   6
ENDBRANCH   4   5
ENDBRANCH   3   4
ENDBRANCH   2   3
ENDBRANCH   1   2
BRANCH   1   9
ATOM      9  C   UNL     1      16.471  43.907  19.152  1.00  0.00     0.000 C 
BRANCH   9  10
ATOM     10  C   UNL     1      15.685  45.226  19.096  1.00  0.00    -0.000 C 
BRANCH  10  11
ATOM     11  C   UNL     1      14.525  45.181  18.087  1.00  0.00    -0.000 C 
BRANCH  11  12
ATOM     12  C   UNL     1      13.975  43.763  17.880  1.00  0.00    -0.000 C 
BRANCH  12  13
ATOM     13  C   UNL     1      12.442  43.765  17.875  1.00  0.00    -0.003 C 
ATOM     14  C   UNL     1      11.886  43.979  19.280  1.00  0.00     0.004 C 
ENDBRANCH  12  13
ENDBRANCH  11  12
ENDBRANCH  10  11
ENDBRANCH   9  10
ENDBRANCH   1   9
TORSDOF 10
ENDMDL
MODEL 4
REMARK VINA RESULT:    -1.282      3.436      6.577
REMARK INTER + INTRA:          -2.367
REMARK INTER:                  -1.795
REMARK INTRA:                  -0.572
REMARK UNBOUND:                -0.335
REMARK SMILES CCCCCCCCCCCC(=O)[O-]
REMARK SMILES IDX 7 1 8 2 9 3 10 4 11 5 12 6 13 7 14 8 6 9 5 10 4 11 3 12 2 13
REMARK SMILES IDX 1 14
REMARK H PARENT
REMARK Flexibility Score: inf
ROOT
ATOM      1  C   UNL     1      23.151  35.661  20.167  1.00  0.00     0.000 C 
ENDROOT
BRANCH   1   2
ATOM      2  C   UNL     1      24.004  36.435  19.153  1.00  0.00     0.000 C 
BRANCH   2   3
ATOM      3  C   UNL     1      24.602  35.488  18.102  1.00  0.00     0.000 C 
BRANCH   3   4
ATOM      4  C   UNL     1      26.107  35.720  17.877  1.00  0.00     0.006 C 
BRANCH   4   5
ATOM      5  C   UNL     1      26.594  37.128  18.255  1.00  0.00     0.053 C 
BRANCH   5   6
ATOM      6  C   UNL     1      28.088  37.212  18.308  1.00  0.00     0.041 C 
ATOM      7  O   UNL     1      28.774  36.175  18.509  1.00  0.00    -0.550 OA
ATOM      8  O   UNL     1      28.723  38.440  18.168  1.00  0.00    -0.550 OA
ENDBRANCH   5   6
ENDBRANCH   4   5
ENDBRANCH   3   4
ENDBRANCH   2   3
ENDBRANCH   1   2
BRANCH   1   9
ATOM      9  C   UNL     1      22.340  36.618  21.049  1.00  0.00     0.000 C 
BRANCH   9  10
ATOM     10  C   UNL     1      23.100  37.935  21.272  1.00  0.00    -0.000 C 
BRANCH  10  11
ATOM     11  C   UNL     1      22.671  38.656  22.560  1.00  0.00    -0.000 C 
BRANCH  11  12
ATOM     12  C   UNL     1      23.844  39.347  23.271  1.00  0.00    -0.000 C 
BRANCH  12  13
ATOM     13  C   UNL     1      23.890  38.962  24.754  1.00  0.00    -0.003 C 
ATOM     14  C   UNL     1      23.095  37.687  25.018  1.00  0.00     0.004 C 
ENDBRANCH  12  13
ENDBRANCH  11  12
ENDBRANCH  10  11
ENDBRANCH   9  10
ENDBRANCH   1   9
TORSDOF 10
ENDMDL
MODEL 5
REMARK VINA RESULT:    -1.034      3.508      6.671
REMARK INTER + INTRA:          -1.973
REMARK INTER:                  -1.564
REMARK INTRA:                  -0.409
REMARK UNBOUND:                -0.335
REMARK SMILES CCCCCCCCCCCC(=O)[O-]
REMARK SMILES IDX 7 1 8 2 9 3 10 4 11 5 12 6 13 7 14 8 6 9 5 10 4 11 3 12 2 13
REMARK SMILES IDX 1 14
REMARK H PARENT
REMARK Flexibility Score: inf
ROOT
ATOM      1  C   UNL     1      23.765  35.246  18.254  1.00  0.00     0.000 C 
ENDROOT
BRANCH   1   2
ATOM      2  C   UNL     1      25.136  35.854  17.933  1.00  0.00     0.000 C 
BRANCH   2   3
ATOM      3  C   UNL     1      26.269  34.993  18.512  1.00  0.00     0.000 C 
BRANCH   3   4
ATOM      4  C   UNL     1      27.637  35.301  17.877  1.00  0.00     0.006 C 
BRANCH   4   5
ATOM      5  C   UNL     1      28.266  36.625  18.339  1.00  0.00     0.053 C 
BRANCH   5   6
ATOM      6  C   UNL     1      29.596  36.417  18.996  1.00  0.00     0.041 C 
ATOM      7  O   UNL     1      29.997  37.216  19.882  1.00  0.00    -0.550 OA
ATOM      8  O   UNL     1      30.407  35.358  18.606  1.00  0.00    -0.550 OA
ENDBRANCH   5   6
ENDBRANCH   4   5
ENDBRANCH   3   4
ENDBRANCH   2   3
ENDBRANCH   1   2
BRANCH   1   9
ATOM      9  C   UNL     1      23.416  35.427  19.736  1.00  0.00     0.000 C 
BRANCH   9  10
ATOM     10  C   UNL     1      23.409  36.914  20.121  1.00  0.00    -0.000 C 
BRANCH  10  11
ATOM     11  C   UNL     1      22.424  37.228  21.258  1.00  0.00    -0.000 C 
BRANCH  11  12
ATOM     12  C   UNL     1      22.771  38.526  22.001  1.00  0.00    -0.000 C 
BRANCH  12  13
ATOM     13  C   UNL     1      22.827  38.293  23.516  1.00  0.00    -0.003 C 
ATOM     14  C   UNL     1      23.930  39.126  24.162  1.00  0.00     0.004 C 
ENDBRANCH  12  13
ENDBRANCH  11  12
ENDBRANCH  10  11
ENDBRANCH   9  10
ENDBRANCH   1   9
TORSDOF 10
ENDMDL
MODEL 6
REMARK VINA RESULT:    -0.974     11.404     12.955
REMARK INTER + INTRA:          -1.879
REMARK INTER:                  -2.438
REMARK INTRA:                   0.559
REMARK UNBOUND:                -0.335
REMARK SMILES CCCCCCCCCCCC(=O)[O-]
REMARK SMILES IDX 7 1 8 2 9 3 10 4 11 5 12 6 13 7 14 8 6 9 5 10 4 11 3 12 2 13
REMARK SMILES IDX 1 14
REMARK H PARENT
REMARK Flexibility Score: inf
ROOT
ATOM      1  C   UNL     1      14.298  43.730  17.877  1.00  0.00     0.000 C 
ENDROOT
BRANCH   1   2
ATOM      2  C   UNL     1      12.909  44.205  18.323  1.00  0.00     0.000 C 
BRANCH   2   3
ATOM      3  C   UNL     1      11.891  43.055  18.269  1.00  0.00     0.000 C 
BRANCH   3   4
ATOM      4  C   UNL     1      11.875  42.212  19.558  1.00  0.00     0.006 C 
BRANCH   4   5
ATOM      5  C   UNL     1      12.152  40.716  19.338  1.00  0.00     0.053 C 
BRANCH   5   6
ATOM      6  C   UNL     1      12.042  39.932  20.610  1.00  0.00     0.041 C 
ATOM      7  O   UNL     1      11.971  38.675  20.575  1.00  0.00    -0.550 OA
ATOM      8  O   UNL     1      11.985  40.591  21.832  1.00  0.00    -0.550 OA
ENDBRANCH   5   6
ENDBRANCH   4   5
ENDBRANCH   3   4
ENDBRANCH   2   3
ENDBRANCH   1   2
BRANCH   1   9
ATOM      9  C   UNL     1      15.333  44.853  18.012  1.00  0.00     0.000 C 
BRANCH   9  10
ATOM     10  C   UNL     1      16.632  44.328  18.643  1.00  0.00    -0.000 C 
BRANCH  10  11
ATOM     11  C   UNL     1      16.443  43.878  20.101  1.00  0.00    -0.000 C 
BRANCH  11  12
ATOM     12  C   UNL     1      14.964  43.762  20.498  1.00  0.00    -0.000 C 
BRANCH  12  13
ATOM     13  C   UNL     1      14.818  43.152  21.897  1.00  0.00    -0.003 C 
ATOM     14  C   UNL     1      14.942  41.632  21.853  1.00  0.00     0.004 C 
ENDBRANCH  12  13
ENDBRANCH  11  12
ENDBRANCH  10  11
ENDBRANCH   9  10
ENDBRANCH   1   9
TORSDOF 10
ENDMDL
