MODEL 1
REMARK VINA RESULT:    -4.549      0.000      0.000
REMARK INTER + INTRA:          -8.243
REMARK INTER:                  -6.942
REMARK INTRA:                  -1.301
REMARK UNBOUND:                -1.301
REMARK SMILES CCCCCCCCCCC(=O)[O-]
REMARK SMILES IDX 7 1 8 2 9 3 10 4 11 5 12 6 13 7 6 8 5 9 4 10 3 11 2 12 1 13
REMARK H PARENT
REMARK Flexibility Score: inf
ROOT
ATOM      1  C   UNL     1     -10.706  -6.562  15.170  1.00  0.00     0.000 C 
ENDROOT
BRANCH   1   2
ATOM      2  C   UNL     1      -9.382  -6.013  15.722  1.00  0.00     0.000 C 
BRANCH   2   3
ATOM      3  C   UNL     1      -9.559  -4.578  16.242  1.00  0.00     0.006 C 
BRANCH   3   4
ATOM      4  C   UNL     1     -10.779  -3.882  15.624  1.00  0.00     0.053 C 
BRANCH   4   5
ATOM      5  C   UNL     1     -11.720  -3.372  16.673  1.00  0.00     0.041 C 
ATOM      6  O   UNL     1     -12.946  -3.658  16.618  1.00  0.00    -0.550 OA
ATOM      7  O   UNL     1     -11.238  -2.610  17.729  1.00  0.00    -0.550 OA
ENDBRANCH   4   5
ENDBRANCH   3   4
ENDBRANCH   2   3
ENDBRANCH   1   2
BRANCH   1   8
ATOM      8  C   UNL     1     -10.575  -7.096  13.734  1.00  0.00     0.000 C 
BRANCH   8   9
ATOM      9  C   UNL     1     -11.201  -6.151  12.693  1.00  0.00    -0.000 C 
BRANCH   9  10
ATOM     10  C   UNL     1     -10.151  -5.292  11.971  1.00  0.00    -0.000 C 
BRANCH  10  11
ATOM     11  C   UNL     1      -8.791  -6.001  11.840  1.00  0.00    -0.000 C 
BRANCH  11  12
ATOM     12  C   UNL     1      -7.635  -5.166  12.412  1.00  0.00    -0.003 C 
ATOM     13  C   UNL     1      -8.099  -3.818  12.963  1.00  0.00     0.004 C 
ENDBRANCH  11  12
ENDBRANCH  10  11
ENDBRANCH   9  10
ENDBRANCH   8   9
ENDBRANCH   1   8
TORSDOF 9
ENDMDL
MODEL 2
REMARK VINA RESULT:    -4.488      1.916      3.396
REMARK INTER + INTRA:          -8.151
REMARK INTER:                  -7.299
REMARK INTRA:                  -0.851
REMARK UNBOUND:                -1.301
REMARK SMILES CCCCCCCCCCC(=O)[O-]
REMARK SMILES IDX 7 1 8 2 9 3 10 4 11 5 12 6 13 7 6 8 5 9 4 10 3 11 2 12 1 13
REMARK H PARENT
REMARK Flexibility Score: inf
ROOT
ATOM      1  C   UNL     1     -10.107  -3.059  16.215  1.00  0.00     0.000 C 
ENDROOT
BRANCH   1   2
ATOM      2  C   UNL     1     -11.394  -3.039  17.053  1.00  0.00     0.000 C 
BRANCH   2   3
ATOM      3  C   UNL     1     -12.538  -3.753  16.317  1.00  0.00     0.006 C 
BRANCH   3   4
ATOM      4  C   UNL     1     -12.562  -3.420  14.819  1.00  0.00     0.053 C 
BRANCH   4   5
ATOM      5  C   UNL     1     -13.842  -2.753  14.418  1.00  0.00     0.041 C 
ATOM      6  O   UNL     1     -13.818  -1.673  13.770  1.00  0.00    -0.550 OA
ATOM      7  O   UNL     1     -15.062  -3.339  14.731  1.00  0.00    -0.550 OA
ENDBRANCH   4   5
ENDBRANCH   3   4
ENDBRANCH   2   3
ENDBRANCH   1   2
BRANCH   1   8
ATOM      8  C   UNL     1      -9.088  -4.096  16.714  1.00  0.00     0.000 C 
BRANCH   8   9
ATOM      9  C   UNL     1      -9.165  -5.422  15.937  1.00  0.00    -0.000 C 
BRANCH   9  10
ATOM     10  C   UNL     1      -9.162  -5.213  14.414  1.00  0.00    -0.000 C 
BRANCH  10  11
ATOM     11  C   UNL     1     -10.169  -6.122  13.688  1.00  0.00    -0.000 C 
BRANCH  11  12
ATOM     12  C   UNL     1     -10.075  -6.000  12.159  1.00  0.00    -0.003 C 
ATOM     13  C   UNL     1      -8.631  -5.986  11.657  1.00  0.00     0.004 C 
ENDBRANCH  11  12
ENDBRANCH  10  11
ENDBRANCH   9  10
ENDBRANCH   8   9
ENDBRANCH   1   8
TORSDOF 9
ENDMDL
MODEL 3
REMARK VINA RESULT:    -4.478      1.402      1.850
REMARK INTER + INTRA:          -8.134
REMARK INTER:                  -7.032
REMARK INTRA:                  -1.102
REMARK UNBOUND:                -1.301
REMARK SMILES CCCCCCCCCCC(=O)[O-]
REMARK SMILES IDX 7 1 8 2 9 3 10 4 11 5 12 6 13 7 6 8 5 9 4 10 3 11 2 12 1 13
REMARK H PARENT
REMARK Flexibility Score: inf
ROOT
ATOM      1  C   UNL     1     -10.721  -6.737  15.578  1.00  0.00     0.000 C 
ENDROOT
BRANCH   1   2
ATOM      2  C   UNL     1      -9.450  -5.961  15.955  1.00  0.00     0.000 C 
BRANCH   2   3
ATOM      3  C   UNL     1      -9.696  -4.445  15.897  1.00  0.00     0.006 C 
BRANCH   3   4
ATOM      4  C   UNL     1      -8.526  -3.644  16.483  1.00  0.00     0.053 C 
BRANCH   4   5
ATOM      5  C   UNL     1      -8.915  -2.935  17.744  1.00  0.00     0.041 C 
ATOM      6  O   UNL     1      -9.960  -2.233  17.781  1.00  0.00    -0.550 OA
ATOM      7  O   UNL     1      -8.141  -3.075  18.889  1.00  0.00    -0.550 OA
ENDBRANCH   4   5
ENDBRANCH   3   4
ENDBRANCH   2   3
ENDBRANCH   1   2
BRANCH   1   8
ATOM      8  C   UNL     1     -10.608  -7.437  14.214  1.00  0.00     0.000 C 
BRANCH   8   9
ATOM      9  C   UNL     1     -11.503  -6.791  13.142  1.00  0.00    -0.000 C 
BRANCH   9  10
ATOM     10  C   UNL     1     -10.800  -5.641  12.403  1.00  0.00    -0.000 C 
BRANCH  10  11
ATOM     11  C   UNL     1      -9.294  -5.891  12.210  1.00  0.00    -0.000 C 
BRANCH  11  12
ATOM     12  C   UNL     1      -8.455  -4.623  12.426  1.00  0.00    -0.003 C 
ATOM     13  C   UNL     1      -7.016  -4.931  12.837  1.00  0.00     0.004 C 
ENDBRANCH  11  12
ENDBRANCH  10  11
ENDBRANCH   9  10
ENDBRANCH   8   9
ENDBRANCH   1   8
TORSDOF 9
ENDMDL
MODEL 4
REMARK VINA RESULT:    -4.435      3.548      5.359
REMARK INTER + INTRA:          -8.069
REMARK INTER:                  -7.067
REMARK INTRA:                  -1.002
REMARK UNBOUND:                -1.301
REMARK SMILES CCCCCCCCCCC(=O)[O-]
REMARK SMILES IDX 7 1 8 2 9 3 10 4 11 5 12 6 13 7 6 8 5 9 4 10 3 11 2 12 1 13
REMARK H PARENT
REMARK Flexibility Score: inf
ROOT
ATOM      1  C   UNL     1     -11.150  -7.171  13.690  1.00  0.00     0.000 C 
ENDROOT
BRANCH   1   2
ATOM      2  C   UNL     1     -12.388  -6.589  12.991  1.00  0.00     0.000 C 
BRANCH   2   3
ATOM      3  C   UNL     1     -12.100  -5.179  12.451  1.00  0.00     0.006 C 
BRANCH   3   4
ATOM      4  C   UNL     1     -12.896  -4.871  11.176  1.00  0.00     0.053 C 
BRANCH   4   5
ATOM      5  C   UNL     1     -12.213  -5.400   9.952  1.00  0.00     0.041 C 
ATOM      6  O   UNL     1     -10.960  -5.326   9.843  1.00  0.00    -0.550 OA
ATOM      7  O   UNL     1     -12.956  -6.006   8.947  1.00  0.00    -0.550 OA
ENDBRANCH   4   5
ENDBRANCH   3   4
ENDBRANCH   2   3
ENDBRANCH   1   2
BRANCH   1   8
ATOM      8  C   UNL     1     -11.195  -7.001  15.217  1.00  0.00     0.000 C 
BRANCH   8   9
ATOM      9  C   UNL     1      -9.896  -6.401  15.783  1.00  0.00    -0.000 C 
BRANCH   9  10
ATOM     10  C   UNL     1      -9.637  -4.973  15.277  1.00  0.00    -0.000 C 
BRANCH  10  11
ATOM     11  C   UNL     1     -10.283  -3.899  16.170  1.00  0.00    -0.000 C 
BRANCH  11  12
ATOM     12  C   UNL     1     -11.590  -3.352  15.579  1.00  0.00    -0.003 C 
ATOM     13  C   UNL     1     -12.822  -3.781  16.374  1.00  0.00     0.004 C 
ENDBRANCH  11  12
ENDBRANCH  10  11
ENDBRANCH   9  10
ENDBRANCH   8   9
ENDBRANCH   1   8
TORSDOF 9
ENDMDL
MODEL 5
REMARK VINA RESULT:    -4.409      2.524      3.626
REMARK INTER + INTRA:          -8.029
REMARK INTER:                  -7.035
REMARK INTRA:                  -0.994
REMARK UNBOUND:                -1.301
REMARK SMILES CCCCCCCCCCC(=O)[O-]
REMARK SMILES IDX 7 1 8 2 9 3 10 4 11 5 12 6 13 7 6 8 5 9 4 10 3 11 2 12 1 13
REMARK H PARENT
REMARK Flexibility Score: inf
ROOT
ATOM      1  C   UNL     1     -12.889  -3.544  15.214  1.00  0.00     0.000 C 
ENDROOT
BRANCH   1   2
ATOM      2  C   UNL     1     -12.245  -3.383  16.599  1.00  0.00     0.000 C 
BRANCH   2   3
ATOM      3  C   UNL     1     -10.712  -3.361  16.492  1.00  0.00     0.006 C 
BRANCH   3   4
ATOM      4  C   UNL     1     -10.055  -2.671  17.695  1.00  0.00     0.053 C 
BRANCH   4   5
ATOM      5  C   UNL     1      -8.592  -2.983  17.784  1.00  0.00     0.041 C 
ATOM      6  O   UNL     1      -8.012  -2.990  18.902  1.00  0.00    -0.550 OA
ATOM      7  O   UNL     1      -7.876  -3.298  16.637  1.00  0.00    -0.550 OA
ENDBRANCH   4   5
ENDBRANCH   3   4
ENDBRANCH   2   3
ENDBRANCH   1   2
BRANCH   1   8
ATOM      8  C   UNL     1     -11.852  -3.604  14.080  1.00  0.00     0.000 C 
BRANCH   8   9
ATOM      9  C   UNL     1     -12.391  -4.312  12.824  1.00  0.00    -0.000 C 
BRANCH   9  10
ATOM     10  C   UNL     1     -11.811  -5.725  12.651  1.00  0.00    -0.000 C 
BRANCH  10  11
ATOM     11  C   UNL     1     -10.660  -6.019  13.628  1.00  0.00    -0.000 C 
BRANCH  11  12
ATOM     12  C   UNL     1     -10.894  -7.300  14.444  1.00  0.00    -0.003 C 
ATOM     13  C   UNL     1     -11.445  -7.017  15.841  1.00  0.00     0.004 C 
ENDBRANCH  11  12
ENDBRANCH  10  11
ENDBRANCH   9  10
ENDBRANCH   8   9
ENDBRANCH   1   8
TORSDOF 9
ENDMDL
MODEL 6
REMARK VINA RESULT:    -4.383      2.734      5.017
REMARK INTER + INTRA:          -7.990
REMARK INTER:                  -6.966
REMARK INTRA:                  -1.024
REMARK UNBOUND:                -1.301
REMARK SMILES CCCCCCCCCCC(=O)[O-]
REMARK SMILES IDX 7 1 8 2 9 3 10 4 11 5 12 6 13 7 6 8 5 9 4 10 3 11 2 12 1 13
REMARK H PARENT
REMARK Flexibility Score: inf
ROOT
ATOM      1  C   UNL     1     -10.661  -6.374  14.789  1.00  0.00     0.000 C 
ENDROOT
BRANCH   1   2
ATOM      2  C   UNL     1     -10.333  -6.983  13.417  1.00  0.00     0.000 C 
BRANCH   2   3
ATOM      3  C   UNL     1     -10.068  -5.883  12.378  1.00  0.00     0.006 C 
BRANCH   3   4
ATOM      4  C   UNL     1      -8.637  -5.935  11.828  1.00  0.00     0.053 C 
BRANCH   4   5
ATOM      5  C   UNL     1      -7.745  -4.937  12.501  1.00  0.00     0.041 C 
ATOM      6  O   UNL     1      -6.526  -5.198  12.683  1.00  0.00    -0.550 OA
ATOM      7  O   UNL     1      -8.251  -3.707  12.897  1.00  0.00    -0.550 OA
ENDBRANCH   4   5
ENDBRANCH   3   4
ENDBRANCH   2   3
ENDBRANCH   1   2
BRANCH   1   8
ATOM      8  C   UNL     1      -9.404  -6.072  15.620  1.00  0.00     0.000 C 
BRANCH   8   9
ATOM      9  C   UNL     1      -9.443  -4.674  16.263  1.00  0.00    -0.000 C 
BRANCH   9  10
ATOM     10  C   UNL     1     -10.548  -3.785  15.671  1.00  0.00    -0.000 C 
BRANCH  10  11
ATOM     11  C   UNL     1     -11.632  -3.420  16.700  1.00  0.00    -0.000 C 
BRANCH  11  12
ATOM     12  C   UNL     1     -13.047  -3.469  16.106  1.00  0.00    -0.003 C 
ATOM     13  C   UNL     1     -13.048  -3.408  14.579  1.00  0.00     0.004 C 
ENDBRANCH  11  12
ENDBRANCH  10  11
ENDBRANCH   9  10
ENDBRANCH   8   9
ENDBRANCH   1   8
TORSDOF 9
ENDMDL
MODEL 7
REMARK VINA RESULT:    -4.381      3.056      5.218
REMARK INTER + INTRA:          -7.987
REMARK INTER:                  -6.844
REMARK INTRA:                  -1.143
REMARK UNBOUND:                -1.301
REMARK SMILES CCCCCCCCCCC(=O)[O-]
REMARK SMILES IDX 7 1 8 2 9 3 10 4 11 5 12 6 13 7 6 8 5 9 4 10 3 11 2 12 1 13
REMARK H PARENT
REMARK Flexibility Score: inf
ROOT
ATOM      1  C   UNL     1      -8.147  -5.044  12.538  1.00  0.00     0.000 C 
ENDROOT
BRANCH   1   2
ATOM      2  C   UNL     1      -9.316  -5.803  11.891  1.00  0.00     0.000 C 
BRANCH   2   3
ATOM      3  C   UNL     1     -10.592  -4.947  11.891  1.00  0.00     0.006 C 
BRANCH   3   4
ATOM      4  C   UNL     1     -11.848  -5.775  11.585  1.00  0.00     0.053 C 
BRANCH   4   5
ATOM      5  C   UNL     1     -12.494  -5.352  10.301  1.00  0.00     0.041 C 
ATOM      6  O   UNL     1     -13.507  -4.603  10.318  1.00  0.00    -0.550 OA
ATOM      7  O   UNL     1     -11.959  -5.757   9.086  1.00  0.00    -0.550 OA
ENDBRANCH   4   5
ENDBRANCH   3   4
ENDBRANCH   2   3
ENDBRANCH   1   2
BRANCH   1   8
ATOM      8  C   UNL     1      -8.602  -4.095  13.658  1.00  0.00     0.000 C 
BRANCH   8   9
ATOM      9  C   UNL     1      -8.012  -4.473  15.028  1.00  0.00    -0.000 C 
BRANCH   9  10
ATOM     10  C   UNL     1      -9.094  -4.864  16.048  1.00  0.00    -0.000 C 
BRANCH  10  11
ATOM     11  C   UNL     1      -9.852  -6.142  15.650  1.00  0.00    -0.000 C 
BRANCH  11  12
ATOM     12  C   UNL     1     -11.360  -5.903  15.483  1.00  0.00    -0.003 C 
ATOM     13  C   UNL     1     -11.775  -4.479  15.850  1.00  0.00     0.004 C 
ENDBRANCH  11  12
ENDBRANCH  10  11
ENDBRANCH   9  10
ENDBRANCH   8   9
ENDBRANCH   1   8
TORSDOF 9
ENDMDL
MODEL 8
REMARK VINA RESULT:    -4.354      1.998      3.181
REMARK INTER + INTRA:          -7.945
REMARK INTER:                  -7.072
REMARK INTRA:                  -0.872
REMARK UNBOUND:                -1.301
REMARK SMILES CCCCCCCCCCC(=O)[O-]
REMARK SMILES IDX 7 1 8 2 9 3 10 4 11 5 12 6 13 7 6 8 5 9 4 10 3 11 2 12 1 13
REMARK H PARENT
REMARK Flexibility Score: inf
ROOT
ATOM      1  C   UNL     1     -10.281  -6.452  14.748  1.00  0.00     0.000 C 
ENDROOT
BRANCH   1   2
ATOM      2  C   UNL     1     -11.526  -5.774  15.339  1.00  0.00     0.000 C 
BRANCH   2   3
ATOM      3  C   UNL     1     -11.291  -4.267  15.528  1.00  0.00     0.006 C 
BRANCH   3   4
ATOM      4  C   UNL     1     -12.565  -3.530  15.963  1.00  0.00     0.053 C 
BRANCH   4   5
ATOM      5  C   UNL     1     -13.360  -3.052  14.786  1.00  0.00     0.041 C 
ATOM      6  O   UNL     1     -12.775  -2.611  13.762  1.00  0.00    -0.550 OA
ATOM      7  O   UNL     1     -14.747  -3.126  14.807  1.00  0.00    -0.550 OA
ENDBRANCH   4   5
ENDBRANCH   3   4
ENDBRANCH   2   3
ENDBRANCH   1   2
BRANCH   1   8
ATOM      8  C   UNL     1     -10.485  -6.907  13.294  1.00  0.00     0.000 C 
BRANCH   8   9
ATOM      9  C   UNL     1      -9.804  -5.971  12.280  1.00  0.00    -0.000 C 
BRANCH   9  10
ATOM     10  C   UNL     1     -10.770  -4.923  11.705  1.00  0.00    -0.000 C 
BRANCH  10  11
ATOM     11  C   UNL     1     -12.227  -5.416  11.667  1.00  0.00    -0.000 C 
BRANCH  11  12
ATOM     12  C   UNL     1     -12.898  -5.161  10.308  1.00  0.00    -0.003 C 
ATOM     13  C   UNL     1     -12.181  -5.864   9.156  1.00  0.00     0.004 C 
ENDBRANCH  11  12
ENDBRANCH  10  11
ENDBRANCH   9  10
ENDBRANCH   8   9
ENDBRANCH   1   8
TORSDOF 9
ENDMDL
MODEL 9
REMARK VINA RESULT:    -4.324      1.938      3.019
REMARK INTER + INTRA:          -7.899
REMARK INTER:                  -7.314
REMARK INTRA:                  -0.586
REMARK UNBOUND:                -1.301
REMARK SMILES CCCCCCCCCCC(=O)[O-]
REMARK SMILES IDX 7 1 8 2 9 3 10 4 11 5 12 6 13 7 6 8 5 9 4 10 3 11 2 12 1 13
REMARK H PARENT
REMARK Flexibility Score: inf
ROOT
ATOM      1  C   UNL     1     -10.376  -6.192  14.605  1.00  0.00     0.000 C 
ENDROOT
BRANCH   1   2
ATOM      2  C   UNL     1      -9.595  -4.873  14.703  1.00  0.00     0.000 C 
BRANCH   2   3
ATOM      3  C   UNL     1      -8.752  -4.830  15.987  1.00  0.00     0.006 C 
BRANCH   3   4
ATOM      4  C   UNL     1      -8.329  -3.402  16.357  1.00  0.00     0.053 C 
BRANCH   4   5
ATOM      5  C   UNL     1      -8.989  -2.936  17.619  1.00  0.00     0.041 C 
ATOM      6  O   UNL     1     -10.153  -2.455  17.586  1.00  0.00    -0.550 OA
ATOM      7  O   UNL     1      -8.332  -3.063  18.837  1.00  0.00    -0.550 OA
ENDBRANCH   4   5
ENDBRANCH   3   4
ENDBRANCH   2   3
ENDBRANCH   1   2
BRANCH   1   8
ATOM      8  C   UNL     1     -10.259  -6.850  13.221  1.00  0.00     0.000 C 
BRANCH   8   9
ATOM      9  C   UNL     1      -9.428  -6.010  12.235  1.00  0.00    -0.000 C 
BRANCH   9  10
ATOM     10  C   UNL     1     -10.227  -5.607  10.985  1.00  0.00    -0.000 C 
BRANCH  10  11
ATOM     11  C   UNL     1     -11.535  -4.873  11.326  1.00  0.00    -0.000 C 
BRANCH  11  12
ATOM     12  C   UNL     1     -12.640  -5.128  10.290  1.00  0.00    -0.003 C 
ATOM     13  C   UNL     1     -12.150  -5.944   9.095  1.00  0.00     0.004 C 
ENDBRANCH  11  12
ENDBRANCH  10  11
ENDBRANCH   9  10
ENDBRANCH   8   9
ENDBRANCH   1   8
TORSDOF 9
ENDMDL
