MODEL 1
REMARK VINA RESULT:    -5.397      0.000      0.000
REMARK INTER + INTRA:          -8.669
REMARK INTER:                  -7.763
REMARK INTRA:                  -0.905
REMARK UNBOUND:                -0.905
REMARK SMILES O=c1cc(-c2ccc(O)c(O)c2)oc2cc(O[C@H]3O[C@@H](CO)[C@H](O)[C@@H](O)[C@H]3O)cc(O)c12
REMARK SMILES IDX 17 1 16 2 4 3 3 4 13 5 2 6 14 7 1 8 32 9 15 10 30 11 29 12
REMARK SMILES IDX 5 13 6 14 7 15 8 16 12 17 10 18 9 19 11 21 31 23 18 25 27 26
REMARK SMILES IDX 19 27 25 28 20 29 23 30 28 31 26 33 21 35 22 36 24 38
REMARK H PARENT 9 20 11 22 31 24 28 32 26 34 22 37 24 39
REMARK Flexibility Score: inf
ROOT
ATOM      1  O   UNL     1       1.608  -1.599  -6.754  1.00  0.00    -0.462 OA
ENDROOT
BRANCH   1   2
ATOM      2  C   UNL     1       0.312  -1.232  -7.160  1.00  0.00     0.130 A 
ATOM      3  C   UNL     1      -4.336  -1.365  -6.087  1.00  0.00     0.138 A 
ATOM      4  C   UNL     1      -4.684  -0.584  -7.202  1.00  0.00     0.100 A 
ATOM      5  O   UNL     1      -3.058  -1.679  -5.882  1.00  0.00    -0.456 OA
ATOM      6  C   UNL     1      -3.683  -0.159  -8.078  1.00  0.00     0.197 A 
ATOM      7  C   UNL     1      -2.072  -1.291  -6.682  1.00  0.00     0.146 A 
ATOM      8  O   UNL     1      -4.002   0.540  -9.077  1.00  0.00    -0.289 OA
ATOM      9  C   UNL     1      -2.340  -0.507  -7.826  1.00  0.00     0.107 A 
ATOM     10  C   UNL     1      -0.759  -1.660  -6.372  1.00  0.00     0.094 A 
ATOM     11  C   UNL     1      -1.264  -0.096  -8.645  1.00  0.00     0.134 A 
ATOM     12  C   UNL     1       0.051  -0.453  -8.301  1.00  0.00     0.093 A 
BRANCH   3  13
ATOM     13  C   UNL     1      -5.347  -1.844  -5.109  1.00  0.00     0.021 A 
ATOM     14  C   UNL     1      -6.713  -1.686  -5.400  1.00  0.00     0.016 A 
ATOM     15  C   UNL     1      -7.687  -2.089  -4.485  1.00  0.00     0.051 A 
ATOM     16  C   UNL     1      -7.322  -2.648  -3.257  1.00  0.00     0.157 A 
ATOM     17  C   UNL     1      -4.979  -2.411  -3.874  1.00  0.00     0.062 A 
ATOM     18  C   UNL     1      -5.950  -2.814  -2.949  1.00  0.00     0.158 A 
BRANCH  16  19
ATOM     19  O   UNL     1      -8.345  -3.013  -2.379  1.00  0.00    -0.504 OA
ATOM     20  H   UNL     1      -9.003  -3.757  -2.558  1.00  0.00     0.293 HD
ENDBRANCH  16  19
BRANCH  18  21
ATOM     21  O   UNL     1      -5.510  -3.362  -1.741  1.00  0.00    -0.504 OA
ATOM     22  H   UNL     1      -4.611  -3.163  -1.328  1.00  0.00     0.293 HD
ENDBRANCH  18  21
ENDBRANCH   3  13
BRANCH  11  23
ATOM     23  O   UNL     1      -1.487   0.666  -9.791  1.00  0.00    -0.507 OA
ATOM     24  H   UNL     1      -0.871   0.616 -10.594  1.00  0.00     0.293 HD
ENDBRANCH  11  23
ENDBRANCH   1   2
BRANCH   1  25
ATOM     25  C   UNL     1       2.523  -2.436  -7.471  1.00  0.00     0.339 C 
ATOM     26  C   UNL     1       2.057  -3.908  -7.549  1.00  0.00     0.214 C 
ATOM     27  O   UNL     1       3.824  -2.334  -6.915  1.00  0.00    -0.332 OA
ATOM     28  C   UNL     1       2.089  -4.586  -6.162  1.00  0.00     0.180 C 
ATOM     29  C   UNL     1       3.939  -2.873  -5.603  1.00  0.00     0.179 C 
ATOM     30  C   UNL     1       3.452  -4.346  -5.478  1.00  0.00     0.177 C 
BRANCH  26  31
ATOM     31  O   UNL     1       0.776  -4.021  -8.117  1.00  0.00    -0.384 OA
ATOM     32  H   UNL     1       0.762  -4.879  -8.611  1.00  0.00     0.211 HD
ENDBRANCH  26  31
BRANCH  28  33
ATOM     33  O   UNL     1       1.032  -4.218  -5.298  1.00  0.00    -0.387 OA
ATOM     34  H   UNL     1       0.510  -3.468  -5.689  1.00  0.00     0.211 HD
ENDBRANCH  28  33
BRANCH  29  35
ATOM     35  C   UNL     1       3.449  -1.892  -4.505  1.00  0.00     0.191 C 
BRANCH  35  36
ATOM     36  O   UNL     1       2.248  -2.311  -3.911  1.00  0.00    -0.394 OA
ATOM     37  H   UNL     1       2.463  -2.671  -3.008  1.00  0.00     0.210 HD
ENDBRANCH  35  36
ENDBRANCH  29  35
BRANCH  30  38
ATOM     38  O   UNL     1       4.417  -5.182  -6.072  1.00  0.00    -0.387 OA
ATOM     39  H   UNL     1       3.940  -5.772  -6.714  1.00  0.00     0.211 HD
ENDBRANCH  30  38
ENDBRANCH   1  25
TORSDOF 11
ENDMDL
MODEL 2
REMARK VINA RESULT:    -5.357      1.084      2.018
REMARK INTER + INTRA:          -8.612
REMARK INTER:                  -7.365
REMARK INTRA:                  -1.247
REMARK UNBOUND:                -0.905
REMARK SMILES O=c1cc(-c2ccc(O)c(O)c2)oc2cc(O[C@H]3O[C@@H](CO)[C@H](O)[C@@H](O)[C@H]3O)cc(O)c12
REMARK SMILES IDX 17 1 16 2 4 3 3 4 13 5 2 6 14 7 1 8 32 9 15 10 30 11 29 12
REMARK SMILES IDX 5 13 6 14 7 15 8 16 12 17 10 18 9 19 11 21 31 23 18 25 27 26
REMARK SMILES IDX 19 27 25 28 20 29 23 30 28 31 26 33 21 35 22 36 24 38
REMARK H PARENT 9 20 11 22 31 24 28 32 26 34 22 37 24 39
REMARK Flexibility Score: inf
ROOT
ATOM      1  O   UNL     1       2.101  -1.955  -6.891  1.00  0.00    -0.462 OA
ENDROOT
BRANCH   1   2
ATOM      2  C   UNL     1       0.822  -1.520  -7.284  1.00  0.00     0.130 A 
ATOM      3  C   UNL     1      -3.817  -1.413  -6.166  1.00  0.00     0.138 A 
ATOM      4  C   UNL     1      -4.134  -0.612  -7.277  1.00  0.00     0.100 A 
ATOM      5  O   UNL     1      -2.555  -1.793  -5.974  1.00  0.00    -0.456 OA
ATOM      6  C   UNL     1      -3.121  -0.238  -8.162  1.00  0.00     0.197 A 
ATOM      7  C   UNL     1      -1.558  -1.456  -6.783  1.00  0.00     0.146 A 
ATOM      8  O   UNL     1      -3.413   0.479  -9.156  1.00  0.00    -0.289 OA
ATOM      9  C   UNL     1      -1.795  -0.656  -7.923  1.00  0.00     0.107 A 
ATOM     10  C   UNL     1      -0.263  -1.893  -6.486  1.00  0.00     0.094 A 
ATOM     11  C   UNL     1      -0.707  -0.301  -8.752  1.00  0.00     0.134 A 
ATOM     12  C   UNL     1       0.591  -0.726  -8.422  1.00  0.00     0.093 A 
BRANCH   3  13
ATOM     13  C   UNL     1      -4.842  -1.840  -5.179  1.00  0.00     0.021 A 
ATOM     14  C   UNL     1      -6.199  -1.585  -5.443  1.00  0.00     0.016 A 
ATOM     15  C   UNL     1      -7.182  -1.938  -4.518  1.00  0.00     0.051 A 
ATOM     16  C   UNL     1      -6.836  -2.543  -3.307  1.00  0.00     0.157 A 
ATOM     17  C   UNL     1      -4.493  -2.455  -3.961  1.00  0.00     0.062 A 
ATOM     18  C   UNL     1      -5.474  -2.809  -3.026  1.00  0.00     0.158 A 
BRANCH  16  19
ATOM     19  O   UNL     1      -7.867  -2.855  -2.418  1.00  0.00    -0.504 OA
ATOM     20  H   UNL     1      -8.018  -2.381  -1.539  1.00  0.00     0.293 HD
ENDBRANCH  16  19
BRANCH  18  21
ATOM     21  O   UNL     1      -5.052  -3.408  -1.837  1.00  0.00    -0.504 OA
ATOM     22  H   UNL     1      -5.666  -3.903  -1.208  1.00  0.00     0.293 HD
ENDBRANCH  18  21
ENDBRANCH   3  13
BRANCH  11  23
ATOM     23  O   UNL     1      -0.902   0.474  -9.895  1.00  0.00    -0.507 OA
ATOM     24  H   UNL     1      -0.363   0.324 -10.740  1.00  0.00     0.293 HD
ENDBRANCH  11  23
ENDBRANCH   1   2
BRANCH   1  25
ATOM     25  C   UNL     1       2.423  -3.199  -6.260  1.00  0.00     0.339 C 
ATOM     26  C   UNL     1       3.072  -3.017  -4.869  1.00  0.00     0.214 C 
ATOM     27  O   UNL     1       3.238  -3.988  -7.112  1.00  0.00    -0.332 OA
ATOM     28  C   UNL     1       4.479  -2.389  -4.978  1.00  0.00     0.180 C 
ATOM     29  C   UNL     1       4.538  -3.453  -7.331  1.00  0.00     0.179 C 
ATOM     30  C   UNL     1       5.325  -3.147  -6.024  1.00  0.00     0.177 C 
BRANCH  26  31
ATOM     31  O   UNL     1       2.263  -2.252  -4.011  1.00  0.00    -0.384 OA
ATOM     32  H   UNL     1       1.557  -1.848  -4.576  1.00  0.00     0.211 HD
ENDBRANCH  26  31
BRANCH  28  33
ATOM     33  O   UNL     1       4.488  -1.000  -5.249  1.00  0.00    -0.387 OA
ATOM     34  H   UNL     1       4.767  -0.832  -6.188  1.00  0.00     0.211 HD
ENDBRANCH  28  33
BRANCH  29  35
ATOM     35  C   UNL     1       4.558  -2.348  -8.420  1.00  0.00     0.191 C 
BRANCH  35  36
ATOM     36  O   UNL     1       4.948  -1.100  -7.909  1.00  0.00    -0.394 OA
ATOM     37  H   UNL     1       5.494  -0.642  -8.604  1.00  0.00     0.210 HD
ENDBRANCH  35  36
ENDBRANCH  29  35
BRANCH  30  38
ATOM     38  O   UNL     1       5.754  -4.368  -5.469  1.00  0.00    -0.387 OA
ATOM     39  H   UNL     1       5.792  -5.030  -6.210  1.00  0.00     0.211 HD
ENDBRANCH  30  38
ENDBRANCH   1  25
TORSDOF 11
ENDMDL
MODEL 3
REMARK VINA RESULT:    -5.289      3.045      8.236
REMARK INTER + INTRA:          -8.513
REMARK INTER:                  -7.342
REMARK INTRA:                  -1.171
REMARK UNBOUND:                -0.905
REMARK SMILES O=c1cc(-c2ccc(O)c(O)c2)oc2cc(O[C@H]3O[C@@H](CO)[C@H](O)[C@@H](O)[C@H]3O)cc(O)c12
REMARK SMILES IDX 17 1 16 2 4 3 3 4 13 5 2 6 14 7 1 8 32 9 15 10 30 11 29 12
REMARK SMILES IDX 5 13 6 14 7 15 8 16 12 17 10 18 9 19 11 21 31 23 18 25 27 26
REMARK SMILES IDX 19 27 25 28 20 29 23 30 28 31 26 33 21 35 22 36 24 38
REMARK H PARENT 9 20 11 22 31 24 28 32 26 34 22 37 24 39
REMARK Flexibility Score: inf
ROOT
ATOM      1  O   UNL     1      -2.928  -2.479  -5.960  1.00  0.00    -0.462 OA
ENDROOT
BRANCH   1   2
ATOM      2  C   UNL     1      -1.807  -2.206  -6.764  1.00  0.00     0.130 A 
ATOM      3  C   UNL     1       0.718   1.184  -8.981  1.00  0.00     0.138 A 
ATOM      4  C   UNL     1       1.698   0.271  -9.405  1.00  0.00     0.100 A 
ATOM      5  O   UNL     1      -0.322   0.745  -8.275  1.00  0.00    -0.456 OA
ATOM      6  C   UNL     1       1.557  -1.081  -9.083  1.00  0.00     0.197 A 
ATOM      7  C   UNL     1      -0.494  -0.528  -7.939  1.00  0.00     0.146 A 
ATOM      8  O   UNL     1       2.439  -1.895  -9.467  1.00  0.00    -0.289 OA
ATOM      9  C   UNL     1       0.444  -1.508  -8.329  1.00  0.00     0.107 A 
ATOM     10  C   UNL     1      -1.613  -0.886  -7.181  1.00  0.00     0.094 A 
ATOM     11  C   UNL     1       0.239  -2.850  -7.938  1.00  0.00     0.134 A 
ATOM     12  C   UNL     1      -0.876  -3.186  -7.152  1.00  0.00     0.093 A 
BRANCH   3  13
ATOM     13  C   UNL     1       0.808   2.637  -9.279  1.00  0.00     0.021 A 
ATOM     14  C   UNL     1       2.072   3.222  -9.472  1.00  0.00     0.016 A 
ATOM     15  C   UNL     1       2.193   4.591  -9.714  1.00  0.00     0.051 A 
ATOM     16  C   UNL     1       1.060   5.409  -9.758  1.00  0.00     0.157 A 
ATOM     17  C   UNL     1      -0.334   3.460  -9.328  1.00  0.00     0.062 A 
ATOM     18  C   UNL     1      -0.220   4.835  -9.566  1.00  0.00     0.158 A 
BRANCH  16  19
ATOM     19  O   UNL     1       1.252   6.773  -9.986  1.00  0.00    -0.504 OA
ATOM     20  H   UNL     1       1.623   7.414  -9.300  1.00  0.00     0.293 HD
ENDBRANCH  16  19
BRANCH  18  21
ATOM     21  O   UNL     1      -1.396   5.589  -9.594  1.00  0.00    -0.504 OA
ATOM     22  H   UNL     1      -2.106   5.550  -8.878  1.00  0.00     0.293 HD
ENDBRANCH  18  21
ENDBRANCH   3  13
BRANCH  11  23
ATOM     23  O   UNL     1       1.134  -3.850  -8.316  1.00  0.00    -0.507 OA
ATOM     24  H   UNL     1       1.778  -3.726  -9.089  1.00  0.00     0.293 HD
ENDBRANCH  11  23
ENDBRANCH   1   2
BRANCH   1  25
ATOM     25  C   UNL     1      -4.233  -2.853  -6.413  1.00  0.00     0.339 C 
ATOM     26  C   UNL     1      -5.322  -1.826  -6.027  1.00  0.00     0.214 C 
ATOM     27  O   UNL     1      -4.562  -4.153  -5.949  1.00  0.00    -0.332 OA
ATOM     28  C   UNL     1      -5.556  -1.795  -4.501  1.00  0.00     0.180 C 
ATOM     29  C   UNL     1      -4.732  -4.242  -4.539  1.00  0.00     0.179 C 
ATOM     30  C   UNL     1      -5.758  -3.226  -3.960  1.00  0.00     0.177 C 
BRANCH  26  31
ATOM     31  O   UNL     1      -5.014  -0.537  -6.499  1.00  0.00    -0.384 OA
ATOM     32  H   UNL     1      -5.759   0.051  -6.215  1.00  0.00     0.211 HD
ENDBRANCH  26  31
BRANCH  28  33
ATOM     33  O   UNL     1      -4.553  -1.125  -3.761  1.00  0.00    -0.387 OA
ATOM     34  H   UNL     1      -3.807  -1.746  -3.547  1.00  0.00     0.211 HD
ENDBRANCH  28  33
BRANCH  29  35
ATOM     35  C   UNL     1      -3.385  -4.368  -3.779  1.00  0.00     0.191 C 
BRANCH  35  36
ATOM     36  O   UNL     1      -2.414  -5.061  -4.520  1.00  0.00    -0.394 OA
ATOM     37  H   UNL     1      -1.782  -4.392  -4.898  1.00  0.00     0.210 HD
ENDBRANCH  35  36
ENDBRANCH  29  35
BRANCH  30  38
ATOM     38  O   UNL     1      -7.053  -3.666  -4.297  1.00  0.00    -0.387 OA
ATOM     39  H   UNL     1      -7.479  -2.942  -4.830  1.00  0.00     0.211 HD
ENDBRANCH  30  38
ENDBRANCH   1  25
TORSDOF 11
ENDMDL
MODEL 4
REMARK VINA RESULT:    -5.277      2.912      7.983
REMARK INTER + INTRA:          -8.496
REMARK INTER:                  -7.391
REMARK INTRA:                  -1.105
REMARK UNBOUND:                -0.905
REMARK SMILES O=c1cc(-c2ccc(O)c(O)c2)oc2cc(O[C@H]3O[C@@H](CO)[C@H](O)[C@@H](O)[C@H]3O)cc(O)c12
REMARK SMILES IDX 17 1 16 2 4 3 3 4 13 5 2 6 14 7 1 8 32 9 15 10 30 11 29 12
REMARK SMILES IDX 5 13 6 14 7 15 8 16 12 17 10 18 9 19 11 21 31 23 18 25 27 26
REMARK SMILES IDX 19 27 25 28 20 29 23 30 28 31 26 33 21 35 22 36 24 38
REMARK H PARENT 9 20 11 22 31 24 28 32 26 34 22 37 24 39
REMARK Flexibility Score: inf
ROOT
ATOM      1  O   UNL     1      -4.307  -2.857  -5.251  1.00  0.00    -0.462 OA
ENDROOT
BRANCH   1   2
ATOM      2  C   UNL     1      -4.070  -1.918  -6.270  1.00  0.00     0.130 A 
ATOM      3  C   UNL     1      -0.748   0.470  -8.729  1.00  0.00     0.138 A 
ATOM      4  C   UNL     1      -1.704   1.067  -9.569  1.00  0.00     0.100 A 
ATOM      5  O   UNL     1      -1.151  -0.353  -7.763  1.00  0.00    -0.456 OA
ATOM      6  C   UNL     1      -3.058   0.791  -9.367  1.00  0.00     0.197 A 
ATOM      7  C   UNL     1      -2.426  -0.651  -7.539  1.00  0.00     0.146 A 
ATOM      8  O   UNL     1      -3.909   1.332 -10.123  1.00  0.00    -0.289 OA
ATOM      9  C   UNL     1      -3.446  -0.089  -8.337  1.00  0.00     0.107 A 
ATOM     10  C   UNL     1      -2.745  -1.540  -6.508  1.00  0.00     0.094 A 
ATOM     11  C   UNL     1      -4.790  -0.443  -8.082  1.00  0.00     0.134 A 
ATOM     12  C   UNL     1      -5.090  -1.360  -7.061  1.00  0.00     0.093 A 
BRANCH   3  13
ATOM     13  C   UNL     1       0.709   0.710  -8.891  1.00  0.00     0.021 A 
ATOM     14  C   UNL     1       1.162   2.005  -9.197  1.00  0.00     0.016 A 
ATOM     15  C   UNL     1       2.521   2.256  -9.394  1.00  0.00     0.051 A 
ATOM     16  C   UNL     1       3.456   1.220  -9.303  1.00  0.00     0.157 A 
ATOM     17  C   UNL     1       1.652  -0.332  -8.794  1.00  0.00     0.062 A 
ATOM     18  C   UNL     1       3.016  -0.090  -8.995  1.00  0.00     0.158 A 
BRANCH  16  19
ATOM     19  O   UNL     1       4.798   1.535  -9.529  1.00  0.00    -0.504 OA
ATOM     20  H   UNL     1       5.201   1.664 -10.446  1.00  0.00     0.293 HD
ENDBRANCH  16  19
BRANCH  18  21
ATOM     21  O   UNL     1       3.891  -1.173  -8.890  1.00  0.00    -0.504 OA
ATOM     22  H   UNL     1       3.957  -1.765  -8.076  1.00  0.00     0.293 HD
ENDBRANCH  18  21
ENDBRANCH   3  13
BRANCH  11  23
ATOM     23  O   UNL     1      -5.829   0.102  -8.837  1.00  0.00    -0.507 OA
ATOM     24  H   UNL     1      -5.759   0.208  -9.843  1.00  0.00     0.293 HD
ENDBRANCH  11  23
ENDBRANCH   1   2
BRANCH   1  25
ATOM     25  C   UNL     1      -5.492  -3.639  -5.069  1.00  0.00     0.339 C 
ATOM     26  C   UNL     1      -6.324  -3.197  -3.844  1.00  0.00     0.214 C 
ATOM     27  O   UNL     1      -5.168  -5.019  -5.003  1.00  0.00    -0.332 OA
ATOM     28  C   UNL     1      -5.587  -3.499  -2.520  1.00  0.00     0.180 C 
ATOM     29  C   UNL     1      -4.425  -5.386  -3.847  1.00  0.00     0.179 C 
ATOM     30  C   UNL     1      -5.089  -4.960  -2.505  1.00  0.00     0.177 C 
BRANCH  26  31
ATOM     31  O   UNL     1      -6.667  -1.835  -3.909  1.00  0.00    -0.384 OA
ATOM     32  H   UNL     1      -6.247  -1.478  -4.732  1.00  0.00     0.211 HD
ENDBRANCH  26  31
BRANCH  28  33
ATOM     33  O   UNL     1      -4.526  -2.614  -2.217  1.00  0.00    -0.387 OA
ATOM     34  H   UNL     1      -4.499  -1.868  -2.874  1.00  0.00     0.211 HD
ENDBRANCH  28  33
BRANCH  29  35
ATOM     35  C   UNL     1      -2.908  -5.089  -3.988  1.00  0.00     0.191 C 
BRANCH  35  36
ATOM     36  O   UNL     1      -2.336  -4.645  -2.785  1.00  0.00    -0.394 OA
ATOM     37  H   UNL     1      -3.076  -4.441  -2.151  1.00  0.00     0.210 HD
ENDBRANCH  35  36
ENDBRANCH  29  35
BRANCH  30  38
ATOM     38  O   UNL     1      -6.181  -5.815  -2.262  1.00  0.00    -0.387 OA
ATOM     39  H   UNL     1      -6.485  -6.161  -3.143  1.00  0.00     0.211 HD
ENDBRANCH  30  38
ENDBRANCH   1  25
TORSDOF 11
ENDMDL
MODEL 5
REMARK VINA RESULT:    -5.259      1.535      8.091
REMARK INTER + INTRA:          -8.471
REMARK INTER:                  -7.224
REMARK INTRA:                  -1.246
REMARK UNBOUND:                -0.905
REMARK SMILES O=c1cc(-c2ccc(O)c(O)c2)oc2cc(O[C@H]3O[C@@H](CO)[C@H](O)[C@@H](O)[C@H]3O)cc(O)c12
REMARK SMILES IDX 17 1 16 2 4 3 3 4 13 5 2 6 14 7 1 8 32 9 15 10 30 11 29 12
REMARK SMILES IDX 5 13 6 14 7 15 8 16 12 17 10 18 9 19 11 21 31 23 18 25 27 26
REMARK SMILES IDX 19 27 25 28 20 29 23 30 28 31 26 33 21 35 22 36 24 38
REMARK H PARENT 9 20 11 22 31 24 28 32 26 34 22 37 24 39
REMARK Flexibility Score: inf
ROOT
ATOM      1  O   UNL     1      -5.518  -1.861  -5.430  1.00  0.00    -0.462 OA
ENDROOT
BRANCH   1   2
ATOM      2  C   UNL     1      -4.521  -1.353  -6.283  1.00  0.00     0.130 A 
ATOM      3  C   UNL     1       0.137  -1.332  -7.322  1.00  0.00     0.138 A 
ATOM      4  C   UNL     1      -0.050  -0.517  -8.451  1.00  0.00     0.100 A 
ATOM      5  O   UNL     1      -0.915  -1.672  -6.579  1.00  0.00    -0.456 OA
ATOM      6  C   UNL     1      -1.336  -0.071  -8.766  1.00  0.00     0.197 A 
ATOM      7  C   UNL     1      -2.155  -1.279  -6.844  1.00  0.00     0.146 A 
ATOM      8  O   UNL     1      -1.496   0.661  -9.779  1.00  0.00    -0.289 OA
ATOM      9  C   UNL     1      -2.426  -0.455  -7.959  1.00  0.00     0.107 A 
ATOM     10  C   UNL     1      -3.196  -1.703  -6.011  1.00  0.00     0.094 A 
ATOM     11  C   UNL     1      -3.761  -0.073  -8.221  1.00  0.00     0.134 A 
ATOM     12  C   UNL     1      -4.796  -0.531  -7.390  1.00  0.00     0.093 A 
BRANCH   3  13
ATOM     13  C   UNL     1       1.474  -1.850  -6.932  1.00  0.00     0.021 A 
ATOM     14  C   UNL     1       2.590  -1.538  -7.727  1.00  0.00     0.016 A 
ATOM     15  C   UNL     1       3.853  -2.041  -7.411  1.00  0.00     0.051 A 
ATOM     16  C   UNL     1       4.030  -2.875  -6.302  1.00  0.00     0.157 A 
ATOM     17  C   UNL     1       1.653  -2.685  -5.812  1.00  0.00     0.062 A 
ATOM     18  C   UNL     1       2.916  -3.198  -5.490  1.00  0.00     0.158 A 
BRANCH  16  19
ATOM     19  O   UNL     1       5.315  -3.359  -6.051  1.00  0.00    -0.504 OA
ATOM     20  H   UNL     1       5.855  -3.129  -5.230  1.00  0.00     0.293 HD
ENDBRANCH  16  19
BRANCH  18  21
ATOM     21  O   UNL     1       3.015  -4.026  -4.370  1.00  0.00    -0.504 OA
ATOM     22  H   UNL     1       3.874  -4.194  -3.869  1.00  0.00     0.293 HD
ENDBRANCH  18  21
ENDBRANCH   3  13
BRANCH  11  23
ATOM     23  O   UNL     1      -4.069   0.753  -9.303  1.00  0.00    -0.507 OA
ATOM     24  H   UNL     1      -4.787   0.508  -9.974  1.00  0.00     0.293 HD
ENDBRANCH  11  23
ENDBRANCH   1   2
BRANCH   1  25
ATOM     25  C   UNL     1      -6.335  -3.013  -5.663  1.00  0.00     0.339 C 
ATOM     26  C   UNL     1      -7.800  -2.813  -5.214  1.00  0.00     0.214 C 
ATOM     27  O   UNL     1      -5.760  -4.158  -5.054  1.00  0.00    -0.332 OA
ATOM     28  C   UNL     1      -7.911  -2.700  -3.677  1.00  0.00     0.180 C 
ATOM     29  C   UNL     1      -5.753  -4.118  -3.632  1.00  0.00     0.179 C 
ATOM     30  C   UNL     1      -7.151  -3.860  -2.999  1.00  0.00     0.177 C 
BRANCH  26  31
ATOM     31  O   UNL     1      -8.386  -1.691  -5.827  1.00  0.00    -0.384 OA
ATOM     32  H   UNL     1      -7.951  -0.895  -5.431  1.00  0.00     0.211 HD
ENDBRANCH  26  31
BRANCH  28  33
ATOM     33  O   UNL     1      -7.497  -1.458  -3.143  1.00  0.00    -0.387 OA
ATOM     34  H   UNL     1      -8.284  -0.881  -2.956  1.00  0.00     0.211 HD
ENDBRANCH  28  33
BRANCH  29  35
ATOM     35  C   UNL     1      -4.575  -3.285  -3.060  1.00  0.00     0.191 C 
BRANCH  35  36
ATOM     36  O   UNL     1      -5.013  -2.209  -2.271  1.00  0.00    -0.394 OA
ATOM     37  H   UNL     1      -4.910  -2.468  -1.315  1.00  0.00     0.210 HD
ENDBRANCH  35  36
ENDBRANCH  29  35
BRANCH  30  38
ATOM     38  O   UNL     1      -7.913  -5.038  -3.114  1.00  0.00    -0.387 OA
ATOM     39  H   UNL     1      -7.273  -5.793  -3.216  1.00  0.00     0.211 HD
ENDBRANCH  30  38
ENDBRANCH   1  25
TORSDOF 11
ENDMDL
MODEL 6
REMARK VINA RESULT:    -5.247     10.956     12.409
REMARK INTER + INTRA:          -8.453
REMARK INTER:                  -7.281
REMARK INTRA:                  -1.172
REMARK UNBOUND:                -0.905
REMARK SMILES O=c1cc(-c2ccc(O)c(O)c2)oc2cc(O[C@H]3O[C@@H](CO)[C@H](O)[C@@H](O)[C@H]3O)cc(O)c12
REMARK SMILES IDX 17 1 16 2 4 3 3 4 13 5 2 6 14 7 1 8 32 9 15 10 30 11 29 12
REMARK SMILES IDX 5 13 6 14 7 15 8 16 12 17 10 18 9 19 11 21 31 23 18 25 27 26
REMARK SMILES IDX 19 27 25 28 20 29 23 30 28 31 26 33 21 35 22 36 24 38
REMARK H PARENT 9 20 11 22 31 24 28 32 26 34 22 37 24 39
REMARK Flexibility Score: inf
ROOT
ATOM      1  O   UNL     1       4.154   8.286  -1.447  1.00  0.00    -0.462 OA
ENDROOT
BRANCH   1   2
ATOM      2  C   UNL     1       3.502   8.258  -0.201  1.00  0.00     0.130 A 
ATOM      3  C   UNL     1      -0.431   6.930   2.155  1.00  0.00     0.138 A 
ATOM      4  C   UNL     1       0.089   7.349   3.392  1.00  0.00     0.100 A 
ATOM      5  O   UNL     1       0.299   7.089   1.053  1.00  0.00    -0.456 OA
ATOM      6  C   UNL     1       1.357   7.931   3.439  1.00  0.00     0.197 A 
ATOM      7  C   UNL     1       1.512   7.630   1.049  1.00  0.00     0.146 A 
ATOM      8  O   UNL     1       1.816   8.306   4.551  1.00  0.00    -0.289 OA
ATOM      9  C   UNL     1       2.103   8.079   2.251  1.00  0.00     0.107 A 
ATOM     10  C   UNL     1       2.205   7.740  -0.161  1.00  0.00     0.094 A 
ATOM     11  C   UNL     1       3.402   8.633   2.212  1.00  0.00     0.134 A 
ATOM     12  C   UNL     1       4.094   8.708   0.992  1.00  0.00     0.093 A 
BRANCH   3  13
ATOM     13  C   UNL     1      -1.767   6.294   2.032  1.00  0.00     0.021 A 
ATOM     14  C   UNL     1      -2.464   5.928   3.197  1.00  0.00     0.016 A 
ATOM     15  C   UNL     1      -3.704   5.293   3.115  1.00  0.00     0.051 A 
ATOM     16  C   UNL     1      -4.272   4.999   1.872  1.00  0.00     0.157 A 
ATOM     17  C   UNL     1      -2.342   6.003   0.780  1.00  0.00     0.062 A 
ATOM     18  C   UNL     1      -3.584   5.362   0.689  1.00  0.00     0.158 A 
BRANCH  16  19
ATOM     19  O   UNL     1      -5.507   4.346   1.859  1.00  0.00    -0.504 OA
ATOM     20  H   UNL     1      -6.354   4.732   2.251  1.00  0.00     0.293 HD
ENDBRANCH  16  19
BRANCH  18  21
ATOM     21  O   UNL     1      -4.088   5.099  -0.587  1.00  0.00    -0.504 OA
ATOM     22  H   UNL     1      -4.252   4.171  -0.946  1.00  0.00     0.293 HD
ENDBRANCH  18  21
ENDBRANCH   3  13
BRANCH  11  23
ATOM     23  O   UNL     1       4.014   9.102   3.374  1.00  0.00    -0.507 OA
ATOM     24  H   UNL     1       4.978   8.879   3.598  1.00  0.00     0.293 HD
ENDBRANCH  11  23
ENDBRANCH   1   2
BRANCH   1  25
ATOM     25  C   UNL     1       4.107   7.274  -2.459  1.00  0.00     0.339 C 
ATOM     26  C   UNL     1       5.251   6.242  -2.331  1.00  0.00     0.214 C 
ATOM     27  O   UNL     1       4.087   7.865  -3.748  1.00  0.00    -0.332 OA
ATOM     28  C   UNL     1       6.625   6.879  -2.638  1.00  0.00     0.180 C 
ATOM     29  C   UNL     1       5.290   8.539  -4.098  1.00  0.00     0.179 C 
ATOM     30  C   UNL     1       6.568   7.661  -3.968  1.00  0.00     0.177 C 
BRANCH  26  31
ATOM     31  O   UNL     1       5.269   5.636  -1.062  1.00  0.00    -0.384 OA
ATOM     32  H   UNL     1       5.863   6.189  -0.495  1.00  0.00     0.211 HD
ENDBRANCH  26  31
BRANCH  28  33
ATOM     33  O   UNL     1       7.143   7.696  -1.607  1.00  0.00    -0.387 OA
ATOM     34  H   UNL     1       6.771   8.615  -1.673  1.00  0.00     0.211 HD
ENDBRANCH  28  33
BRANCH  29  35
ATOM     35  C   UNL     1       5.374   9.968  -3.500  1.00  0.00     0.191 C 
BRANCH  35  36
ATOM     36  O   UNL     1       6.441  10.109  -2.597  1.00  0.00    -0.394 OA
ATOM     37  H   UNL     1       7.235  10.421  -3.110  1.00  0.00     0.210 HD
ENDBRANCH  35  36
ENDBRANCH  29  35
BRANCH  30  38
ATOM     38  O   UNL     1       6.588   6.747  -5.039  1.00  0.00    -0.387 OA
ATOM     39  H   UNL     1       5.706   6.810  -5.495  1.00  0.00     0.211 HD
ENDBRANCH  30  38
ENDBRANCH   1  25
TORSDOF 11
ENDMDL
MODEL 7
REMARK VINA RESULT:    -5.236      3.235      7.550
REMARK INTER + INTRA:          -8.437
REMARK INTER:                  -7.310
REMARK INTRA:                  -1.127
REMARK UNBOUND:                -0.905
REMARK SMILES O=c1cc(-c2ccc(O)c(O)c2)oc2cc(O[C@H]3O[C@@H](CO)[C@H](O)[C@@H](O)[C@H]3O)cc(O)c12
REMARK SMILES IDX 17 1 16 2 4 3 3 4 13 5 2 6 14 7 1 8 32 9 15 10 30 11 29 12
REMARK SMILES IDX 5 13 6 14 7 15 8 16 12 17 10 18 9 19 11 21 31 23 18 25 27 26
REMARK SMILES IDX 19 27 25 28 20 29 23 30 28 31 26 33 21 35 22 36 24 38
REMARK H PARENT 9 20 11 22 31 24 28 32 26 34 22 37 24 39
REMARK Flexibility Score: inf
ROOT
ATOM      1  O   UNL     1      -4.088  -3.468  -4.392  1.00  0.00    -0.462 OA
ENDROOT
BRANCH   1   2
ATOM      2  C   UNL     1      -4.163  -2.574  -5.475  1.00  0.00     0.130 A 
ATOM      3  C   UNL     1      -1.694   0.227  -8.448  1.00  0.00     0.138 A 
ATOM      4  C   UNL     1      -2.841   0.572  -9.183  1.00  0.00     0.100 A 
ATOM      5  O   UNL     1      -1.809  -0.589  -7.402  1.00  0.00    -0.456 OA
ATOM      6  C   UNL     1      -4.081   0.058  -8.795  1.00  0.00     0.197 A 
ATOM      7  C   UNL     1      -2.964  -1.108  -7.001  1.00  0.00     0.146 A 
ATOM      8  O   UNL     1      -5.105   0.373  -9.457  1.00  0.00    -0.289 OA
ATOM      9  C   UNL     1      -4.163  -0.807  -7.684  1.00  0.00     0.107 A 
ATOM     10  C   UNL     1      -2.977  -1.968  -5.899  1.00  0.00     0.094 A 
ATOM     11  C   UNL     1      -5.371  -1.392  -7.242  1.00  0.00     0.134 A 
ATOM     12  C   UNL     1      -5.361  -2.276  -6.150  1.00  0.00     0.093 A 
BRANCH   3  13
ATOM     13  C   UNL     1      -0.343   0.728  -8.808  1.00  0.00     0.021 A 
ATOM     14  C   UNL     1       0.732  -0.176  -8.867  1.00  0.00     0.016 A 
ATOM     15  C   UNL     1       2.021   0.269  -9.164  1.00  0.00     0.051 A 
ATOM     16  C   UNL     1       2.270   1.625  -9.398  1.00  0.00     0.157 A 
ATOM     17  C   UNL     1      -0.093   2.093  -9.048  1.00  0.00     0.062 A 
ATOM     18  C   UNL     1       1.198   2.548  -9.343  1.00  0.00     0.158 A 
BRANCH  16  19
ATOM     19  O   UNL     1       3.585   2.007  -9.672  1.00  0.00    -0.504 OA
ATOM     20  H   UNL     1       4.340   1.357  -9.834  1.00  0.00     0.293 HD
ENDBRANCH  16  19
BRANCH  18  21
ATOM     21  O   UNL     1       1.370   3.917  -9.562  1.00  0.00    -0.504 OA
ATOM     22  H   UNL     1       0.816   4.632  -9.116  1.00  0.00     0.293 HD
ENDBRANCH  18  21
ENDBRANCH   3  13
BRANCH  11  23
ATOM     23  O   UNL     1      -6.578  -1.108  -7.880  1.00  0.00    -0.507 OA
ATOM     24  H   UNL     1      -6.964  -1.721  -8.589  1.00  0.00     0.293 HD
ENDBRANCH  11  23
ENDBRANCH   1   2
BRANCH   1  25
ATOM     25  C   UNL     1      -5.009  -4.522  -4.089  1.00  0.00     0.339 C 
ATOM     26  C   UNL     1      -4.957  -4.959  -2.608  1.00  0.00     0.214 C 
ATOM     27  O   UNL     1      -4.802  -5.623  -4.960  1.00  0.00    -0.332 OA
ATOM     28  C   UNL     1      -3.620  -5.653  -2.267  1.00  0.00     0.180 C 
ATOM     29  C   UNL     1      -3.559  -6.289  -4.769  1.00  0.00     0.179 C 
ATOM     30  C   UNL     1      -3.306  -6.751  -3.305  1.00  0.00     0.177 C 
BRANCH  26  31
ATOM     31  O   UNL     1      -5.181  -3.878  -1.736  1.00  0.00    -0.384 OA
ATOM     32  H   UNL     1      -5.847  -3.294  -2.178  1.00  0.00     0.211 HD
ENDBRANCH  26  31
BRANCH  28  33
ATOM     33  O   UNL     1      -2.518  -4.777  -2.127  1.00  0.00    -0.387 OA
ATOM     34  H   UNL     1      -2.729  -3.888  -2.518  1.00  0.00     0.211 HD
ENDBRANCH  28  33
BRANCH  29  35
ATOM     35  C   UNL     1      -2.379  -5.573  -5.478  1.00  0.00     0.191 C 
BRANCH  35  36
ATOM     36  O   UNL     1      -1.470  -5.009  -4.567  1.00  0.00    -0.394 OA
ATOM     37  H   UNL     1      -0.654  -5.579  -4.557  1.00  0.00     0.210 HD
ENDBRANCH  35  36
ENDBRANCH  29  35
BRANCH  30  38
ATOM     38  O   UNL     1      -4.120  -7.871  -3.048  1.00  0.00    -0.387 OA
ATOM     39  H   UNL     1      -4.616  -8.072  -3.887  1.00  0.00     0.211 HD
ENDBRANCH  30  38
ENDBRANCH   1  25
TORSDOF 11
ENDMDL
MODEL 8
REMARK VINA RESULT:    -5.044      7.630     10.155
REMARK INTER + INTRA:          -8.161
REMARK INTER:                  -6.960
REMARK INTRA:                  -1.201
REMARK UNBOUND:                -0.905
REMARK SMILES O=c1cc(-c2ccc(O)c(O)c2)oc2cc(O[C@H]3O[C@@H](CO)[C@H](O)[C@@H](O)[C@H]3O)cc(O)c12
REMARK SMILES IDX 17 1 16 2 4 3 3 4 13 5 2 6 14 7 1 8 32 9 15 10 30 11 29 12
REMARK SMILES IDX 5 13 6 14 7 15 8 16 12 17 10 18 9 19 11 21 31 23 18 25 27 26
REMARK SMILES IDX 19 27 25 28 20 29 23 30 28 31 26 33 21 35 22 36 24 38
REMARK H PARENT 9 20 11 22 31 24 28 32 26 34 22 37 24 39
REMARK Flexibility Score: inf
ROOT
ATOM      1  O   UNL     1       5.506  -2.103  -5.075  1.00  0.00    -0.462 OA
ENDROOT
BRANCH   1   2
ATOM      2  C   UNL     1       5.895  -0.822  -5.508  1.00  0.00     0.130 A 
ATOM      3  C   UNL     1       6.780   3.680  -4.194  1.00  0.00     0.138 A 
ATOM      4  C   UNL     1       7.187   4.048  -5.488  1.00  0.00     0.100 A 
ATOM      5  O   UNL     1       6.376   2.431  -3.966  1.00  0.00    -0.456 OA
ATOM      6  C   UNL     1       7.151   3.098  -6.511  1.00  0.00     0.197 A 
ATOM      7  C   UNL     1       6.333   1.493  -4.905  1.00  0.00     0.146 A 
ATOM      8  O   UNL     1       7.516   3.436  -7.669  1.00  0.00    -0.289 OA
ATOM      9  C   UNL     1       6.722   1.785  -6.231  1.00  0.00     0.107 A 
ATOM     10  C   UNL     1       5.908   0.206  -4.562  1.00  0.00     0.094 A 
ATOM     11  C   UNL     1       6.681   0.757  -7.200  1.00  0.00     0.134 A 
ATOM     12  C   UNL     1       6.279  -0.537  -6.831  1.00  0.00     0.093 A 
BRANCH   3  13
ATOM     13  C   UNL     1       6.801   4.634  -3.055  1.00  0.00     0.021 A 
ATOM     14  C   UNL     1       8.017   4.898  -2.402  1.00  0.00     0.016 A 
ATOM     15  C   UNL     1       8.063   5.759  -1.305  1.00  0.00     0.051 A 
ATOM     16  C   UNL     1       6.898   6.368  -0.828  1.00  0.00     0.157 A 
ATOM     17  C   UNL     1       5.628   5.251  -2.578  1.00  0.00     0.062 A 
ATOM     18  C   UNL     1       5.665   6.113  -1.475  1.00  0.00     0.158 A 
BRANCH  16  19
ATOM     19  O   UNL     1       7.011   7.204   0.285  1.00  0.00    -0.504 OA
ATOM     20  H   UNL     1       6.329   7.251   1.028  1.00  0.00     0.293 HD
ENDBRANCH  16  19
BRANCH  18  21
ATOM     21  O   UNL     1       4.461   6.683  -1.054  1.00  0.00    -0.504 OA
ATOM     22  H   UNL     1       3.591   6.592  -1.556  1.00  0.00     0.293 HD
ENDBRANCH  18  21
ENDBRANCH   3  13
BRANCH  11  23
ATOM     23  O   UNL     1       7.042   1.008  -8.524  1.00  0.00    -0.507 OA
ATOM     24  H   UNL     1       6.720   1.832  -9.018  1.00  0.00     0.293 HD
ENDBRANCH  11  23
ENDBRANCH   1   2
BRANCH   1  25
ATOM     25  C   UNL     1       6.144  -3.343  -5.395  1.00  0.00     0.339 C 
ATOM     26  C   UNL     1       5.140  -4.468  -5.732  1.00  0.00     0.214 C 
ATOM     27  O   UNL     1       7.022  -3.731  -4.350  1.00  0.00    -0.332 OA
ATOM     28  C   UNL     1       4.323  -4.889  -4.490  1.00  0.00     0.180 C 
ATOM     29  C   UNL     1       6.365  -4.073  -3.135  1.00  0.00     0.179 C 
ATOM     30  C   UNL     1       5.263  -5.161  -3.297  1.00  0.00     0.177 C 
BRANCH  26  31
ATOM     31  O   UNL     1       4.277  -4.101  -6.780  1.00  0.00    -0.384 OA
ATOM     32  H   UNL     1       3.392  -4.493  -6.566  1.00  0.00     0.211 HD
ENDBRANCH  26  31
BRANCH  28  33
ATOM     33  O   UNL     1       3.302  -3.984  -4.118  1.00  0.00    -0.387 OA
ATOM     34  H   UNL     1       2.931  -4.227  -3.228  1.00  0.00     0.211 HD
ENDBRANCH  28  33
BRANCH  29  35
ATOM     35  C   UNL     1       5.985  -2.830  -2.287  1.00  0.00     0.191 C 
BRANCH  35  36
ATOM     36  O   UNL     1       4.597  -2.707  -2.110  1.00  0.00    -0.394 OA
ATOM     37  H   UNL     1       4.351  -1.758  -2.281  1.00  0.00     0.210 HD
ENDBRANCH  35  36
ENDBRANCH  29  35
BRANCH  30  38
ATOM     38  O   UNL     1       5.895  -6.405  -3.484  1.00  0.00    -0.387 OA
ATOM     39  H   UNL     1       5.450  -6.847  -4.255  1.00  0.00     0.211 HD
ENDBRANCH  30  38
ENDBRANCH   1  25
TORSDOF 11
ENDMDL
MODEL 9
REMARK VINA RESULT:    -5.025      3.130      7.337
REMARK INTER + INTRA:          -8.134
REMARK INTER:                  -7.021
REMARK INTRA:                  -1.114
REMARK UNBOUND:                -0.905
REMARK SMILES O=c1cc(-c2ccc(O)c(O)c2)oc2cc(O[C@H]3O[C@@H](CO)[C@H](O)[C@@H](O)[C@H]3O)cc(O)c12
REMARK SMILES IDX 17 1 16 2 4 3 3 4 13 5 2 6 14 7 1 8 32 9 15 10 30 11 29 12
REMARK SMILES IDX 5 13 6 14 7 15 8 16 12 17 10 18 9 19 11 21 31 23 18 25 27 26
REMARK SMILES IDX 19 27 25 28 20 29 23 30 28 31 26 33 21 35 22 36 24 38
REMARK H PARENT 9 20 11 22 31 24 28 32 26 34 22 37 24 39
REMARK Flexibility Score: inf
ROOT
ATOM      1  O   UNL     1      -3.930  -4.374  -5.254  1.00  0.00    -0.462 OA
ENDROOT
BRANCH   1   2
ATOM      2  C   UNL     1      -3.982  -3.250  -6.099  1.00  0.00     0.130 A 
ATOM      3  C   UNL     1      -1.433   0.030  -8.450  1.00  0.00     0.138 A 
ATOM      4  C   UNL     1      -2.578   0.595  -9.037  1.00  0.00     0.100 A 
ATOM      5  O   UNL     1      -1.567  -1.000  -7.616  1.00  0.00    -0.456 OA
ATOM      6  C   UNL     1      -3.835   0.071  -8.726  1.00  0.00     0.197 A 
ATOM      7  C   UNL     1      -2.740  -1.535  -7.297  1.00  0.00     0.146 A 
ATOM      8  O   UNL     1      -4.857   0.585  -9.255  1.00  0.00    -0.289 OA
ATOM      9  C   UNL     1      -3.937  -1.022  -7.842  1.00  0.00     0.107 A 
ATOM     10  C   UNL     1      -2.774  -2.626  -6.422  1.00  0.00     0.094 A 
ATOM     11  C   UNL     1      -5.165  -1.629  -7.495  1.00  0.00     0.134 A 
ATOM     12  C   UNL     1      -5.178  -2.741  -6.637  1.00  0.00     0.093 A 
BRANCH   3  13
ATOM     13  C   UNL     1      -0.065   0.529  -8.742  1.00  0.00     0.021 A 
ATOM     14  C   UNL     1       0.115   1.881  -9.084  1.00  0.00     0.016 A 
ATOM     15  C   UNL     1       1.382   2.372  -9.402  1.00  0.00     0.051 A 
ATOM     16  C   UNL     1       2.495   1.526  -9.398  1.00  0.00     0.157 A 
ATOM     17  C   UNL     1       1.057  -0.322  -8.733  1.00  0.00     0.062 A 
ATOM     18  C   UNL     1       2.331   0.162  -9.055  1.00  0.00     0.158 A 
BRANCH  16  19
ATOM     19  O   UNL     1       3.731   2.076  -9.743  1.00  0.00    -0.504 OA
ATOM     20  H   UNL     1       3.842   2.939 -10.255  1.00  0.00     0.293 HD
ENDBRANCH  16  19
BRANCH  18  21
ATOM     21  O   UNL     1       3.395  -0.743  -9.031  1.00  0.00    -0.504 OA
ATOM     22  H   UNL     1       4.207  -0.671  -9.626  1.00  0.00     0.293 HD
ENDBRANCH  18  21
ENDBRANCH   3  13
BRANCH  11  23
ATOM     23  O   UNL     1      -6.371  -1.142  -7.999  1.00  0.00    -0.507 OA
ATOM     24  H   UNL     1      -7.211  -1.107  -7.433  1.00  0.00     0.293 HD
ENDBRANCH  11  23
ENDBRANCH   1   2
BRANCH   1  25
ATOM     25  C   UNL     1      -2.758  -5.101  -4.873  1.00  0.00     0.339 C 
ATOM     26  C   UNL     1      -2.989  -6.629  -4.817  1.00  0.00     0.214 C 
ATOM     27  O   UNL     1      -2.251  -4.611  -3.642  1.00  0.00    -0.332 OA
ATOM     28  C   UNL     1      -3.943  -7.016  -3.665  1.00  0.00     0.180 C 
ATOM     29  C   UNL     1      -3.096  -4.859  -2.525  1.00  0.00     0.179 C 
ATOM     30  C   UNL     1      -3.488  -6.354  -2.347  1.00  0.00     0.177 C 
BRANCH  26  31
ATOM     31  O   UNL     1      -3.474  -7.129  -6.039  1.00  0.00    -0.384 OA
ATOM     32  H   UNL     1      -2.827  -6.846  -6.734  1.00  0.00     0.211 HD
ENDBRANCH  26  31
BRANCH  28  33
ATOM     33  O   UNL     1      -5.309  -6.740  -3.910  1.00  0.00    -0.387 OA
ATOM     34  H   UNL     1      -5.586  -7.116  -4.787  1.00  0.00     0.211 HD
ENDBRANCH  28  33
BRANCH  29  35
ATOM     35  C   UNL     1      -4.249  -3.827  -2.403  1.00  0.00     0.191 C 
BRANCH  35  36
ATOM     36  O   UNL     1      -5.420  -4.393  -1.872  1.00  0.00    -0.394 OA
ATOM     37  H   UNL     1      -6.198  -3.930  -2.286  1.00  0.00     0.210 HD
ENDBRANCH  35  36
ENDBRANCH  29  35
BRANCH  30  38
ATOM     38  O   UNL     1      -2.369  -7.047  -1.848  1.00  0.00    -0.387 OA
ATOM     39  H   UNL     1      -1.794  -7.277  -2.626  1.00  0.00     0.211 HD
ENDBRANCH  30  38
ENDBRANCH   1  25
TORSDOF 11
ENDMDL
