MODEL 1
REMARK VINA RESULT:    -3.881      0.000      0.000
REMARK INTER + INTRA:          -5.602
REMARK INTER:                  -5.469
REMARK INTRA:                  -0.133
REMARK UNBOUND:                -0.133
REMARK SMILES CCCCCCCCC(=O)[O-]
REMARK SMILES IDX 6 1 7 2 8 3 9 4 10 5 11 6 5 7 4 8 3 9 2 10 1 11
REMARK H PARENT
REMARK Flexibility Score: inf
ROOT
ATOM      1  C   UNL     1      36.404 106.164 262.919  1.00  0.00     0.000 C 
ENDROOT
BRANCH   1   2
ATOM      2  C   UNL     1      35.079 105.994 263.677  1.00  0.00     0.006 C 
BRANCH   2   3
ATOM      3  C   UNL     1      34.979 104.631 264.375  1.00  0.00     0.053 C 
BRANCH   3   4
ATOM      4  C   UNL     1      34.918 104.773 265.865  1.00  0.00     0.041 C 
ATOM      5  O   UNL     1      34.875 105.916 266.391  1.00  0.00    -0.550 OA
ATOM      6  O   UNL     1      34.875 103.643 266.671  1.00  0.00    -0.550 OA
ENDBRANCH   3   4
ENDBRANCH   2   3
ENDBRANCH   1   2
BRANCH   1   7
ATOM      7  C   UNL     1      36.366 105.431 261.574  1.00  0.00     0.000 C 
BRANCH   7   8
ATOM      8  C   UNL     1      37.459 105.949 260.631  1.00  0.00    -0.000 C 
BRANCH   8   9
ATOM      9  C   UNL     1      37.660 104.996 259.445  1.00  0.00    -0.000 C 
BRANCH   9  10
ATOM     10  C   UNL     1      36.767 105.348 258.246  1.00  0.00    -0.003 C 
ATOM     11  C   UNL     1      36.086 106.709 258.396  1.00  0.00     0.004 C 
ENDBRANCH   9  10
ENDBRANCH   8   9
ENDBRANCH   7   8
ENDBRANCH   1   7
TORSDOF 7
ENDMDL
MODEL 2
REMARK VINA RESULT:    -3.762      1.524      2.160
REMARK INTER + INTRA:          -5.434
REMARK INTER:                  -5.263
REMARK INTRA:                  -0.171
REMARK UNBOUND:                -0.133
REMARK SMILES CCCCCCCCC(=O)[O-]
REMARK SMILES IDX 6 1 7 2 8 3 9 4 10 5 11 6 5 7 4 8 3 9 2 10 1 11
REMARK H PARENT
REMARK Flexibility Score: inf
ROOT
ATOM      1  C   UNL     1      34.917 105.632 263.570  1.00  0.00     0.000 C 
ENDROOT
BRANCH   1   2
ATOM      2  C   UNL     1      34.887 105.741 265.102  1.00  0.00     0.006 C 
BRANCH   2   3
ATOM      3  C   UNL     1      35.120 107.178 265.587  1.00  0.00     0.053 C 
BRANCH   3   4
ATOM      4  C   UNL     1      35.045 107.280 267.079  1.00  0.00     0.041 C 
ATOM      5  O   UNL     1      34.876 108.400 267.630  1.00  0.00    -0.550 OA
ATOM      6  O   UNL     1      35.127 106.136 267.862  1.00  0.00    -0.550 OA
ENDBRANCH   3   4
ENDBRANCH   2   3
ENDBRANCH   1   2
BRANCH   1   7
ATOM      7  C   UNL     1      36.288 106.035 263.017  1.00  0.00     0.000 C 
BRANCH   7   8
ATOM      8  C   UNL     1      36.397 105.710 261.522  1.00  0.00    -0.000 C 
BRANCH   8   9
ATOM      9  C   UNL     1      37.842 105.870 261.028  1.00  0.00    -0.000 C 
BRANCH   9  10
ATOM     10  C   UNL     1      38.128 105.047 259.762  1.00  0.00    -0.003 C 
ATOM     11  C   UNL     1      37.080 105.261 258.669  1.00  0.00     0.004 C 
ENDBRANCH   9  10
ENDBRANCH   8   9
ENDBRANCH   7   8
ENDBRANCH   1   7
TORSDOF 7
ENDMDL
MODEL 3
REMARK VINA RESULT:    -3.635      3.608      6.489
REMARK INTER + INTRA:          -5.255
REMARK INTER:                  -5.020
REMARK INTRA:                  -0.235
REMARK UNBOUND:                -0.133
REMARK SMILES CCCCCCCCC(=O)[O-]
REMARK SMILES IDX 6 1 7 2 8 3 9 4 10 5 11 6 5 7 4 8 3 9 2 10 1 11
REMARK H PARENT
REMARK Flexibility Score: inf
ROOT
ATOM      1  C   UNL     1      36.308 106.098 262.850  1.00  0.00     0.000 C 
ENDROOT
BRANCH   1   2
ATOM      2  C   UNL     1      36.480 105.293 261.554  1.00  0.00     0.006 C 
BRANCH   2   3
ATOM      3  C   UNL     1      37.509 105.925 260.608  1.00  0.00     0.053 C 
BRANCH   3   4
ATOM      4  C   UNL     1      37.071 105.849 259.178  1.00  0.00     0.041 C 
ATOM      5  O   UNL     1      37.522 104.945 258.425  1.00  0.00    -0.550 OA
ATOM      6  O   UNL     1      36.141 106.754 258.684  1.00  0.00    -0.550 OA
ENDBRANCH   3   4
ENDBRANCH   2   3
ENDBRANCH   1   2
BRANCH   1   7
ATOM      7  C   UNL     1      34.877 105.976 263.388  1.00  0.00     0.000 C 
BRANCH   7   8
ATOM      8  C   UNL     1      34.876 105.730 264.901  1.00  0.00    -0.000 C 
BRANCH   8   9
ATOM      9  C   UNL     1      34.998 104.232 265.215  1.00  0.00    -0.000 C 
BRANCH   9  10
ATOM     10  C   UNL     1      34.925 103.936 266.721  1.00  0.00    -0.003 C 
ATOM     11  C   UNL     1      34.877 105.206 267.572  1.00  0.00     0.004 C 
ENDBRANCH   9  10
ENDBRANCH   8   9
ENDBRANCH   7   8
ENDBRANCH   1   7
TORSDOF 7
ENDMDL
MODEL 4
REMARK VINA RESULT:    -3.495      3.739      6.624
REMARK INTER + INTRA:          -5.058
REMARK INTER:                  -4.858
REMARK INTRA:                  -0.200
REMARK UNBOUND:                -0.133
REMARK SMILES CCCCCCCCC(=O)[O-]
REMARK SMILES IDX 6 1 7 2 8 3 9 4 10 5 11 6 5 7 4 8 3 9 2 10 1 11
REMARK H PARENT
REMARK Flexibility Score: inf
ROOT
ATOM      1  C   UNL     1      36.264 106.120 263.184  1.00  0.00     0.000 C 
ENDROOT
BRANCH   1   2
ATOM      2  C   UNL     1      36.360 105.414 261.824  1.00  0.00     0.006 C 
BRANCH   2   3
ATOM      3  C   UNL     1      37.602 105.845 261.031  1.00  0.00     0.053 C 
BRANCH   3   4
ATOM      4  C   UNL     1      37.414 105.656 259.558  1.00  0.00     0.041 C 
ATOM      5  O   UNL     1      38.258 105.001 258.890  1.00  0.00    -0.550 OA
ATOM      6  O   UNL     1      36.291 106.174 258.926  1.00  0.00    -0.550 OA
ENDBRANCH   3   4
ENDBRANCH   2   3
ENDBRANCH   1   2
BRANCH   1   7
ATOM      7  C   UNL     1      34.875 105.931 263.805  1.00  0.00     0.000 C 
BRANCH   7   8
ATOM      8  C   UNL     1      34.933 106.046 265.333  1.00  0.00    -0.000 C 
BRANCH   8   9
ATOM      9  C   UNL     1      35.142 107.503 265.768  1.00  0.00    -0.000 C 
BRANCH   9  10
ATOM     10  C   UNL     1      34.926 107.707 267.275  1.00  0.00    -0.003 C 
ATOM     11  C   UNL     1      34.887 106.389 268.051  1.00  0.00     0.004 C 
ENDBRANCH   9  10
ENDBRANCH   8   9
ENDBRANCH   7   8
ENDBRANCH   1   7
TORSDOF 7
ENDMDL
MODEL 5
REMARK VINA RESULT:    -2.277      1.755      3.172
REMARK INTER + INTRA:          -3.342
REMARK INTER:                  -3.048
REMARK INTRA:                  -0.293
REMARK UNBOUND:                -0.133
REMARK SMILES CCCCCCCCC(=O)[O-]
REMARK SMILES IDX 6 1 7 2 8 3 9 4 10 5 11 6 5 7 4 8 3 9 2 10 1 11
REMARK H PARENT
REMARK Flexibility Score: inf
ROOT
ATOM      1  C   UNL     1      35.078 104.407 265.221  1.00  0.00     0.000 C 
ENDROOT
BRANCH   1   2
ATOM      2  C   UNL     1      34.875 105.615 266.146  1.00  0.00     0.006 C 
BRANCH   2   3
ATOM      3  C   UNL     1      34.875 105.219 267.629  1.00  0.00     0.053 C 
BRANCH   3   4
ATOM      4  C   UNL     1      35.138 106.395 268.519  1.00  0.00     0.041 C 
ATOM      5  O   UNL     1      35.304 106.228 269.756  1.00  0.00    -0.550 OA
ATOM      6  O   UNL     1      35.233 107.670 267.979  1.00  0.00    -0.550 OA
ENDBRANCH   3   4
ENDBRANCH   2   3
ENDBRANCH   1   2
BRANCH   1   7
ATOM      7  C   UNL     1      34.960 104.816 263.748  1.00  0.00     0.000 C 
BRANCH   7   8
ATOM      8  C   UNL     1      35.591 106.192 263.506  1.00  0.00    -0.000 C 
BRANCH   8   9
ATOM      9  C   UNL     1      36.691 106.113 262.437  1.00  0.00    -0.000 C 
BRANCH   9  10
ATOM     10  C   UNL     1      36.341 105.138 261.302  1.00  0.00    -0.003 C 
ATOM     11  C   UNL     1      36.898 105.581 259.949  1.00  0.00     0.004 C 
ENDBRANCH   9  10
ENDBRANCH   8   9
ENDBRANCH   7   8
ENDBRANCH   1   7
TORSDOF 7
ENDMDL
MODEL 6
REMARK VINA RESULT:    -1.973      3.625      6.150
REMARK INTER + INTRA:          -2.913
REMARK INTER:                  -2.600
REMARK INTRA:                  -0.313
REMARK UNBOUND:                -0.133
REMARK SMILES CCCCCCCCC(=O)[O-]
REMARK SMILES IDX 6 1 7 2 8 3 9 4 10 5 11 6 5 7 4 8 3 9 2 10 1 11
REMARK H PARENT
REMARK Flexibility Score: inf
ROOT
ATOM      1  C   UNL     1      37.614 106.011 261.225  1.00  0.00     0.000 C 
ENDROOT
BRANCH   1   2
ATOM      2  C   UNL     1      37.918 105.114 260.016  1.00  0.00     0.006 C 
BRANCH   2   3
ATOM      3  C   UNL     1      37.801 105.872 258.686  1.00  0.00     0.053 C 
BRANCH   3   4
ATOM      4  C   UNL     1      36.378 106.206 258.360  1.00  0.00     0.041 C 
ATOM      5  O   UNL     1      36.038 107.403 258.160  1.00  0.00    -0.550 OA
ATOM      6  O   UNL     1      35.433 105.196 258.245  1.00  0.00    -0.550 OA
ENDBRANCH   3   4
ENDBRANCH   2   3
ENDBRANCH   1   2
BRANCH   1   7
ATOM      7  C   UNL     1      36.627 105.331 262.180  1.00  0.00     0.000 C 
BRANCH   7   8
ATOM      8  C   UNL     1      36.131 106.310 263.251  1.00  0.00    -0.000 C 
BRANCH   8   9
ATOM      9  C   UNL     1      34.880 105.767 263.957  1.00  0.00    -0.000 C 
BRANCH   9  10
ATOM     10  C   UNL     1      34.990 104.269 264.283  1.00  0.00    -0.003 C 
ATOM     11  C   UNL     1      34.916 103.984 265.783  1.00  0.00     0.004 C 
ENDBRANCH   9  10
ENDBRANCH   8   9
ENDBRANCH   7   8
ENDBRANCH   1   7
TORSDOF 7
ENDMDL
MODEL 7
REMARK VINA RESULT:    -1.859      3.443      7.179
REMARK INTER + INTRA:          -2.752
REMARK INTER:                  -2.457
REMARK INTRA:                  -0.296
REMARK UNBOUND:                -0.133
REMARK SMILES CCCCCCCCC(=O)[O-]
REMARK SMILES IDX 6 1 7 2 8 3 9 4 10 5 11 6 5 7 4 8 3 9 2 10 1 11
REMARK H PARENT
REMARK Flexibility Score: inf
ROOT
ATOM      1  C   UNL     1      35.545 107.907 266.058  1.00  0.00     0.000 C 
ENDROOT
BRANCH   1   2
ATOM      2  C   UNL     1      34.875 106.798 265.235  1.00  0.00     0.006 C 
BRANCH   2   3
ATOM      3  C   UNL     1      35.318 106.814 263.766  1.00  0.00     0.053 C 
BRANCH   3   4
ATOM      4  C   UNL     1      35.543 105.431 263.237  1.00  0.00     0.041 C 
ATOM      5  O   UNL     1      35.115 104.432 263.874  1.00  0.00    -0.550 OA
ATOM      6  O   UNL     1      36.195 105.246 262.025  1.00  0.00    -0.550 OA
ENDBRANCH   3   4
ENDBRANCH   2   3
ENDBRANCH   1   2
BRANCH   1   7
ATOM      7  C   UNL     1      35.066 107.878 267.514  1.00  0.00     0.000 C 
BRANCH   7   8
ATOM      8  C   UNL     1      34.883 106.437 268.006  1.00  0.00    -0.000 C 
BRANCH   8   9
ATOM      9  C   UNL     1      35.069 106.347 269.527  1.00  0.00    -0.000 C 
BRANCH   9  10
ATOM     10  C   UNL     1      36.344 105.586 269.923  1.00  0.00    -0.003 C 
ATOM     11  C   UNL     1      37.362 106.471 270.642  1.00  0.00     0.004 C 
ENDBRANCH   9  10
ENDBRANCH   8   9
ENDBRANCH   7   8
ENDBRANCH   1   7
TORSDOF 7
ENDMDL
MODEL 8
REMARK VINA RESULT:    -1.086      3.286      5.813
REMARK INTER + INTRA:          -1.664
REMARK INTER:                  -1.479
REMARK INTRA:                  -0.185
REMARK UNBOUND:                -0.133
REMARK SMILES CCCCCCCCC(=O)[O-]
REMARK SMILES IDX 6 1 7 2 8 3 9 4 10 5 11 6 5 7 4 8 3 9 2 10 1 11
REMARK H PARENT
REMARK Flexibility Score: inf
ROOT
ATOM      1  C   UNL     1      35.837 104.666 262.134  1.00  0.00     0.000 C 
ENDROOT
BRANCH   1   2
ATOM      2  C   UNL     1      36.000 103.847 260.846  1.00  0.00     0.006 C 
BRANCH   2   3
ATOM      3  C   UNL     1      37.273 104.224 260.075  1.00  0.00     0.053 C 
BRANCH   3   4
ATOM      4  C   UNL     1      37.516 105.701 260.091  1.00  0.00     0.041 C 
ATOM      5  O   UNL     1      36.742 106.477 259.468  1.00  0.00    -0.550 OA
ATOM      6  O   UNL     1      38.575 106.226 260.819  1.00  0.00    -0.550 OA
ENDBRANCH   3   4
ENDBRANCH   2   3
ENDBRANCH   1   2
BRANCH   1   7
ATOM      7  C   UNL     1      34.875 103.974 263.108  1.00  0.00     0.000 C 
BRANCH   7   8
ATOM      8  C   UNL     1      34.979 104.582 264.512  1.00  0.00    -0.000 C 
BRANCH   8   9
ATOM      9  C   UNL     1      35.054 106.114 264.444  1.00  0.00    -0.000 C 
BRANCH   9  10
ATOM     10  C   UNL     1      34.875 106.776 265.818  1.00  0.00    -0.003 C 
ATOM     11  C   UNL     1      34.877 108.303 265.745  1.00  0.00     0.004 C 
ENDBRANCH   9  10
ENDBRANCH   8   9
ENDBRANCH   7   8
ENDBRANCH   1   7
TORSDOF 7
ENDMDL
