MODEL 1
REMARK VINA RESULT:    -2.867      0.000      0.000
REMARK INTER + INTRA:          -7.548
REMARK INTER:                  -5.214
REMARK INTRA:                  -2.334
REMARK UNBOUND:                -2.334
REMARK SMILES CCCCCCCCCCCCCCCC(=O)[O-]
REMARK SMILES IDX 9 1 10 2 11 3 12 4 13 5 14 6 15 7 16 8 17 9 18 10 8 11 7 12
REMARK SMILES IDX 6 13 5 14 4 15 3 16 2 17 1 18
REMARK H PARENT
REMARK Flexibility Score: inf
ROOT
ATOM      1  C   UNL     1      -2.926  11.873  10.743  1.00  0.00     0.000 C 
ENDROOT
BRANCH   1   2
ATOM      2  C   UNL     1      -2.282  13.009  11.567  1.00  0.00     0.000 C 
BRANCH   2   3
ATOM      3  C   UNL     1      -1.409  13.930  10.696  1.00  0.00     0.000 C 
BRANCH   3   4
ATOM      4  C   UNL     1      -0.018  14.181  11.301  1.00  0.00     0.000 C 
BRANCH   4   5
ATOM      5  C   UNL     1       0.469  15.624  11.084  1.00  0.00     0.000 C 
BRANCH   5   6
ATOM      6  C   UNL     1       0.078  16.565  12.239  1.00  0.00     0.006 C 
BRANCH   6   7
ATOM      7  C   UNL     1      -1.247  17.315  12.027  1.00  0.00     0.053 C 
BRANCH   7   8
ATOM      8  C   UNL     1      -2.184  17.139  13.181  1.00  0.00     0.041 C 
ATOM      9  O   UNL     1      -2.971  18.067  13.505  1.00  0.00    -0.550 OA
ATOM     10  O   UNL     1      -2.167  15.962  13.919  1.00  0.00    -0.550 OA
ENDBRANCH   7   8
ENDBRANCH   6   7
ENDBRANCH   5   6
ENDBRANCH   4   5
ENDBRANCH   3   4
ENDBRANCH   2   3
ENDBRANCH   1   2
BRANCH   1  11
ATOM     11  C   UNL     1      -2.691  10.473  11.334  1.00  0.00     0.000 C 
BRANCH  11  12
ATOM     12  C   UNL     1      -1.550  10.443  12.363  1.00  0.00    -0.000 C 
BRANCH  12  13
ATOM     13  C   UNL     1      -0.292   9.720  11.848  1.00  0.00    -0.000 C 
BRANCH  13  14
ATOM     14  C   UNL     1       0.784  10.628  11.226  1.00  0.00    -0.000 C 
BRANCH  14  15
ATOM     15  C   UNL     1       1.051  10.314   9.744  1.00  0.00    -0.000 C 
BRANCH  15  16
ATOM     16  C   UNL     1       0.558  11.429   8.807  1.00  0.00    -0.000 C 
BRANCH  16  17
ATOM     17  C   UNL     1      -0.659  11.006   7.971  1.00  0.00    -0.003 C 
ATOM     18  C   UNL     1      -0.966   9.524   8.158  1.00  0.00     0.004 C 
ENDBRANCH  16  17
ENDBRANCH  15  16
ENDBRANCH  14  15
ENDBRANCH  13  14
ENDBRANCH  12  13
ENDBRANCH  11  12
ENDBRANCH   1  11
TORSDOF 14
ENDMDL
MODEL 2
REMARK VINA RESULT:    -2.646     19.093     20.938
REMARK INTER + INTRA:          -7.146
REMARK INTER:                  -5.307
REMARK INTRA:                  -1.840
REMARK UNBOUND:                -2.334
REMARK SMILES CCCCCCCCCCCCCCCC(=O)[O-]
REMARK SMILES IDX 9 1 10 2 11 3 12 4 13 5 14 6 15 7 16 8 17 9 18 10 8 11 7 12
REMARK SMILES IDX 6 13 5 14 4 15 3 16 2 17 1 18
REMARK H PARENT
REMARK Flexibility Score: inf
ROOT
ATOM      1  C   UNL     1     -14.022   9.606  -2.692  1.00  0.00     0.000 C 
ENDROOT
BRANCH   1   2
ATOM      2  C   UNL     1     -14.425   9.289  -1.235  1.00  0.00     0.000 C 
BRANCH   2   3
ATOM      3  C   UNL     1     -15.835   9.806  -0.900  1.00  0.00     0.000 C 
BRANCH   3   4
ATOM      4  C   UNL     1     -16.451  10.636  -2.038  1.00  0.00     0.000 C 
BRANCH   4   5
ATOM      5  C   UNL     1     -16.571  12.129  -1.683  1.00  0.00     0.000 C 
BRANCH   5   6
ATOM      6  C   UNL     1     -17.948  12.493  -1.096  1.00  0.00     0.006 C 
BRANCH   6   7
ATOM      7  C   UNL     1     -18.466  13.881  -1.504  1.00  0.00     0.053 C 
BRANCH   7   8
ATOM      8  C   UNL     1     -18.428  14.852  -0.365  1.00  0.00     0.041 C 
ATOM      9  O   UNL     1     -18.419  14.435   0.823  1.00  0.00    -0.550 OA
ATOM     10  O   UNL     1     -18.435  16.219  -0.615  1.00  0.00    -0.550 OA
ENDBRANCH   7   8
ENDBRANCH   6   7
ENDBRANCH   5   6
ENDBRANCH   4   5
ENDBRANCH   3   4
ENDBRANCH   2   3
ENDBRANCH   1   2
BRANCH   1  11
ATOM     11  C   UNL     1     -12.949  10.701  -2.811  1.00  0.00     0.000 C 
BRANCH  11  12
ATOM     12  C   UNL     1     -12.473  10.914  -4.257  1.00  0.00    -0.000 C 
BRANCH  12  13
ATOM     13  C   UNL     1     -13.632  11.015  -5.265  1.00  0.00    -0.000 C 
BRANCH  13  14
ATOM     14  C   UNL     1     -14.009  12.443  -5.700  1.00  0.00    -0.000 C 
BRANCH  14  15
ATOM     15  C   UNL     1     -15.290  12.959  -5.021  1.00  0.00    -0.000 C 
BRANCH  15  16
ATOM     16  C   UNL     1     -16.537  12.160  -5.433  1.00  0.00    -0.000 C 
BRANCH  16  17
ATOM     17  C   UNL     1     -17.846  12.898  -5.112  1.00  0.00    -0.003 C 
ATOM     18  C   UNL     1     -17.648  14.410  -5.155  1.00  0.00     0.004 C 
ENDBRANCH  16  17
ENDBRANCH  15  16
ENDBRANCH  14  15
ENDBRANCH  13  14
ENDBRANCH  12  13
ENDBRANCH  11  12
ENDBRANCH   1  11
TORSDOF 14
ENDMDL
MODEL 3
REMARK VINA RESULT:    -2.620      2.213      6.314
REMARK INTER + INTRA:          -7.099
REMARK INTER:                  -5.549
REMARK INTRA:                  -1.550
REMARK UNBOUND:                -2.334
REMARK SMILES CCCCCCCCCCCCCCCC(=O)[O-]
REMARK SMILES IDX 9 1 10 2 11 3 12 4 13 5 14 6 15 7 16 8 17 9 18 10 8 11 7 12
REMARK SMILES IDX 6 13 5 14 4 15 3 16 2 17 1 18
REMARK H PARENT
REMARK Flexibility Score: inf
ROOT
ATOM      1  C   UNL     1      -1.139  11.936   8.473  1.00  0.00     0.000 C 
ENDROOT
BRANCH   1   2
ATOM      2  C   UNL     1       0.229  11.241   8.642  1.00  0.00     0.000 C 
BRANCH   2   3
ATOM      3  C   UNL     1       0.101   9.708   8.651  1.00  0.00     0.000 C 
BRANCH   3   4
ATOM      4  C   UNL     1      -1.052   9.211   9.538  1.00  0.00     0.000 C 
BRANCH   4   5
ATOM      5  C   UNL     1      -0.729   9.312  11.039  1.00  0.00     0.000 C 
BRANCH   5   6
ATOM      6  C   UNL     1      -1.963   9.659  11.892  1.00  0.00     0.006 C 
BRANCH   6   7
ATOM      7  C   UNL     1      -3.276   9.762  11.099  1.00  0.00     0.053 C 
BRANCH   7   8
ATOM      8  C   UNL     1      -4.146  10.876  11.593  1.00  0.00     0.041 C 
ATOM      9  O   UNL     1      -5.384  10.862  11.364  1.00  0.00    -0.550 OA
ATOM     10  O   UNL     1      -3.585  11.946  12.279  1.00  0.00    -0.550 OA
ENDBRANCH   7   8
ENDBRANCH   6   7
ENDBRANCH   5   6
ENDBRANCH   4   5
ENDBRANCH   3   4
ENDBRANCH   2   3
ENDBRANCH   1   2
BRANCH   1  11
ATOM     11  C   UNL     1      -1.496  12.885   9.629  1.00  0.00     0.000 C 
BRANCH  11  12
ATOM     12  C   UNL     1      -0.426  12.911  10.732  1.00  0.00    -0.000 C 
BRANCH  12  13
ATOM     13  C   UNL     1       0.093  14.329  11.036  1.00  0.00    -0.000 C 
BRANCH  13  14
ATOM     14  C   UNL     1      -0.942  15.458  10.883  1.00  0.00    -0.000 C 
BRANCH  14  15
ATOM     15  C   UNL     1      -1.349  16.086  12.227  1.00  0.00    -0.000 C 
BRANCH  15  16
ATOM     16  C   UNL     1      -1.181  17.614  12.239  1.00  0.00    -0.000 C 
BRANCH  16  17
ATOM     17  C   UNL     1      -2.491  18.352  12.555  1.00  0.00    -0.003 C 
ATOM     18  C   UNL     1      -3.023  17.961  13.930  1.00  0.00     0.004 C 
ENDBRANCH  16  17
ENDBRANCH  15  16
ENDBRANCH  14  15
ENDBRANCH  13  14
ENDBRANCH  12  13
ENDBRANCH  11  12
ENDBRANCH   1  11
TORSDOF 14
ENDMDL
MODEL 4
REMARK VINA RESULT:    -2.591      2.978      6.804
REMARK INTER + INTRA:          -7.045
REMARK INTER:                  -5.746
REMARK INTRA:                  -1.299
REMARK UNBOUND:                -2.334
REMARK SMILES CCCCCCCCCCCCCCCC(=O)[O-]
REMARK SMILES IDX 9 1 10 2 11 3 12 4 13 5 14 6 15 7 16 8 17 9 18 10 8 11 7 12
REMARK SMILES IDX 6 13 5 14 4 15 3 16 2 17 1 18
REMARK H PARENT
REMARK Flexibility Score: inf
ROOT
ATOM      1  C   UNL     1      -2.026  13.637  10.352  1.00  0.00     0.000 C 
ENDROOT
BRANCH   1   2
ATOM      2  C   UNL     1      -2.323  12.698  11.541  1.00  0.00     0.000 C 
BRANCH   2   3
ATOM      3  C   UNL     1      -3.369  11.627  11.184  1.00  0.00     0.000 C 
BRANCH   3   4
ATOM      4  C   UNL     1      -2.769  10.215  11.089  1.00  0.00     0.000 C 
BRANCH   4   5
ATOM      5  C   UNL     1      -1.271  10.185  11.439  1.00  0.00     0.000 C 
BRANCH   5   6
ATOM      6  C   UNL     1      -0.391   9.746  10.254  1.00  0.00     0.006 C 
BRANCH   6   7
ATOM      7  C   UNL     1      -1.004  10.021   8.871  1.00  0.00     0.053 C 
BRANCH   7   8
ATOM      8  C   UNL     1      -0.316  11.148   8.165  1.00  0.00     0.041 C 
ATOM      9  O   UNL     1      -0.954  11.871   7.354  1.00  0.00    -0.550 OA
ATOM     10  O   UNL     1       1.036  11.382   8.380  1.00  0.00    -0.550 OA
ENDBRANCH   7   8
ENDBRANCH   6   7
ENDBRANCH   5   6
ENDBRANCH   4   5
ENDBRANCH   3   4
ENDBRANCH   2   3
ENDBRANCH   1   2
BRANCH   1  11
ATOM     11  C   UNL     1      -1.450  15.000  10.771  1.00  0.00     0.000 C 
BRANCH  11  12
ATOM     12  C   UNL     1       0.069  14.958  11.005  1.00  0.00    -0.000 C 
BRANCH  12  13
ATOM     13  C   UNL     1       0.462  15.249  12.465  1.00  0.00    -0.000 C 
BRANCH  13  14
ATOM     14  C   UNL     1       0.730  16.728  12.796  1.00  0.00    -0.000 C 
BRANCH  14  15
ATOM     15  C   UNL     1      -0.422  17.387  13.574  1.00  0.00    -0.000 C 
BRANCH  15  16
ATOM     16  C   UNL     1      -1.039  18.575  12.819  1.00  0.00    -0.000 C 
BRANCH  16  17
ATOM     17  C   UNL     1      -2.557  18.434  12.630  1.00  0.00    -0.003 C 
ATOM     18  C   UNL     1      -3.216  17.869  13.885  1.00  0.00     0.004 C 
ENDBRANCH  16  17
ENDBRANCH  15  16
ENDBRANCH  14  15
ENDBRANCH  13  14
ENDBRANCH  12  13
ENDBRANCH  11  12
ENDBRANCH   1  11
TORSDOF 14
ENDMDL
MODEL 5
REMARK VINA RESULT:    -2.557     15.586     17.713
REMARK INTER + INTRA:          -6.983
REMARK INTER:                  -5.534
REMARK INTRA:                  -1.449
REMARK UNBOUND:                -2.334
REMARK SMILES CCCCCCCCCCCCCCCC(=O)[O-]
REMARK SMILES IDX 9 1 10 2 11 3 12 4 13 5 14 6 15 7 16 8 17 9 18 10 8 11 7 12
REMARK SMILES IDX 6 13 5 14 4 15 3 16 2 17 1 18
REMARK H PARENT
REMARK Flexibility Score: inf
ROOT
ATOM      1  C   UNL     1     -16.289  10.132   3.228  1.00  0.00     0.000 C 
ENDROOT
BRANCH   1   2
ATOM      2  C   UNL     1     -17.031   9.401   2.088  1.00  0.00     0.000 C 
BRANCH   2   3
ATOM      3  C   UNL     1     -17.253  10.309   0.866  1.00  0.00     0.000 C 
BRANCH   3   4
ATOM      4  C   UNL     1     -16.755   9.678  -0.444  1.00  0.00     0.000 C 
BRANCH   4   5
ATOM      5  C   UNL     1     -15.455   8.875  -0.257  1.00  0.00     0.000 C 
BRANCH   5   6
ATOM      6  C   UNL     1     -14.277   9.453  -1.062  1.00  0.00     0.006 C 
BRANCH   6   7
ATOM      7  C   UNL     1     -14.657   9.982  -2.454  1.00  0.00     0.053 C 
BRANCH   7   8
ATOM      8  C   UNL     1     -13.452  10.314  -3.278  1.00  0.00     0.041 C 
ATOM      9  O   UNL     1     -12.446  10.850  -2.742  1.00  0.00    -0.550 OA
ATOM     10  O   UNL     1     -13.450  10.060  -4.644  1.00  0.00    -0.550 OA
ENDBRANCH   7   8
ENDBRANCH   6   7
ENDBRANCH   5   6
ENDBRANCH   4   5
ENDBRANCH   3   4
ENDBRANCH   2   3
ENDBRANCH   1   2
BRANCH   1  11
ATOM     11  C   UNL     1     -15.260   9.254   3.958  1.00  0.00     0.000 C 
BRANCH  11  12
ATOM     12  C   UNL     1     -14.058   8.885   3.074  1.00  0.00    -0.000 C 
BRANCH  12  13
ATOM     13  C   UNL     1     -12.707   9.294   3.690  1.00  0.00    -0.000 C 
BRANCH  13  14
ATOM     14  C   UNL     1     -12.645  10.725   4.256  1.00  0.00    -0.000 C 
BRANCH  14  15
ATOM     15  C   UNL     1     -12.332  10.761   5.761  1.00  0.00    -0.000 C 
BRANCH  15  16
ATOM     16  C   UNL     1     -12.380   9.367   6.408  1.00  0.00    -0.000 C 
BRANCH  16  17
ATOM     17  C   UNL     1     -13.226   9.337   7.690  1.00  0.00    -0.003 C 
ATOM     18  C   UNL     1     -14.597   9.962   7.457  1.00  0.00     0.004 C 
ENDBRANCH  16  17
ENDBRANCH  15  16
ENDBRANCH  14  15
ENDBRANCH  13  14
ENDBRANCH  12  13
ENDBRANCH  11  12
ENDBRANCH   1  11
TORSDOF 14
ENDMDL
MODEL 6
REMARK VINA RESULT:    -2.549     16.027     17.941
REMARK INTER + INTRA:          -6.970
REMARK INTER:                  -5.828
REMARK INTRA:                  -1.141
REMARK UNBOUND:                -2.334
REMARK SMILES CCCCCCCCCCCCCCCC(=O)[O-]
REMARK SMILES IDX 9 1 10 2 11 3 12 4 13 5 14 6 15 7 16 8 17 9 18 10 8 11 7 12
REMARK SMILES IDX 6 13 5 14 4 15 3 16 2 17 1 18
REMARK H PARENT
REMARK Flexibility Score: inf
ROOT
ATOM      1  C   UNL     1     -17.623  10.644   1.073  1.00  0.00     0.000 C 
ENDROOT
BRANCH   1   2
ATOM      2  C   UNL     1     -16.944   9.269   1.255  1.00  0.00     0.000 C 
BRANCH   2   3
ATOM      3  C   UNL     1     -16.337   9.106   2.660  1.00  0.00     0.000 C 
BRANCH   3   4
ATOM      4  C   UNL     1     -16.297  10.425   3.449  1.00  0.00     0.000 C 
BRANCH   4   5
ATOM      5  C   UNL     1     -15.382  10.348   4.683  1.00  0.00     0.000 C 
BRANCH   5   6
ATOM      6  C   UNL     1     -14.097   9.540   4.423  1.00  0.00     0.006 C 
BRANCH   6   7
ATOM      7  C   UNL     1     -12.850  10.397   4.157  1.00  0.00     0.053 C 
BRANCH   7   8
ATOM      8  C   UNL     1     -12.083  10.679   5.411  1.00  0.00     0.041 C 
ATOM      9  O   UNL     1     -12.077   9.842   6.352  1.00  0.00    -0.550 OA
ATOM     10  O   UNL     1     -11.401  11.881   5.556  1.00  0.00    -0.550 OA
ENDBRANCH   7   8
ENDBRANCH   6   7
ENDBRANCH   5   6
ENDBRANCH   4   5
ENDBRANCH   3   4
ENDBRANCH   2   3
ENDBRANCH   1   2
BRANCH   1  11
ATOM     11  C   UNL     1     -18.126  10.900  -0.357  1.00  0.00     0.000 C 
BRANCH  11  12
ATOM     12  C   UNL     1     -17.561  12.193  -0.966  1.00  0.00    -0.000 C 
BRANCH  12  13
ATOM     13  C   UNL     1     -16.409  11.940  -1.956  1.00  0.00    -0.000 C 
BRANCH  13  14
ATOM     14  C   UNL     1     -16.134  10.462  -2.287  1.00  0.00    -0.000 C 
BRANCH  14  15
ATOM     15  C   UNL     1     -14.818   9.946  -1.680  1.00  0.00    -0.000 C 
BRANCH  15  16
ATOM     16  C   UNL     1     -13.794   9.538  -2.752  1.00  0.00    -0.000 C 
BRANCH  16  17
ATOM     17  C   UNL     1     -12.885  10.701  -3.177  1.00  0.00    -0.003 C 
ATOM     18  C   UNL     1     -12.971  10.942  -4.681  1.00  0.00     0.004 C 
ENDBRANCH  16  17
ENDBRANCH  15  16
ENDBRANCH  14  15
ENDBRANCH  13  14
ENDBRANCH  12  13
ENDBRANCH  11  12
ENDBRANCH   1  11
TORSDOF 14
ENDMDL
MODEL 7
REMARK VINA RESULT:    -2.475      2.261      6.132
REMARK INTER + INTRA:          -6.835
REMARK INTER:                  -4.939
REMARK INTRA:                  -1.896
REMARK UNBOUND:                -2.334
REMARK SMILES CCCCCCCCCCCCCCCC(=O)[O-]
REMARK SMILES IDX 9 1 10 2 11 3 12 4 13 5 14 6 15 7 16 8 17 9 18 10 8 11 7 12
REMARK SMILES IDX 6 13 5 14 4 15 3 16 2 17 1 18
REMARK H PARENT
REMARK Flexibility Score: inf
ROOT
ATOM      1  C   UNL     1      -2.244  13.593  10.211  1.00  0.00     0.000 C 
ENDROOT
BRANCH   1   2
ATOM      2  C   UNL     1      -1.500  12.518   9.390  1.00  0.00     0.000 C 
BRANCH   2   3
ATOM      3  C   UNL     1      -0.208  12.052  10.085  1.00  0.00     0.000 C 
BRANCH   3   4
ATOM      4  C   UNL     1      -0.355  10.675  10.755  1.00  0.00     0.000 C 
BRANCH   4   5
ATOM      5  C   UNL     1      -0.312  10.758  12.290  1.00  0.00     0.000 C 
BRANCH   5   6
ATOM      6  C   UNL     1      -1.711  10.890  12.919  1.00  0.00     0.006 C 
BRANCH   6   7
ATOM      7  C   UNL     1      -2.848  10.293  12.074  1.00  0.00     0.053 C 
BRANCH   7   8
ATOM      8  C   UNL     1      -4.094  11.120  12.142  1.00  0.00     0.041 C 
ATOM      9  O   UNL     1      -4.136  12.143  12.876  1.00  0.00    -0.550 OA
ATOM     10  O   UNL     1      -5.220  10.744  11.420  1.00  0.00    -0.550 OA
ENDBRANCH   7   8
ENDBRANCH   6   7
ENDBRANCH   5   6
ENDBRANCH   4   5
ENDBRANCH   3   4
ENDBRANCH   2   3
ENDBRANCH   1   2
BRANCH   1  11
ATOM     11  C   UNL     1      -1.370  14.269  11.280  1.00  0.00     0.000 C 
BRANCH  11  12
ATOM     12  C   UNL     1      -0.639  15.514  10.752  1.00  0.00    -0.000 C 
BRANCH  12  13
ATOM     13  C   UNL     1       0.811  15.622  11.259  1.00  0.00    -0.000 C 
BRANCH  13  14
ATOM     14  C   UNL     1       0.967  16.017  12.739  1.00  0.00    -0.000 C 
BRANCH  14  15
ATOM     15  C   UNL     1       0.643  17.498  13.002  1.00  0.00    -0.000 C 
BRANCH  15  16
ATOM     16  C   UNL     1      -0.390  17.685  14.124  1.00  0.00    -0.000 C 
BRANCH  16  17
ATOM     17  C   UNL     1      -1.813  17.299  13.691  1.00  0.00    -0.003 C 
ATOM     18  C   UNL     1      -2.340  18.255  12.625  1.00  0.00     0.004 C 
ENDBRANCH  16  17
ENDBRANCH  15  16
ENDBRANCH  14  15
ENDBRANCH  13  14
ENDBRANCH  12  13
ENDBRANCH  11  12
ENDBRANCH   1  11
TORSDOF 14
ENDMDL
MODEL 8
REMARK VINA RESULT:    -2.447     15.999     17.892
REMARK INTER + INTRA:          -6.783
REMARK INTER:                  -5.424
REMARK INTRA:                  -1.360
REMARK UNBOUND:                -2.334
REMARK SMILES CCCCCCCCCCCCCCCC(=O)[O-]
REMARK SMILES IDX 9 1 10 2 11 3 12 4 13 5 14 6 15 7 16 8 17 9 18 10 8 11 7 12
REMARK SMILES IDX 6 13 5 14 4 15 3 16 2 17 1 18
REMARK H PARENT
REMARK Flexibility Score: inf
ROOT
ATOM      1  C   UNL     1     -15.768   9.723   3.841  1.00  0.00     0.000 C 
ENDROOT
BRANCH   1   2
ATOM      2  C   UNL     1     -16.434   9.600   2.453  1.00  0.00     0.000 C 
BRANCH   2   3
ATOM      3  C   UNL     1     -17.539  10.651   2.247  1.00  0.00     0.000 C 
BRANCH   3   4
ATOM      4  C   UNL     1     -18.764  10.090   1.508  1.00  0.00     0.000 C 
BRANCH   4   5
ATOM      5  C   UNL     1     -19.125  10.908   0.256  1.00  0.00     0.000 C 
BRANCH   5   6
ATOM      6  C   UNL     1     -18.037  11.931  -0.120  1.00  0.00     0.006 C 
BRANCH   6   7
ATOM      7  C   UNL     1     -18.573  13.225  -0.754  1.00  0.00     0.053 C 
BRANCH   7   8
ATOM      8  C   UNL     1     -18.456  14.395   0.173  1.00  0.00     0.041 C 
ATOM      9  O   UNL     1     -18.425  14.216   1.419  1.00  0.00    -0.550 OA
ATOM     10  O   UNL     1     -18.412  15.687  -0.338  1.00  0.00    -0.550 OA
ENDBRANCH   7   8
ENDBRANCH   6   7
ENDBRANCH   5   6
ENDBRANCH   4   5
ENDBRANCH   3   4
ENDBRANCH   2   3
ENDBRANCH   1   2
BRANCH   1  11
ATOM     11  C   UNL     1     -15.758  11.158   4.395  1.00  0.00     0.000 C 
BRANCH  11  12
ATOM     12  C   UNL     1     -15.362  11.221   5.879  1.00  0.00    -0.000 C 
BRANCH  12  13
ATOM     13  C   UNL     1     -15.555   9.881   6.613  1.00  0.00    -0.000 C 
BRANCH  13  14
ATOM     14  C   UNL     1     -14.307   9.334   7.330  1.00  0.00    -0.000 C 
BRANCH  14  15
ATOM     15  C   UNL     1     -13.182   8.938   6.360  1.00  0.00    -0.000 C 
BRANCH  15  16
ATOM     16  C   UNL     1     -12.089  10.015   6.254  1.00  0.00    -0.000 C 
BRANCH  16  17
ATOM     17  C   UNL     1     -11.981  10.613   4.843  1.00  0.00    -0.003 C 
ATOM     18  C   UNL     1     -12.348   9.582   3.780  1.00  0.00     0.004 C 
ENDBRANCH  16  17
ENDBRANCH  15  16
ENDBRANCH  14  15
ENDBRANCH  13  14
ENDBRANCH  12  13
ENDBRANCH  11  12
ENDBRANCH   1  11
TORSDOF 14
ENDMDL
MODEL 9
REMARK VINA RESULT:    -2.443     16.526     18.463
REMARK INTER + INTRA:          -6.776
REMARK INTER:                  -5.699
REMARK INTRA:                  -1.077
REMARK UNBOUND:                -2.334
REMARK SMILES CCCCCCCCCCCCCCCC(=O)[O-]
REMARK SMILES IDX 9 1 10 2 11 3 12 4 13 5 14 6 15 7 16 8 17 9 18 10 8 11 7 12
REMARK SMILES IDX 6 13 5 14 4 15 3 16 2 17 1 18
REMARK H PARENT
REMARK Flexibility Score: inf
ROOT
ATOM      1  C   UNL     1     -16.857   8.949   1.259  1.00  0.00     0.000 C 
ENDROOT
BRANCH   1   2
ATOM      2  C   UNL     1     -17.513  10.214   0.665  1.00  0.00     0.000 C 
BRANCH   2   3
ATOM      3  C   UNL     1     -16.937  10.569  -0.717  1.00  0.00     0.000 C 
BRANCH   3   4
ATOM      4  C   UNL     1     -17.401  11.945  -1.220  1.00  0.00     0.000 C 
BRANCH   4   5
ATOM      5  C   UNL     1     -16.807  12.303  -2.594  1.00  0.00     0.000 C 
BRANCH   5   6
ATOM      6  C   UNL     1     -15.268  12.250  -2.609  1.00  0.00     0.006 C 
BRANCH   6   7
ATOM      7  C   UNL     1     -14.669  11.496  -3.807  1.00  0.00     0.053 C 
BRANCH   7   8
ATOM      8  C   UNL     1     -13.410  10.772  -3.444  1.00  0.00     0.041 C 
ATOM      9  O   UNL     1     -12.525  10.564  -4.315  1.00  0.00    -0.550 OA
ATOM     10  O   UNL     1     -13.226  10.301  -2.150  1.00  0.00    -0.550 OA
ENDBRANCH   7   8
ENDBRANCH   6   7
ENDBRANCH   5   6
ENDBRANCH   4   5
ENDBRANCH   3   4
ENDBRANCH   2   3
ENDBRANCH   1   2
BRANCH   1  11
ATOM     11  C   UNL     1     -15.997   9.226   2.503  1.00  0.00     0.000 C 
BRANCH  11  12
ATOM     12  C   UNL     1     -16.507  10.419   3.328  1.00  0.00    -0.000 C 
BRANCH  12  13
ATOM     13  C   UNL     1     -15.967  10.430   4.770  1.00  0.00    -0.000 C 
BRANCH  13  14
ATOM     14  C   UNL     1     -15.025  11.597   5.114  1.00  0.00    -0.000 C 
BRANCH  14  15
ATOM     15  C   UNL     1     -13.928  11.206   6.120  1.00  0.00    -0.000 C 
BRANCH  15  16
ATOM     16  C   UNL     1     -13.133   9.968   5.674  1.00  0.00    -0.000 C 
BRANCH  16  17
ATOM     17  C   UNL     1     -12.084  10.293   4.600  1.00  0.00    -0.003 C 
ATOM     18  C   UNL     1     -12.427   9.617   3.276  1.00  0.00     0.004 C 
ENDBRANCH  16  17
ENDBRANCH  15  16
ENDBRANCH  14  15
ENDBRANCH  13  14
ENDBRANCH  12  13
ENDBRANCH  11  12
ENDBRANCH   1  11
TORSDOF 14
ENDMDL
