MODEL 1
REMARK VINA RESULT:    -3.752      0.000      0.000
REMARK INTER + INTRA:          -4.930
REMARK INTER:                  -5.288
REMARK INTRA:                   0.358
REMARK UNBOUND:                 0.358
REMARK SMILES CC1=CCC(=C(C)C)C(=O)CC(C)=CCC1
REMARK SMILES IDX 12 1 14 2 13 3 15 4 16 5 2 6 1 7 3 8 11 10 9 11 10 12 5 13
REMARK SMILES IDX 6 14 7 15 8 16 4 17
REMARK H PARENT
REMARK Flexibility Score: 60.00
ROOT
ATOM      1  C   UNL     1      32.031   7.273 107.321  1.00  0.00    -0.070 C 
ATOM      2  C   UNL     1      33.262   7.204 107.879  1.00  0.00    -0.027 C 
ATOM      3  C   UNL     1      31.376   5.988 106.882  1.00  0.00     0.039 C 
ENDROOT
BRANCH   2   4
ATOM      4  C   UNL     1      34.037   8.379 108.428  1.00  0.00     0.032 C 
BRANCH   4   5
ATOM      5  C   UNL     1      35.089   8.881 107.428  1.00  0.00     0.034 C 
BRANCH   5   6
ATOM      6  C   UNL     1      35.049  10.387 107.207  1.00  0.00    -0.077 C 
ATOM      7  C   UNL     1      35.761  11.285 108.186  1.00  0.00     0.039 C 
ATOM      8  C   UNL     1      34.420  10.968 106.160  1.00  0.00    -0.023 CG0
ATOM      9  G   UNL     1      33.599  10.244 105.118  1.00  0.00     0.000 G0
ENDBRANCH   5   6
ENDBRANCH   4   5
ENDBRANCH   2   4
BRANCH   1  10
ATOM     10  C   UNL     1      31.288   8.581 107.120  1.00  0.00     0.111 C 
BRANCH  10  11
ATOM     11  C   UNL     1      31.376   9.038 105.691  1.00  0.00     0.163 C 
ATOM     12  O   UNL     1      30.812   8.361 104.789  1.00  0.00    -0.294 OA
BRANCH  11  13
ATOM     13  C   UNL     1      32.092  10.286 105.323  1.00  0.00    -0.002 C 
ATOM     14  C   UNL     1      31.408  11.454 105.184  1.00  0.00    -0.069 C 
ATOM     15  C   UNL     1      32.110  12.724 104.758  1.00  0.00     0.039 C 
ATOM     16  C   UNL     1      29.928  11.536 105.489  1.00  0.00     0.039 C 
BRANCH  13  17
ATOM     17  C   UNL     1      33.600  10.241 105.105  1.00  0.00     0.066 CG0
ATOM     18  G   UNL     1      34.390  10.968 106.169  1.00  0.00     0.000 G0
ENDBRANCH  13  17
ENDBRANCH  11  13
ENDBRANCH  10  11
ENDBRANCH   1  10
TORSDOF 0
ENDMDL
MODEL 2
REMARK VINA RESULT:    -3.158      1.805      3.757
REMARK INTER + INTRA:          -4.093
REMARK INTER:                  -4.600
REMARK INTRA:                   0.507
REMARK UNBOUND:                 0.358
REMARK SMILES CC1=CCC(=C(C)C)C(=O)CC(C)=CCC1
REMARK SMILES IDX 12 1 14 2 13 3 15 4 16 5 2 6 1 7 3 8 11 10 9 11 10 12 5 13
REMARK SMILES IDX 6 14 7 15 8 16 4 17
REMARK H PARENT
REMARK Flexibility Score: 60.00
ROOT
ATOM      1  C   UNL     1      35.882  11.038 106.430  1.00  0.00    -0.070 C 
ATOM      2  C   UNL     1      35.909   9.915 107.186  1.00  0.00    -0.027 C 
ATOM      3  C   UNL     1      37.094  11.360 105.593  1.00  0.00     0.039 C 
ENDROOT
BRANCH   2   4
ATOM      4  C   UNL     1      34.766   9.409 108.036  1.00  0.00     0.032 C 
BRANCH   4   5
ATOM      5  C   UNL     1      34.019   8.255 107.351  1.00  0.00     0.034 C 
BRANCH   5   6
ATOM      6  C   UNL     1      32.506   8.426 107.349  1.00  0.00    -0.077 C 
ATOM      7  C   UNL     1      31.709   7.858 108.497  1.00  0.00     0.039 C 
ATOM      8  C   UNL     1      31.832   9.081 106.377  1.00  0.00    -0.023 CG0
ATOM      9  G   UNL     1      32.445   9.655 105.120  1.00  0.00     0.000 G0
ENDBRANCH   5   6
ENDBRANCH   4   5
ENDBRANCH   2   4
BRANCH   1  10
ATOM     10  C   UNL     1      34.694  11.980 106.394  1.00  0.00     0.111 C 
BRANCH  10  11
ATOM     11  C   UNL     1      33.912  11.817 105.121  1.00  0.00     0.163 C 
ATOM     12  O   UNL     1      34.418  12.200 104.032  1.00  0.00    -0.294 OA
BRANCH  11  13
ATOM     13  C   UNL     1      32.566  11.192 105.118  1.00  0.00    -0.002 C 
ATOM     14  C   UNL     1      31.448  11.969 105.121  1.00  0.00    -0.069 C 
ATOM     15  C   UNL     1      30.069  11.352 105.171  1.00  0.00     0.039 C 
ATOM     16  C   UNL     1      31.543  13.476 105.035  1.00  0.00     0.039 C 
BRANCH  13  17
ATOM     17  C   UNL     1      32.451   9.671 105.108  1.00  0.00     0.066 CG0
ATOM     18  G   UNL     1      31.830   9.101 106.361  1.00  0.00     0.000 G0
ENDBRANCH  13  17
ENDBRANCH  11  13
ENDBRANCH  10  11
ENDBRANCH   1  10
TORSDOF 0
ENDMDL
MODEL 3
REMARK VINA RESULT:    -2.991      2.016      4.982
REMARK INTER + INTRA:          -3.858
REMARK INTER:                  -4.506
REMARK INTRA:                   0.648
REMARK UNBOUND:                 0.358
REMARK SMILES CC1=CCC(=C(C)C)C(=O)CC(C)=CCC1
REMARK SMILES IDX 12 1 14 2 13 3 15 4 16 5 2 6 1 7 3 8 11 10 9 11 10 12 5 13
REMARK SMILES IDX 6 14 7 15 8 16 4 17
REMARK H PARENT
REMARK Flexibility Score: 60.00
ROOT
ATOM      1  C   UNL     1      36.248  12.374 106.670  1.00  0.00    -0.070 C 
ATOM      2  C   UNL     1      36.039  13.400 105.812  1.00  0.00    -0.027 C 
ATOM      3  C   UNL     1      37.664  12.079 107.095  1.00  0.00     0.039 C 
ENDROOT
BRANCH   2   4
ATOM      4  C   UNL     1      34.687  13.872 105.330  1.00  0.00     0.032 C 
BRANCH   4   5
ATOM      5  C   UNL     1      33.969  12.790 104.510  1.00  0.00     0.034 C 
BRANCH   5   6
ATOM      6  C   UNL     1      32.540  12.529 104.966  1.00  0.00    -0.077 C 
ATOM      7  C   UNL     1      31.629  13.704 105.213  1.00  0.00     0.039 C 
ATOM      8  C   UNL     1      32.032  11.288 105.145  1.00  0.00    -0.023 CG0
ATOM      9  G   UNL     1      32.805   9.996 105.015  1.00  0.00     0.000 G0
ENDBRANCH   5   6
ENDBRANCH   4   5
ENDBRANCH   2   4
BRANCH   1  10
ATOM     10  C   UNL     1      35.123  11.513 107.215  1.00  0.00     0.111 C 
BRANCH  10  11
ATOM     11  C   UNL     1      34.967  10.254 106.411  1.00  0.00     0.163 C 
ATOM     12  O   UNL     1      35.985   9.719 105.894  1.00  0.00    -0.294 OA
BRANCH  11  13
ATOM     13  C   UNL     1      33.639   9.614 106.232  1.00  0.00    -0.002 C 
ATOM     14  C   UNL     1      33.179   8.720 107.149  1.00  0.00    -0.069 C 
ATOM     15  C   UNL     1      31.854   8.017 106.959  1.00  0.00     0.039 C 
ATOM     16  C   UNL     1      33.956   8.426 108.414  1.00  0.00     0.039 C 
BRANCH  13  17
ATOM     17  C   UNL     1      32.799   9.971 105.010  1.00  0.00     0.066 CG0
ATOM     18  G   UNL     1      32.043  11.271 105.152  1.00  0.00     0.000 G0
ENDBRANCH  13  17
ENDBRANCH  11  13
ENDBRANCH  10  11
ENDBRANCH   1  10
TORSDOF 0
ENDMDL
MODEL 4
REMARK VINA RESULT:    -2.915      1.547      3.679
REMARK INTER + INTRA:          -3.749
REMARK INTER:                  -4.091
REMARK INTRA:                   0.341
REMARK UNBOUND:                 0.358
REMARK SMILES CC1=CCC(=C(C)C)C(=O)CC(C)=CCC1
REMARK SMILES IDX 12 1 14 2 13 3 15 4 16 5 2 6 1 7 3 8 11 10 9 11 10 12 5 13
REMARK SMILES IDX 6 14 7 15 8 16 4 17
REMARK H PARENT
REMARK Flexibility Score: 60.00
ROOT
ATOM      1  C   UNL     1      32.976   7.611 107.987  1.00  0.00    -0.070 C 
ATOM      2  C   UNL     1      31.798   7.477 107.333  1.00  0.00    -0.027 C 
ATOM      3  C   UNL     1      33.672   6.361 108.460  1.00  0.00     0.039 C 
ENDROOT
BRANCH   2   4
ATOM      4  C   UNL     1      30.997   8.613 106.740  1.00  0.00     0.032 C 
BRANCH   4   5
ATOM      5  C   UNL     1      31.555   9.048 105.377  1.00  0.00     0.034 C 
BRANCH   5   6
ATOM      6  C   UNL     1      31.647  10.559 105.211  1.00  0.00    -0.077 C 
ATOM      7  C   UNL     1      30.372  11.358 105.109  1.00  0.00     0.039 C 
ATOM      8  C   UNL     1      32.818  11.233 105.170  1.00  0.00    -0.023 CG0
ATOM      9  G   UNL     1      34.193  10.605 105.188  1.00  0.00     0.000 G0
ENDBRANCH   5   6
ENDBRANCH   4   5
ENDBRANCH   2   4
BRANCH   1  10
ATOM     10  C   UNL     1      33.617   8.958 108.264  1.00  0.00     0.111 C 
BRANCH  10  11
ATOM     11  C   UNL     1      34.742   9.229 107.305  1.00  0.00     0.163 C 
ATOM     12  O   UNL     1      35.620   8.344 107.116  1.00  0.00    -0.294 OA
BRANCH  11  13
ATOM     13  C   UNL     1      34.826  10.509 106.558  1.00  0.00    -0.002 C 
ATOM     14  C   UNL     1      35.465  11.581 107.102  1.00  0.00    -0.069 C 
ATOM     15  C   UNL     1      35.516  12.908 106.380  1.00  0.00     0.039 C 
ATOM     16  C   UNL     1      36.183  11.473 108.429  1.00  0.00     0.039 C 
BRANCH  13  17
ATOM     17  C   UNL     1      34.190  10.607 105.175  1.00  0.00     0.066 CG0
ATOM     18  G   UNL     1      32.814  11.232 105.183  1.00  0.00     0.000 G0
ENDBRANCH  13  17
ENDBRANCH  11  13
ENDBRANCH  10  11
ENDBRANCH   1  10
TORSDOF 0
ENDMDL
MODEL 5
REMARK VINA RESULT:    -2.839      1.239      3.947
REMARK INTER + INTRA:          -3.643
REMARK INTER:                  -4.733
REMARK INTRA:                   1.091
REMARK UNBOUND:                 0.358
REMARK SMILES CC1=CCC(=C(C)C)C(=O)CC(C)=CCC1
REMARK SMILES IDX 12 1 14 2 13 3 15 4 16 5 2 6 1 7 3 8 11 10 9 11 10 12 5 13
REMARK SMILES IDX 6 14 7 15 8 16 4 17
REMARK H PARENT
REMARK Flexibility Score: 60.00
ROOT
ATOM      1  C   UNL     1      31.595  10.983 105.120  1.00  0.00    -0.070 C 
ATOM      2  C   UNL     1      32.393  12.073 105.209  1.00  0.00    -0.027 C 
ATOM      3  C   UNL     1      30.114  11.168 105.327  1.00  0.00     0.039 C 
ENDROOT
BRANCH   2   4
ATOM      4  C   UNL     1      33.886  12.083 104.972  1.00  0.00     0.032 C 
BRANCH   4   5
ATOM      5  C   UNL     1      34.664  11.743 106.252  1.00  0.00     0.034 C 
BRANCH   5   6
ATOM      6  C   UNL     1      35.318  10.368 106.219  1.00  0.00    -0.077 C 
ATOM      7  C   UNL     1      36.625  10.202 105.484  1.00  0.00     0.039 C 
ATOM      8  C   UNL     1      34.797   9.282 106.834  1.00  0.00    -0.023 CG0
ATOM      9  G   UNL     1      33.471   9.234 107.556  1.00  0.00     0.000 G0
ENDBRANCH   5   6
ENDBRANCH   4   5
ENDBRANCH   2   4
BRANCH   1  10
ATOM     10  C   UNL     1      32.128   9.594 104.825  1.00  0.00     0.111 C 
BRANCH  10  11
ATOM     11  C   UNL     1      31.642   8.601 105.842  1.00  0.00     0.163 C 
ATOM     12  O   UNL     1      30.514   8.057 105.687  1.00  0.00    -0.294 OA
BRANCH  11  13
ATOM     13  C   UNL     1      32.473   8.228 107.015  1.00  0.00    -0.002 C 
ATOM     14  C   UNL     1      32.344   6.998 107.584  1.00  0.00    -0.069 C 
ATOM     15  C   UNL     1      33.143   6.618 108.810  1.00  0.00     0.039 C 
ATOM     16  C   UNL     1      31.428   5.952 106.989  1.00  0.00     0.039 C 
BRANCH  13  17
ATOM     17  C   UNL     1      33.472   9.237 107.570  1.00  0.00     0.066 CG0
ATOM     18  G   UNL     1      34.786   9.266 106.822  1.00  0.00     0.000 G0
ENDBRANCH  13  17
ENDBRANCH  11  13
ENDBRANCH  10  11
ENDBRANCH   1  10
TORSDOF 0
ENDMDL
MODEL 6
REMARK VINA RESULT:    -2.625      2.038      4.057
REMARK INTER + INTRA:          -3.341
REMARK INTER:                  -5.674
REMARK INTRA:                   2.333
REMARK UNBOUND:                 0.358
REMARK SMILES CC1=CCC(=C(C)C)C(=O)CC(C)=CCC1
REMARK SMILES IDX 12 1 14 2 13 3 15 4 16 5 2 6 1 7 3 8 11 10 9 11 10 12 5 13
REMARK SMILES IDX 6 14 7 15 8 16 4 17
REMARK H PARENT
REMARK Flexibility Score: 60.00
ROOT
ATOM      1  C   UNL     1      30.830   6.798 105.442  1.00  0.00    -0.070 C 
ATOM      2  C   UNL     1      30.941   5.453 105.546  1.00  0.00    -0.027 C 
ATOM      3  C   UNL     1      30.622   7.391 104.072  1.00  0.00     0.039 C 
ENDROOT
BRANCH   2   4
ATOM      4  C   UNL     1      31.091   4.688 106.841  1.00  0.00     0.032 C 
BRANCH   4   5
ATOM      5  C   UNL     1      31.741   5.548 107.934  1.00  0.00     0.034 C 
BRANCH   5   6
ATOM      6  C   UNL     1      33.262   5.557 107.877  1.00  0.00    -0.077 C 
ATOM      7  C   UNL     1      33.991   4.252 107.680  1.00  0.00     0.039 C 
ATOM      8  C   UNL     1      34.004   6.685 107.974  1.00  0.00    -0.023 CG0
ATOM      9  G   UNL     1      33.462   8.070 108.242  1.00  0.00     0.000 G0
ENDBRANCH   5   6
ENDBRANCH   4   5
ENDBRANCH   2   4
BRANCH   1  10
ATOM     10  C   UNL     1      30.908   7.727 106.640  1.00  0.00     0.111 C 
BRANCH  10  11
ATOM     11  C   UNL     1      31.852   8.866 106.380  1.00  0.00     0.163 C 
ATOM     12  O   UNL     1      31.486   9.816 105.638  1.00  0.00    -0.294 OA
BRANCH  11  13
ATOM     13  C   UNL     1      33.200   8.906 107.002  1.00  0.00    -0.002 C 
ATOM     14  C   UNL     1      34.183   9.677 106.460  1.00  0.00    -0.069 C 
ATOM     15  C   UNL     1      35.577   9.691 107.046  1.00  0.00     0.039 C 
ATOM     16  C   UNL     1      33.908  10.578 105.276  1.00  0.00     0.039 C 
BRANCH  13  17
ATOM     17  C   UNL     1      33.468   8.077 108.253  1.00  0.00     0.066 CG0
ATOM     18  G   UNL     1      33.985   6.687 107.961  1.00  0.00     0.000 G0
ENDBRANCH  13  17
ENDBRANCH  11  13
ENDBRANCH  10  11
ENDBRANCH   1  10
TORSDOF 0
ENDMDL
MODEL 7
REMARK VINA RESULT:    -2.620      5.432      7.680
REMARK INTER + INTRA:          -3.334
REMARK INTER:                  -4.921
REMARK INTRA:                   1.587
REMARK UNBOUND:                 0.358
REMARK SMILES CC1=CCC(=C(C)C)C(=O)CC(C)=CCC1
REMARK SMILES IDX 12 1 14 2 13 3 15 4 16 5 2 6 1 7 3 8 11 10 9 11 10 12 5 13
REMARK SMILES IDX 6 14 7 15 8 16 4 17
REMARK H PARENT
REMARK Flexibility Score: 60.00
ROOT
ATOM      1  C   UNL     1      39.382  12.666 103.457  1.00  0.00    -0.070 C 
ATOM      2  C   UNL     1      40.661  13.107 103.435  1.00  0.00    -0.027 C 
ATOM      3  C   UNL     1      38.312  13.557 102.879  1.00  0.00     0.039 C 
ENDROOT
BRANCH   2   4
ATOM      4  C   UNL     1      41.861  12.323 103.914  1.00  0.00     0.032 C 
BRANCH   4   5
ATOM      5  C   UNL     1      42.214  12.663 105.370  1.00  0.00     0.034 C 
BRANCH   5   6
ATOM      6  C   UNL     1      41.609  11.701 106.383  1.00  0.00    -0.077 C 
ATOM      7  C   UNL     1      42.414  10.502 106.819  1.00  0.00     0.039 C 
ATOM      8  C   UNL     1      40.386  11.874 106.934  1.00  0.00    -0.023 CG0
ATOM      9  G   UNL     1      39.409  12.969 106.575  1.00  0.00     0.000 G0
ENDBRANCH   5   6
ENDBRANCH   4   5
ENDBRANCH   2   4
BRANCH   1  10
ATOM     10  C   UNL     1      38.982  11.322 104.038  1.00  0.00     0.111 C 
BRANCH  10  11
ATOM     11  C   UNL     1      37.922  11.481 105.091  1.00  0.00     0.163 C 
ATOM     12  O   UNL     1      36.924  10.710 105.086  1.00  0.00    -0.294 OA
BRANCH  11  13
ATOM     13  C   UNL     1      38.038  12.513 106.152  1.00  0.00    -0.002 C 
ATOM     14  C   UNL     1      36.921  13.030 106.733  1.00  0.00    -0.069 C 
ATOM     15  C   UNL     1      37.016  14.119 107.777  1.00  0.00     0.039 C 
ATOM     16  C   UNL     1      35.545  12.506 106.385  1.00  0.00     0.039 C 
BRANCH  13  17
ATOM     17  C   UNL     1      39.423  12.984 106.583  1.00  0.00     0.066 CG0
ATOM     18  G   UNL     1      40.370  11.857 106.924  1.00  0.00     0.000 G0
ENDBRANCH  13  17
ENDBRANCH  11  13
ENDBRANCH  10  11
ENDBRANCH   1  10
TORSDOF 0
ENDMDL
MODEL 8
REMARK VINA RESULT:    -2.619      2.560      5.020
REMARK INTER + INTRA:          -3.333
REMARK INTER:                  -3.814
REMARK INTRA:                   0.481
REMARK UNBOUND:                 0.358
REMARK SMILES CC1=CCC(=C(C)C)C(=O)CC(C)=CCC1
REMARK SMILES IDX 12 1 14 2 13 3 15 4 16 5 2 6 1 7 3 8 11 10 9 11 10 12 5 13
REMARK SMILES IDX 6 14 7 15 8 16 4 17
REMARK H PARENT
REMARK Flexibility Score: 60.00
ROOT
ATOM      1  C   UNL     1      36.945  12.196 107.004  1.00  0.00    -0.070 C 
ATOM      2  C   UNL     1      36.579  13.386 106.473  1.00  0.00    -0.027 C 
ATOM      3  C   UNL     1      38.415  11.873 107.080  1.00  0.00     0.039 C 
ENDROOT
BRANCH   2   4
ATOM      4  C   UNL     1      35.160  13.897 106.374  1.00  0.00     0.032 C 
BRANCH   4   5
ATOM      5  C   UNL     1      34.742  14.125 104.914  1.00  0.00     0.034 C 
BRANCH   5   6
ATOM      6  C   UNL     1      35.192  13.016 103.972  1.00  0.00    -0.077 C 
ATOM      7  C   UNL     1      36.237  13.325 102.930  1.00  0.00     0.039 C 
ATOM      8  C   UNL     1      34.716  11.751 104.032  1.00  0.00    -0.023 CG0
ATOM      9  G   UNL     1      33.623  11.268 104.957  1.00  0.00     0.000 G0
ENDBRANCH   5   6
ENDBRANCH   4   5
ENDBRANCH   2   4
BRANCH   1  10
ATOM     10  C   UNL     1      35.943  11.179 107.518  1.00  0.00     0.111 C 
BRANCH  10  11
ATOM     11  C   UNL     1      35.507  10.247 106.424  1.00  0.00     0.163 C 
ATOM     12  O   UNL     1      36.350   9.466 105.904  1.00  0.00    -0.294 OA
BRANCH  11  13
ATOM     13  C   UNL     1      34.097  10.209 105.958  1.00  0.00    -0.002 C 
ATOM     14  C   UNL     1      33.245   9.258 106.428  1.00  0.00    -0.069 C 
ATOM     15  C   UNL     1      31.821   9.169 105.928  1.00  0.00     0.039 C 
ATOM     16  C   UNL     1      33.677   8.279 107.498  1.00  0.00     0.039 C 
BRANCH  13  17
ATOM     17  C   UNL     1      33.618  11.248 104.951  1.00  0.00     0.066 CG0
ATOM     18  G   UNL     1      34.705  11.742 104.024  1.00  0.00     0.000 G0
ENDBRANCH  13  17
ENDBRANCH  11  13
ENDBRANCH  10  11
ENDBRANCH   1  10
TORSDOF 0
ENDMDL
MODEL 9
REMARK VINA RESULT:    -2.600      2.016      3.089
REMARK INTER + INTRA:          -3.306
REMARK INTER:                  -5.670
REMARK INTRA:                   2.364
REMARK UNBOUND:                 0.358
REMARK SMILES CC1=CCC(=C(C)C)C(=O)CC(C)=CCC1
REMARK SMILES IDX 12 1 14 2 13 3 15 4 16 5 2 6 1 7 3 8 11 10 9 11 10 12 5 13
REMARK SMILES IDX 6 14 7 15 8 16 4 17
REMARK H PARENT
REMARK Flexibility Score: 60.00
ROOT
ATOM      1  C   UNL     1      32.855   4.749 107.470  1.00  0.00    -0.070 C 
ATOM      2  C   UNL     1      33.595   5.489 108.328  1.00  0.00    -0.027 C 
ATOM      3  C   UNL     1      33.535   3.626 106.730  1.00  0.00     0.039 C 
ENDROOT
BRANCH   2   4
ATOM      4  C   UNL     1      33.066   6.609 109.194  1.00  0.00     0.032 C 
BRANCH   4   5
ATOM      5  C   UNL     1      34.029   7.805 109.223  1.00  0.00     0.034 C 
BRANCH   5   6
ATOM      6  C   UNL     1      34.073   8.583 107.914  1.00  0.00    -0.077 C 
ATOM      7  C   UNL     1      35.335   9.323 107.550  1.00  0.00     0.039 C 
ATOM      8  C   UNL     1      33.039   8.631 107.043  1.00  0.00    -0.023 CG0
ATOM      9  G   UNL     1      31.677   8.015 107.263  1.00  0.00     0.000 G0
ENDBRANCH   5   6
ENDBRANCH   4   5
ENDBRANCH   2   4
BRANCH   1  10
ATOM     10  C   UNL     1      31.380   5.005 107.221  1.00  0.00     0.111 C 
BRANCH  10  11
ATOM     11  C   UNL     1      31.174   5.822 105.978  1.00  0.00     0.163 C 
ATOM     12  O   UNL     1      31.014   5.237 104.872  1.00  0.00    -0.294 OA
BRANCH  11  13
ATOM     13  C   UNL     1      31.131   7.305 106.028  1.00  0.00    -0.002 C 
ATOM     14  C   UNL     1      30.611   8.012 104.987  1.00  0.00    -0.069 C 
ATOM     15  C   UNL     1      30.606   9.524 104.996  1.00  0.00     0.039 C 
ATOM     16  C   UNL     1      29.983   7.313 103.802  1.00  0.00     0.039 C 
BRANCH  13  17
ATOM     17  C   UNL     1      31.673   8.024 107.258  1.00  0.00     0.066 CG0
ATOM     18  G   UNL     1      33.044   8.628 107.054  1.00  0.00     0.000 G0
ENDBRANCH  13  17
ENDBRANCH  11  13
ENDBRANCH  10  11
ENDBRANCH   1  10
TORSDOF 0
ENDMDL
