MODEL 1
REMARK VINA RESULT:    -3.242      0.000      0.000
REMARK INTER + INTRA:          -3.683
REMARK INTER:                  -3.621
REMARK INTRA:                  -0.062
REMARK UNBOUND:                -0.062
REMARK SMILES CCCC(=O)[O-]
REMARK SMILES IDX 3 1 4 2 5 3 6 4 2 5 1 6
REMARK H PARENT
REMARK Flexibility Score: inf
ROOT
ATOM      1  C   UNL     1      89.784  75.659  69.014  1.00  0.00     0.052 C 
ENDROOT
BRANCH   1   2
ATOM      2  C   UNL     1      90.071  76.657  70.091  1.00  0.00     0.041 C 
ATOM      3  O   UNL     1      91.203  77.203  70.164  1.00  0.00    -0.550 OA
ATOM      4  O   UNL     1      89.072  77.021  70.985  1.00  0.00    -0.550 OA
ENDBRANCH   1   2
BRANCH   1   5
ATOM      5  C   UNL     1      89.504  74.281  69.622  1.00  0.00     0.003 C 
ATOM      6  C   UNL     1      90.750  73.714  70.297  1.00  0.00     0.004 C 
ENDBRANCH   1   5
TORSDOF 2
ENDMDL
MODEL 2
REMARK VINA RESULT:    -3.180      1.517      1.927
REMARK INTER + INTRA:          -3.614
REMARK INTER:                  -3.546
REMARK INTRA:                  -0.067
REMARK UNBOUND:                -0.062
REMARK SMILES CCCC(=O)[O-]
REMARK SMILES IDX 3 1 4 2 5 3 6 4 2 5 1 6
REMARK H PARENT
REMARK Flexibility Score: inf
ROOT
ATOM      1  C   UNL     1      88.159  76.182  69.136  1.00  0.00     0.052 C 
ENDROOT
BRANCH   1   2
ATOM      2  C   UNL     1      88.122  76.580  70.578  1.00  0.00     0.041 C 
ATOM      3  O   UNL     1      89.118  77.139  71.108  1.00  0.00    -0.550 OA
ATOM      4  O   UNL     1      86.968  76.378  71.325  1.00  0.00    -0.550 OA
ENDBRANCH   1   2
BRANCH   1   5
ATOM      5  C   UNL     1      89.324  75.222  68.875  1.00  0.00     0.003 C 
ATOM      6  C   UNL     1      89.040  73.840  69.456  1.00  0.00     0.004 C 
ENDBRANCH   1   5
TORSDOF 2
ENDMDL
MODEL 3
REMARK VINA RESULT:    -3.169      1.690      2.272
REMARK INTER + INTRA:          -3.602
REMARK INTER:                  -3.530
REMARK INTRA:                  -0.072
REMARK UNBOUND:                -0.062
REMARK SMILES CCCC(=O)[O-]
REMARK SMILES IDX 3 1 4 2 5 3 6 4 2 5 1 6
REMARK H PARENT
REMARK Flexibility Score: inf
ROOT
ATOM      1  C   UNL     1      89.400  76.248  68.875  1.00  0.00     0.052 C 
ENDROOT
BRANCH   1   2
ATOM      2  C   UNL     1      90.507  76.023  69.856  1.00  0.00     0.041 C 
ATOM      3  O   UNL     1      91.120  77.003  70.356  1.00  0.00    -0.550 OA
ATOM      4  O   UNL     1      90.830  74.733  70.257  1.00  0.00    -0.550 OA
ENDBRANCH   1   2
BRANCH   1   5
ATOM      5  C   UNL     1      88.106  75.596  69.370  1.00  0.00     0.003 C 
ATOM      6  C   UNL     1      87.554  76.326  70.591  1.00  0.00     0.004 C 
ENDBRANCH   1   5
TORSDOF 2
ENDMDL
MODEL 4
REMARK VINA RESULT:    -3.168      2.062      2.686
REMARK INTER + INTRA:          -3.601
REMARK INTER:                  -3.530
REMARK INTRA:                  -0.071
REMARK UNBOUND:                -0.062
REMARK SMILES CCCC(=O)[O-]
REMARK SMILES IDX 3 1 4 2 5 3 6 4 2 5 1 6
REMARK H PARENT
REMARK Flexibility Score: inf
ROOT
ATOM      1  C   UNL     1      89.109  75.264  70.582  1.00  0.00     0.052 C 
ENDROOT
BRANCH   1   2
ATOM      2  C   UNL     1      87.978  76.166  70.202  1.00  0.00     0.041 C 
ATOM      3  O   UNL     1      87.446  76.914  71.063  1.00  0.00    -0.550 OA
ATOM      4  O   UNL     1      87.543  76.217  68.884  1.00  0.00    -0.550 OA
ENDBRANCH   1   2
BRANCH   1   5
ATOM      5  C   UNL     1      90.366  75.614  69.780  1.00  0.00     0.003 C 
ATOM      6  C   UNL     1      90.929  76.968  70.202  1.00  0.00     0.004 C 
ENDBRANCH   1   5
TORSDOF 2
ENDMDL
MODEL 5
REMARK VINA RESULT:    -3.154      2.038      2.451
REMARK INTER + INTRA:          -3.585
REMARK INTER:                  -3.529
REMARK INTRA:                  -0.056
REMARK UNBOUND:                -0.062
REMARK SMILES CCCC(=O)[O-]
REMARK SMILES IDX 3 1 4 2 5 3 6 4 2 5 1 6
REMARK H PARENT
REMARK Flexibility Score: inf
ROOT
ATOM      1  C   UNL     1      88.425  76.294  69.402  1.00  0.00     0.052 C 
ENDROOT
BRANCH   1   2
ATOM      2  C   UNL     1      88.084  76.338  70.858  1.00  0.00     0.041 C 
ATOM      3  O   UNL     1      88.073  75.279  71.539  1.00  0.00    -0.550 OA
ATOM      4  O   UNL     1      87.828  77.556  71.475  1.00  0.00    -0.550 OA
ENDBRANCH   1   2
BRANCH   1   5
ATOM      5  C   UNL     1      89.858  75.793  69.202  1.00  0.00     0.003 C 
ATOM      6  C   UNL     1      90.859  76.682  69.933  1.00  0.00     0.004 C 
ENDBRANCH   1   5
TORSDOF 2
ENDMDL
MODEL 6
REMARK VINA RESULT:    -3.075      1.531      2.074
REMARK INTER + INTRA:          -3.497
REMARK INTER:                  -3.426
REMARK INTRA:                  -0.070
REMARK UNBOUND:                -0.062
REMARK SMILES CCCC(=O)[O-]
REMARK SMILES IDX 3 1 4 2 5 3 6 4 2 5 1 6
REMARK H PARENT
REMARK Flexibility Score: inf
ROOT
ATOM      1  C   UNL     1      89.567  75.638  68.954  1.00  0.00     0.052 C 
ENDROOT
BRANCH   1   2
ATOM      2  C   UNL     1      88.308  76.227  69.508  1.00  0.00     0.041 C 
ATOM      3  O   UNL     1      87.220  76.094  68.889  1.00  0.00    -0.550 OA
ATOM      4  O   UNL     1      88.327  76.879  70.734  1.00  0.00    -0.550 OA
ENDBRANCH   1   2
BRANCH   1   5
ATOM      5  C   UNL     1      90.198  74.676  69.965  1.00  0.00     0.003 C 
ATOM      6  C   UNL     1      89.392  73.385  70.075  1.00  0.00     0.004 C 
ENDBRANCH   1   5
TORSDOF 2
ENDMDL
MODEL 7
REMARK VINA RESULT:    -3.041      2.588      3.321
REMARK INTER + INTRA:          -3.458
REMARK INTER:                  -3.399
REMARK INTRA:                  -0.059
REMARK UNBOUND:                -0.062
REMARK SMILES CCCC(=O)[O-]
REMARK SMILES IDX 3 1 4 2 5 3 6 4 2 5 1 6
REMARK H PARENT
REMARK Flexibility Score: inf
ROOT
ATOM      1  C   UNL     1      90.199  74.996  69.788  1.00  0.00     0.052 C 
ENDROOT
BRANCH   1   2
ATOM      2  C   UNL     1      89.617  73.686  70.215  1.00  0.00     0.041 C 
ATOM      3  O   UNL     1      89.700  73.316  71.416  1.00  0.00    -0.550 OA
ATOM      4  O   UNL     1      88.938  72.894  69.297  1.00  0.00    -0.550 OA
ENDBRANCH   1   2
BRANCH   1   5
ATOM      5  C   UNL     1      89.218  75.749  68.884  1.00  0.00     0.003 C 
ATOM      6  C   UNL     1      88.019  76.261  69.678  1.00  0.00     0.004 C 
ENDBRANCH   1   5
TORSDOF 2
ENDMDL
MODEL 8
REMARK VINA RESULT:    -2.947      2.080      2.854
REMARK INTER + INTRA:          -3.353
REMARK INTER:                  -3.298
REMARK INTRA:                  -0.055
REMARK UNBOUND:                -0.062
REMARK SMILES CCCC(=O)[O-]
REMARK SMILES IDX 3 1 4 2 5 3 6 4 2 5 1 6
REMARK H PARENT
REMARK Flexibility Score: inf
ROOT
ATOM      1  C   UNL     1      88.427  76.249  69.302  1.00  0.00     0.052 C 
ENDROOT
BRANCH   1   2
ATOM      2  C   UNL     1      89.779  75.679  69.596  1.00  0.00     0.041 C 
ATOM      3  O   UNL     1      89.929  74.435  69.722  1.00  0.00    -0.550 OA
ATOM      4  O   UNL     1      90.883  76.518  69.680  1.00  0.00    -0.550 OA
ENDBRANCH   1   2
BRANCH   1   5
ATOM      5  C   UNL     1      87.557  76.241  70.562  1.00  0.00     0.003 C 
ATOM      6  C   UNL     1      88.004  77.318  71.546  1.00  0.00     0.004 C 
ENDBRANCH   1   5
TORSDOF 2
ENDMDL
MODEL 9
REMARK VINA RESULT:    -2.891      2.541      3.118
REMARK INTER + INTRA:          -3.291
REMARK INTER:                  -3.249
REMARK INTRA:                  -0.043
REMARK UNBOUND:                -0.062
REMARK SMILES CCCC(=O)[O-]
REMARK SMILES IDX 3 1 4 2 5 3 6 4 2 5 1 6
REMARK H PARENT
REMARK Flexibility Score: inf
ROOT
ATOM      1  C   UNL     1      89.082  75.066  70.713  1.00  0.00     0.052 C 
ENDROOT
BRANCH   1   2
ATOM      2  C   UNL     1      89.714  73.754  71.056  1.00  0.00     0.041 C 
ATOM      3  O   UNL     1      90.245  73.052  70.156  1.00  0.00    -0.550 OA
ATOM      4  O   UNL     1      89.761  73.331  72.378  1.00  0.00    -0.550 OA
ENDBRANCH   1   2
BRANCH   1   5
ATOM      5  C   UNL     1      89.787  75.703  69.512  1.00  0.00     0.003 C 
ATOM      6  C   UNL     1      90.884  76.663  69.963  1.00  0.00     0.004 C 
ENDBRANCH   1   5
TORSDOF 2
ENDMDL
