MODEL 1
REMARK VINA RESULT:    -5.737      0.000      0.000
REMARK INTER + INTRA:          -7.285
REMARK INTER:                  -6.910
REMARK INTRA:                  -0.375
REMARK UNBOUND:                -0.375
REMARK SMILES O=c1c(O)c(-c2ccc(O)cc2O)oc2cc(O)cc(O)c12
REMARK SMILES IDX 5 1 3 2 2 3 1 4 22 5 20 6 19 7 17 8 16 9 15 10 14 11 6 12
REMARK SMILES IDX 8 13 7 14 9 15 11 16 12 17 10 18 13 20 4 22 21 24 18 26
REMARK H PARENT 10 19 13 21 4 23 21 25 18 27
REMARK Flexibility Score: inf
ROOT
ATOM      1  C   UNL     1      -1.336 -17.087 -24.263  1.00  0.00     0.184 A 
ATOM      2  C   UNL     1      -1.435 -16.143 -23.229  1.00  0.00     0.208 A 
ATOM      3  C   UNL     1      -2.197 -16.455 -22.093  1.00  0.00     0.238 A 
ATOM      4  O   UNL     1      -2.232 -15.630 -21.143  1.00  0.00    -0.285 OA
ATOM      5  C   UNL     1      -2.874 -17.698 -22.019  1.00  0.00     0.111 A 
ATOM      6  C   UNL     1      -3.707 -18.103 -20.932  1.00  0.00     0.134 A 
ATOM      7  C   UNL     1      -4.228 -19.404 -20.911  1.00  0.00     0.093 A 
ATOM      8  C   UNL     1      -4.000 -20.288 -21.963  1.00  0.00     0.123 A 
ATOM      9  C   UNL     1      -3.235 -19.883 -23.058  1.00  0.00     0.094 A 
ATOM     10  C   UNL     1      -2.672 -18.605 -23.092  1.00  0.00     0.146 A 
ATOM     11  O   UNL     1      -1.939 -18.263 -24.145  1.00  0.00    -0.451 OA
ENDROOT
BRANCH   1  12
ATOM     12  C   UNL     1      -0.567 -16.804 -25.493  1.00  0.00     0.063 A 
ATOM     13  C   UNL     1       1.521 -16.976 -26.731  1.00  0.00     0.047 A 
ATOM     14  C   UNL     1       0.753 -17.275 -25.605  1.00  0.00     0.020 A 
ATOM     15  C   UNL     1       0.984 -16.194 -27.760  1.00  0.00     0.119 A 
ATOM     16  C   UNL     1      -0.326 -15.719 -27.659  1.00  0.00     0.093 A 
ATOM     17  C   UNL     1      -1.111 -16.021 -26.539  1.00  0.00     0.130 A 
BRANCH  15  18
ATOM     18  O   UNL     1       1.743 -15.886 -28.888  1.00  0.00    -0.508 OA
ATOM     19  H   UNL     1       1.795 -14.940 -29.248  1.00  0.00     0.293 HD
ENDBRANCH  15  18
BRANCH  17  20
ATOM     20  O   UNL     1      -2.424 -15.550 -26.508  1.00  0.00    -0.507 OA
ATOM     21  H   UNL     1      -2.956 -15.454 -25.652  1.00  0.00     0.293 HD
ENDBRANCH  17  20
ENDBRANCH   1  12
BRANCH   2  22
ATOM     22  O   UNL     1      -0.759 -14.924 -23.332  1.00  0.00    -0.502 OA
ATOM     23  H   UNL     1       0.161 -14.847 -23.749  1.00  0.00     0.293 HD
ENDBRANCH   2  22
BRANCH   6  24
ATOM     24  O   UNL     1      -4.073 -17.268 -19.873  1.00  0.00    -0.507 OA
ATOM     25  H   UNL     1      -4.204 -17.572 -18.920  1.00  0.00     0.293 HD
ENDBRANCH   6  24
BRANCH   8  26
ATOM     26  O   UNL     1      -4.547 -21.569 -21.915  1.00  0.00    -0.508 OA
ATOM     27  H   UNL     1      -4.220 -22.260 -21.250  1.00  0.00     0.293 HD
ENDBRANCH   8  26
TORSDOF 6
ENDMDL
MODEL 2
REMARK VINA RESULT:    -5.656      1.823      6.338
REMARK INTER + INTRA:          -7.188
REMARK INTER:                  -6.780
REMARK INTRA:                  -0.408
REMARK UNBOUND:                -0.375
REMARK SMILES O=c1c(O)c(-c2ccc(O)cc2O)oc2cc(O)cc(O)c12
REMARK SMILES IDX 5 1 3 2 2 3 1 4 22 5 20 6 19 7 17 8 16 9 15 10 14 11 6 12
REMARK SMILES IDX 8 13 7 14 9 15 11 16 12 17 10 18 13 20 4 22 21 24 18 26
REMARK H PARENT 10 19 13 21 4 23 21 25 18 27
REMARK Flexibility Score: inf
ROOT
ATOM      1  C   UNL     1      -1.982 -17.809 -23.736  1.00  0.00     0.184 A 
ATOM      2  C   UNL     1      -1.094 -16.984 -23.029  1.00  0.00     0.208 A 
ATOM      3  C   UNL     1       0.082 -16.552 -23.661  1.00  0.00     0.238 A 
ATOM      4  O   UNL     1       0.845 -15.763 -23.043  1.00  0.00    -0.285 OA
ATOM      5  C   UNL     1       0.369 -16.976 -24.982  1.00  0.00     0.111 A 
ATOM      6  C   UNL     1       1.551 -16.632 -25.705  1.00  0.00     0.134 A 
ATOM      7  C   UNL     1       1.671 -17.007 -27.049  1.00  0.00     0.093 A 
ATOM      8  C   UNL     1       0.684 -17.766 -27.676  1.00  0.00     0.123 A 
ATOM      9  C   UNL     1      -0.449 -18.158 -26.962  1.00  0.00     0.094 A 
ATOM     10  C   UNL     1      -0.615 -17.768 -25.631  1.00  0.00     0.146 A 
ATOM     11  O   UNL     1      -1.714 -18.149 -24.991  1.00  0.00    -0.451 OA
ENDROOT
BRANCH   1  12
ATOM     12  C   UNL     1      -3.225 -18.313 -23.114  1.00  0.00     0.063 A 
ATOM     13  C   UNL     1      -4.410 -20.121 -21.995  1.00  0.00     0.047 A 
ATOM     14  C   UNL     1      -3.236 -19.597 -22.539  1.00  0.00     0.020 A 
ATOM     15  C   UNL     1      -5.593 -19.372 -22.024  1.00  0.00     0.119 A 
ATOM     16  C   UNL     1      -5.593 -18.097 -22.593  1.00  0.00     0.093 A 
ATOM     17  C   UNL     1      -4.419 -17.555 -23.134  1.00  0.00     0.130 A 
BRANCH  15  18
ATOM     18  O   UNL     1      -6.772 -19.886 -21.487  1.00  0.00    -0.508 OA
ATOM     19  H   UNL     1      -7.652 -19.391 -21.570  1.00  0.00     0.293 HD
ENDBRANCH  15  18
BRANCH  17  20
ATOM     20  O   UNL     1      -4.470 -16.262 -23.657  1.00  0.00    -0.507 OA
ATOM     21  H   UNL     1      -4.883 -15.482 -23.162  1.00  0.00     0.293 HD
ENDBRANCH  17  20
ENDBRANCH   1  12
BRANCH   2  22
ATOM     22  O   UNL     1      -1.401 -16.586 -21.726  1.00  0.00    -0.502 OA
ATOM     23  H   UNL     1      -0.687 -16.433 -21.022  1.00  0.00     0.293 HD
ENDBRANCH   2  22
BRANCH   6  24
ATOM     24  O   UNL     1       2.639 -15.953 -25.148  1.00  0.00    -0.507 OA
ATOM     25  H   UNL     1       3.097 -15.159 -25.569  1.00  0.00     0.293 HD
ENDBRANCH   6  24
BRANCH   8  26
ATOM     26  O   UNL     1       0.844 -18.135 -29.011  1.00  0.00    -0.508 OA
ATOM     27  H   UNL     1       0.665 -17.483 -29.765  1.00  0.00     0.293 HD
ENDBRANCH   8  26
TORSDOF 6
ENDMDL
MODEL 3
REMARK VINA RESULT:    -5.634      1.984      2.543
REMARK INTER + INTRA:          -7.161
REMARK INTER:                  -6.791
REMARK INTRA:                  -0.370
REMARK UNBOUND:                -0.375
REMARK SMILES O=c1c(O)c(-c2ccc(O)cc2O)oc2cc(O)cc(O)c12
REMARK SMILES IDX 5 1 3 2 2 3 1 4 22 5 20 6 19 7 17 8 16 9 15 10 14 11 6 12
REMARK SMILES IDX 8 13 7 14 9 15 11 16 12 17 10 18 13 20 4 22 21 24 18 26
REMARK H PARENT 10 19 13 21 4 23 21 25 18 27
REMARK Flexibility Score: inf
ROOT
ATOM      1  C   UNL     1      -1.358 -17.389 -25.633  1.00  0.00     0.184 A 
ATOM      2  C   UNL     1      -2.120 -16.211 -25.673  1.00  0.00     0.208 A 
ATOM      3  C   UNL     1      -3.041 -15.962 -24.644  1.00  0.00     0.238 A 
ATOM      4  O   UNL     1      -3.677 -14.875 -24.653  1.00  0.00    -0.285 OA
ATOM      5  C   UNL     1      -3.208 -16.909 -23.604  1.00  0.00     0.111 A 
ATOM      6  C   UNL     1      -4.142 -16.778 -22.532  1.00  0.00     0.134 A 
ATOM      7  C   UNL     1      -4.135 -17.718 -21.492  1.00  0.00     0.093 A 
ATOM      8  C   UNL     1      -3.275 -18.815 -21.519  1.00  0.00     0.123 A 
ATOM      9  C   UNL     1      -2.399 -18.984 -22.592  1.00  0.00     0.094 A 
ATOM     10  C   UNL     1      -2.357 -18.044 -23.624  1.00  0.00     0.146 A 
ATOM     11  O   UNL     1      -1.498 -18.234 -24.620  1.00  0.00    -0.451 OA
ENDROOT
BRANCH   1  12
ATOM     12  C   UNL     1      -0.389 -17.716 -26.701  1.00  0.00     0.063 A 
ATOM     13  C   UNL     1       0.168 -19.015 -28.683  1.00  0.00     0.047 A 
ATOM     14  C   UNL     1      -0.746 -18.645 -27.695  1.00  0.00     0.020 A 
ATOM     15  C   UNL     1       1.456 -18.466 -28.689  1.00  0.00     0.119 A 
ATOM     16  C   UNL     1       1.821 -17.543 -27.706  1.00  0.00     0.093 A 
ATOM     17  C   UNL     1       0.910 -17.156 -26.715  1.00  0.00     0.130 A 
BRANCH  15  18
ATOM     18  O   UNL     1       2.378 -18.830 -29.668  1.00  0.00    -0.508 OA
ATOM     19  H   UNL     1       3.374 -18.705 -29.530  1.00  0.00     0.293 HD
ENDBRANCH  15  18
BRANCH  17  20
ATOM     20  O   UNL     1       1.318 -16.203 -25.780  1.00  0.00    -0.507 OA
ATOM     21  H   UNL     1       1.851 -16.436 -24.951  1.00  0.00     0.293 HD
ENDBRANCH  17  20
ENDBRANCH   1  12
BRANCH   2  22
ATOM     22  O   UNL     1      -1.936 -15.297 -26.714  1.00  0.00    -0.502 OA
ATOM     23  H   UNL     1      -1.707 -14.324 -26.547  1.00  0.00     0.293 HD
ENDBRANCH   2  22
BRANCH   6  24
ATOM     24  O   UNL     1      -5.106 -15.770 -22.452  1.00  0.00    -0.507 OA
ATOM     25  H   UNL     1      -5.019 -14.856 -22.871  1.00  0.00     0.293 HD
ENDBRANCH   6  24
BRANCH   8  26
ATOM     26  O   UNL     1      -3.307 -19.738 -20.476  1.00  0.00    -0.508 OA
ATOM     27  H   UNL     1      -4.172 -19.979 -20.008  1.00  0.00     0.293 HD
ENDBRANCH   8  26
TORSDOF 6
ENDMDL
MODEL 4
REMARK VINA RESULT:    -5.465      1.007      1.541
REMARK INTER + INTRA:          -6.958
REMARK INTER:                  -6.615
REMARK INTRA:                  -0.343
REMARK UNBOUND:                -0.375
REMARK SMILES O=c1c(O)c(-c2ccc(O)cc2O)oc2cc(O)cc(O)c12
REMARK SMILES IDX 5 1 3 2 2 3 1 4 22 5 20 6 19 7 17 8 16 9 15 10 14 11 6 12
REMARK SMILES IDX 8 13 7 14 9 15 11 16 12 17 10 18 13 20 4 22 21 24 18 26
REMARK H PARENT 10 19 13 21 4 23 21 25 18 27
REMARK Flexibility Score: inf
ROOT
ATOM      1  C   UNL     1      -1.733 -17.303 -24.198  1.00  0.00     0.184 A 
ATOM      2  C   UNL     1      -2.107 -16.245 -23.355  1.00  0.00     0.208 A 
ATOM      3  C   UNL     1      -3.015 -16.493 -22.314  1.00  0.00     0.238 A 
ATOM      4  O   UNL     1      -3.299 -15.555 -21.524  1.00  0.00    -0.285 OA
ATOM      5  C   UNL     1      -3.561 -17.790 -22.149  1.00  0.00     0.111 A 
ATOM      6  C   UNL     1      -4.520 -18.145 -21.154  1.00  0.00     0.134 A 
ATOM      7  C   UNL     1      -4.898 -19.486 -21.006  1.00  0.00     0.093 A 
ATOM      8  C   UNL     1      -4.401 -20.472 -21.858  1.00  0.00     0.123 A 
ATOM      9  C   UNL     1      -3.507 -20.127 -22.872  1.00  0.00     0.094 A 
ATOM     10  C   UNL     1      -3.083 -18.804 -23.021  1.00  0.00     0.146 A 
ATOM     11  O   UNL     1      -2.221 -18.520 -23.989  1.00  0.00    -0.451 OA
ENDROOT
BRANCH   1  12
ATOM     12  C   UNL     1      -0.799 -17.097 -25.325  1.00  0.00     0.063 A 
ATOM     13  C   UNL     1      -0.418 -17.011 -27.727  1.00  0.00     0.047 A 
ATOM     14  C   UNL     1      -1.287 -17.147 -26.643  1.00  0.00     0.020 A 
ATOM     15  C   UNL     1       0.953 -16.830 -27.510  1.00  0.00     0.119 A 
ATOM     16  C   UNL     1       1.448 -16.780 -26.205  1.00  0.00     0.093 A 
ATOM     17  C   UNL     1       0.586 -16.904 -25.108  1.00  0.00     0.130 A 
BRANCH  15  18
ATOM     18  O   UNL     1       1.831 -16.697 -28.585  1.00  0.00    -0.508 OA
ATOM     19  H   UNL     1       1.926 -15.821 -29.085  1.00  0.00     0.293 HD
ENDBRANCH  15  18
BRANCH  17  20
ATOM     20  O   UNL     1       1.131 -16.810 -23.827  1.00  0.00    -0.507 OA
ATOM     21  H   UNL     1       1.702 -17.538 -23.415  1.00  0.00     0.293 HD
ENDBRANCH  17  20
ENDBRANCH   1  12
BRANCH   2  22
ATOM     22  O   UNL     1      -1.555 -14.976 -23.544  1.00  0.00    -0.502 OA
ATOM     23  H   UNL     1      -1.985 -14.136 -23.173  1.00  0.00     0.293 HD
ENDBRANCH   2  22
BRANCH   6  24
ATOM     24  O   UNL     1      -5.148 -17.225 -20.309  1.00  0.00    -0.507 OA
ATOM     25  H   UNL     1      -4.730 -16.368 -19.980  1.00  0.00     0.293 HD
ENDBRANCH   6  24
BRANCH   8  26
ATOM     26  O   UNL     1      -4.810 -21.794 -21.692  1.00  0.00    -0.508 OA
ATOM     27  H   UNL     1      -5.783 -22.062 -21.782  1.00  0.00     0.293 HD
ENDBRANCH   8  26
TORSDOF 6
ENDMDL
MODEL 5
REMARK VINA RESULT:    -5.402      1.729      6.493
REMARK INTER + INTRA:          -6.883
REMARK INTER:                  -6.480
REMARK INTRA:                  -0.402
REMARK UNBOUND:                -0.375
REMARK SMILES O=c1c(O)c(-c2ccc(O)cc2O)oc2cc(O)cc(O)c12
REMARK SMILES IDX 5 1 3 2 2 3 1 4 22 5 20 6 19 7 17 8 16 9 15 10 14 11 6 12
REMARK SMILES IDX 8 13 7 14 9 15 11 16 12 17 10 18 13 20 4 22 21 24 18 26
REMARK H PARENT 10 19 13 21 4 23 21 25 18 27
REMARK Flexibility Score: inf
ROOT
ATOM      1  C   UNL     1      -2.423 -17.790 -23.418  1.00  0.00     0.184 A 
ATOM      2  C   UNL     1      -1.621 -16.970 -22.609  1.00  0.00     0.208 A 
ATOM      3  C   UNL     1      -0.418 -16.470 -23.130  1.00  0.00     0.238 A 
ATOM      4  O   UNL     1       0.267 -15.686 -22.422  1.00  0.00    -0.285 OA
ATOM      5  C   UNL     1      -0.018 -16.821 -24.443  1.00  0.00     0.111 A 
ATOM      6  C   UNL     1       1.201 -16.404 -25.058  1.00  0.00     0.134 A 
ATOM      7  C   UNL     1       1.435 -16.711 -26.405  1.00  0.00     0.093 A 
ATOM      8  C   UNL     1       0.526 -17.472 -27.138  1.00  0.00     0.123 A 
ATOM      9  C   UNL     1      -0.642 -17.935 -26.530  1.00  0.00     0.094 A 
ATOM     10  C   UNL     1      -0.921 -17.614 -25.199  1.00  0.00     0.146 A 
ATOM     11  O   UNL     1      -2.050 -18.061 -24.662  1.00  0.00    -0.451 OA
ENDROOT
BRANCH   1  12
ATOM     12  C   UNL     1      -3.689 -18.365 -22.916  1.00  0.00     0.063 A 
ATOM     13  C   UNL     1      -6.087 -18.136 -22.565  1.00  0.00     0.047 A 
ATOM     14  C   UNL     1      -4.886 -17.644 -23.078  1.00  0.00     0.020 A 
ATOM     15  C   UNL     1      -6.109 -19.354 -21.875  1.00  0.00     0.119 A 
ATOM     16  C   UNL     1      -4.926 -20.077 -21.707  1.00  0.00     0.093 A 
ATOM     17  C   UNL     1      -3.716 -19.600 -22.226  1.00  0.00     0.130 A 
BRANCH  15  18
ATOM     18  O   UNL     1      -7.301 -19.854 -21.355  1.00  0.00    -0.508 OA
ATOM     19  H   UNL     1      -7.993 -19.244 -20.935  1.00  0.00     0.293 HD
ENDBRANCH  15  18
BRANCH  17  20
ATOM     20  O   UNL     1      -2.572 -20.382 -22.059  1.00  0.00    -0.507 OA
ATOM     21  H   UNL     1      -2.594 -21.314 -21.666  1.00  0.00     0.293 HD
ENDBRANCH  17  20
ENDBRANCH   1  12
BRANCH   2  22
ATOM     22  O   UNL     1      -2.039 -16.644 -21.317  1.00  0.00    -0.502 OA
ATOM     23  H   UNL     1      -1.399 -16.613 -20.531  1.00  0.00     0.293 HD
ENDBRANCH   2  22
BRANCH   6  24
ATOM     24  O   UNL     1       2.218 -15.716 -24.391  1.00  0.00    -0.507 OA
ATOM     25  H   UNL     1       2.084 -14.878 -23.845  1.00  0.00     0.293 HD
ENDBRANCH   6  24
BRANCH   8  26
ATOM     26  O   UNL     1       0.799 -17.772 -28.471  1.00  0.00    -0.508 OA
ATOM     27  H   UNL     1       0.091 -18.164 -29.082  1.00  0.00     0.293 HD
ENDBRANCH   8  26
TORSDOF 6
ENDMDL
MODEL 6
REMARK VINA RESULT:    -4.886      3.208      6.098
REMARK INTER + INTRA:          -6.260
REMARK INTER:                  -5.958
REMARK INTRA:                  -0.302
REMARK UNBOUND:                -0.375
REMARK SMILES O=c1c(O)c(-c2ccc(O)cc2O)oc2cc(O)cc(O)c12
REMARK SMILES IDX 5 1 3 2 2 3 1 4 22 5 20 6 19 7 17 8 16 9 15 10 14 11 6 12
REMARK SMILES IDX 8 13 7 14 9 15 11 16 12 17 10 18 13 20 4 22 21 24 18 26
REMARK H PARENT 10 19 13 21 4 23 21 25 18 27
REMARK Flexibility Score: inf
ROOT
ATOM      1  C   UNL     1       0.212 -16.281 -24.044  1.00  0.00     0.184 A 
ATOM      2  C   UNL     1      -1.005 -15.740 -24.484  1.00  0.00     0.208 A 
ATOM      3  C   UNL     1      -1.493 -16.101 -25.749  1.00  0.00     0.238 A 
ATOM      4  O   UNL     1      -2.614 -15.660 -26.113  1.00  0.00    -0.285 OA
ATOM      5  C   UNL     1      -0.740 -16.977 -26.570  1.00  0.00     0.111 A 
ATOM      6  C   UNL     1      -1.118 -17.379 -27.887  1.00  0.00     0.134 A 
ATOM      7  C   UNL     1      -0.358 -18.345 -28.558  1.00  0.00     0.093 A 
ATOM      8  C   UNL     1       0.799 -18.875 -27.989  1.00  0.00     0.123 A 
ATOM      9  C   UNL     1       1.210 -18.446 -26.726  1.00  0.00     0.094 A 
ATOM     10  C   UNL     1       0.453 -17.511 -26.016  1.00  0.00     0.146 A 
ATOM     11  O   UNL     1       0.871 -17.140 -24.812  1.00  0.00    -0.451 OA
ENDROOT
BRANCH   1  12
ATOM     12  C   UNL     1       0.786 -15.919 -22.730  1.00  0.00     0.063 A 
ATOM     13  C   UNL     1       2.602 -14.921 -21.453  1.00  0.00     0.047 A 
ATOM     14  C   UNL     1       2.009 -15.227 -22.679  1.00  0.00     0.020 A 
ATOM     15  C   UNL     1       1.984 -15.310 -20.258  1.00  0.00     0.119 A 
ATOM     16  C   UNL     1       0.770 -15.999 -20.297  1.00  0.00     0.093 A 
ATOM     17  C   UNL     1       0.159 -16.303 -21.521  1.00  0.00     0.130 A 
BRANCH  15  18
ATOM     18  O   UNL     1       2.568 -15.013 -19.028  1.00  0.00    -0.508 OA
ATOM     19  H   UNL     1       3.304 -14.322 -18.944  1.00  0.00     0.293 HD
ENDBRANCH  15  18
BRANCH  17  20
ATOM     20  O   UNL     1      -1.071 -16.962 -21.498  1.00  0.00    -0.507 OA
ATOM     21  H   UNL     1      -1.303 -17.673 -20.817  1.00  0.00     0.293 HD
ENDBRANCH  17  20
ENDBRANCH   1  12
BRANCH   2  22
ATOM     22  O   UNL     1      -1.724 -14.875 -23.654  1.00  0.00    -0.502 OA
ATOM     23  H   UNL     1      -2.253 -15.205 -22.855  1.00  0.00     0.293 HD
ENDBRANCH   2  22
BRANCH   6  24
ATOM     24  O   UNL     1      -2.206 -16.846 -28.585  1.00  0.00    -0.507 OA
ATOM     25  H   UNL     1      -2.149 -16.416 -29.496  1.00  0.00     0.293 HD
ENDBRANCH   6  24
BRANCH   8  26
ATOM     26  O   UNL     1       1.539 -19.823 -28.693  1.00  0.00    -0.508 OA
ATOM     27  H   UNL     1       2.506 -19.659 -28.946  1.00  0.00     0.293 HD
ENDBRANCH   8  26
TORSDOF 6
ENDMDL
MODEL 7
REMARK VINA RESULT:    -4.873      2.930      3.782
REMARK INTER + INTRA:          -6.245
REMARK INTER:                  -6.122
REMARK INTRA:                  -0.124
REMARK UNBOUND:                -0.375
REMARK SMILES O=c1c(O)c(-c2ccc(O)cc2O)oc2cc(O)cc(O)c12
REMARK SMILES IDX 5 1 3 2 2 3 1 4 22 5 20 6 19 7 17 8 16 9 15 10 14 11 6 12
REMARK SMILES IDX 8 13 7 14 9 15 11 16 12 17 10 18 13 20 4 22 21 24 18 26
REMARK H PARENT 10 19 13 21 4 23 21 25 18 27
REMARK Flexibility Score: inf
ROOT
ATOM      1  C   UNL     1      -0.474 -16.701 -25.040  1.00  0.00     0.184 A 
ATOM      2  C   UNL     1      -1.747 -16.116 -24.958  1.00  0.00     0.208 A 
ATOM      3  C   UNL     1      -2.192 -15.629 -23.720  1.00  0.00     0.238 A 
ATOM      4  O   UNL     1      -3.309 -15.050 -23.665  1.00  0.00    -0.285 OA
ATOM      5  C   UNL     1      -1.371 -15.761 -22.573  1.00  0.00     0.111 A 
ATOM      6  C   UNL     1      -1.738 -15.340 -21.260  1.00  0.00     0.134 A 
ATOM      7  C   UNL     1      -0.797 -15.410 -20.224  1.00  0.00     0.093 A 
ATOM      8  C   UNL     1       0.473 -15.943 -20.440  1.00  0.00     0.123 A 
ATOM      9  C   UNL     1       0.823 -16.412 -21.707  1.00  0.00     0.094 A 
ATOM     10  C   UNL     1      -0.081 -16.322 -22.768  1.00  0.00     0.146 A 
ATOM     11  O   UNL     1       0.296 -16.766 -23.961  1.00  0.00    -0.451 OA
ENDROOT
BRANCH   1  12
ATOM     12  C   UNL     1       0.039 -17.252 -26.313  1.00  0.00     0.063 A 
ATOM     13  C   UNL     1      -0.320 -18.644 -28.277  1.00  0.00     0.047 A 
ATOM     14  C   UNL     1      -0.797 -18.065 -27.099  1.00  0.00     0.020 A 
ATOM     15  C   UNL     1       1.001 -18.425 -28.683  1.00  0.00     0.119 A 
ATOM     16  C   UNL     1       1.840 -17.620 -27.908  1.00  0.00     0.093 A 
ATOM     17  C   UNL     1       1.372 -17.025 -26.730  1.00  0.00     0.130 A 
BRANCH  15  18
ATOM     18  O   UNL     1       1.489 -19.000 -29.854  1.00  0.00    -0.508 OA
ATOM     19  H   UNL     1       1.351 -19.983 -30.058  1.00  0.00     0.293 HD
ENDBRANCH  15  18
BRANCH  17  20
ATOM     20  O   UNL     1       2.244 -16.202 -26.015  1.00  0.00    -0.507 OA
ATOM     21  H   UNL     1       2.955 -16.561 -25.391  1.00  0.00     0.293 HD
ENDBRANCH  17  20
ENDBRANCH   1  12
BRANCH   2  22
ATOM     22  O   UNL     1      -2.537 -16.002 -26.104  1.00  0.00    -0.502 OA
ATOM     23  H   UNL     1      -3.299 -15.337 -26.175  1.00  0.00     0.293 HD
ENDBRANCH   2  22
BRANCH   6  24
ATOM     24  O   UNL     1      -3.010 -14.875 -20.914  1.00  0.00    -0.507 OA
ATOM     25  H   UNL     1      -3.372 -13.962 -21.146  1.00  0.00     0.293 HD
ENDBRANCH   6  24
BRANCH   8  26
ATOM     26  O   UNL     1       1.378 -16.011 -19.382  1.00  0.00    -0.508 OA
ATOM     27  H   UNL     1       1.215 -16.611 -18.583  1.00  0.00     0.293 HD
ENDBRANCH   8  26
TORSDOF 6
ENDMDL
MODEL 8
REMARK VINA RESULT:    -4.859      2.419      3.885
REMARK INTER + INTRA:          -6.228
REMARK INTER:                  -5.893
REMARK INTRA:                  -0.335
REMARK UNBOUND:                -0.375
REMARK SMILES O=c1c(O)c(-c2ccc(O)cc2O)oc2cc(O)cc(O)c12
REMARK SMILES IDX 5 1 3 2 2 3 1 4 22 5 20 6 19 7 17 8 16 9 15 10 14 11 6 12
REMARK SMILES IDX 8 13 7 14 9 15 11 16 12 17 10 18 13 20 4 22 21 24 18 26
REMARK H PARENT 10 19 13 21 4 23 21 25 18 27
REMARK Flexibility Score: inf
ROOT
ATOM      1  C   UNL     1       0.086 -17.291 -25.550  1.00  0.00     0.184 A 
ATOM      2  C   UNL     1       1.303 -16.635 -25.312  1.00  0.00     0.208 A 
ATOM      3  C   UNL     1       1.558 -16.116 -24.034  1.00  0.00     0.238 A 
ATOM      4  O   UNL     1       2.676 -15.582 -23.810  1.00  0.00    -0.285 OA
ATOM      5  C   UNL     1       0.578 -16.235 -23.017  1.00  0.00     0.111 A 
ATOM      6  C   UNL     1       0.712 -15.710 -21.697  1.00  0.00     0.134 A 
ATOM      7  C   UNL     1      -0.270 -15.993 -20.738  1.00  0.00     0.093 A 
ATOM      8  C   UNL     1      -1.409 -16.726 -21.069  1.00  0.00     0.123 A 
ATOM      9  C   UNL     1      -1.579 -17.194 -22.373  1.00  0.00     0.094 A 
ATOM     10  C   UNL     1      -0.600 -16.959 -23.341  1.00  0.00     0.146 A 
ATOM     11  O   UNL     1      -0.793 -17.434 -24.566  1.00  0.00    -0.451 OA
ENDROOT
BRANCH   1  12
ATOM     12  C   UNL     1      -0.247 -17.838 -26.883  1.00  0.00     0.063 A 
ATOM     13  C   UNL     1       0.259 -19.399 -28.681  1.00  0.00     0.047 A 
ATOM     14  C   UNL     1       0.516 -18.900 -27.402  1.00  0.00     0.020 A 
ATOM     15  C   UNL     1      -0.758 -18.839 -29.462  1.00  0.00     0.119 A 
ATOM     16  C   UNL     1      -1.520 -17.783 -28.957  1.00  0.00     0.093 A 
ATOM     17  C   UNL     1      -1.281 -17.280 -27.671  1.00  0.00     0.130 A 
BRANCH  15  18
ATOM     18  O   UNL     1      -1.021 -19.326 -30.741  1.00  0.00    -0.508 OA
ATOM     19  H   UNL     1      -1.312 -18.712 -31.493  1.00  0.00     0.293 HD
ENDBRANCH  15  18
BRANCH  17  20
ATOM     20  O   UNL     1      -2.097 -16.249 -27.204  1.00  0.00    -0.507 OA
ATOM     21  H   UNL     1      -1.865 -15.269 -27.313  1.00  0.00     0.293 HD
ENDBRANCH  17  20
ENDBRANCH   1  12
BRANCH   2  22
ATOM     22  O   UNL     1       2.249 -16.530 -26.335  1.00  0.00    -0.502 OA
ATOM     23  H   UNL     1       2.618 -15.638 -26.644  1.00  0.00     0.293 HD
ENDBRANCH   2  22
BRANCH   6  24
ATOM     24  O   UNL     1       1.766 -14.890 -21.284  1.00  0.00    -0.507 OA
ATOM     25  H   UNL     1       2.443 -14.469 -21.902  1.00  0.00     0.293 HD
ENDBRANCH   6  24
BRANCH   8  26
ATOM     26  O   UNL     1      -2.373 -16.975 -20.094  1.00  0.00    -0.508 OA
ATOM     27  H   UNL     1      -3.355 -16.793 -20.261  1.00  0.00     0.293 HD
ENDBRANCH   8  26
TORSDOF 6
ENDMDL
MODEL 9
REMARK VINA RESULT:    -4.499      2.293      3.719
REMARK INTER + INTRA:          -5.794
REMARK INTER:                  -5.394
REMARK INTRA:                  -0.400
REMARK UNBOUND:                -0.375
REMARK SMILES O=c1c(O)c(-c2ccc(O)cc2O)oc2cc(O)cc(O)c12
REMARK SMILES IDX 5 1 3 2 2 3 1 4 22 5 20 6 19 7 17 8 16 9 15 10 14 11 6 12
REMARK SMILES IDX 8 13 7 14 9 15 11 16 12 17 10 18 13 20 4 22 21 24 18 26
REMARK H PARENT 10 19 13 21 4 23 21 25 18 27
REMARK Flexibility Score: inf
ROOT
ATOM      1  C   UNL     1      -1.987 -17.361 -23.080  1.00  0.00     0.184 A 
ATOM      2  C   UNL     1      -2.880 -18.359 -22.661  1.00  0.00     0.208 A 
ATOM      3  C   UNL     1      -2.909 -18.719 -21.305  1.00  0.00     0.238 A 
ATOM      4  O   UNL     1      -3.754 -19.571 -20.924  1.00  0.00    -0.285 OA
ATOM      5  C   UNL     1      -2.022 -18.098 -20.391  1.00  0.00     0.111 A 
ATOM      6  C   UNL     1      -1.937 -18.414 -19.002  1.00  0.00     0.134 A 
ATOM      7  C   UNL     1      -1.109 -17.649 -18.170  1.00  0.00     0.093 A 
ATOM      8  C   UNL     1      -0.318 -16.624 -18.686  1.00  0.00     0.123 A 
ATOM      9  C   UNL     1      -0.349 -16.345 -20.053  1.00  0.00     0.094 A 
ATOM     10  C   UNL     1      -1.192 -17.065 -20.902  1.00  0.00     0.146 A 
ATOM     11  O   UNL     1      -1.203 -16.759 -22.194  1.00  0.00    -0.451 OA
ENDROOT
BRANCH   1  12
ATOM     12  C   UNL     1      -1.895 -16.956 -24.500  1.00  0.00     0.063 A 
ATOM     13  C   UNL     1      -1.026 -17.374 -26.734  1.00  0.00     0.047 A 
ATOM     14  C   UNL     1      -1.175 -17.760 -25.401  1.00  0.00     0.020 A 
ATOM     15  C   UNL     1      -1.588 -16.174 -27.185  1.00  0.00     0.119 A 
ATOM     16  C   UNL     1      -2.305 -15.367 -26.298  1.00  0.00     0.093 A 
ATOM     17  C   UNL     1      -2.471 -15.748 -24.960  1.00  0.00     0.130 A 
BRANCH  15  18
ATOM     18  O   UNL     1      -1.443 -15.776 -28.512  1.00  0.00    -0.508 OA
ATOM     19  H   UNL     1      -0.544 -15.808 -28.979  1.00  0.00     0.293 HD
ENDBRANCH  15  18
BRANCH  17  20
ATOM     20  O   UNL     1      -3.227 -14.921 -24.127  1.00  0.00    -0.507 OA
ATOM     21  H   UNL     1      -3.333 -15.086 -23.134  1.00  0.00     0.293 HD
ENDBRANCH  17  20
ENDBRANCH   1  12
BRANCH   2  22
ATOM     22  O   UNL     1      -3.740 -18.957 -23.585  1.00  0.00    -0.502 OA
ATOM     23  H   UNL     1      -3.418 -19.638 -24.264  1.00  0.00     0.293 HD
ENDBRANCH   2  22
BRANCH   6  24
ATOM     24  O   UNL     1      -2.616 -19.476 -18.398  1.00  0.00    -0.507 OA
ATOM     25  H   UNL     1      -2.194 -20.352 -18.133  1.00  0.00     0.293 HD
ENDBRANCH   6  24
BRANCH   8  26
ATOM     26  O   UNL     1       0.505 -15.894 -17.831  1.00  0.00    -0.508 OA
ATOM     27  H   UNL     1       0.167 -15.073 -17.343  1.00  0.00     0.293 HD
ENDBRANCH   8  26
TORSDOF 6
ENDMDL
