MODEL 1
REMARK VINA RESULT:     4.439      0.000      0.000
REMARK INTER + INTRA:           5.159
REMARK INTER:                   5.218
REMARK INTRA:                  -0.059
REMARK UNBOUND:                -0.059
REMARK SMILES O=C([O-])CCC(=O)[O-]
REMARK SMILES IDX 4 1 2 2 1 3 3 4 5 5 6 6 7 7 8 8
REMARK H PARENT
REMARK Flexibility Score: inf
ROOT
ATOM      1  C   UNL     1      -0.582   9.502 -25.638  1.00  0.00     0.059 C 
ENDROOT
BRANCH   1   2
ATOM      2  C   UNL     1       0.602   8.854 -26.288  1.00  0.00     0.042 C 
ATOM      3  O   UNL     1       1.293   9.492 -27.125  1.00  0.00    -0.550 OA
ATOM      4  O   UNL     1       0.918   7.533 -26.000  1.00  0.00    -0.550 OA
ENDBRANCH   1   2
BRANCH   1   5
ATOM      5  C   UNL     1      -0.887   8.878 -24.272  1.00  0.00     0.059 C 
BRANCH   5   6
ATOM      6  C   UNL     1      -2.342   8.559 -24.123  1.00  0.00     0.042 C 
ATOM      7  O   UNL     1      -3.196   9.136 -24.848  1.00  0.00    -0.550 OA
ATOM      8  O   UNL     1      -2.753   7.596 -23.211  1.00  0.00    -0.550 OA
ENDBRANCH   5   6
ENDBRANCH   1   5
TORSDOF 3
ENDMDL
MODEL 2
REMARK VINA RESULT:     5.981      8.930      9.894
REMARK INTER + INTRA:           6.971
REMARK INTER:                   7.064
REMARK INTRA:                  -0.093
REMARK UNBOUND:                -0.059
REMARK SMILES O=C([O-])CCC(=O)[O-]
REMARK SMILES IDX 4 1 2 2 1 3 3 4 5 5 6 6 7 7 8 8
REMARK H PARENT
REMARK Flexibility Score: inf
ROOT
ATOM      1  C   UNL     1      -4.625  17.251 -26.064  1.00  0.00     0.059 C 
ENDROOT
BRANCH   1   2
ATOM      2  C   UNL     1      -5.168  15.883 -26.346  1.00  0.00     0.042 C 
ATOM      3  O   UNL     1      -6.147  15.740 -27.124  1.00  0.00    -0.550 OA
ATOM      4  O   UNL     1      -4.618  14.772 -25.720  1.00  0.00    -0.550 OA
ENDBRANCH   1   2
BRANCH   1   5
ATOM      5  C   UNL     1      -5.736  18.227 -25.662  1.00  0.00     0.059 C 
BRANCH   5   6
ATOM      6  C   UNL     1      -5.751  18.468 -24.185  1.00  0.00     0.042 C 
ATOM      7  O   UNL     1      -6.560  19.294 -23.684  1.00  0.00    -0.550 OA
ATOM      8  O   UNL     1      -4.898  17.752 -23.354  1.00  0.00    -0.550 OA
ENDBRANCH   5   6
ENDBRANCH   1   5
TORSDOF 3
ENDMDL
MODEL 3
REMARK VINA RESULT:     5.985      8.913     10.153
REMARK INTER + INTRA:           6.976
REMARK INTER:                   7.066
REMARK INTRA:                  -0.090
REMARK UNBOUND:                -0.059
REMARK SMILES O=C([O-])CCC(=O)[O-]
REMARK SMILES IDX 4 1 2 2 1 3 3 4 5 5 6 6 7 7 8 8
REMARK H PARENT
REMARK Flexibility Score: inf
ROOT
ATOM      1  C   UNL     1      -5.746  18.206 -25.628  1.00  0.00     0.059 C 
ENDROOT
BRANCH   1   2
ATOM      2  C   UNL     1      -5.755  18.432 -24.146  1.00  0.00     0.042 C 
ATOM      3  O   UNL     1      -6.555  19.259 -23.637  1.00  0.00    -0.550 OA
ATOM      4  O   UNL     1      -4.852  17.758 -23.334  1.00  0.00    -0.550 OA
ENDBRANCH   1   2
BRANCH   1   5
ATOM      5  C   UNL     1      -4.630  17.242 -26.044  1.00  0.00     0.059 C 
BRANCH   5   6
ATOM      6  C   UNL     1      -5.162  15.870 -26.323  1.00  0.00     0.042 C 
ATOM      7  O   UNL     1      -6.121  15.712 -27.125  1.00  0.00    -0.550 OA
ATOM      8  O   UNL     1      -4.573  14.762 -25.728  1.00  0.00    -0.550 OA
ENDBRANCH   5   6
ENDBRANCH   1   5
TORSDOF 3
ENDMDL
MODEL 4
REMARK VINA RESULT:     6.658      0.165      3.961
REMARK INTER + INTRA:           7.767
REMARK INTER:                   7.820
REMARK INTRA:                  -0.053
REMARK UNBOUND:                -0.059
REMARK SMILES O=C([O-])CCC(=O)[O-]
REMARK SMILES IDX 4 1 2 2 1 3 3 4 5 5 6 6 7 7 8 8
REMARK H PARENT
REMARK Flexibility Score: inf
ROOT
ATOM      1  C   UNL     1      -0.889   9.093 -24.355  1.00  0.00     0.059 C 
ENDROOT
BRANCH   1   2
ATOM      2  C   UNL     1      -2.282   8.603 -24.097  1.00  0.00     0.042 C 
ATOM      3  O   UNL     1      -3.259   9.135 -24.686  1.00  0.00    -0.550 OA
ATOM      4  O   UNL     1      -2.503   7.587 -23.177  1.00  0.00    -0.550 OA
ENDBRANCH   1   2
BRANCH   1   5
ATOM      5  C   UNL     1      -0.679   9.440 -25.833  1.00  0.00     0.059 C 
BRANCH   5   6
ATOM      6  C   UNL     1       0.589   8.848 -26.364  1.00  0.00     0.042 C 
ATOM      7  O   UNL     1       1.335   9.521 -27.125  1.00  0.00    -0.550 OA
ATOM      8  O   UNL     1       0.970   7.566 -25.988  1.00  0.00    -0.550 OA
ENDBRANCH   5   6
ENDBRANCH   1   5
TORSDOF 3
ENDMDL
