MODEL 1
REMARK VINA RESULT:    -4.528      0.000      0.000
REMARK INTER + INTRA:          -5.940
REMARK INTER:                  -5.851
REMARK INTRA:                  -0.089
REMARK UNBOUND:                -0.089
REMARK SMILES CCCCCCC(=O)[O-]
REMARK SMILES IDX 5 1 6 2 7 3 8 4 9 5 4 6 3 7 2 8 1 9
REMARK H PARENT
REMARK Flexibility Score: inf
ROOT
ATOM      1  C   UNL     1     -20.669 -30.983  23.662  1.00  0.00     0.006 C 
ENDROOT
BRANCH   1   2
ATOM      2  C   UNL     1     -21.783 -31.946  23.212  1.00  0.00     0.053 C 
BRANCH   2   3
ATOM      3  C   UNL     1     -22.975 -31.231  22.653  1.00  0.00     0.041 C 
ATOM      4  O   UNL     1     -24.127 -31.729  22.768  1.00  0.00    -0.550 OA
ATOM      5  O   UNL     1     -22.820 -29.997  22.034  1.00  0.00    -0.550 OA
ENDBRANCH   2   3
ENDBRANCH   1   2
BRANCH   1   6
ATOM      6  C   UNL     1     -19.245 -31.505  23.395  1.00  0.00     0.000 C 
BRANCH   6   7
ATOM      7  C   UNL     1     -18.154 -30.611  24.001  1.00  0.00    -0.000 C 
BRANCH   7   8
ATOM      8  C   UNL     1     -16.757 -31.147  23.667  1.00  0.00    -0.003 C 
ATOM      9  C   UNL     1     -16.177 -30.450  22.439  1.00  0.00     0.004 C 
ENDBRANCH   7   8
ENDBRANCH   6   7
ENDBRANCH   1   6
TORSDOF 5
ENDMDL
MODEL 2
REMARK VINA RESULT:    -4.409      0.915      1.526
REMARK INTER + INTRA:          -5.788
REMARK INTER:                  -5.637
REMARK INTRA:                  -0.151
REMARK UNBOUND:                -0.089
REMARK SMILES CCCCCCC(=O)[O-]
REMARK SMILES IDX 5 1 6 2 7 3 8 4 9 5 4 6 3 7 2 8 1 9
REMARK H PARENT
REMARK Flexibility Score: inf
ROOT
ATOM      1  C   UNL     1     -19.347 -31.249  23.632  1.00  0.00     0.006 C 
ENDROOT
BRANCH   1   2
ATOM      2  C   UNL     1     -20.652 -30.626  24.158  1.00  0.00     0.053 C 
BRANCH   2   3
ATOM      3  C   UNL     1     -21.832 -30.931  23.285  1.00  0.00     0.041 C 
ATOM      4  O   UNL     1     -22.327 -32.090  23.267  1.00  0.00    -0.550 OA
ATOM      5  O   UNL     1     -22.407 -29.928  22.515  1.00  0.00    -0.550 OA
ENDBRANCH   2   3
ENDBRANCH   1   2
BRANCH   1   6
ATOM      6  C   UNL     1     -18.084 -30.440  23.978  1.00  0.00     0.000 C 
BRANCH   6   7
ATOM      7  C   UNL     1     -16.783 -31.181  23.637  1.00  0.00    -0.000 C 
BRANCH   7   8
ATOM      8  C   UNL     1     -16.172 -30.647  22.336  1.00  0.00    -0.003 C 
ATOM      9  C   UNL     1     -16.649 -29.226  22.045  1.00  0.00     0.004 C 
ENDBRANCH   7   8
ENDBRANCH   6   7
ENDBRANCH   1   6
TORSDOF 5
ENDMDL
MODEL 3
REMARK VINA RESULT:    -4.393      3.360      5.135
REMARK INTER + INTRA:          -5.766
REMARK INTER:                  -5.595
REMARK INTRA:                  -0.171
REMARK UNBOUND:                -0.089
REMARK SMILES CCCCCCC(=O)[O-]
REMARK SMILES IDX 5 1 6 2 7 3 8 4 9 5 4 6 3 7 2 8 1 9
REMARK H PARENT
REMARK Flexibility Score: inf
ROOT
ATOM      1  C   UNL     1     -18.102 -30.550  24.195  1.00  0.00     0.006 C 
ENDROOT
BRANCH   1   2
ATOM      2  C   UNL     1     -16.880 -31.001  23.375  1.00  0.00     0.053 C 
BRANCH   2   3
ATOM      3  C   UNL     1     -16.762 -30.277  22.068  1.00  0.00     0.041 C 
ATOM      4  O   UNL     1     -16.595 -30.920  20.997  1.00  0.00    -0.550 OA
ATOM      5  O   UNL     1     -16.869 -28.892  22.026  1.00  0.00    -0.550 OA
ENDBRANCH   2   3
ENDBRANCH   1   2
BRANCH   1   6
ATOM      6  C   UNL     1     -19.441 -31.111  23.683  1.00  0.00     0.000 C 
BRANCH   6   7
ATOM      7  C   UNL     1     -20.658 -30.330  24.199  1.00  0.00    -0.000 C 
BRANCH   7   8
ATOM      8  C   UNL     1     -21.954 -31.116  23.967  1.00  0.00    -0.003 C 
ATOM      9  C   UNL     1     -21.742 -32.247  22.964  1.00  0.00     0.004 C 
ENDBRANCH   7   8
ENDBRANCH   6   7
ENDBRANCH   1   6
TORSDOF 5
ENDMDL
MODEL 4
REMARK VINA RESULT:    -4.374      2.459      3.077
REMARK INTER + INTRA:          -5.742
REMARK INTER:                  -5.527
REMARK INTRA:                  -0.214
REMARK UNBOUND:                -0.089
REMARK SMILES CCCCCCC(=O)[O-]
REMARK SMILES IDX 5 1 6 2 7 3 8 4 9 5 4 6 3 7 2 8 1 9
REMARK H PARENT
REMARK Flexibility Score: inf
ROOT
ATOM      1  C   UNL     1     -19.673 -30.822  23.912  1.00  0.00     0.006 C 
ENDROOT
BRANCH   1   2
ATOM      2  C   UNL     1     -19.339 -29.748  24.963  1.00  0.00     0.053 C 
BRANCH   2   3
ATOM      3  C   UNL     1     -20.563 -29.108  25.545  1.00  0.00     0.041 C 
ATOM      4  O   UNL     1     -21.710 -29.480  25.180  1.00  0.00    -0.550 OA
ATOM      5  O   UNL     1     -20.439 -28.122  26.516  1.00  0.00    -0.550 OA
ENDBRANCH   2   3
ENDBRANCH   1   2
BRANCH   1   6
ATOM      6  C   UNL     1     -18.436 -31.512  23.308  1.00  0.00     0.000 C 
BRANCH   6   7
ATOM      7  C   UNL     1     -17.117 -30.824  23.688  1.00  0.00    -0.000 C 
BRANCH   7   8
ATOM      8  C   UNL     1     -16.202 -30.677  22.468  1.00  0.00    -0.003 C 
ATOM      9  C   UNL     1     -16.281 -29.269  21.884  1.00  0.00     0.004 C 
ENDBRANCH   7   8
ENDBRANCH   6   7
ENDBRANCH   1   6
TORSDOF 5
ENDMDL
MODEL 5
REMARK VINA RESULT:    -4.358      3.718      5.331
REMARK INTER + INTRA:          -5.721
REMARK INTER:                  -5.562
REMARK INTRA:                  -0.159
REMARK UNBOUND:                -0.089
REMARK SMILES CCCCCCC(=O)[O-]
REMARK SMILES IDX 5 1 6 2 7 3 8 4 9 5 4 6 3 7 2 8 1 9
REMARK H PARENT
REMARK Flexibility Score: inf
ROOT
ATOM      1  C   UNL     1     -18.017 -31.260  23.547  1.00  0.00     0.006 C 
ENDROOT
BRANCH   1   2
ATOM      2  C   UNL     1     -16.548 -30.978  23.184  1.00  0.00     0.053 C 
BRANCH   2   3
ATOM      3  C   UNL     1     -16.408 -30.146  21.946  1.00  0.00     0.041 C 
ATOM      4  O   UNL     1     -16.046 -28.941  22.026  1.00  0.00    -0.550 OA
ATOM      5  O   UNL     1     -16.645 -30.708  20.698  1.00  0.00    -0.550 OA
ENDBRANCH   2   3
ENDBRANCH   1   2
BRANCH   1   6
ATOM      6  C   UNL     1     -18.675 -30.155  24.394  1.00  0.00     0.000 C 
BRANCH   6   7
ATOM      7  C   UNL     1     -20.209 -30.199  24.353  1.00  0.00    -0.000 C 
BRANCH   7   8
ATOM      8  C   UNL     1     -20.812 -29.467  25.557  1.00  0.00    -0.003 C 
ATOM      9  C   UNL     1     -19.743 -28.693  26.325  1.00  0.00     0.004 C 
ENDBRANCH   7   8
ENDBRANCH   6   7
ENDBRANCH   1   6
TORSDOF 5
ENDMDL
MODEL 6
REMARK VINA RESULT:    -4.282      1.412      2.106
REMARK INTER + INTRA:          -5.622
REMARK INTER:                  -5.551
REMARK INTRA:                  -0.071
REMARK UNBOUND:                -0.089
REMARK SMILES CCCCCCC(=O)[O-]
REMARK SMILES IDX 5 1 6 2 7 3 8 4 9 5 4 6 3 7 2 8 1 9
REMARK H PARENT
REMARK Flexibility Score: inf
ROOT
ATOM      1  C   UNL     1     -22.168 -31.513  23.685  1.00  0.00     0.006 C 
ENDROOT
BRANCH   1   2
ATOM      2  C   UNL     1     -23.337 -31.387  24.677  1.00  0.00     0.053 C 
BRANCH   2   3
ATOM      3  C   UNL     1     -24.650 -31.793  24.079  1.00  0.00     0.041 C 
ATOM      4  O   UNL     1     -25.618 -32.106  24.822  1.00  0.00    -0.550 OA
ATOM      5  O   UNL     1     -24.816 -31.795  22.700  1.00  0.00    -0.550 OA
ENDBRANCH   2   3
ENDBRANCH   1   2
BRANCH   1   6
ATOM      6  C   UNL     1     -20.961 -30.619  24.023  1.00  0.00     0.000 C 
BRANCH   6   7
ATOM      7  C   UNL     1     -19.614 -31.267  23.671  1.00  0.00    -0.000 C 
BRANCH   7   8
ATOM      8  C   UNL     1     -18.445 -30.400  24.151  1.00  0.00    -0.003 C 
ATOM      9  C   UNL     1     -17.107 -30.969  23.685  1.00  0.00     0.004 C 
ENDBRANCH   7   8
ENDBRANCH   6   7
ENDBRANCH   1   6
TORSDOF 5
ENDMDL
MODEL 7
REMARK VINA RESULT:    -4.248      4.175      5.349
REMARK INTER + INTRA:          -5.579
REMARK INTER:                  -5.307
REMARK INTRA:                  -0.272
REMARK UNBOUND:                -0.089
REMARK SMILES CCCCCCC(=O)[O-]
REMARK SMILES IDX 5 1 6 2 7 3 8 4 9 5 4 6 3 7 2 8 1 9
REMARK H PARENT
REMARK Flexibility Score: inf
ROOT
ATOM      1  C   UNL     1     -16.136 -30.782  22.113  1.00  0.00     0.006 C 
ENDROOT
BRANCH   1   2
ATOM      2  C   UNL     1     -16.047 -29.286  21.762  1.00  0.00     0.053 C 
BRANCH   2   3
ATOM      3  C   UNL     1     -16.539 -28.987  20.378  1.00  0.00     0.041 C 
ATOM      4  O   UNL     1     -16.570 -29.894  19.504  1.00  0.00    -0.550 OA
ATOM      5  O   UNL     1     -16.993 -27.713  20.060  1.00  0.00    -0.550 OA
ENDBRANCH   2   3
ENDBRANCH   1   2
BRANCH   1   6
ATOM      6  C   UNL     1     -16.700 -31.062  23.518  1.00  0.00     0.000 C 
BRANCH   6   7
ATOM      7  C   UNL     1     -18.235 -31.100  23.554  1.00  0.00    -0.000 C 
BRANCH   7   8
ATOM      8  C   UNL     1     -18.788 -30.040  24.513  1.00  0.00    -0.003 C 
ATOM      9  C   UNL     1     -19.129 -28.749  23.773  1.00  0.00     0.004 C 
ENDBRANCH   7   8
ENDBRANCH   6   7
ENDBRANCH   1   6
TORSDOF 5
ENDMDL
MODEL 8
REMARK VINA RESULT:    -4.097      3.123      5.586
REMARK INTER + INTRA:          -5.384
REMARK INTER:                  -5.306
REMARK INTRA:                  -0.078
REMARK UNBOUND:                -0.089
REMARK SMILES CCCCCCC(=O)[O-]
REMARK SMILES IDX 5 1 6 2 7 3 8 4 9 5 4 6 3 7 2 8 1 9
REMARK H PARENT
REMARK Flexibility Score: inf
ROOT
ATOM      1  C   UNL     1     -19.858 -31.358  23.636  1.00  0.00     0.006 C 
ENDROOT
BRANCH   1   2
ATOM      2  C   UNL     1     -18.750 -30.446  24.192  1.00  0.00     0.053 C 
BRANCH   2   3
ATOM      3  C   UNL     1     -17.499 -30.489  23.369  1.00  0.00     0.041 C 
ATOM      4  O   UNL     1     -16.594 -31.326  23.630  1.00  0.00    -0.550 OA
ATOM      5  O   UNL     1     -17.344 -29.625  22.292  1.00  0.00    -0.550 OA
ENDBRANCH   2   3
ENDBRANCH   1   2
BRANCH   1   6
ATOM      6  C   UNL     1     -21.260 -30.720  23.649  1.00  0.00     0.000 C 
BRANCH   6   7
ATOM      7  C   UNL     1     -22.392 -31.752  23.559  1.00  0.00    -0.000 C 
BRANCH   7   8
ATOM      8  C   UNL     1     -23.352 -31.621  24.746  1.00  0.00    -0.003 C 
ATOM      9  C   UNL     1     -24.806 -31.753  24.299  1.00  0.00     0.004 C 
ENDBRANCH   7   8
ENDBRANCH   6   7
ENDBRANCH   1   6
TORSDOF 5
ENDMDL
MODEL 9
REMARK VINA RESULT:    -4.043      4.359      6.303
REMARK INTER + INTRA:          -5.314
REMARK INTER:                  -4.994
REMARK INTRA:                  -0.320
REMARK UNBOUND:                -0.089
REMARK SMILES CCCCCCC(=O)[O-]
REMARK SMILES IDX 5 1 6 2 7 3 8 4 9 5 4 6 3 7 2 8 1 9
REMARK H PARENT
REMARK Flexibility Score: inf
ROOT
ATOM      1  C   UNL     1     -27.012 -32.310  25.060  1.00  0.00     0.006 C 
ENDROOT
BRANCH   1   2
ATOM      2  C   UNL     1     -27.512 -33.244  23.944  1.00  0.00     0.053 C 
BRANCH   2   3
ATOM      3  C   UNL     1     -27.376 -32.639  22.579  1.00  0.00     0.041 C 
ATOM      4  O   UNL     1     -28.362 -32.608  21.795  1.00  0.00    -0.550 OA
ATOM      5  O   UNL     1     -26.168 -32.078  22.183  1.00  0.00    -0.550 OA
ENDBRANCH   2   3
ENDBRANCH   1   2
BRANCH   1   6
ATOM      6  C   UNL     1     -26.161 -33.016  26.132  1.00  0.00     0.000 C 
BRANCH   6   7
ATOM      7  C   UNL     1     -24.651 -32.863  25.898  1.00  0.00    -0.000 C 
BRANCH   7   8
ATOM      8  C   UNL     1     -24.341 -31.570  25.135  1.00  0.00    -0.003 C 
ATOM      9  C   UNL     1     -23.175 -31.765  24.170  1.00  0.00     0.004 C 
ENDBRANCH   7   8
ENDBRANCH   6   7
ENDBRANCH   1   6
TORSDOF 5
ENDMDL
