MODEL 1
REMARK VINA RESULT:    11.686      0.000      0.000
REMARK INTER + INTRA:          18.870
REMARK INTER:                  17.494
REMARK INTRA:                   1.376
REMARK UNBOUND:                 1.376
REMARK SMILES C=C(CC[C@H](C(=O)[O-])[C@H]1[C@@H](O)C[C@@]2(C)C3=C(CC[C@]12C)[C@]1(C)CC[C@@H](OC(C)=O)C(C)(C)[C@H]1CC3)C(C)C
REMARK SMILES IDX 4 1 5 2 6 3 7 4 8 5 9 6 10 7 19 8 12 9 13 10 18 11 20 12
REMARK SMILES IDX 14 13 15 14 17 15 16 16 35 17 21 18 34 19 33 20 23 21 22 22
REMARK SMILES IDX 30 23 24 24 25 25 31 26 32 27 11 28 26 30 27 31 29 32 28 33
REMARK SMILES IDX 3 34 2 35 1 36 36 37 37 38 38 39
REMARK H PARENT 11 29
REMARK Flexibility Score: inf
ROOT
ATOM      1  C   UNL     1      18.723  34.003  31.778  1.00  0.00     0.014 C 
ENDROOT
BRANCH   1   2
ATOM      2  C   UNL     1      18.323  34.140  30.293  1.00  0.00     0.042 C 
BRANCH   2   3
ATOM      3  C   UNL     1      17.352  33.060  29.886  1.00  0.00     0.045 C 
ATOM      4  O   UNL     1      16.157  33.342  29.586  1.00  0.00    -0.550 OA
ATOM      5  O   UNL     1      17.809  31.763  29.686  1.00  0.00    -0.550 OA
ENDBRANCH   2   3
BRANCH   2   6
ATOM      6  C   UNL     1      19.603  34.332  29.404  1.00  0.00     0.033 C 
ATOM      7  C   UNL     1      20.928  33.560  29.737  1.00  0.00     0.119 C 
ATOM      8  C   UNL     1      19.511  34.287  27.852  1.00  0.00    -0.017 C 
ATOM      9  C   UNL     1      21.680  33.395  28.395  1.00  0.00     0.043 C 
ATOM     10  C   UNL     1      21.008  34.407  27.441  1.00  0.00    -0.003 C 
ATOM     11  C   UNL     1      18.745  35.441  27.182  1.00  0.00     0.012 C 
ATOM     12  C   UNL     1      18.869  32.929  27.361  1.00  0.00     0.013 C 
ATOM     13  C   UNL     1      21.681  35.802  27.709  1.00  0.00     0.017 C 
ATOM     14  C   UNL     1      21.159  34.187  25.946  1.00  0.00    -0.064 C 
ATOM     15  C   UNL     1      18.940  35.407  25.643  1.00  0.00     0.032 C 
ATOM     16  C   UNL     1      20.208  34.707  25.092  1.00  0.00    -0.064 C 
ATOM     17  C   UNL     1      22.354  33.376  25.463  1.00  0.00     0.032 C 
ATOM     18  C   UNL     1      20.436  34.714  23.560  1.00  0.00    -0.008 C 
ATOM     19  C   UNL     1      22.671  33.560  23.981  1.00  0.00     0.009 C 
ATOM     20  C   UNL     1      21.359  33.506  23.162  1.00  0.00     0.009 C 
ATOM     21  C   UNL     1      19.069  34.515  22.828  1.00  0.00     0.015 C 
ATOM     22  C   UNL     1      21.028  36.123  23.213  1.00  0.00     0.016 C 
ATOM     23  C   UNL     1      21.517  33.219  21.610  1.00  0.00     0.005 C 
ATOM     24  C   UNL     1      19.217  34.344  21.315  1.00  0.00     0.047 C 
ATOM     25  C   UNL     1      20.083  33.131  20.981  1.00  0.00     0.182 C 
ATOM     26  C   UNL     1      22.391  34.281  20.889  1.00  0.00     0.015 C 
ATOM     27  C   UNL     1      22.191  31.837  21.408  1.00  0.00     0.015 C 
BRANCH   7  28
ATOM     28  O   UNL     1      20.775  32.313  30.373  1.00  0.00    -0.393 OA
ATOM     29  H   UNL     1      21.667  32.043  30.695  1.00  0.00     0.210 HD
ENDBRANCH   7  28
BRANCH  25  30
ATOM     30  O   UNL     1      20.120  32.976  19.553  1.00  0.00    -0.462 OA
BRANCH  30  31
ATOM     31  C   UNL     1      20.575  33.967  18.679  1.00  0.00     0.302 C 
ATOM     32  O   UNL     1      20.042  35.117  18.661  1.00  0.00    -0.253 OA
ATOM     33  C   UNL     1      21.686  33.667  17.746  1.00  0.00     0.139 C 
ENDBRANCH  30  31
ENDBRANCH  25  30
ENDBRANCH   2   6
ENDBRANCH   1   2
BRANCH   1  34
ATOM     34  C   UNL     1      17.612  33.408  32.668  1.00  0.00     0.031 C 
BRANCH  34  35
ATOM     35  C   UNL     1      17.989  33.494  34.128  1.00  0.00    -0.075 C 
ATOM     36  C   UNL     1      19.242  33.178  34.493  1.00  0.00     0.008 C 
BRANCH  35  37
ATOM     37  C   UNL     1      16.886  33.820  35.143  1.00  0.00     0.008 C 
ATOM     38  C   UNL     1      17.240  34.965  36.106  1.00  0.00     0.012 C 
ATOM     39  C   UNL     1      16.497  32.560  35.927  1.00  0.00     0.012 C 
ENDBRANCH  35  37
ENDBRANCH  34  35
ENDBRANCH   1  34
TORSDOF 9
ENDMDL
MODEL 2
REMARK VINA RESULT:    12.070      0.746      1.404
REMARK INTER + INTRA:          19.443
REMARK INTER:                  17.319
REMARK INTRA:                   2.125
REMARK UNBOUND:                 1.376
REMARK SMILES C=C(CC[C@H](C(=O)[O-])[C@H]1[C@@H](O)C[C@@]2(C)C3=C(CC[C@]12C)[C@]1(C)CC[C@@H](OC(C)=O)C(C)(C)[C@H]1CC3)C(C)C
REMARK SMILES IDX 4 1 5 2 6 3 7 4 8 5 9 6 10 7 19 8 12 9 13 10 18 11 20 12
REMARK SMILES IDX 14 13 15 14 17 15 16 16 35 17 21 18 34 19 33 20 23 21 22 22
REMARK SMILES IDX 30 23 24 24 25 25 31 26 32 27 11 28 26 30 27 31 29 32 28 33
REMARK SMILES IDX 3 34 2 35 1 36 36 37 37 38 38 39
REMARK H PARENT 11 29
REMARK Flexibility Score: inf
ROOT
ATOM      1  C   UNL     1      18.484  34.109  32.140  1.00  0.00     0.014 C 
ENDROOT
BRANCH   1   2
ATOM      2  C   UNL     1      18.144  34.023  30.637  1.00  0.00     0.042 C 
BRANCH   2   3
ATOM      3  C   UNL     1      17.300  32.810  30.336  1.00  0.00     0.045 C 
ATOM      4  O   UNL     1      17.585  31.682  30.829  1.00  0.00    -0.550 OA
ATOM      5  O   UNL     1      16.107  32.958  29.638  1.00  0.00    -0.550 OA
ENDBRANCH   2   3
BRANCH   2   6
ATOM      6  C   UNL     1      19.442  34.231  29.777  1.00  0.00     0.033 C 
ATOM      7  C   UNL     1      20.761  33.455  30.123  1.00  0.00     0.119 C 
ATOM      8  C   UNL     1      19.380  34.212  28.222  1.00  0.00    -0.017 C 
ATOM      9  C   UNL     1      21.539  33.313  28.794  1.00  0.00     0.043 C 
ATOM     10  C   UNL     1      20.885  34.340  27.843  1.00  0.00    -0.003 C 
ATOM     11  C   UNL     1      18.626  35.375  27.556  1.00  0.00     0.012 C 
ATOM     12  C   UNL     1      18.750  32.861  27.697  1.00  0.00     0.013 C 
ATOM     13  C   UNL     1      21.550  35.732  28.147  1.00  0.00     0.017 C 
ATOM     14  C   UNL     1      21.066  34.144  26.349  1.00  0.00    -0.064 C 
ATOM     15  C   UNL     1      18.851  35.366  26.022  1.00  0.00     0.032 C 
ATOM     16  C   UNL     1      20.131  34.678  25.484  1.00  0.00    -0.064 C 
ATOM     17  C   UNL     1      22.272  33.343  25.876  1.00  0.00     0.032 C 
ATOM     18  C   UNL     1      20.390  34.710  23.957  1.00  0.00    -0.008 C 
ATOM     19  C   UNL     1      22.618  33.552  24.404  1.00  0.00     0.009 C 
ATOM     20  C   UNL     1      21.322  33.509  23.558  1.00  0.00     0.009 C 
ATOM     21  C   UNL     1      19.038  34.521  23.195  1.00  0.00     0.015 C 
ATOM     22  C   UNL     1      20.986  36.125  23.645  1.00  0.00     0.016 C 
ATOM     23  C   UNL     1      21.512  33.248  22.005  1.00  0.00     0.005 C 
ATOM     24  C   UNL     1      19.216  34.374  21.683  1.00  0.00     0.047 C 
ATOM     25  C   UNL     1      20.090  33.168  21.346  1.00  0.00     0.182 C 
ATOM     26  C   UNL     1      22.398  34.323  21.319  1.00  0.00     0.015 C 
ATOM     27  C   UNL     1      22.192  31.870  21.795  1.00  0.00     0.015 C 
BRANCH   7  28
ATOM     28  O   UNL     1      20.597  32.199  30.735  1.00  0.00    -0.393 OA
ATOM     29  H   UNL     1      20.664  32.341  31.709  1.00  0.00     0.210 HD
ENDBRANCH   7  28
BRANCH  25  30
ATOM     30  O   UNL     1      20.156  33.036  19.917  1.00  0.00    -0.462 OA
BRANCH  30  31
ATOM     31  C   UNL     1      20.337  34.116  19.048  1.00  0.00     0.302 C 
ATOM     32  O   UNL     1      20.388  35.305  19.485  1.00  0.00    -0.253 OA
ATOM     33  C   UNL     1      20.452  33.873  17.591  1.00  0.00     0.139 C 
ENDBRANCH  30  31
ENDBRANCH  25  30
ENDBRANCH   2   6
ENDBRANCH   1   2
BRANCH   1  34
ATOM     34  C   UNL     1      17.861  32.977  32.984  1.00  0.00     0.031 C 
BRANCH  34  35
ATOM     35  C   UNL     1      18.564  32.850  34.315  1.00  0.00    -0.075 C 
ATOM     36  C   UNL     1      17.829  32.632  35.417  1.00  0.00     0.008 C 
BRANCH  35  37
ATOM     37  C   UNL     1      20.077  33.102  34.362  1.00  0.00     0.008 C 
ATOM     38  C   UNL     1      20.812  32.293  35.444  1.00  0.00     0.012 C 
ATOM     39  C   UNL     1      20.361  34.600  34.525  1.00  0.00     0.012 C 
ENDBRANCH  35  37
ENDBRANCH  34  35
ENDBRANCH   1  34
TORSDOF 9
ENDMDL
MODEL 3
REMARK VINA RESULT:    12.368      1.206      1.878
REMARK INTER + INTRA:          19.889
REMARK INTER:                  17.198
REMARK INTRA:                   2.691
REMARK UNBOUND:                 1.376
REMARK SMILES C=C(CC[C@H](C(=O)[O-])[C@H]1[C@@H](O)C[C@@]2(C)C3=C(CC[C@]12C)[C@]1(C)CC[C@@H](OC(C)=O)C(C)(C)[C@H]1CC3)C(C)C
REMARK SMILES IDX 4 1 5 2 6 3 7 4 8 5 9 6 10 7 19 8 12 9 13 10 18 11 20 12
REMARK SMILES IDX 14 13 15 14 17 15 16 16 35 17 21 18 34 19 33 20 23 21 22 22
REMARK SMILES IDX 30 23 24 24 25 25 31 26 32 27 11 28 26 30 27 31 29 32 28 33
REMARK SMILES IDX 3 34 2 35 1 36 36 37 37 38 38 39
REMARK H PARENT 11 29
REMARK Flexibility Score: inf
ROOT
ATOM      1  C   UNL     1      17.310  32.798  29.701  1.00  0.00     0.014 C 
ENDROOT
BRANCH   1   2
ATOM      2  C   UNL     1      17.938  34.158  30.073  1.00  0.00     0.042 C 
BRANCH   2   3
ATOM      3  C   UNL     1      16.914  35.264  30.028  1.00  0.00     0.045 C 
ATOM      4  O   UNL     1      16.515  35.823  31.089  1.00  0.00    -0.550 OA
ATOM      5  O   UNL     1      16.517  35.786  28.803  1.00  0.00    -0.550 OA
ENDBRANCH   2   3
BRANCH   2   6
ATOM      6  C   UNL     1      19.271  34.375  29.273  1.00  0.00     0.033 C 
ATOM      7  C   UNL     1      20.591  33.648  29.710  1.00  0.00     0.119 C 
ATOM      8  C   UNL     1      19.289  34.304  27.718  1.00  0.00    -0.017 C 
ATOM      9  C   UNL     1      21.440  33.486  28.426  1.00  0.00     0.043 C 
ATOM     10  C   UNL     1      20.807  34.463  27.411  1.00  0.00    -0.003 C 
ATOM     11  C   UNL     1      18.538  35.423  26.977  1.00  0.00     0.012 C 
ATOM     12  C   UNL     1      18.723  32.920  27.208  1.00  0.00     0.013 C 
ATOM     13  C   UNL     1      21.418  35.882  27.700  1.00  0.00     0.017 C 
ATOM     14  C   UNL     1      21.069  34.224  25.934  1.00  0.00    -0.064 C 
ATOM     15  C   UNL     1      18.841  35.372  25.457  1.00  0.00     0.032 C 
ATOM     16  C   UNL     1      20.165  34.703  25.007  1.00  0.00    -0.064 C 
ATOM     17  C   UNL     1      22.318  33.443  25.549  1.00  0.00     0.032 C 
ATOM     18  C   UNL     1      20.500  34.693  23.494  1.00  0.00    -0.008 C 
ATOM     19  C   UNL     1      22.733  33.614  24.090  1.00  0.00     0.009 C 
ATOM     20  C   UNL     1      21.483  33.507  23.183  1.00  0.00     0.009 C 
ATOM     21  C   UNL     1      19.194  34.441  22.673  1.00  0.00     0.015 C 
ATOM     22  C   UNL     1      21.073  36.114  23.165  1.00  0.00     0.016 C 
ATOM     23  C   UNL     1      21.757  33.202  21.651  1.00  0.00     0.005 C 
ATOM     24  C   UNL     1      19.451  34.252  21.178  1.00  0.00     0.047 C 
ATOM     25  C   UNL     1      20.374  33.060  20.925  1.00  0.00     0.182 C 
ATOM     26  C   UNL     1      22.648  34.279  20.974  1.00  0.00     0.015 C 
ATOM     27  C   UNL     1      22.484  31.838  21.520  1.00  0.00     0.015 C 
BRANCH   7  28
ATOM     28  O   UNL     1      20.431  32.408  30.355  1.00  0.00    -0.393 OA
ATOM     29  H   UNL     1      20.242  31.740  29.654  1.00  0.00     0.210 HD
ENDBRANCH   7  28
BRANCH  25  30
ATOM     30  O   UNL     1      20.516  32.885  19.506  1.00  0.00    -0.462 OA
BRANCH  30  31
ATOM     31  C   UNL     1      20.526  33.943  18.593  1.00  0.00     0.302 C 
ATOM     32  O   UNL     1      19.782  34.955  18.757  1.00  0.00    -0.253 OA
ATOM     33  C   UNL     1      21.407  33.876  17.404  1.00  0.00     0.139 C 
ENDBRANCH  30  31
ENDBRANCH  25  30
ENDBRANCH   2   6
ENDBRANCH   1   2
BRANCH   1  34
ATOM     34  C   UNL     1      16.321  32.260  30.756  1.00  0.00     0.031 C 
BRANCH  34  35
ATOM     35  C   UNL     1      16.951  32.250  32.128  1.00  0.00    -0.075 C 
ATOM     36  C   UNL     1      16.590  33.192  33.013  1.00  0.00     0.008 C 
BRANCH  35  37
ATOM     37  C   UNL     1      18.070  31.237  32.404  1.00  0.00     0.008 C 
ATOM     38  C   UNL     1      19.248  31.810  33.209  1.00  0.00     0.012 C 
ATOM     39  C   UNL     1      18.567  30.622  31.089  1.00  0.00     0.012 C 
ENDBRANCH  35  37
ENDBRANCH  34  35
ENDBRANCH   1  34
TORSDOF 9
ENDMDL
MODEL 4
REMARK VINA RESULT:    13.362      2.739      4.800
REMARK INTER + INTRA:          21.377
REMARK INTER:                  19.296
REMARK INTRA:                   2.081
REMARK UNBOUND:                 1.376
REMARK SMILES C=C(CC[C@H](C(=O)[O-])[C@H]1[C@@H](O)C[C@@]2(C)C3=C(CC[C@]12C)[C@]1(C)CC[C@@H](OC(C)=O)C(C)(C)[C@H]1CC3)C(C)C
REMARK SMILES IDX 4 1 5 2 6 3 7 4 8 5 9 6 10 7 19 8 12 9 13 10 18 11 20 12
REMARK SMILES IDX 14 13 15 14 17 15 16 16 35 17 21 18 34 19 33 20 23 21 22 22
REMARK SMILES IDX 30 23 24 24 25 25 31 26 32 27 11 28 26 30 27 31 29 32 28 33
REMARK SMILES IDX 3 34 2 35 1 36 36 37 37 38 38 39
REMARK H PARENT 11 29
REMARK Flexibility Score: inf
ROOT
ATOM      1  C   UNL     1      17.147  31.469  33.333  1.00  0.00     0.014 C 
ENDROOT
BRANCH   1   2
ATOM      2  C   UNL     1      18.267  31.789  34.346  1.00  0.00     0.042 C 
BRANCH   2   3
ATOM      3  C   UNL     1      17.828  32.845  35.330  1.00  0.00     0.045 C 
ATOM      4  O   UNL     1      18.492  33.909  35.479  1.00  0.00    -0.550 OA
ATOM      5  O   UNL     1      16.599  32.723  35.968  1.00  0.00    -0.550 OA
ENDBRANCH   2   3
BRANCH   2   6
ATOM      6  C   UNL     1      19.626  32.023  33.594  1.00  0.00     0.033 C 
ATOM      7  C   UNL     1      20.656  30.852  33.427  1.00  0.00     0.119 C 
ATOM      8  C   UNL     1      19.664  32.768  32.229  1.00  0.00    -0.017 C 
ATOM      9  C   UNL     1      21.452  31.159  32.136  1.00  0.00     0.043 C 
ATOM     10  C   UNL     1      21.168  32.649  31.844  1.00  0.00    -0.003 C 
ATOM     11  C   UNL     1      19.302  34.263  32.258  1.00  0.00     0.012 C 
ATOM     12  C   UNL     1      18.725  32.063  31.172  1.00  0.00     0.013 C 
ATOM     13  C   UNL     1      22.167  33.486  32.724  1.00  0.00     0.017 C 
ATOM     14  C   UNL     1      21.388  33.152  30.428  1.00  0.00    -0.064 C 
ATOM     15  C   UNL     1      19.618  34.930  30.893  1.00  0.00     0.032 C 
ATOM     16  C   UNL     1      20.693  34.265  29.997  1.00  0.00    -0.064 C 
ATOM     17  C   UNL     1      22.356  32.382  29.541  1.00  0.00     0.032 C 
ATOM     18  C   UNL     1      21.051  34.953  28.656  1.00  0.00    -0.008 C 
ATOM     19  C   UNL     1      22.843  33.168  28.325  1.00  0.00     0.009 C 
ATOM     20  C   UNL     1      21.644  33.888  27.663  1.00  0.00     0.009 C 
ATOM     21  C   UNL     1      19.753  35.526  28.001  1.00  0.00     0.015 C 
ATOM     22  C   UNL     1      22.031  36.122  29.013  1.00  0.00     0.016 C 
ATOM     23  C   UNL     1      21.857  34.363  26.164  1.00  0.00     0.005 C 
ATOM     24  C   UNL     1      19.983  36.080  26.594  1.00  0.00     0.047 C 
ATOM     25  C   UNL     1      20.515  34.996  25.657  1.00  0.00     0.182 C 
ATOM     26  C   UNL     1      23.047  35.349  26.009  1.00  0.00     0.015 C 
ATOM     27  C   UNL     1      22.146  33.129  25.271  1.00  0.00     0.015 C 
BRANCH   7  28
ATOM     28  O   UNL     1      20.116  29.554  33.375  1.00  0.00    -0.393 OA
ATOM     29  H   UNL     1      20.677  28.984  33.952  1.00  0.00     0.210 HD
ENDBRANCH   7  28
BRANCH  25  30
ATOM     30  O   UNL     1      20.636  35.553  24.338  1.00  0.00    -0.462 OA
BRANCH  30  31
ATOM     31  C   UNL     1      19.561  35.702  23.459  1.00  0.00     0.302 C 
ATOM     32  O   UNL     1      18.372  35.787  23.889  1.00  0.00    -0.253 OA
ATOM     33  C   UNL     1      19.808  35.745  21.999  1.00  0.00     0.139 C 
ENDBRANCH  30  31
ENDBRANCH  25  30
ENDBRANCH   2   6
ENDBRANCH   1   2
BRANCH   1  34
ATOM     34  C   UNL     1      15.982  32.481  33.353  1.00  0.00     0.031 C 
BRANCH  34  35
ATOM     35  C   UNL     1      16.169  33.537  32.290  1.00  0.00    -0.075 C 
ATOM     36  C   UNL     1      16.012  33.194  31.002  1.00  0.00     0.008 C 
BRANCH  35  37
ATOM     37  C   UNL     1      16.653  34.926  32.726  1.00  0.00     0.008 C 
ATOM     38  C   UNL     1      16.203  35.330  34.140  1.00  0.00     0.012 C 
ATOM     39  C   UNL     1      16.224  35.985  31.702  1.00  0.00     0.012 C 
ENDBRANCH  35  37
ENDBRANCH  34  35
ENDBRANCH   1  34
TORSDOF 9
ENDMDL
MODEL 5
REMARK VINA RESULT:    13.958      2.425     10.758
REMARK INTER + INTRA:          22.269
REMARK INTER:                  22.418
REMARK INTRA:                  -0.149
REMARK UNBOUND:                 1.376
REMARK SMILES C=C(CC[C@H](C(=O)[O-])[C@H]1[C@@H](O)C[C@@]2(C)C3=C(CC[C@]12C)[C@]1(C)CC[C@@H](OC(C)=O)C(C)(C)[C@H]1CC3)C(C)C
REMARK SMILES IDX 4 1 5 2 6 3 7 4 8 5 9 6 10 7 19 8 12 9 13 10 18 11 20 12
REMARK SMILES IDX 14 13 15 14 17 15 16 16 35 17 21 18 34 19 33 20 23 21 22 22
REMARK SMILES IDX 30 23 24 24 25 25 31 26 32 27 11 28 26 30 27 31 29 32 28 33
REMARK SMILES IDX 3 34 2 35 1 36 36 37 37 38 38 39
REMARK H PARENT 11 29
REMARK Flexibility Score: inf
ROOT
ATOM      1  C   UNL     1      22.521  32.002  19.224  1.00  0.00     0.014 C 
ENDROOT
BRANCH   1   2
ATOM      2  C   UNL     1      21.031  32.379  19.085  1.00  0.00     0.042 C 
BRANCH   2   3
ATOM      3  C   UNL     1      20.618  32.446  17.635  1.00  0.00     0.045 C 
ATOM      4  O   UNL     1      20.081  31.453  17.068  1.00  0.00    -0.550 OA
ATOM      5  O   UNL     1      20.681  33.657  16.957  1.00  0.00    -0.550 OA
ENDBRANCH   2   3
BRANCH   2   6
ATOM      6  C   UNL     1      20.700  33.620  19.988  1.00  0.00     0.033 C 
ATOM      7  C   UNL     1      19.426  34.493  19.709  1.00  0.00     0.119 C 
ATOM      8  C   UNL     1      20.764  33.518  21.539  1.00  0.00    -0.017 C 
ATOM      9  C   UNL     1      19.015  35.104  21.069  1.00  0.00     0.043 C 
ATOM     10  C   UNL     1      20.256  34.924  21.972  1.00  0.00    -0.003 C 
ATOM     11  C   UNL     1      22.160  33.313  22.151  1.00  0.00     0.012 C 
ATOM     12  C   UNL     1      19.827  32.361  22.069  1.00  0.00     0.013 C 
ATOM     13  C   UNL     1      21.223  36.125  21.663  1.00  0.00     0.017 C 
ATOM     14  C   UNL     1      20.054  34.969  23.476  1.00  0.00    -0.064 C 
ATOM     15  C   UNL     1      22.111  33.475  23.693  1.00  0.00     0.032 C 
ATOM     16  C   UNL     1      20.964  34.327  24.293  1.00  0.00    -0.064 C 
ATOM     17  C   UNL     1      18.835  35.707  24.010  1.00  0.00     0.032 C 
ATOM     18  C   UNL     1      20.938  34.537  25.828  1.00  0.00    -0.008 C 
ATOM     19  C   UNL     1      18.930  36.073  25.490  1.00  0.00     0.009 C 
ATOM     20  C   UNL     1      19.470  34.861  26.287  1.00  0.00     0.009 C 
ATOM     21  C   UNL     1      21.366  33.215  26.543  1.00  0.00     0.015 C 
ATOM     22  C   UNL     1      21.977  35.670  26.131  1.00  0.00     0.016 C 
ATOM     23  C   UNL     1      19.208  34.883  27.851  1.00  0.00     0.005 C 
ATOM     24  C   UNL     1      21.212  33.276  28.063  1.00  0.00     0.047 C 
ATOM     25  C   UNL     1      19.762  33.547  28.458  1.00  0.00     0.182 C 
ATOM     26  C   UNL     1      19.830  36.125  28.547  1.00  0.00     0.015 C 
ATOM     27  C   UNL     1      17.681  34.908  28.117  1.00  0.00     0.015 C 
BRANCH   7  28
ATOM     28  O   UNL     1      18.337  33.827  19.118  1.00  0.00    -0.393 OA
ATOM     29  H   UNL     1      18.401  33.974  18.145  1.00  0.00     0.210 HD
ENDBRANCH   7  28
BRANCH  25  30
ATOM     30  O   UNL     1      19.666  33.515  29.891  1.00  0.00    -0.462 OA
BRANCH  30  31
ATOM     31  C   UNL     1      20.774  33.537  30.742  1.00  0.00     0.302 C 
ATOM     32  O   UNL     1      21.671  34.425  30.624  1.00  0.00    -0.253 OA
ATOM     33  C   UNL     1      20.916  32.497  31.788  1.00  0.00     0.139 C 
ENDBRANCH  30  31
ENDBRANCH  25  30
ENDBRANCH   2   6
ENDBRANCH   1   2
BRANCH   1  34
ATOM     34  C   UNL     1      22.755  30.555  19.706  1.00  0.00     0.031 C 
BRANCH  34  35
ATOM     35  C   UNL     1      23.152  29.663  18.555  1.00  0.00    -0.075 C 
ATOM     36  C   UNL     1      22.189  29.149  17.772  1.00  0.00     0.008 C 
BRANCH  35  37
ATOM     37  C   UNL     1      24.631  29.282  18.409  1.00  0.00     0.008 C 
ATOM     38  C   UNL     1      25.100  29.139  16.952  1.00  0.00     0.012 C 
ATOM     39  C   UNL     1      24.930  28.001  19.198  1.00  0.00     0.012 C 
ENDBRANCH  35  37
ENDBRANCH  34  35
ENDBRANCH   1  34
TORSDOF 9
ENDMDL
