MODEL 1
REMARK VINA RESULT:    -2.720      0.000      0.000
REMARK INTER + INTRA:          -2.289
REMARK INTER:                  -3.833
REMARK INTRA:                   1.544
REMARK UNBOUND:                 1.544
REMARK SMILES CC1=CCC(=C(C)C)C(=O)CC(C)=CCC1
REMARK SMILES IDX 12 1 14 2 13 3 15 4 16 5 2 6 1 7 3 8 11 10 9 11 10 12 5 13
REMARK SMILES IDX 6 14 7 15 8 16 4 17
REMARK H PARENT
REMARK Flexibility Score: 60.00
ROOT
ATOM      1  C   UNL     1     102.397  46.425  54.090  1.00  0.00    -0.070 C 
ATOM      2  C   UNL     1     102.363  47.096  52.917  1.00  0.00    -0.027 C 
ATOM      3  C   UNL     1     101.457  45.260  54.264  1.00  0.00     0.039 C 
ENDROOT
BRANCH   2   4
ATOM      4  C   UNL     1     103.155  48.344  52.590  1.00  0.00     0.032 C 
BRANCH   4   5
ATOM      5  C   UNL     1     104.500  48.469  53.333  1.00  0.00     0.034 C 
BRANCH   5   6
ATOM      6  C   UNL     1     104.732  49.849  53.923  1.00  0.00    -0.077 C 
ATOM      7  C   UNL     1     106.030  50.543  53.594  1.00  0.00     0.039 C 
ATOM      8  C   UNL     1     103.882  50.466  54.781  1.00  0.00    -0.023 CG0
ATOM      9  G   UNL     1     102.524  49.971  55.237  1.00  0.00     0.000 G0
ENDBRANCH   5   6
ENDBRANCH   4   5
ENDBRANCH   2   4
BRANCH   1  10
ATOM     10  C   UNL     1     103.262  46.843  55.262  1.00  0.00     0.111 C 
BRANCH  10  11
ATOM     11  C   UNL     1     102.473  47.611  56.290  1.00  0.00     0.163 C 
ATOM     12  O   UNL     1     101.605  46.988  56.959  1.00  0.00    -0.294 OA
BRANCH  11  13
ATOM     13  C   UNL     1     102.640  49.081  56.494  1.00  0.00    -0.002 C 
ATOM     14  C   UNL     1     102.806  49.598  57.748  1.00  0.00    -0.069 C 
ATOM     15  C   UNL     1     102.819  51.089  58.004  1.00  0.00     0.039 C 
ATOM     16  C   UNL     1     102.983  48.697  58.951  1.00  0.00     0.039 C 
BRANCH  13  17
ATOM     17  C   UNL     1     102.523  49.971  55.267  1.00  0.00     0.066 CG0
ATOM     18  G   UNL     1     103.871  50.466  54.783  1.00  0.00     0.000 G0
ENDBRANCH  13  17
ENDBRANCH  11  13
ENDBRANCH  10  11
ENDBRANCH   1  10
TORSDOF 0
ENDMDL
MODEL 2
REMARK VINA RESULT:    -2.679      8.054     10.421
REMARK INTER + INTRA:          -2.232
REMARK INTER:                  -3.880
REMARK INTRA:                   1.648
REMARK UNBOUND:                 1.544
REMARK SMILES CC1=CCC(=C(C)C)C(=O)CC(C)=CCC1
REMARK SMILES IDX 12 1 14 2 13 3 15 4 16 5 2 6 1 7 3 8 11 10 9 11 10 12 5 13
REMARK SMILES IDX 6 14 7 15 8 16 4 17
REMARK H PARENT
REMARK Flexibility Score: 60.00
ROOT
ATOM      1  C   UNL     1     107.974  47.554  65.398  1.00  0.00    -0.070 C 
ATOM      2  C   UNL     1     108.634  46.546  64.786  1.00  0.00    -0.027 C 
ATOM      3  C   UNL     1     108.330  47.865  66.830  1.00  0.00     0.039 C 
ENDROOT
BRANCH   2   4
ATOM      4  C   UNL     1     108.354  46.023  63.394  1.00  0.00     0.032 C 
BRANCH   4   5
ATOM      5  C   UNL     1     109.102  46.760  62.264  1.00  0.00     0.034 C 
BRANCH   5   6
ATOM      6  C   UNL     1     108.308  47.911  61.672  1.00  0.00    -0.077 C 
ATOM      7  C   UNL     1     107.467  47.629  60.453  1.00  0.00     0.039 C 
ATOM      8  C   UNL     1     108.361  49.187  62.124  1.00  0.00    -0.023 CG0
ATOM      9  G   UNL     1     109.117  49.698  63.334  1.00  0.00     0.000 G0
ENDBRANCH   5   6
ENDBRANCH   4   5
ENDBRANCH   2   4
BRANCH   1  10
ATOM     10  C   UNL     1     106.839  48.320  64.749  1.00  0.00     0.111 C 
BRANCH  10  11
ATOM     11  C   UNL     1     107.035  49.808  64.864  1.00  0.00     0.163 C 
ATOM     12  O   UNL     1     106.132  50.484  65.430  1.00  0.00    -0.294 OA
BRANCH  11  13
ATOM     13  C   UNL     1     108.219  50.509  64.283  1.00  0.00    -0.002 C 
ATOM     14  C   UNL     1     108.434  51.837  64.525  1.00  0.00    -0.069 C 
ATOM     15  C   UNL     1     109.530  52.611  63.826  1.00  0.00     0.039 C 
ATOM     16  C   UNL     1     107.577  52.604  65.509  1.00  0.00     0.039 C 
BRANCH  13  17
ATOM     17  C   UNL     1     109.108  49.710  63.344  1.00  0.00     0.066 CG0
ATOM     18  G   UNL     1     108.353  49.193  62.135  1.00  0.00     0.000 G0
ENDBRANCH  13  17
ENDBRANCH  11  13
ENDBRANCH  10  11
ENDBRANCH   1  10
TORSDOF 0
ENDMDL
MODEL 3
REMARK VINA RESULT:    -2.607      8.234     10.884
REMARK INTER + INTRA:          -2.130
REMARK INTER:                  -3.342
REMARK INTRA:                   1.212
REMARK UNBOUND:                 1.544
REMARK SMILES CC1=CCC(=C(C)C)C(=O)CC(C)=CCC1
REMARK SMILES IDX 12 1 14 2 13 3 15 4 16 5 2 6 1 7 3 8 11 10 9 11 10 12 5 13
REMARK SMILES IDX 6 14 7 15 8 16 4 17
REMARK H PARENT
REMARK Flexibility Score: 60.00
ROOT
ATOM      1  C   UNL     1     107.945  47.307  65.714  1.00  0.00    -0.070 C 
ATOM      2  C   UNL     1     107.624  48.394  66.452  1.00  0.00    -0.027 C 
ATOM      3  C   UNL     1     108.971  46.353  66.273  1.00  0.00     0.039 C 
ENDROOT
BRANCH   2   4
ATOM      4  C   UNL     1     106.696  49.509  66.023  1.00  0.00     0.032 C 
BRANCH   4   5
ATOM      5  C   UNL     1     106.938  50.039  64.594  1.00  0.00     0.034 C 
BRANCH   5   6
ATOM      6  C   UNL     1     108.097  51.015  64.506  1.00  0.00    -0.077 C 
ATOM      7  C   UNL     1     107.820  52.462  64.830  1.00  0.00     0.039 C 
ATOM      8  C   UNL     1     109.344  50.687  64.089  1.00  0.00    -0.023 CG0
ATOM      9  G   UNL     1     109.854  49.305  63.730  1.00  0.00     0.000 G0
ENDBRANCH   5   6
ENDBRANCH   4   5
ENDBRANCH   2   4
BRANCH   1  10
ATOM     10  C   UNL     1     107.396  47.053  64.325  1.00  0.00     0.111 C 
BRANCH  10  11
ATOM     11  C   UNL     1     108.462  47.198  63.271  1.00  0.00     0.163 C 
ATOM     12  O   UNL     1     108.990  46.148  62.812  1.00  0.00    -0.294 OA
BRANCH  11  13
ATOM     13  C   UNL     1     108.953  48.529  62.804  1.00  0.00    -0.002 C 
ATOM     14  C   UNL     1     108.652  48.985  61.551  1.00  0.00    -0.069 C 
ATOM     15  C   UNL     1     109.262  50.252  60.993  1.00  0.00     0.039 C 
ATOM     16  C   UNL     1     107.690  48.237  60.655  1.00  0.00     0.039 C 
BRANCH  13  17
ATOM     17  C   UNL     1     109.870  49.300  63.741  1.00  0.00     0.066 CG0
ATOM     18  G   UNL     1     109.340  50.684  64.056  1.00  0.00     0.000 G0
ENDBRANCH  13  17
ENDBRANCH  11  13
ENDBRANCH  10  11
ENDBRANCH   1  10
TORSDOF 0
ENDMDL
MODEL 4
REMARK VINA RESULT:    -2.459      1.581      3.652
REMARK INTER + INTRA:          -1.922
REMARK INTER:                  -5.292
REMARK INTRA:                   3.370
REMARK UNBOUND:                 1.544
REMARK SMILES CC1=CCC(=C(C)C)C(=O)CC(C)=CCC1
REMARK SMILES IDX 12 1 14 2 13 3 15 4 16 5 2 6 1 7 3 8 11 10 9 11 10 12 5 13
REMARK SMILES IDX 6 14 7 15 8 16 4 17
REMARK H PARENT
REMARK Flexibility Score: 60.00
ROOT
ATOM      1  C   UNL     1     102.932  47.505  53.782  1.00  0.00    -0.070 C 
ATOM      2  C   UNL     1     101.902  47.167  54.589  1.00  0.00    -0.027 C 
ATOM      3  C   UNL     1     102.627  47.804  52.336  1.00  0.00     0.039 C 
ENDROOT
BRANCH   2   4
ATOM      4  C   UNL     1     102.017  46.740  56.036  1.00  0.00     0.032 C 
BRANCH   4   5
ATOM      5  C   UNL     1     103.339  47.136  56.724  1.00  0.00     0.034 C 
BRANCH   5   6
ATOM      6  C   UNL     1     103.216  48.377  57.590  1.00  0.00    -0.077 C 
ATOM      7  C   UNL     1     103.437  48.222  59.073  1.00  0.00     0.039 C 
ATOM      8  C   UNL     1     102.852  49.598  57.127  1.00  0.00    -0.023 CG0
ATOM      9  G   UNL     1     102.599  49.992  55.686  1.00  0.00     0.000 G0
ENDBRANCH   5   6
ENDBRANCH   4   5
ENDBRANCH   2   4
BRANCH   1  10
ATOM     10  C   UNL     1     104.377  47.509  54.236  1.00  0.00     0.111 C 
BRANCH  10  11
ATOM     11  C   UNL     1     104.750  48.811  54.895  1.00  0.00     0.163 C 
ATOM     12  O   UNL     1     105.819  48.855  55.562  1.00  0.00    -0.294 OA
BRANCH  11  13
ATOM     13  C   UNL     1     103.874  50.019  54.836  1.00  0.00    -0.002 C 
ATOM     14  C   UNL     1     104.252  51.123  54.125  1.00  0.00    -0.069 C 
ATOM     15  C   UNL     1     103.466  52.415  54.174  1.00  0.00     0.039 C 
ATOM     16  C   UNL     1     105.486  51.108  53.250  1.00  0.00     0.039 C 
BRANCH  13  17
ATOM     17  C   UNL     1     102.603  49.998  55.671  1.00  0.00     0.066 CG0
ATOM     18  G   UNL     1     102.866  49.598  57.110  1.00  0.00     0.000 G0
ENDBRANCH  13  17
ENDBRANCH  11  13
ENDBRANCH  10  11
ENDBRANCH   1  10
TORSDOF 0
ENDMDL
MODEL 5
REMARK VINA RESULT:    -2.085      1.283      3.898
REMARK INTER + INTRA:          -1.394
REMARK INTER:                  -2.718
REMARK INTRA:                   1.324
REMARK UNBOUND:                 1.544
REMARK SMILES CC1=CCC(=C(C)C)C(=O)CC(C)=CCC1
REMARK SMILES IDX 12 1 14 2 13 3 15 4 16 5 2 6 1 7 3 8 11 10 9 11 10 12 5 13
REMARK SMILES IDX 6 14 7 15 8 16 4 17
REMARK H PARENT
REMARK Flexibility Score: 60.00
ROOT
ATOM      1  C   UNL     1     102.965  48.753  57.678  1.00  0.00    -0.070 C 
ATOM      2  C   UNL     1     103.239  50.076  57.725  1.00  0.00    -0.027 C 
ATOM      3  C   UNL     1     103.712  47.843  58.620  1.00  0.00     0.039 C 
ENDROOT
BRANCH   2   4
ATOM      4  C   UNL     1     102.669  51.130  56.800  1.00  0.00     0.032 C 
BRANCH   4   5
ATOM      5  C   UNL     1     102.610  50.722  55.314  1.00  0.00     0.034 C 
BRANCH   5   6
ATOM      6  C   UNL     1     103.923  50.934  54.582  1.00  0.00    -0.077 C 
ATOM      7  C   UNL     1     104.179  52.293  53.980  1.00  0.00     0.039 C 
ATOM      8  C   UNL     1     104.848  49.965  54.375  1.00  0.00    -0.023 CG0
ATOM      9  G   UNL     1     104.815  48.542  54.897  1.00  0.00     0.000 G0
ENDBRANCH   5   6
ENDBRANCH   4   5
ENDBRANCH   2   4
BRANCH   1  10
ATOM     10  C   UNL     1     102.018  48.136  56.669  1.00  0.00     0.111 C 
BRANCH  10  11
ATOM     11  C   UNL     1     102.747  47.252  55.691  1.00  0.00     0.163 C 
ATOM     12  O   UNL     1     102.715  46.006  55.878  1.00  0.00    -0.294 OA
BRANCH  11  13
ATOM     13  C   UNL     1     103.548  47.802  54.556  1.00  0.00    -0.002 C 
ATOM     14  C   UNL     1     103.174  47.575  53.261  1.00  0.00    -0.069 C 
ATOM     15  C   UNL     1     104.046  47.980  52.093  1.00  0.00     0.039 C 
ATOM     16  C   UNL     1     101.861  46.897  52.932  1.00  0.00     0.039 C 
BRANCH  13  17
ATOM     17  C   UNL     1     104.834  48.535  54.904  1.00  0.00     0.066 CG0
ATOM     18  G   UNL     1     104.848  49.956  54.377  1.00  0.00     0.000 G0
ENDBRANCH  13  17
ENDBRANCH  11  13
ENDBRANCH  10  11
ENDBRANCH   1  10
TORSDOF 0
ENDMDL
MODEL 6
REMARK VINA RESULT:    -1.907      1.640      1.996
REMARK INTER + INTRA:          -1.144
REMARK INTER:                  -2.515
REMARK INTRA:                   1.371
REMARK UNBOUND:                 1.544
REMARK SMILES CC1=CCC(=C(C)C)C(=O)CC(C)=CCC1
REMARK SMILES IDX 12 1 14 2 13 3 15 4 16 5 2 6 1 7 3 8 11 10 9 11 10 12 5 13
REMARK SMILES IDX 6 14 7 15 8 16 4 17
REMARK H PARENT
REMARK Flexibility Score: 60.00
ROOT
ATOM      1  C   UNL     1     102.010  46.703  54.680  1.00  0.00    -0.070 C 
ATOM      2  C   UNL     1     102.713  47.120  53.604  1.00  0.00    -0.027 C 
ATOM      3  C   UNL     1     101.631  45.245  54.754  1.00  0.00     0.039 C 
ENDROOT
BRANCH   2   4
ATOM      4  C   UNL     1     103.100  48.552  53.302  1.00  0.00     0.032 C 
BRANCH   4   5
ATOM      5  C   UNL     1     104.604  48.774  53.046  1.00  0.00     0.034 C 
BRANCH   5   6
ATOM      6  C   UNL     1     105.260  49.676  54.077  1.00  0.00    -0.077 C 
ATOM      7  C   UNL     1     105.749  51.027  53.616  1.00  0.00     0.039 C 
ATOM      8  C   UNL     1     105.496  49.321  55.363  1.00  0.00    -0.023 CG0
ATOM      9  G   UNL     1     105.082  48.034  56.047  1.00  0.00     0.000 G0
ENDBRANCH   5   6
ENDBRANCH   4   5
ENDBRANCH   2   4
BRANCH   1  10
ATOM     10  C   UNL     1     101.509  47.639  55.761  1.00  0.00     0.111 C 
BRANCH  10  11
ATOM     11  C   UNL     1     102.571  48.620  56.182  1.00  0.00     0.163 C 
ATOM     12  O   UNL     1     102.422  49.831  55.864  1.00  0.00    -0.294 OA
BRANCH  11  13
ATOM     13  C   UNL     1     103.811  48.199  56.901  1.00  0.00    -0.002 C 
ATOM     14  C   UNL     1     103.815  48.047  58.259  1.00  0.00    -0.069 C 
ATOM     15  C   UNL     1     105.088  47.778  59.032  1.00  0.00     0.039 C 
ATOM     16  C   UNL     1     102.536  48.147  59.063  1.00  0.00     0.039 C 
BRANCH  13  17
ATOM     17  C   UNL     1     105.076  48.042  56.072  1.00  0.00     0.066 CG0
ATOM     18  G   UNL     1     105.463  49.323  55.361  1.00  0.00     0.000 G0
ENDBRANCH  13  17
ENDBRANCH  11  13
ENDBRANCH  10  11
ENDBRANCH   1  10
TORSDOF 0
ENDMDL
MODEL 7
REMARK VINA RESULT:    -1.397      1.695      4.283
REMARK INTER + INTRA:          -0.426
REMARK INTER:                  -3.025
REMARK INTRA:                   2.599
REMARK UNBOUND:                 1.544
REMARK SMILES CC1=CCC(=C(C)C)C(=O)CC(C)=CCC1
REMARK SMILES IDX 12 1 14 2 13 3 15 4 16 5 2 6 1 7 3 8 11 10 9 11 10 12 5 13
REMARK SMILES IDX 6 14 7 15 8 16 4 17
REMARK H PARENT
REMARK Flexibility Score: 60.00
ROOT
ATOM      1  C   UNL     1     104.714  50.390  53.973  1.00  0.00    -0.070 C 
ATOM      2  C   UNL     1     103.888  51.359  54.425  1.00  0.00    -0.027 C 
ATOM      3  C   UNL     1     106.125  50.777  53.608  1.00  0.00     0.039 C 
ENDROOT
BRANCH   2   4
ATOM      4  C   UNL     1     102.419  51.189  54.748  1.00  0.00     0.032 C 
BRANCH   4   5
ATOM      5  C   UNL     1     102.084  49.945  55.597  1.00  0.00     0.034 C 
BRANCH   5   6
ATOM      6  C   UNL     1     102.691  49.988  56.988  1.00  0.00    -0.077 C 
ATOM      7  C   UNL     1     102.778  51.328  57.674  1.00  0.00     0.039 C 
ATOM      8  C   UNL     1     103.223  48.915  57.623  1.00  0.00    -0.023 CG0
ATOM      9  G   UNL     1     103.234  47.479  57.138  1.00  0.00     0.000 G0
ENDBRANCH   5   6
ENDBRANCH   4   5
ENDBRANCH   2   4
BRANCH   1  10
ATOM     10  C   UNL     1     104.267  48.962  53.731  1.00  0.00     0.111 C 
BRANCH  10  11
ATOM     11  C   UNL     1     104.458  48.104  54.953  1.00  0.00     0.163 C 
ATOM     12  O   UNL     1     105.629  47.954  55.396  1.00  0.00    -0.294 OA
BRANCH  11  13
ATOM     13  C   UNL     1     103.327  47.384  55.612  1.00  0.00    -0.002 C 
ATOM     14  C   UNL     1     102.372  46.752  54.867  1.00  0.00    -0.069 C 
ATOM     15  C   UNL     1     101.134  46.152  55.496  1.00  0.00     0.039 C 
ATOM     16  C   UNL     1     102.506  46.624  53.365  1.00  0.00     0.039 C 
BRANCH  13  17
ATOM     17  C   UNL     1     103.239  47.468  57.128  1.00  0.00     0.066 CG0
ATOM     18  G   UNL     1     103.227  48.900  57.626  1.00  0.00     0.000 G0
ENDBRANCH  13  17
ENDBRANCH  11  13
ENDBRANCH  10  11
ENDBRANCH   1  10
TORSDOF 0
ENDMDL
MODEL 8
REMARK VINA RESULT:    -1.330      1.826      4.772
REMARK INTER + INTRA:          -0.330
REMARK INTER:                  -1.679
REMARK INTRA:                   1.348
REMARK UNBOUND:                 1.544
REMARK SMILES CC1=CCC(=C(C)C)C(=O)CC(C)=CCC1
REMARK SMILES IDX 12 1 14 2 13 3 15 4 16 5 2 6 1 7 3 8 11 10 9 11 10 12 5 13
REMARK SMILES IDX 6 14 7 15 8 16 4 17
REMARK H PARENT
REMARK Flexibility Score: 60.00
ROOT
ATOM      1  C   UNL     1     103.380  50.638  54.833  1.00  0.00    -0.070 C 
ATOM      2  C   UNL     1     102.731  50.924  55.983  1.00  0.00    -0.027 C 
ATOM      3  C   UNL     1     102.729  51.046  53.535  1.00  0.00     0.039 C 
ENDROOT
BRANCH   2   4
ATOM      4  C   UNL     1     103.171  50.513  57.372  1.00  0.00     0.032 C 
BRANCH   4   5
ATOM      5  C   UNL     1     102.285  49.442  58.040  1.00  0.00     0.034 C 
BRANCH   5   6
ATOM      6  C   UNL     1     102.996  48.116  58.239  1.00  0.00    -0.077 C 
ATOM      7  C   UNL     1     103.744  47.908  59.533  1.00  0.00     0.039 C 
ATOM      8  C   UNL     1     103.062  47.136  57.305  1.00  0.00    -0.023 CG0
ATOM      9  G   UNL     1     102.381  47.116  55.951  1.00  0.00     0.000 G0
ENDBRANCH   5   6
ENDBRANCH   4   5
ENDBRANCH   2   4
BRANCH   1  10
ATOM     10  C   UNL     1     104.675  49.853  54.781  1.00  0.00     0.111 C 
BRANCH  10  11
ATOM     11  C   UNL     1     104.478  48.427  55.223  1.00  0.00     0.163 C 
ATOM     12  O   UNL     1     105.389  47.885  55.905  1.00  0.00    -0.294 OA
BRANCH  11  13
ATOM     13  C   UNL     1     103.281  47.624  54.831  1.00  0.00    -0.002 C 
ATOM     14  C   UNL     1     102.971  47.428  53.515  1.00  0.00    -0.069 C 
ATOM     15  C   UNL     1     101.684  46.757  53.086  1.00  0.00     0.039 C 
ATOM     16  C   UNL     1     103.905  47.879  52.413  1.00  0.00     0.039 C 
BRANCH  13  17
ATOM     17  C   UNL     1     102.382  47.123  55.951  1.00  0.00     0.066 CG0
ATOM     18  G   UNL     1     103.073  47.150  57.300  1.00  0.00     0.000 G0
ENDBRANCH  13  17
ENDBRANCH  11  13
ENDBRANCH  10  11
ENDBRANCH   1  10
TORSDOF 0
ENDMDL
MODEL 9
REMARK VINA RESULT:    -1.307      1.625      3.628
REMARK INTER + INTRA:          -0.298
REMARK INTER:                  -3.301
REMARK INTRA:                   3.003
REMARK UNBOUND:                 1.544
REMARK SMILES CC1=CCC(=C(C)C)C(=O)CC(C)=CCC1
REMARK SMILES IDX 12 1 14 2 13 3 15 4 16 5 2 6 1 7 3 8 11 10 9 11 10 12 5 13
REMARK SMILES IDX 6 14 7 15 8 16 4 17
REMARK H PARENT
REMARK Flexibility Score: 60.00
ROOT
ATOM      1  C   UNL     1     104.512  49.566  53.558  1.00  0.00    -0.070 C 
ATOM      2  C   UNL     1     104.694  48.423  52.860  1.00  0.00    -0.027 C 
ATOM      3  C   UNL     1     105.738  50.318  54.012  1.00  0.00     0.039 C 
ENDROOT
BRANCH   2   4
ATOM      4  C   UNL     1     103.598  47.483  52.404  1.00  0.00     0.032 C 
BRANCH   4   5
ATOM      5  C   UNL     1     102.319  47.516  53.265  1.00  0.00     0.034 C 
BRANCH   5   6
ATOM      6  C   UNL     1     102.365  46.559  54.443  1.00  0.00    -0.077 C 
ATOM      7  C   UNL     1     101.480  45.339  54.390  1.00  0.00     0.039 C 
ATOM      8  C   UNL     1     103.094  46.765  55.567  1.00  0.00    -0.023 CG0
ATOM      9  G   UNL     1     104.059  47.903  55.835  1.00  0.00     0.000 G0
ENDBRANCH   5   6
ENDBRANCH   4   5
ENDBRANCH   2   4
BRANCH   1  10
ATOM     10  C   UNL     1     103.149  50.076  53.980  1.00  0.00     0.111 C 
BRANCH  10  11
ATOM     11  C   UNL     1     103.055  50.239  55.474  1.00  0.00     0.163 C 
ATOM     12  O   UNL     1     102.750  51.374  55.930  1.00  0.00    -0.294 OA
BRANCH  11  13
ATOM     13  C   UNL     1     103.368  49.129  56.423  1.00  0.00    -0.002 C 
ATOM     14  C   UNL     1     103.118  49.260  57.760  1.00  0.00    -0.069 C 
ATOM     15  C   UNL     1     103.568  48.222  58.765  1.00  0.00     0.039 C 
ATOM     16  C   UNL     1     102.376  50.462  58.305  1.00  0.00     0.039 C 
BRANCH  13  17
ATOM     17  C   UNL     1     104.058  47.900  55.852  1.00  0.00     0.066 CG0
ATOM     18  G   UNL     1     103.085  46.773  55.566  1.00  0.00     0.000 G0
ENDBRANCH  13  17
ENDBRANCH  11  13
ENDBRANCH  10  11
ENDBRANCH   1  10
TORSDOF 0
ENDMDL
