MODEL 1
REMARK VINA RESULT:    -3.843      0.000      0.000
REMARK INTER + INTRA:          -4.207
REMARK INTER:                  -4.180
REMARK INTRA:                  -0.027
REMARK UNBOUND:                -0.027
REMARK SMILES COc1ccccc1O
REMARK SMILES IDX 3 1 4 2 5 3 6 4 7 5 8 6 2 7 1 8 9 9
REMARK H PARENT 9 10
REMARK Flexibility Score: inf
ROOT
ATOM      1  C   UNL     1     -20.627  18.986 -23.275  1.00  0.00     0.160 A 
ATOM      2  C   UNL     1     -21.369  19.142 -22.088  1.00  0.00     0.050 A 
ATOM      3  C   UNL     1     -21.116  20.222 -21.235  1.00  0.00     0.004 A 
ATOM      4  C   UNL     1     -20.127  21.152 -21.558  1.00  0.00     0.004 A 
ATOM      5  C   UNL     1     -19.386  21.007 -22.733  1.00  0.00     0.050 A 
ATOM      6  C   UNL     1     -19.634  19.926 -23.593  1.00  0.00     0.157 A 
ENDROOT
BRANCH   1   7
ATOM      7  O   UNL     1     -20.846  17.918 -24.159  1.00  0.00    -0.493 OA
ATOM      8  C   UNL     1     -21.804  16.885 -23.951  1.00  0.00     0.278 C 
ENDBRANCH   1   7
BRANCH   6   9
ATOM      9  O   UNL     1     -18.895  19.779 -24.765  1.00  0.00    -0.504 OA
ATOM     10  H   UNL     1     -19.208  20.178 -25.643  1.00  0.00     0.293 HD
ENDBRANCH   6   9
TORSDOF 2
ENDMDL
MODEL 2
REMARK VINA RESULT:    -3.678      7.986      9.322
REMARK INTER + INTRA:          -4.027
REMARK INTER:                  -3.999
REMARK INTRA:                  -0.028
REMARK UNBOUND:                -0.027
REMARK SMILES COc1ccccc1O
REMARK SMILES IDX 3 1 4 2 5 3 6 4 7 5 8 6 2 7 1 8 9 9
REMARK H PARENT 9 10
REMARK Flexibility Score: inf
ROOT
ATOM      1  C   UNL     1     -14.772  22.172 -16.939  1.00  0.00     0.160 A 
ATOM      2  C   UNL     1     -15.915  21.560 -17.491  1.00  0.00     0.050 A 
ATOM      3  C   UNL     1     -16.027  20.166 -17.512  1.00  0.00     0.004 A 
ATOM      4  C   UNL     1     -15.008  19.373 -16.984  1.00  0.00     0.004 A 
ATOM      5  C   UNL     1     -13.871  19.970 -16.434  1.00  0.00     0.050 A 
ATOM      6  C   UNL     1     -13.750  21.367 -16.410  1.00  0.00     0.157 A 
ENDROOT
BRANCH   1   7
ATOM      7  O   UNL     1     -14.615  23.566 -16.897  1.00  0.00    -0.493 OA
ATOM      8  C   UNL     1     -15.691  24.498 -16.956  1.00  0.00     0.278 C 
ENDBRANCH   1   7
BRANCH   6   9
ATOM      9  O   UNL     1     -12.617  21.964 -15.861  1.00  0.00    -0.504 OA
ATOM     10  H   UNL     1     -11.707  21.881 -16.301  1.00  0.00     0.293 HD
ENDBRANCH   6   9
TORSDOF 2
ENDMDL
MODEL 3
REMARK VINA RESULT:    -3.638      7.890      8.792
REMARK INTER + INTRA:          -3.984
REMARK INTER:                  -3.940
REMARK INTRA:                  -0.044
REMARK UNBOUND:                -0.027
REMARK SMILES COc1ccccc1O
REMARK SMILES IDX 3 1 4 2 5 3 6 4 7 5 8 6 2 7 1 8 9 9
REMARK H PARENT 9 10
REMARK Flexibility Score: inf
ROOT
ATOM      1  C   UNL     1     -14.570  19.924 -16.886  1.00  0.00     0.160 A 
ATOM      2  C   UNL     1     -15.902  19.823 -17.336  1.00  0.00     0.050 A 
ATOM      3  C   UNL     1     -16.645  20.977 -17.607  1.00  0.00     0.004 A 
ATOM      4  C   UNL     1     -16.070  22.236 -17.434  1.00  0.00     0.004 A 
ATOM      5  C   UNL     1     -14.750  22.348 -16.989  1.00  0.00     0.050 A 
ATOM      6  C   UNL     1     -13.999  21.195 -16.715  1.00  0.00     0.157 A 
ENDROOT
BRANCH   1   7
ATOM      7  O   UNL     1     -13.788  18.794 -16.602  1.00  0.00    -0.493 OA
ATOM      8  C   UNL     1     -13.838  18.070 -15.377  1.00  0.00     0.278 C 
ENDBRANCH   1   7
BRANCH   6   9
ATOM      9  O   UNL     1     -12.683  21.304 -16.271  1.00  0.00    -0.504 OA
ATOM     10  H   UNL     1     -12.427  21.104 -15.311  1.00  0.00     0.293 HD
ENDBRANCH   6   9
TORSDOF 2
ENDMDL
MODEL 4
REMARK VINA RESULT:    -3.621     11.429     11.881
REMARK INTER + INTRA:          -3.965
REMARK INTER:                  -3.923
REMARK INTRA:                  -0.042
REMARK UNBOUND:                -0.027
REMARK SMILES COc1ccccc1O
REMARK SMILES IDX 3 1 4 2 5 3 6 4 7 5 8 6 2 7 1 8 9 9
REMARK H PARENT 9 10
REMARK Flexibility Score: inf
ROOT
ATOM      1  C   UNL     1     -13.753  15.714 -13.638  1.00  0.00     0.160 A 
ATOM      2  C   UNL     1     -13.405  16.907 -12.972  1.00  0.00     0.050 A 
ATOM      3  C   UNL     1     -13.355  18.117 -13.673  1.00  0.00     0.004 A 
ATOM      4  C   UNL     1     -13.649  18.150 -15.036  1.00  0.00     0.004 A 
ATOM      5  C   UNL     1     -13.996  16.973 -15.706  1.00  0.00     0.050 A 
ATOM      6  C   UNL     1     -14.048  15.756 -15.010  1.00  0.00     0.157 A 
ENDROOT
BRANCH   1   7
ATOM      7  O   UNL     1     -13.815  14.479 -12.977  1.00  0.00    -0.493 OA
ATOM      8  C   UNL     1     -12.690  13.643 -12.726  1.00  0.00     0.278 C 
ENDBRANCH   1   7
BRANCH   6   9
ATOM      9  O   UNL     1     -14.393  14.582 -15.677  1.00  0.00    -0.504 OA
ATOM     10  H   UNL     1     -13.688  13.949 -16.039  1.00  0.00     0.293 HD
ENDBRANCH   6   9
TORSDOF 2
ENDMDL
MODEL 5
REMARK VINA RESULT:    -3.612      8.106      8.317
REMARK INTER + INTRA:          -3.956
REMARK INTER:                  -3.910
REMARK INTRA:                  -0.046
REMARK UNBOUND:                -0.027
REMARK SMILES COc1ccccc1O
REMARK SMILES IDX 3 1 4 2 5 3 6 4 7 5 8 6 2 7 1 8 9 9
REMARK H PARENT 9 10
REMARK Flexibility Score: inf
ROOT
ATOM      1  C   UNL     1     -15.496  21.170 -16.991  1.00  0.00     0.160 A 
ATOM      2  C   UNL     1     -16.417  21.399 -15.949  1.00  0.00     0.050 A 
ATOM      3  C   UNL     1     -16.801  22.704 -15.622  1.00  0.00     0.004 A 
ATOM      4  C   UNL     1     -16.275  23.787 -16.327  1.00  0.00     0.004 A 
ATOM      5  C   UNL     1     -15.362  23.570 -17.362  1.00  0.00     0.050 A 
ATOM      6  C   UNL     1     -14.971  22.265 -17.696  1.00  0.00     0.157 A 
ENDROOT
BRANCH   1   7
ATOM      7  O   UNL     1     -15.082  19.879 -17.353  1.00  0.00    -0.493 OA
ATOM      8  C   UNL     1     -14.160  19.091 -16.607  1.00  0.00     0.278 C 
ENDBRANCH   1   7
BRANCH   6   9
ATOM      9  O   UNL     1     -14.061  22.047 -18.728  1.00  0.00    -0.504 OA
ATOM     10  H   UNL     1     -13.230  22.619 -18.833  1.00  0.00     0.293 HD
ENDBRANCH   6   9
TORSDOF 2
ENDMDL
MODEL 6
REMARK VINA RESULT:    -3.592     11.656     12.497
REMARK INTER + INTRA:          -3.934
REMARK INTER:                  -3.899
REMARK INTRA:                  -0.035
REMARK UNBOUND:                -0.027
REMARK SMILES COc1ccccc1O
REMARK SMILES IDX 3 1 4 2 5 3 6 4 7 5 8 6 2 7 1 8 9 9
REMARK H PARENT 9 10
REMARK Flexibility Score: inf
ROOT
ATOM      1  C   UNL     1     -25.464  15.479 -12.825  1.00  0.00     0.160 A 
ATOM      2  C   UNL     1     -24.573  16.570 -12.848  1.00  0.00     0.050 A 
ATOM      3  C   UNL     1     -25.062  17.880 -12.870  1.00  0.00     0.004 A 
ATOM      4  C   UNL     1     -26.438  18.115 -12.869  1.00  0.00     0.004 A 
ATOM      5  C   UNL     1     -27.330  17.040 -12.845  1.00  0.00     0.050 A 
ATOM      6  C   UNL     1     -26.847  15.723 -12.824  1.00  0.00     0.157 A 
ENDROOT
BRANCH   1   7
ATOM      7  O   UNL     1     -25.019  14.149 -12.803  1.00  0.00    -0.493 OA
ATOM      8  C   UNL     1     -24.685  13.432 -11.619  1.00  0.00     0.278 C 
ENDBRANCH   1   7
BRANCH   6   9
ATOM      9  O   UNL     1     -27.736  14.650 -12.801  1.00  0.00    -0.504 OA
ATOM     10  H   UNL     1     -28.162  14.295 -13.649  1.00  0.00     0.293 HD
ENDBRANCH   6   9
TORSDOF 2
ENDMDL
MODEL 7
REMARK VINA RESULT:    -3.574      9.071     10.408
REMARK INTER + INTRA:          -3.915
REMARK INTER:                  -3.886
REMARK INTRA:                  -0.029
REMARK UNBOUND:                -0.027
REMARK SMILES COc1ccccc1O
REMARK SMILES IDX 3 1 4 2 5 3 6 4 7 5 8 6 2 7 1 8 9 9
REMARK H PARENT 9 10
REMARK Flexibility Score: inf
ROOT
ATOM      1  C   UNL     1     -13.579  21.573 -15.861  1.00  0.00     0.160 A 
ATOM      2  C   UNL     1     -14.545  22.045 -16.771  1.00  0.00     0.050 A 
ATOM      3  C   UNL     1     -15.395  21.148 -17.427  1.00  0.00     0.004 A 
ATOM      4  C   UNL     1     -15.291  19.778 -17.181  1.00  0.00     0.004 A 
ATOM      5  C   UNL     1     -14.337  19.299 -16.280  1.00  0.00     0.050 A 
ATOM      6  C   UNL     1     -13.480  20.193 -15.619  1.00  0.00     0.157 A 
ENDROOT
BRANCH   1   7
ATOM      7  O   UNL     1     -12.706  22.436 -15.182  1.00  0.00    -0.493 OA
ATOM      8  C   UNL     1     -12.988  23.801 -14.893  1.00  0.00     0.278 C 
ENDBRANCH   1   7
BRANCH   6   9
ATOM      9  O   UNL     1     -12.528  19.718 -14.720  1.00  0.00    -0.504 OA
ATOM     10  H   UNL     1     -12.513  20.019 -13.753  1.00  0.00     0.293 HD
ENDBRANCH   6   9
TORSDOF 2
ENDMDL
MODEL 8
REMARK VINA RESULT:    -3.570      8.789      9.498
REMARK INTER + INTRA:          -3.910
REMARK INTER:                  -3.876
REMARK INTRA:                  -0.034
REMARK UNBOUND:                -0.027
REMARK SMILES COc1ccccc1O
REMARK SMILES IDX 3 1 4 2 5 3 6 4 7 5 8 6 2 7 1 8 9 9
REMARK H PARENT 9 10
REMARK Flexibility Score: inf
ROOT
ATOM      1  C   UNL     1     -14.834  22.880 -16.230  1.00  0.00     0.160 A 
ATOM      2  C   UNL     1     -16.103  22.269 -16.165  1.00  0.00     0.050 A 
ATOM      3  C   UNL     1     -17.252  22.996 -16.493  1.00  0.00     0.004 A 
ATOM      4  C   UNL     1     -17.149  24.330 -16.889  1.00  0.00     0.004 A 
ATOM      5  C   UNL     1     -15.896  24.944 -16.957  1.00  0.00     0.050 A 
ATOM      6  C   UNL     1     -14.738  24.223 -16.629  1.00  0.00     0.157 A 
ENDROOT
BRANCH   1   7
ATOM      7  O   UNL     1     -13.655  22.191 -15.910  1.00  0.00    -0.493 OA
ATOM      8  C   UNL     1     -13.357  20.865 -16.336  1.00  0.00     0.278 C 
ENDBRANCH   1   7
BRANCH   6   9
ATOM      9  O   UNL     1     -13.488  24.834 -16.696  1.00  0.00    -0.504 OA
ATOM     10  H   UNL     1     -13.348  25.704 -17.197  1.00  0.00     0.293 HD
ENDBRANCH   6   9
TORSDOF 2
ENDMDL
MODEL 9
REMARK VINA RESULT:    -3.516      8.065      9.720
REMARK INTER + INTRA:          -3.851
REMARK INTER:                  -3.816
REMARK INTRA:                  -0.036
REMARK UNBOUND:                -0.027
REMARK SMILES COc1ccccc1O
REMARK SMILES IDX 3 1 4 2 5 3 6 4 7 5 8 6 2 7 1 8 9 9
REMARK H PARENT 9 10
REMARK Flexibility Score: inf
ROOT
ATOM      1  C   UNL     1     -14.847  23.942 -16.610  1.00  0.00     0.160 A 
ATOM      2  C   UNL     1     -16.062  24.563 -16.962  1.00  0.00     0.050 A 
ATOM      3  C   UNL     1     -17.031  23.859 -17.684  1.00  0.00     0.004 A 
ATOM      4  C   UNL     1     -16.799  22.535 -18.060  1.00  0.00     0.004 A 
ATOM      5  C   UNL     1     -15.599  21.909 -17.715  1.00  0.00     0.050 A 
ATOM      6  C   UNL     1     -14.622  22.610 -16.991  1.00  0.00     0.157 A 
ENDROOT
BRANCH   1   7
ATOM      7  O   UNL     1     -13.847  24.610 -15.887  1.00  0.00    -0.493 OA
ATOM      8  C   UNL     1     -14.075  25.343 -14.687  1.00  0.00     0.278 C 
ENDBRANCH   1   7
BRANCH   6   9
ATOM      9  O   UNL     1     -13.424  21.987 -16.646  1.00  0.00    -0.504 OA
ATOM     10  H   UNL     1     -13.389  21.249 -15.952  1.00  0.00     0.293 HD
ENDBRANCH   6   9
TORSDOF 2
ENDMDL
