MODEL 1
REMARK VINA RESULT:    -2.859      0.000      0.000
REMARK INTER + INTRA:          -6.573
REMARK INTER:                  -4.697
REMARK INTRA:                  -1.876
REMARK UNBOUND:                -1.876
REMARK SMILES COc1ccc([C@@H]2CC(=O)c3c(O)cc(O[C@H]4O[C@H](CO[C@@H]5O[C@@H](C)[C@H](O)[C@H](O)[C@H]5O)[C@H](O)[C@@H](O)[C@H]4O)cc3O2)cc1O
REMARK SMILES IDX 19 1 32 2 34 3 36 4 17 5 18 6 20 7 21 8 22 9 25 10 24 11
REMARK SMILES IDX 26 12 23 13 28 14 30 15 27 16 29 18 31 20 33 22 35 24 16 26
REMARK SMILES IDX 15 27 14 28 38 29 12 30 39 31 11 32 40 33 9 34 7 35 10 36
REMARK SMILES IDX 8 37 13 38 6 40 41 41 5 42 42 43 4 44 3 45 43 46 2 48 1 49
REMARK SMILES IDX 37 50
REMARK H PARENT 27 17 29 19 31 21 33 23 35 25 13 39 43 47 37 51
REMARK Flexibility Score: inf
ROOT
ATOM      1  C   UNL     1      25.106  27.204  17.208  1.00  0.00     0.180 C 
ATOM      2  C   UNL     1      24.858  27.946  18.548  1.00  0.00     0.177 C 
ATOM      3  C   UNL     1      24.552  26.949  19.691  1.00  0.00     0.180 C 
ATOM      4  C   UNL     1      25.519  25.747  19.674  1.00  0.00     0.214 C 
ATOM      5  C   UNL     1      25.736  25.190  18.245  1.00  0.00     0.339 C 
ATOM      6  O   UNL     1      26.121  26.223  17.351  1.00  0.00    -0.332 OA
ENDROOT
BRANCH   1   7
ATOM      7  C   UNL     1      25.526  28.175  16.090  1.00  0.00     0.198 C 
BRANCH   7   8
ATOM      8  O   UNL     1      24.930  27.826  14.853  1.00  0.00    -0.347 OA
BRANCH   8   9
ATOM      9  C   UNL     1      24.574  28.976  14.104  1.00  0.00     0.281 C 
ATOM     10  C   UNL     1      20.949  29.013  14.722  1.00  0.00     0.041 C 
ATOM     11  C   UNL     1      22.279  28.477  14.187  1.00  0.00     0.150 C 
ATOM     12  C   UNL     1      22.178  28.191  12.672  1.00  0.00     0.174 C 
ATOM     13  O   UNL     1      23.279  29.448  14.449  1.00  0.00    -0.344 OA
ATOM     14  C   UNL     1      23.546  27.761  12.097  1.00  0.00     0.179 C 
ATOM     15  C   UNL     1      24.681  28.685  12.590  1.00  0.00     0.202 C 
BRANCH  12  16
ATOM     16  O   UNL     1      21.219  27.193  12.433  1.00  0.00    -0.388 OA
ATOM     17  H   UNL     1      21.318  26.521  13.157  1.00  0.00     0.211 HD
ENDBRANCH  12  16
BRANCH  14  18
ATOM     18  O   UNL     1      23.831  26.407  12.360  1.00  0.00    -0.387 OA
ATOM     19  H   UNL     1      24.208  25.999  11.543  1.00  0.00     0.211 HD
ENDBRANCH  14  18
BRANCH  15  20
ATOM     20  O   UNL     1      24.620  29.894  11.875  1.00  0.00    -0.385 OA
ATOM     21  H   UNL     1      23.691  30.232  11.957  1.00  0.00     0.211 HD
ENDBRANCH  15  20
ENDBRANCH   8   9
ENDBRANCH   7   8
ENDBRANCH   1   7
BRANCH   2  22
ATOM     22  O   UNL     1      25.945  28.773  18.890  1.00  0.00    -0.387 OA
ATOM     23  H   UNL     1      26.707  28.538  18.297  1.00  0.00     0.211 HD
ENDBRANCH   2  22
BRANCH   3  24
ATOM     24  O   UNL     1      23.206  26.533  19.670  1.00  0.00    -0.387 OA
ATOM     25  H   UNL     1      22.845  26.676  18.761  1.00  0.00     0.211 HD
ENDBRANCH   3  24
BRANCH   5  26
ATOM     26  O   UNL     1      24.583  24.501  17.743  1.00  0.00    -0.462 OA
BRANCH  26  27
ATOM     27  C   UNL     1      24.536  23.618  16.650  1.00  0.00     0.130 A 
ATOM     28  C   UNL     1      24.370  24.046  15.318  1.00  0.00     0.093 A 
ATOM     29  C   UNL     1      24.644  22.249  16.914  1.00  0.00     0.094 A 
ATOM     30  C   UNL     1      24.338  23.118  14.266  1.00  0.00     0.133 A 
ATOM     31  C   UNL     1      24.583  21.314  15.878  1.00  0.00     0.138 A 
ATOM     32  C   UNL     1      24.452  21.742  14.544  1.00  0.00     0.102 A 
ATOM     33  O   UNL     1      24.653  19.946  16.176  1.00  0.00    -0.484 OA
ATOM     34  C   UNL     1      24.471  20.706  13.481  1.00  0.00     0.174 C 
ATOM     35  C   UNL     1      24.261  18.952  15.225  1.00  0.00     0.211 C 
ATOM     36  O   UNL     1      24.234  20.997  12.279  1.00  0.00    -0.294 OA
ATOM     37  C   UNL     1      24.845  19.297  13.843  1.00  0.00     0.131 C 
BRANCH  30  38
ATOM     38  O   UNL     1      24.199  23.569  12.953  1.00  0.00    -0.507 OA
ATOM     39  H   UNL     1      24.877  24.191  12.529  1.00  0.00     0.293 HD
ENDBRANCH  30  38
BRANCH  35  40
ATOM     40  C   UNL     1      24.611  17.575  15.759  1.00  0.00    -0.003 A 
ATOM     41  C   UNL     1      24.094  17.054  16.965  1.00  0.00     0.057 A 
ATOM     42  C   UNL     1      25.479  16.773  15.001  1.00  0.00     0.011 A 
ATOM     43  C   UNL     1      24.454  15.771  17.402  1.00  0.00     0.158 A 
ATOM     44  C   UNL     1      25.837  15.495  15.434  1.00  0.00     0.051 A 
ATOM     45  C   UNL     1      25.327  14.984  16.641  1.00  0.00     0.160 A 
BRANCH  43  46
ATOM     46  O   UNL     1      23.944  15.269  18.599  1.00  0.00    -0.504 OA
ATOM     47  H   UNL     1      22.971  15.389  18.854  1.00  0.00     0.293 HD
ENDBRANCH  43  46
BRANCH  45  48
ATOM     48  O   UNL     1      25.666  13.706  17.115  1.00  0.00    -0.493 OA
ATOM     49  C   UNL     1      26.125  12.638  16.293  1.00  0.00     0.278 C 
ENDBRANCH  45  48
ENDBRANCH  35  40
ENDBRANCH  26  27
ENDBRANCH   5  26
BRANCH   4  50
ATOM     50  O   UNL     1      25.046  24.748  20.540  1.00  0.00    -0.384 OA
ATOM     51  H   UNL     1      24.292  25.141  21.051  1.00  0.00     0.211 HD
ENDBRANCH   4  50
TORSDOF 15
ENDMDL
MODEL 2
REMARK VINA RESULT:    -2.806      3.117      5.517
REMARK INTER + INTRA:          -6.487
REMARK INTER:                  -4.252
REMARK INTRA:                  -2.235
REMARK UNBOUND:                -1.876
REMARK SMILES COc1ccc([C@@H]2CC(=O)c3c(O)cc(O[C@H]4O[C@H](CO[C@@H]5O[C@@H](C)[C@H](O)[C@H](O)[C@H]5O)[C@H](O)[C@@H](O)[C@H]4O)cc3O2)cc1O
REMARK SMILES IDX 19 1 32 2 34 3 36 4 17 5 18 6 20 7 21 8 22 9 25 10 24 11
REMARK SMILES IDX 26 12 23 13 28 14 30 15 27 16 29 18 31 20 33 22 35 24 16 26
REMARK SMILES IDX 15 27 14 28 38 29 12 30 39 31 11 32 40 33 9 34 7 35 10 36
REMARK SMILES IDX 8 37 13 38 6 40 41 41 5 42 42 43 4 44 3 45 43 46 2 48 1 49
REMARK SMILES IDX 37 50
REMARK H PARENT 27 17 29 19 31 21 33 23 35 25 13 39 43 47 37 51
REMARK Flexibility Score: inf
ROOT
ATOM      1  C   UNL     1      20.186  26.412  12.628  1.00  0.00     0.180 C 
ATOM      2  C   UNL     1      18.679  26.761  12.511  1.00  0.00     0.177 C 
ATOM      3  C   UNL     1      17.813  25.793  13.352  1.00  0.00     0.180 C 
ATOM      4  C   UNL     1      18.416  25.559  14.753  1.00  0.00     0.214 C 
ATOM      5  C   UNL     1      19.947  25.328  14.701  1.00  0.00     0.339 C 
ATOM      6  O   UNL     1      20.593  26.370  13.987  1.00  0.00    -0.332 OA
ENDROOT
BRANCH   1   7
ATOM      7  C   UNL     1      21.066  27.438  11.892  1.00  0.00     0.198 C 
BRANCH   7   8
ATOM      8  O   UNL     1      21.757  28.272  12.805  1.00  0.00    -0.347 OA
BRANCH   8   9
ATOM      9  C   UNL     1      23.142  28.335  12.505  1.00  0.00     0.281 C 
ATOM     10  C   UNL     1      24.411  25.914  14.966  1.00  0.00     0.041 C 
ATOM     11  C   UNL     1      23.748  27.203  14.474  1.00  0.00     0.150 C 
ATOM     12  C   UNL     1      24.436  28.438  15.099  1.00  0.00     0.174 C 
ATOM     13  O   UNL     1      23.849  27.234  13.059  1.00  0.00    -0.344 OA
ATOM     14  C   UNL     1      23.854  29.747  14.521  1.00  0.00     0.179 C 
ATOM     15  C   UNL     1      23.734  29.681  12.983  1.00  0.00     0.202 C 
BRANCH  12  16
ATOM     16  O   UNL     1      24.284  28.418  16.495  1.00  0.00    -0.388 OA
ATOM     17  H   UNL     1      25.004  28.988  16.871  1.00  0.00     0.211 HD
ENDBRANCH  12  16
BRANCH  14  18
ATOM     18  O   UNL     1      22.627  30.094  15.120  1.00  0.00    -0.387 OA
ATOM     19  H   UNL     1      22.331  29.344  15.691  1.00  0.00     0.211 HD
ENDBRANCH  14  18
BRANCH  15  20
ATOM     20  O   UNL     1      25.012  29.855  12.423  1.00  0.00    -0.385 OA
ATOM     21  H   UNL     1      25.237  30.817  12.510  1.00  0.00     0.211 HD
ENDBRANCH  15  20
ENDBRANCH   8   9
ENDBRANCH   7   8
ENDBRANCH   1   7
BRANCH   2  22
ATOM     22  O   UNL     1      18.427  28.097  12.879  1.00  0.00    -0.387 OA
ATOM     23  H   UNL     1      19.093  28.355  13.569  1.00  0.00     0.211 HD
ENDBRANCH   2  22
BRANCH   3  24
ATOM     24  O   UNL     1      17.586  24.578  12.675  1.00  0.00    -0.387 OA
ATOM     25  H   UNL     1      17.245  23.914  13.324  1.00  0.00     0.211 HD
ENDBRANCH   3  24
BRANCH   5  26
ATOM     26  O   UNL     1      20.290  24.053  14.141  1.00  0.00    -0.462 OA
BRANCH  26  27
ATOM     27  C   UNL     1      21.551  23.431  14.168  1.00  0.00     0.130 A 
ATOM     28  C   UNL     1      22.339  23.233  13.017  1.00  0.00     0.093 A 
ATOM     29  C   UNL     1      22.027  22.977  15.402  1.00  0.00     0.094 A 
ATOM     30  C   UNL     1      23.594  22.611  13.106  1.00  0.00     0.133 A 
ATOM     31  C   UNL     1      23.261  22.331  15.499  1.00  0.00     0.138 A 
ATOM     32  C   UNL     1      24.064  22.162  14.356  1.00  0.00     0.102 A 
ATOM     33  O   UNL     1      23.695  21.850  16.742  1.00  0.00    -0.484 OA
ATOM     34  C   UNL     1      25.399  21.537  14.535  1.00  0.00     0.174 C 
ATOM     35  C   UNL     1      24.760  20.901  16.847  1.00  0.00     0.211 C 
ATOM     36  O   UNL     1      26.121  21.239  13.547  1.00  0.00    -0.294 OA
ATOM     37  C   UNL     1      25.921  21.319  15.926  1.00  0.00     0.131 C 
BRANCH  30  38
ATOM     38  O   UNL     1      24.366  22.450  11.956  1.00  0.00    -0.507 OA
ATOM     39  H   UNL     1      25.295  22.847  11.877  1.00  0.00     0.293 HD
ENDBRANCH  30  38
BRANCH  35  40
ATOM     40  C   UNL     1      25.121  20.705  18.309  1.00  0.00    -0.003 A 
ATOM     41  C   UNL     1      25.445  19.451  18.869  1.00  0.00     0.057 A 
ATOM     42  C   UNL     1      25.152  21.837  19.139  1.00  0.00     0.011 A 
ATOM     43  C   UNL     1      25.774  19.338  20.227  1.00  0.00     0.158 A 
ATOM     44  C   UNL     1      25.481  21.726  20.491  1.00  0.00     0.051 A 
ATOM     45  C   UNL     1      25.793  20.472  21.047  1.00  0.00     0.160 A 
BRANCH  43  46
ATOM     46  O   UNL     1      26.085  18.092  20.773  1.00  0.00    -0.504 OA
ATOM     47  H   UNL     1      25.468  17.633  21.432  1.00  0.00     0.293 HD
ENDBRANCH  43  46
BRANCH  45  48
ATOM     48  O   UNL     1      26.125  20.316  22.402  1.00  0.00    -0.493 OA
ATOM     49  C   UNL     1      25.259  20.642  23.486  1.00  0.00     0.278 C 
ENDBRANCH  45  48
ENDBRANCH  35  40
ENDBRANCH  26  27
ENDBRANCH   5  26
BRANCH   4  50
ATOM     50  O   UNL     1      17.762  24.483  15.374  1.00  0.00    -0.384 OA
ATOM     51  H   UNL     1      18.464  23.842  15.658  1.00  0.00     0.211 HD
ENDBRANCH   4  50
TORSDOF 15
ENDMDL
MODEL 3
REMARK VINA RESULT:    -2.708      2.648      6.699
REMARK INTER + INTRA:          -6.325
REMARK INTER:                  -3.373
REMARK INTRA:                  -2.951
REMARK UNBOUND:                -1.876
REMARK SMILES COc1ccc([C@@H]2CC(=O)c3c(O)cc(O[C@H]4O[C@H](CO[C@@H]5O[C@@H](C)[C@H](O)[C@H](O)[C@H]5O)[C@H](O)[C@@H](O)[C@H]4O)cc3O2)cc1O
REMARK SMILES IDX 19 1 32 2 34 3 36 4 17 5 18 6 20 7 21 8 22 9 25 10 24 11
REMARK SMILES IDX 26 12 23 13 28 14 30 15 27 16 29 18 31 20 33 22 35 24 16 26
REMARK SMILES IDX 15 27 14 28 38 29 12 30 39 31 11 32 40 33 9 34 7 35 10 36
REMARK SMILES IDX 8 37 13 38 6 40 41 41 5 42 42 43 4 44 3 45 43 46 2 48 1 49
REMARK SMILES IDX 37 50
REMARK H PARENT 27 17 29 19 31 21 33 23 35 25 13 39 43 47 37 51
REMARK Flexibility Score: inf
ROOT
ATOM      1  C   UNL     1      19.839  28.645  14.645  1.00  0.00     0.180 C 
ATOM      2  C   UNL     1      18.438  28.869  14.017  1.00  0.00     0.177 C 
ATOM      3  C   UNL     1      17.371  29.130  15.106  1.00  0.00     0.180 C 
ATOM      4  C   UNL     1      17.875  30.125  16.172  1.00  0.00     0.214 C 
ATOM      5  C   UNL     1      19.327  29.821  16.616  1.00  0.00     0.339 C 
ATOM      6  O   UNL     1      20.192  29.726  15.494  1.00  0.00    -0.332 OA
ENDROOT
BRANCH   1   7
ATOM      7  C   UNL     1      20.929  28.502  13.568  1.00  0.00     0.198 C 
BRANCH   7   8
ATOM      8  O   UNL     1      21.977  27.656  14.007  1.00  0.00    -0.347 OA
BRANCH   8   9
ATOM      9  C   UNL     1      23.218  28.022  13.425  1.00  0.00     0.281 C 
ATOM     10  C   UNL     1      25.470  25.877  15.388  1.00  0.00     0.041 C 
ATOM     11  C   UNL     1      24.465  27.004  15.137  1.00  0.00     0.150 C 
ATOM     12  C   UNL     1      25.006  28.344  15.686  1.00  0.00     0.174 C 
ATOM     13  O   UNL     1      24.241  27.087  13.739  1.00  0.00    -0.344 OA
ATOM     14  C   UNL     1      24.054  29.509  15.336  1.00  0.00     0.179 C 
ATOM     15  C   UNL     1      23.612  29.453  13.858  1.00  0.00     0.202 C 
BRANCH  12  16
ATOM     16  O   UNL     1      25.175  28.260  17.078  1.00  0.00    -0.388 OA
ATOM     17  H   UNL     1      26.126  28.474  17.265  1.00  0.00     0.211 HD
ENDBRANCH  12  16
BRANCH  14  18
ATOM     18  O   UNL     1      22.947  29.571  16.205  1.00  0.00    -0.387 OA
ATOM     19  H   UNL     1      23.099  30.295  16.859  1.00  0.00     0.211 HD
ENDBRANCH  14  18
BRANCH  15  20
ATOM     20  O   UNL     1      24.671  29.910  13.053  1.00  0.00    -0.385 OA
ATOM     21  H   UNL     1      25.487  29.898  13.615  1.00  0.00     0.211 HD
ENDBRANCH  15  20
ENDBRANCH   8   9
ENDBRANCH   7   8
ENDBRANCH   1   7
BRANCH   2  22
ATOM     22  O   UNL     1      18.454  29.918  13.077  1.00  0.00    -0.387 OA
ATOM     23  H   UNL     1      19.349  30.348  13.114  1.00  0.00     0.211 HD
ENDBRANCH   2  22
BRANCH   3  24
ATOM     24  O   UNL     1      16.920  27.929  15.689  1.00  0.00    -0.387 OA
ATOM     25  H   UNL     1      17.072  27.191  15.049  1.00  0.00     0.211 HD
ENDBRANCH   3  24
BRANCH   5  26
ATOM     26  O   UNL     1      19.419  28.635  17.418  1.00  0.00    -0.462 OA
BRANCH  26  27
ATOM     27  C   UNL     1      20.543  28.185  18.133  1.00  0.00     0.130 A 
ATOM     28  C   UNL     1      21.153  28.931  19.161  1.00  0.00     0.093 A 
ATOM     29  C   UNL     1      21.082  26.942  17.785  1.00  0.00     0.094 A 
ATOM     30  C   UNL     1      22.270  28.427  19.845  1.00  0.00     0.133 A 
ATOM     31  C   UNL     1      22.210  26.444  18.439  1.00  0.00     0.138 A 
ATOM     32  C   UNL     1      22.801  27.172  19.488  1.00  0.00     0.102 A 
ATOM     33  O   UNL     1      22.753  25.214  18.042  1.00  0.00    -0.484 OA
ATOM     34  C   UNL     1      23.951  26.555  20.196  1.00  0.00     0.174 C 
ATOM     35  C   UNL     1      24.074  24.820  18.425  1.00  0.00     0.211 C 
ATOM     36  O   UNL     1      24.609  27.195  21.059  1.00  0.00    -0.294 OA
ATOM     37  C   UNL     1      24.291  25.119  19.920  1.00  0.00     0.131 C 
BRANCH  30  38
ATOM     38  O   UNL     1      22.840  29.173  20.877  1.00  0.00    -0.507 OA
ATOM     39  H   UNL     1      23.123  28.746  21.750  1.00  0.00     0.293 HD
ENDBRANCH  30  38
BRANCH  35  40
ATOM     40  C   UNL     1      24.316  23.382  18.003  1.00  0.00    -0.003 A 
ATOM     41  C   UNL     1      23.808  22.827  16.809  1.00  0.00     0.057 A 
ATOM     42  C   UNL     1      25.102  22.571  18.837  1.00  0.00     0.011 A 
ATOM     43  C   UNL     1      24.071  21.490  16.473  1.00  0.00     0.158 A 
ATOM     44  C   UNL     1      25.366  21.242  18.504  1.00  0.00     0.051 A 
ATOM     45  C   UNL     1      24.850  20.690  17.318  1.00  0.00     0.160 A 
BRANCH  43  46
ATOM     46  O   UNL     1      23.558  20.949  15.295  1.00  0.00    -0.504 OA
ATOM     47  H   UNL     1      22.560  20.868  15.139  1.00  0.00     0.293 HD
ENDBRANCH  43  46
BRANCH  45  48
ATOM     48  O   UNL     1      25.087  19.356  16.948  1.00  0.00    -0.493 OA
ATOM     49  C   UNL     1      25.406  18.311  17.861  1.00  0.00     0.278 C 
ENDBRANCH  45  48
ENDBRANCH  35  40
ENDBRANCH  26  27
ENDBRANCH   5  26
BRANCH   4  50
ATOM     50  O   UNL     1      16.999  30.125  17.269  1.00  0.00    -0.384 OA
ATOM     51  H   UNL     1      17.478  29.692  18.022  1.00  0.00     0.211 HD
ENDBRANCH   4  50
TORSDOF 15
ENDMDL
MODEL 4
REMARK VINA RESULT:    -2.681      2.760      5.378
REMARK INTER + INTRA:          -6.281
REMARK INTER:                  -3.621
REMARK INTRA:                  -2.660
REMARK UNBOUND:                -1.876
REMARK SMILES COc1ccc([C@@H]2CC(=O)c3c(O)cc(O[C@H]4O[C@H](CO[C@@H]5O[C@@H](C)[C@H](O)[C@H](O)[C@H]5O)[C@H](O)[C@@H](O)[C@H]4O)cc3O2)cc1O
REMARK SMILES IDX 19 1 32 2 34 3 36 4 17 5 18 6 20 7 21 8 22 9 25 10 24 11
REMARK SMILES IDX 26 12 23 13 28 14 30 15 27 16 29 18 31 20 33 22 35 24 16 26
REMARK SMILES IDX 15 27 14 28 38 29 12 30 39 31 11 32 40 33 9 34 7 35 10 36
REMARK SMILES IDX 8 37 13 38 6 40 41 41 5 42 42 43 4 44 3 45 43 46 2 48 1 49
REMARK SMILES IDX 37 50
REMARK H PARENT 27 17 29 19 31 21 33 23 35 25 13 39 43 47 37 51
REMARK Flexibility Score: inf
ROOT
ATOM      1  C   UNL     1      19.457  27.586  15.060  1.00  0.00     0.180 C 
ATOM      2  C   UNL     1      17.980  27.423  14.613  1.00  0.00     0.177 C 
ATOM      3  C   UNL     1      17.164  26.629  15.660  1.00  0.00     0.180 C 
ATOM      4  C   UNL     1      17.457  27.110  17.096  1.00  0.00     0.214 C 
ATOM      5  C   UNL     1      18.971  27.322  17.345  1.00  0.00     0.339 C 
ATOM      6  O   UNL     1      19.535  28.166  16.352  1.00  0.00    -0.332 OA
ENDROOT
BRANCH   1   7
ATOM      7  C   UNL     1      20.251  28.474  14.084  1.00  0.00     0.198 C 
BRANCH   7   8
ATOM      8  O   UNL     1      21.586  28.653  14.522  1.00  0.00    -0.347 OA
BRANCH   8   9
ATOM      9  C   UNL     1      22.502  28.580  13.442  1.00  0.00     0.281 C 
ATOM     10  C   UNL     1      24.190  25.422  14.282  1.00  0.00     0.041 C 
ATOM     11  C   UNL     1      23.767  26.882  14.463  1.00  0.00     0.150 C 
ATOM     12  C   UNL     1      25.005  27.783  14.672  1.00  0.00     0.174 C 
ATOM     13  O   UNL     1      23.049  27.276  13.305  1.00  0.00    -0.344 OA
ATOM     14  C   UNL     1      24.601  29.272  14.738  1.00  0.00     0.179 C 
ATOM     15  C   UNL     1      23.615  29.641  13.609  1.00  0.00     0.202 C 
BRANCH  12  16
ATOM     16  O   UNL     1      25.676  27.412  15.849  1.00  0.00    -0.388 OA
ATOM     17  H   UNL     1      25.692  28.213  16.435  1.00  0.00     0.211 HD
ENDBRANCH  12  16
BRANCH  14  18
ATOM     18  O   UNL     1      24.094  29.631  16.003  1.00  0.00    -0.387 OA
ATOM     19  H   UNL     1      23.638  28.847  16.394  1.00  0.00     0.211 HD
ENDBRANCH  14  18
BRANCH  15  20
ATOM     20  O   UNL     1      24.332  29.760  12.405  1.00  0.00    -0.385 OA
ATOM     21  H   UNL     1      24.764  28.883  12.238  1.00  0.00     0.211 HD
ENDBRANCH  15  20
ENDBRANCH   8   9
ENDBRANCH   7   8
ENDBRANCH   1   7
BRANCH   2  22
ATOM     22  O   UNL     1      17.377  28.669  14.354  1.00  0.00    -0.387 OA
ATOM     23  H   UNL     1      17.771  29.334  14.978  1.00  0.00     0.211 HD
ENDBRANCH   2  22
BRANCH   3  24
ATOM     24  O   UNL     1      17.359  25.240  15.527  1.00  0.00    -0.387 OA
ATOM     25  H   UNL     1      17.369  24.835  16.429  1.00  0.00     0.211 HD
ENDBRANCH   3  24
BRANCH   5  26
ATOM     26  O   UNL     1      19.694  26.086  17.417  1.00  0.00    -0.462 OA
BRANCH  26  27
ATOM     27  C   UNL     1      21.077  25.927  17.613  1.00  0.00     0.130 A 
ATOM     28  C   UNL     1      21.934  26.990  17.960  1.00  0.00     0.093 A 
ATOM     29  C   UNL     1      21.619  24.651  17.433  1.00  0.00     0.094 A 
ATOM     30  C   UNL     1      23.307  26.770  18.149  1.00  0.00     0.133 A 
ATOM     31  C   UNL     1      22.988  24.426  17.589  1.00  0.00     0.138 A 
ATOM     32  C   UNL     1      23.840  25.478  17.970  1.00  0.00     0.102 A 
ATOM     33  O   UNL     1      23.509  23.144  17.363  1.00  0.00    -0.484 OA
ATOM     34  C   UNL     1      25.273  25.161  18.196  1.00  0.00     0.174 C 
ATOM     35  C   UNL     1      24.911  22.929  17.174  1.00  0.00     0.211 C 
ATOM     36  O   UNL     1      26.118  26.070  18.416  1.00  0.00    -0.294 OA
ATOM     37  C   UNL     1      25.705  23.724  18.227  1.00  0.00     0.131 C 
BRANCH  30  38
ATOM     38  O   UNL     1      24.131  27.834  18.520  1.00  0.00    -0.507 OA
ATOM     39  H   UNL     1      25.042  27.684  18.935  1.00  0.00     0.293 HD
ENDBRANCH  30  38
BRANCH  35  40
ATOM     40  C   UNL     1      25.192  21.437  17.130  1.00  0.00    -0.003 A 
ATOM     41  C   UNL     1      24.819  20.545  18.157  1.00  0.00     0.057 A 
ATOM     42  C   UNL     1      25.841  20.921  15.996  1.00  0.00     0.011 A 
ATOM     43  C   UNL     1      25.105  19.176  18.053  1.00  0.00     0.158 A 
ATOM     44  C   UNL     1      26.125  19.559  15.891  1.00  0.00     0.051 A 
ATOM     45  C   UNL     1      25.760  18.674  16.922  1.00  0.00     0.160 A 
BRANCH  43  46
ATOM     46  O   UNL     1      24.739  18.303  19.078  1.00  0.00    -0.504 OA
ATOM     47  H   UNL     1      24.701  18.606  20.044  1.00  0.00     0.293 HD
ENDBRANCH  43  46
BRANCH  45  48
ATOM     48  O   UNL     1      26.031  17.298  16.859  1.00  0.00    -0.493 OA
ATOM     49  C   UNL     1      25.298  16.368  16.067  1.00  0.00     0.278 C 
ENDBRANCH  45  48
ENDBRANCH  35  40
ENDBRANCH  26  27
ENDBRANCH   5  26
BRANCH   4  50
ATOM     50  O   UNL     1      16.915  26.200  18.018  1.00  0.00    -0.384 OA
ATOM     51  H   UNL     1      17.605  26.047  18.714  1.00  0.00     0.211 HD
ENDBRANCH   4  50
TORSDOF 15
ENDMDL
MODEL 5
REMARK VINA RESULT:    -2.640      3.000      5.664
REMARK INTER + INTRA:          -6.213
REMARK INTER:                  -3.782
REMARK INTRA:                  -2.431
REMARK UNBOUND:                -1.876
REMARK SMILES COc1ccc([C@@H]2CC(=O)c3c(O)cc(O[C@H]4O[C@H](CO[C@@H]5O[C@@H](C)[C@H](O)[C@H](O)[C@H]5O)[C@H](O)[C@@H](O)[C@H]4O)cc3O2)cc1O
REMARK SMILES IDX 19 1 32 2 34 3 36 4 17 5 18 6 20 7 21 8 22 9 25 10 24 11
REMARK SMILES IDX 26 12 23 13 28 14 30 15 27 16 29 18 31 20 33 22 35 24 16 26
REMARK SMILES IDX 15 27 14 28 38 29 12 30 39 31 11 32 40 33 9 34 7 35 10 36
REMARK SMILES IDX 8 37 13 38 6 40 41 41 5 42 42 43 4 44 3 45 43 46 2 48 1 49
REMARK SMILES IDX 37 50
REMARK H PARENT 27 17 29 19 31 21 33 23 35 25 13 39 43 47 37 51
REMARK Flexibility Score: inf
ROOT
ATOM      1  C   UNL     1      22.137  28.420  15.605  1.00  0.00     0.180 C 
ATOM      2  C   UNL     1      20.929  28.993  14.816  1.00  0.00     0.177 C 
ATOM      3  C   UNL     1      20.318  27.927  13.876  1.00  0.00     0.180 C 
ATOM      4  C   UNL     1      20.166  26.564  14.582  1.00  0.00     0.214 C 
ATOM      5  C   UNL     1      21.421  26.188  15.409  1.00  0.00     0.339 C 
ATOM      6  O   UNL     1      21.774  27.237  16.299  1.00  0.00    -0.332 OA
ENDROOT
BRANCH   1   7
ATOM      7  C   UNL     1      22.679  29.433  16.628  1.00  0.00     0.198 C 
BRANCH   7   8
ATOM      8  O   UNL     1      23.135  28.784  17.802  1.00  0.00    -0.347 OA
BRANCH   8   9
ATOM      9  C   UNL     1      24.493  29.092  18.073  1.00  0.00     0.281 C 
ATOM     10  C   UNL     1      26.125  26.478  16.065  1.00  0.00     0.041 C 
ATOM     11  C   UNL     1      25.263  27.054  17.191  1.00  0.00     0.150 C 
ATOM     12  C   UNL     1      25.732  26.516  18.562  1.00  0.00     0.174 C 
ATOM     13  O   UNL     1      25.368  28.467  17.144  1.00  0.00    -0.344 OA
ATOM     14  C   UNL     1      24.946  27.178  19.715  1.00  0.00     0.179 C 
ATOM     15  C   UNL     1      24.851  28.708  19.527  1.00  0.00     0.202 C 
BRANCH  12  16
ATOM     16  O   UNL     1      25.575  25.120  18.610  1.00  0.00    -0.388 OA
ATOM     17  H   UNL     1      25.024  24.921  19.411  1.00  0.00     0.211 HD
ENDBRANCH  12  16
BRANCH  14  18
ATOM     18  O   UNL     1      23.675  26.599  19.894  1.00  0.00    -0.387 OA
ATOM     19  H   UNL     1      23.004  27.322  19.954  1.00  0.00     0.211 HD
ENDBRANCH  14  18
BRANCH  15  20
ATOM     20  O   UNL     1      26.087  29.283  19.872  1.00  0.00    -0.385 OA
ATOM     21  H   UNL     1      26.793  28.707  19.479  1.00  0.00     0.211 HD
ENDBRANCH  15  20
ENDBRANCH   8   9
ENDBRANCH   7   8
ENDBRANCH   1   7
BRANCH   2  22
ATOM     22  O   UNL     1      19.947  29.513  15.681  1.00  0.00    -0.387 OA
ATOM     23  H   UNL     1      19.454  28.748  16.080  1.00  0.00     0.211 HD
ENDBRANCH   2  22
BRANCH   3  24
ATOM     24  O   UNL     1      21.048  27.812  12.677  1.00  0.00    -0.387 OA
ATOM     25  H   UNL     1      21.364  26.879  12.587  1.00  0.00     0.211 HD
ENDBRANCH   3  24
BRANCH   5  26
ATOM     26  O   UNL     1      22.539  25.840  14.581  1.00  0.00    -0.462 OA
BRANCH  26  27
ATOM     27  C   UNL     1      23.316  24.671  14.661  1.00  0.00     0.130 A 
ATOM     28  C   UNL     1      23.830  24.008  13.529  1.00  0.00     0.093 A 
ATOM     29  C   UNL     1      23.569  24.142  15.930  1.00  0.00     0.094 A 
ATOM     30  C   UNL     1      24.606  22.847  13.670  1.00  0.00     0.133 A 
ATOM     31  C   UNL     1      24.314  22.971  16.081  1.00  0.00     0.138 A 
ATOM     32  C   UNL     1      24.857  22.326  14.955  1.00  0.00     0.102 A 
ATOM     33  O   UNL     1      24.518  22.440  17.362  1.00  0.00    -0.484 OA
ATOM     34  C   UNL     1      25.705  21.129  15.185  1.00  0.00     0.174 C 
ATOM     35  C   UNL     1      24.965  21.095  17.554  1.00  0.00     0.211 C 
ATOM     36  O   UNL     1      26.122  20.427  14.225  1.00  0.00    -0.294 OA
ATOM     37  C   UNL     1      26.124  20.792  16.586  1.00  0.00     0.131 C 
BRANCH  30  38
ATOM     38  O   UNL     1      25.126  22.223  12.535  1.00  0.00    -0.507 OA
ATOM     39  H   UNL     1      24.665  21.432  12.104  1.00  0.00     0.293 HD
ENDBRANCH  30  38
BRANCH  35  40
ATOM     40  C   UNL     1      25.262  20.865  19.025  1.00  0.00    -0.003 A 
ATOM     41  C   UNL     1      25.262  19.589  19.627  1.00  0.00     0.057 A 
ATOM     42  C   UNL     1      25.571  21.980  19.819  1.00  0.00     0.011 A 
ATOM     43  C   UNL     1      25.549  19.442  20.992  1.00  0.00     0.158 A 
ATOM     44  C   UNL     1      25.858  21.836  21.177  1.00  0.00     0.051 A 
ATOM     45  C   UNL     1      25.847  20.563  21.776  1.00  0.00     0.160 A 
BRANCH  43  46
ATOM     46  O   UNL     1      25.538  18.177  21.579  1.00  0.00    -0.504 OA
ATOM     47  H   UNL     1      26.034  17.988  22.442  1.00  0.00     0.293 HD
ENDBRANCH  43  46
BRANCH  45  48
ATOM     48  O   UNL     1      26.125  20.374  23.139  1.00  0.00    -0.493 OA
ATOM     49  C   UNL     1      25.182  20.571  24.188  1.00  0.00     0.278 C 
ENDBRANCH  45  48
ENDBRANCH  35  40
ENDBRANCH  26  27
ENDBRANCH   5  26
BRANCH   4  50
ATOM     50  O   UNL     1      19.869  25.572  13.633  1.00  0.00    -0.384 OA
ATOM     51  H   UNL     1      20.577  24.880  13.706  1.00  0.00     0.211 HD
ENDBRANCH   4  50
TORSDOF 15
ENDMDL
MODEL 6
REMARK VINA RESULT:    -2.592      3.909      7.917
REMARK INTER + INTRA:          -6.134
REMARK INTER:                  -3.320
REMARK INTRA:                  -2.814
REMARK UNBOUND:                -1.876
REMARK SMILES COc1ccc([C@@H]2CC(=O)c3c(O)cc(O[C@H]4O[C@H](CO[C@@H]5O[C@@H](C)[C@H](O)[C@H](O)[C@H]5O)[C@H](O)[C@@H](O)[C@H]4O)cc3O2)cc1O
REMARK SMILES IDX 19 1 32 2 34 3 36 4 17 5 18 6 20 7 21 8 22 9 25 10 24 11
REMARK SMILES IDX 26 12 23 13 28 14 30 15 27 16 29 18 31 20 33 22 35 24 16 26
REMARK SMILES IDX 15 27 14 28 38 29 12 30 39 31 11 32 40 33 9 34 7 35 10 36
REMARK SMILES IDX 8 37 13 38 6 40 41 41 5 42 42 43 4 44 3 45 43 46 2 48 1 49
REMARK SMILES IDX 37 50
REMARK H PARENT 27 17 29 19 31 21 33 23 35 25 13 39 43 47 37 51
REMARK Flexibility Score: inf
ROOT
ATOM      1  C   UNL     1      24.490  24.039  16.589  1.00  0.00     0.180 C 
ATOM      2  C   UNL     1      24.930  22.735  17.308  1.00  0.00     0.177 C 
ATOM      3  C   UNL     1      25.086  21.569  16.304  1.00  0.00     0.180 C 
ATOM      4  C   UNL     1      25.841  22.008  15.032  1.00  0.00     0.214 C 
ATOM      5  C   UNL     1      25.350  23.378  14.503  1.00  0.00     0.339 C 
ATOM      6  O   UNL     1      25.379  24.358  15.530  1.00  0.00    -0.332 OA
ENDROOT
BRANCH   1   7
ATOM      7  C   UNL     1      24.445  25.234  17.558  1.00  0.00     0.198 C 
BRANCH   7   8
ATOM      8  O   UNL     1      24.354  26.461  16.857  1.00  0.00    -0.347 OA
BRANCH   8   9
ATOM      9  C   UNL     1      24.088  27.543  17.736  1.00  0.00     0.281 C 
ATOM     10  C   UNL     1      20.633  28.310  16.735  1.00  0.00     0.041 C 
ATOM     11  C   UNL     1      22.149  28.180  16.570  1.00  0.00     0.150 C 
ATOM     12  C   UNL     1      22.757  29.511  16.073  1.00  0.00     0.174 C 
ATOM     13  O   UNL     1      22.697  27.816  17.827  1.00  0.00    -0.344 OA
ATOM     14  C   UNL     1      24.298  29.428  16.014  1.00  0.00     0.179 C 
ATOM     15  C   UNL     1      24.879  28.797  17.297  1.00  0.00     0.202 C 
BRANCH  12  16
ATOM     16  O   UNL     1      22.242  29.831  14.805  1.00  0.00    -0.388 OA
ATOM     17  H   UNL     1      22.847  29.418  14.137  1.00  0.00     0.211 HD
ENDBRANCH  12  16
BRANCH  14  18
ATOM     18  O   UNL     1      24.751  28.761  14.859  1.00  0.00    -0.387 OA
ATOM     19  H   UNL     1      25.017  29.435  14.188  1.00  0.00     0.211 HD
ENDBRANCH  14  18
BRANCH  15  20
ATOM     20  O   UNL     1      24.845  29.755  18.326  1.00  0.00    -0.385 OA
ATOM     21  H   UNL     1      24.034  29.570  18.866  1.00  0.00     0.211 HD
ENDBRANCH  15  20
ENDBRANCH   8   9
ENDBRANCH   7   8
ENDBRANCH   1   7
BRANCH   2  22
ATOM     22  O   UNL     1      26.119  22.923  18.038  1.00  0.00    -0.387 OA
ATOM     23  H   UNL     1      25.977  22.559  18.952  1.00  0.00     0.211 HD
ENDBRANCH   2  22
BRANCH   3  24
ATOM     24  O   UNL     1      23.844  20.981  15.993  1.00  0.00    -0.387 OA
ATOM     25  H   UNL     1      23.566  20.410  16.752  1.00  0.00     0.211 HD
ENDBRANCH   3  24
BRANCH   5  26
ATOM     26  O   UNL     1      24.042  23.305  13.920  1.00  0.00    -0.462 OA
BRANCH  26  27
ATOM     27  C   UNL     1      23.138  24.367  13.738  1.00  0.00     0.130 A 
ATOM     28  C   UNL     1      23.525  25.636  13.265  1.00  0.00     0.093 A 
ATOM     29  C   UNL     1      21.797  24.145  14.064  1.00  0.00     0.094 A 
ATOM     30  C   UNL     1      22.577  26.657  13.097  1.00  0.00     0.133 A 
ATOM     31  C   UNL     1      20.850  25.162  13.929  1.00  0.00     0.138 A 
ATOM     32  C   UNL     1      21.228  26.419  13.424  1.00  0.00     0.102 A 
ATOM     33  O   UNL     1      19.520  24.923  14.301  1.00  0.00    -0.484 OA
ATOM     34  C   UNL     1      20.163  27.435  13.230  1.00  0.00     0.174 C 
ATOM     35  C   UNL     1      18.596  25.995  14.508  1.00  0.00     0.211 C 
ATOM     36  O   UNL     1      20.439  28.620  12.902  1.00  0.00    -0.294 OA
ATOM     37  C   UNL     1      18.726  27.020  13.366  1.00  0.00     0.131 C 
BRANCH  30  38
ATOM     38  O   UNL     1      22.981  27.898  12.601  1.00  0.00    -0.507 OA
ATOM     39  H   UNL     1      23.928  28.235  12.717  1.00  0.00     0.293 HD
ENDBRANCH  30  38
BRANCH  35  40
ATOM     40  C   UNL     1      17.204  25.430  14.725  1.00  0.00    -0.003 A 
ATOM     41  C   UNL     1      16.960  24.155  15.279  1.00  0.00     0.057 A 
ATOM     42  C   UNL     1      16.104  26.228  14.373  1.00  0.00     0.011 A 
ATOM     43  C   UNL     1      15.649  23.692  15.458  1.00  0.00     0.158 A 
ATOM     44  C   UNL     1      14.798  25.769  14.551  1.00  0.00     0.051 A 
ATOM     45  C   UNL     1      14.560  24.494  15.095  1.00  0.00     0.160 A 
BRANCH  43  46
ATOM     46  O   UNL     1      15.419  22.427  15.999  1.00  0.00    -0.504 OA
ATOM     47  H   UNL     1      14.525  22.178  16.406  1.00  0.00     0.293 HD
ENDBRANCH  43  46
BRANCH  45  48
ATOM     48  O   UNL     1      13.263  23.992  15.287  1.00  0.00    -0.493 OA
ATOM     49  C   UNL     1      12.292  24.577  16.149  1.00  0.00     0.278 C 
ENDBRANCH  45  48
ENDBRANCH  35  40
ENDBRANCH  26  27
ENDBRANCH   5  26
BRANCH   4  50
ATOM     50  O   UNL     1      25.724  21.014  14.047  1.00  0.00    -0.384 OA
ATOM     51  H   UNL     1      25.170  21.393  13.317  1.00  0.00     0.211 HD
ENDBRANCH   4  50
TORSDOF 15
ENDMDL
MODEL 7
REMARK VINA RESULT:    -2.588      3.570      7.065
REMARK INTER + INTRA:          -6.128
REMARK INTER:                  -3.325
REMARK INTRA:                  -2.802
REMARK UNBOUND:                -1.876
REMARK SMILES COc1ccc([C@@H]2CC(=O)c3c(O)cc(O[C@H]4O[C@H](CO[C@@H]5O[C@@H](C)[C@H](O)[C@H](O)[C@H]5O)[C@H](O)[C@@H](O)[C@H]4O)cc3O2)cc1O
REMARK SMILES IDX 19 1 32 2 34 3 36 4 17 5 18 6 20 7 21 8 22 9 25 10 24 11
REMARK SMILES IDX 26 12 23 13 28 14 30 15 27 16 29 18 31 20 33 22 35 24 16 26
REMARK SMILES IDX 15 27 14 28 38 29 12 30 39 31 11 32 40 33 9 34 7 35 10 36
REMARK SMILES IDX 8 37 13 38 6 40 41 41 5 42 42 43 4 44 3 45 43 46 2 48 1 49
REMARK SMILES IDX 37 50
REMARK H PARENT 27 17 29 19 31 21 33 23 35 25 13 39 43 47 37 51
REMARK Flexibility Score: inf
ROOT
ATOM      1  C   UNL     1      22.364  27.322  15.575  1.00  0.00     0.180 C 
ATOM      2  C   UNL     1      22.299  28.830  15.215  1.00  0.00     0.177 C 
ATOM      3  C   UNL     1      23.665  29.341  14.700  1.00  0.00     0.180 C 
ATOM      4  C   UNL     1      24.296  28.362  13.689  1.00  0.00     0.214 C 
ATOM      5  C   UNL     1      24.185  26.888  14.153  1.00  0.00     0.339 C 
ATOM      6  O   UNL     1      22.844  26.559  14.478  1.00  0.00    -0.332 OA
ENDROOT
BRANCH   1   7
ATOM      7  C   UNL     1      20.983  26.774  15.976  1.00  0.00     0.198 C 
BRANCH   7   8
ATOM      8  O   UNL     1      21.052  26.038  17.185  1.00  0.00    -0.347 OA
BRANCH   8   9
ATOM      9  C   UNL     1      20.479  26.757  18.265  1.00  0.00     0.281 C 
ATOM     10  C   UNL     1      23.436  28.633  19.390  1.00  0.00     0.041 C 
ATOM     11  C   UNL     1      22.574  27.397  19.117  1.00  0.00     0.150 C 
ATOM     12  C   UNL     1      22.436  26.539  20.395  1.00  0.00     0.174 C 
ATOM     13  O   UNL     1      21.303  27.841  18.670  1.00  0.00    -0.344 OA
ATOM     14  C   UNL     1      21.474  25.353  20.163  1.00  0.00     0.179 C 
ATOM     15  C   UNL     1      20.183  25.805  19.446  1.00  0.00     0.202 C 
BRANCH  12  16
ATOM     16  O   UNL     1      23.697  26.067  20.795  1.00  0.00    -0.388 OA
ATOM     17  H   UNL     1      23.559  25.560  21.637  1.00  0.00     0.211 HD
ENDBRANCH  12  16
BRANCH  14  18
ATOM     18  O   UNL     1      22.096  24.288  19.484  1.00  0.00    -0.387 OA
ATOM     19  H   UNL     1      23.061  24.484  19.405  1.00  0.00     0.211 HD
ENDBRANCH  14  18
BRANCH  15  20
ATOM     20  O   UNL     1      19.355  26.457  20.377  1.00  0.00    -0.385 OA
ATOM     21  H   UNL     1      19.327  25.887  21.188  1.00  0.00     0.211 HD
ENDBRANCH  15  20
ENDBRANCH   8   9
ENDBRANCH   7   8
ENDBRANCH   1   7
BRANCH   2  22
ATOM     22  O   UNL     1      21.284  29.094  14.275  1.00  0.00    -0.387 OA
ATOM     23  H   UNL     1      21.707  29.160  13.378  1.00  0.00     0.211 HD
ENDBRANCH   2  22
BRANCH   3  24
ATOM     24  O   UNL     1      24.545  29.630  15.762  1.00  0.00    -0.387 OA
ATOM     25  H   UNL     1      24.263  29.112  16.555  1.00  0.00     0.211 HD
ENDBRANCH   3  24
BRANCH   5  26
ATOM     26  O   UNL     1      25.053  26.593  15.256  1.00  0.00    -0.462 OA
BRANCH  26  27
ATOM     27  C   UNL     1      25.268  25.336  15.848  1.00  0.00     0.130 A 
ATOM     28  C   UNL     1      25.580  24.179  15.107  1.00  0.00     0.093 A 
ATOM     29  C   UNL     1      25.146  25.240  17.237  1.00  0.00     0.094 A 
ATOM     30  C   UNL     1      25.791  22.951  15.754  1.00  0.00     0.133 A 
ATOM     31  C   UNL     1      25.324  24.018  17.888  1.00  0.00     0.138 A 
ATOM     32  C   UNL     1      25.670  22.868  17.155  1.00  0.00     0.102 A 
ATOM     33  O   UNL     1      25.156  23.943  19.278  1.00  0.00    -0.484 OA
ATOM     34  C   UNL     1      25.922  21.615  17.911  1.00  0.00     0.174 C 
ATOM     35  C   UNL     1      24.989  22.689  19.945  1.00  0.00     0.211 C 
ATOM     36  O   UNL     1      26.112  20.520  17.319  1.00  0.00    -0.294 OA
ATOM     37  C   UNL     1      26.016  21.674  19.408  1.00  0.00     0.131 C 
BRANCH  30  38
ATOM     38  O   UNL     1      26.125  21.824  15.001  1.00  0.00    -0.507 OA
ATOM     39  H   UNL     1      26.770  21.876  14.222  1.00  0.00     0.293 HD
ENDBRANCH  30  38
BRANCH  35  40
ATOM     40  C   UNL     1      25.009  22.908  21.448  1.00  0.00    -0.003 A 
ATOM     41  C   UNL     1      24.052  22.357  22.326  1.00  0.00     0.057 A 
ATOM     42  C   UNL     1      26.047  23.684  21.988  1.00  0.00     0.011 A 
ATOM     43  C   UNL     1      24.128  22.594  23.706  1.00  0.00     0.158 A 
ATOM     44  C   UNL     1      26.125  23.919  23.362  1.00  0.00     0.051 A 
ATOM     45  C   UNL     1      25.162  23.376  24.233  1.00  0.00     0.160 A 
BRANCH  43  46
ATOM     46  O   UNL     1      23.172  22.052  24.565  1.00  0.00    -0.504 OA
ATOM     47  H   UNL     1      22.475  21.394  24.236  1.00  0.00     0.293 HD
ENDBRANCH  43  46
BRANCH  45  48
ATOM     48  O   UNL     1      25.201  23.593  25.620  1.00  0.00    -0.493 OA
ATOM     49  C   UNL     1      26.096  22.937  26.513  1.00  0.00     0.278 C 
ENDBRANCH  45  48
ENDBRANCH  35  40
ENDBRANCH  26  27
ENDBRANCH   5  26
BRANCH   4  50
ATOM     50  O   UNL     1      25.634  28.720  13.457  1.00  0.00    -0.384 OA
ATOM     51  H   UNL     1      26.093  27.915  13.102  1.00  0.00     0.211 HD
ENDBRANCH   4  50
TORSDOF 15
ENDMDL
MODEL 8
REMARK VINA RESULT:    -2.584      3.476      6.634
REMARK INTER + INTRA:          -6.121
REMARK INTER:                  -3.328
REMARK INTRA:                  -2.793
REMARK UNBOUND:                -1.876
REMARK SMILES COc1ccc([C@@H]2CC(=O)c3c(O)cc(O[C@H]4O[C@H](CO[C@@H]5O[C@@H](C)[C@H](O)[C@H](O)[C@H]5O)[C@H](O)[C@@H](O)[C@H]4O)cc3O2)cc1O
REMARK SMILES IDX 19 1 32 2 34 3 36 4 17 5 18 6 20 7 21 8 22 9 25 10 24 11
REMARK SMILES IDX 26 12 23 13 28 14 30 15 27 16 29 18 31 20 33 22 35 24 16 26
REMARK SMILES IDX 15 27 14 28 38 29 12 30 39 31 11 32 40 33 9 34 7 35 10 36
REMARK SMILES IDX 8 37 13 38 6 40 41 41 5 42 42 43 4 44 3 45 43 46 2 48 1 49
REMARK SMILES IDX 37 50
REMARK H PARENT 27 17 29 19 31 21 33 23 35 25 13 39 43 47 37 51
REMARK Flexibility Score: inf
ROOT
ATOM      1  C   UNL     1      19.650  28.426  13.771  1.00  0.00     0.180 C 
ATOM      2  C   UNL     1      18.296  28.508  13.017  1.00  0.00     0.177 C 
ATOM      3  C   UNL     1      17.138  28.855  13.983  1.00  0.00     0.180 C 
ATOM      4  C   UNL     1      17.523  29.996  14.947  1.00  0.00     0.214 C 
ATOM      5  C   UNL     1      18.945  29.814  15.533  1.00  0.00     0.339 C 
ATOM      6  O   UNL     1      19.898  29.618  14.499  1.00  0.00    -0.332 OA
ENDROOT
BRANCH   1   7
ATOM      7  C   UNL     1      20.825  28.197  12.804  1.00  0.00     0.198 C 
BRANCH   7   8
ATOM      8  O   UNL     1      22.052  28.616  13.377  1.00  0.00    -0.347 OA
BRANCH   8   9
ATOM      9  C   UNL     1      23.162  28.090  12.669  1.00  0.00     0.281 C 
ATOM     10  C   UNL     1      24.002  25.258  14.861  1.00  0.00     0.041 C 
ATOM     11  C   UNL     1      23.824  26.726  14.466  1.00  0.00     0.150 C 
ATOM     12  C   UNL     1      25.124  27.519  14.727  1.00  0.00     0.174 C 
ATOM     13  O   UNL     1      23.477  26.770  13.091  1.00  0.00    -0.344 OA
ATOM     14  C   UNL     1      24.996  28.974  14.225  1.00  0.00     0.179 C 
ATOM     15  C   UNL     1      24.382  29.031  12.809  1.00  0.00     0.202 C 
BRANCH  12  16
ATOM     16  O   UNL     1      25.427  27.508  16.100  1.00  0.00    -0.388 OA
ATOM     17  H   UNL     1      24.902  26.768  16.502  1.00  0.00     0.211 HD
ENDBRANCH  12  16
BRANCH  14  18
ATOM     18  O   UNL     1      24.287  29.789  15.129  1.00  0.00    -0.387 OA
ATOM     19  H   UNL     1      23.320  29.623  15.012  1.00  0.00     0.211 HD
ENDBRANCH  14  18
BRANCH  15  20
ATOM     20  O   UNL     1      25.366  28.662  11.875  1.00  0.00    -0.385 OA
ATOM     21  H   UNL     1      25.364  27.671  11.829  1.00  0.00     0.211 HD
ENDBRANCH  15  20
ENDBRANCH   8   9
ENDBRANCH   7   8
ENDBRANCH   1   7
BRANCH   2  22
ATOM     22  O   UNL     1      18.350  29.431  11.956  1.00  0.00    -0.387 OA
ATOM     23  H   UNL     1      19.029  30.120  12.183  1.00  0.00     0.211 HD
ENDBRANCH   2  22
BRANCH   3  24
ATOM     24  O   UNL     1      16.684  27.717  14.679  1.00  0.00    -0.387 OA
ATOM     25  H   UNL     1      15.752  27.531  14.406  1.00  0.00     0.211 HD
ENDBRANCH   3  24
BRANCH   5  26
ATOM     26  O   UNL     1      19.014  28.742  16.484  1.00  0.00    -0.462 OA
BRANCH  26  27
ATOM     27  C   UNL     1      20.177  28.125  16.977  1.00  0.00     0.130 A 
ATOM     28  C   UNL     1      21.370  28.827  17.241  1.00  0.00     0.093 A 
ATOM     29  C   UNL     1      20.140  26.745  17.194  1.00  0.00     0.094 A 
ATOM     30  C   UNL     1      22.499  28.158  17.739  1.00  0.00     0.133 A 
ATOM     31  C   UNL     1      21.266  26.064  17.661  1.00  0.00     0.138 A 
ATOM     32  C   UNL     1      22.447  26.767  17.958  1.00  0.00     0.102 A 
ATOM     33  O   UNL     1      21.213  24.673  17.831  1.00  0.00    -0.484 OA
ATOM     34  C   UNL     1      23.586  26.001  18.524  1.00  0.00     0.174 C 
ATOM     35  C   UNL     1      22.402  23.890  17.972  1.00  0.00     0.211 C 
ATOM     36  O   UNL     1      24.713  26.535  18.698  1.00  0.00    -0.294 OA
ATOM     37  C   UNL     1      23.364  24.580  18.957  1.00  0.00     0.131 C 
BRANCH  30  38
ATOM     38  O   UNL     1      23.660  28.880  18.018  1.00  0.00    -0.507 OA
ATOM     39  H   UNL     1      23.769  29.402  18.879  1.00  0.00     0.293 HD
ENDBRANCH  30  38
BRANCH  35  40
ATOM     40  C   UNL     1      22.028  22.459  18.315  1.00  0.00    -0.003 A 
ATOM     41  C   UNL     1      20.707  22.046  18.592  1.00  0.00     0.057 A 
ATOM     42  C   UNL     1      23.050  21.497  18.339  1.00  0.00     0.011 A 
ATOM     43  C   UNL     1      20.427  20.706  18.899  1.00  0.00     0.158 A 
ATOM     44  C   UNL     1      22.772  20.163  18.642  1.00  0.00     0.051 A 
ATOM     45  C   UNL     1      21.456  19.757  18.927  1.00  0.00     0.160 A 
BRANCH  43  46
ATOM     46  O   UNL     1      19.119  20.310  19.179  1.00  0.00    -0.504 OA
ATOM     47  H   UNL     1      18.922  19.483  19.730  1.00  0.00     0.293 HD
ENDBRANCH  43  46
BRANCH  45  48
ATOM     48  O   UNL     1      21.134  18.427  19.242  1.00  0.00    -0.493 OA
ATOM     49  C   UNL     1      21.926  17.582  20.070  1.00  0.00     0.278 C 
ENDBRANCH  45  48
ENDBRANCH  35  40
ENDBRANCH  26  27
ENDBRANCH   5  26
BRANCH   4  50
ATOM     50  O   UNL     1      16.563  30.094  15.968  1.00  0.00    -0.384 OA
ATOM     51  H   UNL     1      17.058  30.202  16.821  1.00  0.00     0.211 HD
ENDBRANCH   4  50
TORSDOF 15
ENDMDL
MODEL 9
REMARK VINA RESULT:    -2.564      3.108      6.676
REMARK INTER + INTRA:          -6.089
REMARK INTER:                  -3.742
REMARK INTRA:                  -2.347
REMARK UNBOUND:                -1.876
REMARK SMILES COc1ccc([C@@H]2CC(=O)c3c(O)cc(O[C@H]4O[C@H](CO[C@@H]5O[C@@H](C)[C@H](O)[C@H](O)[C@H]5O)[C@H](O)[C@@H](O)[C@H]4O)cc3O2)cc1O
REMARK SMILES IDX 19 1 32 2 34 3 36 4 17 5 18 6 20 7 21 8 22 9 25 10 24 11
REMARK SMILES IDX 26 12 23 13 28 14 30 15 27 16 29 18 31 20 33 22 35 24 16 26
REMARK SMILES IDX 15 27 14 28 38 29 12 30 39 31 11 32 40 33 9 34 7 35 10 36
REMARK SMILES IDX 8 37 13 38 6 40 41 41 5 42 42 43 4 44 3 45 43 46 2 48 1 49
REMARK SMILES IDX 37 50
REMARK H PARENT 27 17 29 19 31 21 33 23 35 25 13 39 43 47 37 51
REMARK Flexibility Score: inf
ROOT
ATOM      1  C   UNL     1      23.889  28.401  16.067  1.00  0.00     0.180 C 
ATOM      2  C   UNL     1      23.843  29.441  14.916  1.00  0.00     0.177 C 
ATOM      3  C   UNL     1      24.141  28.778  13.551  1.00  0.00     0.180 C 
ATOM      4  C   UNL     1      23.375  27.449  13.383  1.00  0.00     0.214 C 
ATOM      5  C   UNL     1      23.435  26.574  14.659  1.00  0.00     0.339 C 
ATOM      6  O   UNL     1      23.022  27.311  15.800  1.00  0.00    -0.332 OA
ENDROOT
BRANCH   1   7
ATOM      7  C   UNL     1      23.480  29.025  17.413  1.00  0.00     0.198 C 
BRANCH   7   8
ATOM      8  O   UNL     1      22.860  28.069  18.256  1.00  0.00    -0.347 OA
BRANCH   8   9
ATOM      9  C   UNL     1      23.808  27.407  19.077  1.00  0.00     0.281 C 
ATOM     10  C   UNL     1      22.073  24.200  19.552  1.00  0.00     0.041 C 
ATOM     11  C   UNL     1      22.296  25.709  19.672  1.00  0.00     0.150 C 
ATOM     12  C   UNL     1      22.213  26.153  21.150  1.00  0.00     0.174 C 
ATOM     13  O   UNL     1      23.571  26.007  19.129  1.00  0.00    -0.344 OA
ATOM     14  C   UNL     1      22.552  27.653  21.297  1.00  0.00     0.179 C 
ATOM     15  C   UNL     1      23.817  28.028  20.494  1.00  0.00     0.202 C 
BRANCH  12  16
ATOM     16  O   UNL     1      20.929  25.896  21.658  1.00  0.00    -0.388 OA
ATOM     17  H   UNL     1      20.484  26.776  21.771  1.00  0.00     0.211 HD
ENDBRANCH  12  16
BRANCH  14  18
ATOM     18  O   UNL     1      21.463  28.480  20.961  1.00  0.00    -0.387 OA
ATOM     19  H   UNL     1      20.737  28.328  21.614  1.00  0.00     0.211 HD
ENDBRANCH  14  18
BRANCH  15  20
ATOM     20  O   UNL     1      24.948  27.575  21.196  1.00  0.00    -0.385 OA
ATOM     21  H   UNL     1      25.737  28.009  20.782  1.00  0.00     0.211 HD
ENDBRANCH  15  20
ENDBRANCH   8   9
ENDBRANCH   7   8
ENDBRANCH   1   7
BRANCH   2  22
ATOM     22  O   UNL     1      22.609  30.118  14.880  1.00  0.00    -0.387 OA
ATOM     23  H   UNL     1      22.787  31.067  14.645  1.00  0.00     0.211 HD
ENDBRANCH   2  22
BRANCH   3  24
ATOM     24  O   UNL     1      25.524  28.610  13.346  1.00  0.00    -0.387 OA
ATOM     25  H   UNL     1      25.679  27.716  12.953  1.00  0.00     0.211 HD
ENDBRANCH   3  24
BRANCH   5  26
ATOM     26  O   UNL     1      24.735  26.008  14.876  1.00  0.00    -0.462 OA
BRANCH  26  27
ATOM     27  C   UNL     1      25.025  24.712  15.338  1.00  0.00     0.130 A 
ATOM     28  C   UNL     1      25.312  23.633  14.479  1.00  0.00     0.093 A 
ATOM     29  C   UNL     1      25.008  24.494  16.719  1.00  0.00     0.094 A 
ATOM     30  C   UNL     1      25.601  22.361  14.999  1.00  0.00     0.133 A 
ATOM     31  C   UNL     1      25.265  23.227  17.246  1.00  0.00     0.138 A 
ATOM     32  C   UNL     1      25.585  22.155  16.392  1.00  0.00     0.102 A 
ATOM     33  O   UNL     1      25.201  23.028  18.632  1.00  0.00    -0.484 OA
ATOM     34  C   UNL     1      25.923  20.851  17.016  1.00  0.00     0.174 C 
ATOM     35  C   UNL     1      25.115  21.716  19.197  1.00  0.00     0.211 C 
ATOM     36  O   UNL     1      26.097  19.817  16.318  1.00  0.00    -0.294 OA
ATOM     37  C   UNL     1      26.125  20.785  18.502  1.00  0.00     0.131 C 
BRANCH  30  38
ATOM     38  O   UNL     1      25.908  21.315  14.128  1.00  0.00    -0.507 OA
ATOM     39  H   UNL     1      26.856  20.981  14.010  1.00  0.00     0.293 HD
ENDBRANCH  30  38
BRANCH  35  40
ATOM     40  C   UNL     1      25.239  21.807  20.708  1.00  0.00    -0.003 A 
ATOM     41  C   UNL     1      25.581  22.993  21.390  1.00  0.00     0.057 A 
ATOM     42  C   UNL     1      24.979  20.651  21.462  1.00  0.00     0.011 A 
ATOM     43  C   UNL     1      25.675  23.012  22.789  1.00  0.00     0.158 A 
ATOM     44  C   UNL     1      25.071  20.668  22.855  1.00  0.00     0.051 A 
ATOM     45  C   UNL     1      25.422  21.851  23.530  1.00  0.00     0.160 A 
BRANCH  43  46
ATOM     46  O   UNL     1      26.022  24.188  23.454  1.00  0.00    -0.504 OA
ATOM     47  H   UNL     1      25.574  24.460  24.321  1.00  0.00     0.293 HD
ENDBRANCH  43  46
BRANCH  45  48
ATOM     48  O   UNL     1      25.531  21.910  24.929  1.00  0.00    -0.493 OA
ATOM     49  C   UNL     1      24.712  21.174  25.832  1.00  0.00     0.278 C 
ENDBRANCH  45  48
ENDBRANCH  35  40
ENDBRANCH  26  27
ENDBRANCH   5  26
BRANCH   4  50
ATOM     50  O   UNL     1      23.874  26.756  12.269  1.00  0.00    -0.384 OA
ATOM     51  H   UNL     1      24.517  26.082  12.611  1.00  0.00     0.211 HD
ENDBRANCH   4  50
TORSDOF 15
ENDMDL
