MODEL 1
REMARK VINA RESULT:    -4.854      0.000      0.000
REMARK INTER + INTRA:          -5.465
REMARK INTER:                  -5.421
REMARK INTRA:                  -0.043
REMARK UNBOUND:                -0.043
REMARK SMILES O=C([O-])c1ccccc1C(=O)[O-]
REMARK SMILES IDX 4 1 9 2 5 3 8 4 6 5 7 6 2 7 1 8 3 9 10 10 11 11 12 12
REMARK H PARENT
REMARK Flexibility Score: inf
ROOT
ATOM      1  C   UNL     1      -5.244  38.281  23.161  1.00  0.00     0.006 A 
ATOM      2  C   UNL     1      -5.140  37.063  22.434  1.00  0.00     0.006 A 
ATOM      3  C   UNL     1      -5.760  38.255  24.470  1.00  0.00     0.010 A 
ATOM      4  C   UNL     1      -5.494  35.856  23.067  1.00  0.00     0.010 A 
ATOM      5  C   UNL     1      -6.125  37.049  25.070  1.00  0.00     0.001 A 
ATOM      6  C   UNL     1      -5.981  35.852  24.374  1.00  0.00     0.001 A 
ENDROOT
BRANCH   1   7
ATOM      7  C   UNL     1      -4.768  39.579  22.629  1.00  0.00     0.072 C 
ATOM      8  O   UNL     1      -3.551  39.893  22.689  1.00  0.00    -0.545 OA
ATOM      9  O   UNL     1      -5.677  40.497  22.115  1.00  0.00    -0.545 OA
ENDBRANCH   1   7
BRANCH   2  10
ATOM     10  C   UNL     1      -4.741  37.012  21.008  1.00  0.00     0.072 C 
ATOM     11  O   UNL     1      -3.865  36.193  20.624  1.00  0.00    -0.545 OA
ATOM     12  O   UNL     1      -5.371  37.818  20.067  1.00  0.00    -0.545 OA
ENDBRANCH   2  10
TORSDOF 2
ENDMDL
MODEL 2
REMARK VINA RESULT:    -4.798      0.094      3.029
REMARK INTER + INTRA:          -5.402
REMARK INTER:                  -5.405
REMARK INTRA:                   0.003
REMARK UNBOUND:                -0.043
REMARK SMILES O=C([O-])c1ccccc1C(=O)[O-]
REMARK SMILES IDX 4 1 9 2 5 3 8 4 6 5 7 6 2 7 1 8 3 9 10 10 11 11 12 12
REMARK H PARENT
REMARK Flexibility Score: inf
ROOT
ATOM      1  C   UNL     1      -5.174  37.036  22.440  1.00  0.00     0.006 A 
ATOM      2  C   UNL     1      -5.266  38.261  23.157  1.00  0.00     0.006 A 
ATOM      3  C   UNL     1      -5.522  35.836  23.087  1.00  0.00     0.010 A 
ATOM      4  C   UNL     1      -5.764  38.246  24.474  1.00  0.00     0.010 A 
ATOM      5  C   UNL     1      -5.993  35.843  24.400  1.00  0.00     0.001 A 
ATOM      6  C   UNL     1      -6.125  37.046  25.088  1.00  0.00     0.001 A 
ENDROOT
BRANCH   1   7
ATOM      7  C   UNL     1      -4.793  36.968  21.010  1.00  0.00     0.072 C 
ATOM      8  O   UNL     1      -5.384  37.673  20.151  1.00  0.00    -0.545 OA
ATOM      9  O   UNL     1      -3.818  36.070  20.591  1.00  0.00    -0.545 OA
ENDBRANCH   1   7
BRANCH   2  10
ATOM     10  C   UNL     1      -4.791  39.551  22.605  1.00  0.00     0.072 C 
ATOM     11  O   UNL     1      -3.557  39.781  22.505  1.00  0.00    -0.545 OA
ATOM     12  O   UNL     1      -5.695  40.494  22.130  1.00  0.00    -0.545 OA
ENDBRANCH   2  10
TORSDOF 2
ENDMDL
MODEL 3
REMARK VINA RESULT:    -4.611      2.085      3.537
REMARK INTER + INTRA:          -5.193
REMARK INTER:                  -5.200
REMARK INTRA:                   0.007
REMARK UNBOUND:                -0.043
REMARK SMILES O=C([O-])c1ccccc1C(=O)[O-]
REMARK SMILES IDX 4 1 9 2 5 3 8 4 6 5 7 6 2 7 1 8 3 9 10 10 11 11 12 12
REMARK H PARENT
REMARK Flexibility Score: inf
ROOT
ATOM      1  C   UNL     1      -4.924  37.822  21.622  1.00  0.00     0.006 A 
ATOM      2  C   UNL     1      -4.953  37.329  22.956  1.00  0.00     0.006 A 
ATOM      3  C   UNL     1      -4.942  39.212  21.406  1.00  0.00     0.010 A 
ATOM      4  C   UNL     1      -4.934  38.246  24.025  1.00  0.00     0.010 A 
ATOM      5  C   UNL     1      -4.945  40.103  22.480  1.00  0.00     0.001 A 
ATOM      6  C   UNL     1      -4.928  39.620  23.786  1.00  0.00     0.001 A 
ENDROOT
BRANCH   1   7
ATOM      7  C   UNL     1      -4.804  36.938  20.440  1.00  0.00     0.072 C 
ATOM      8  O   UNL     1      -5.813  36.355  19.965  1.00  0.00    -0.545 OA
ATOM      9  O   UNL     1      -3.556  36.690  19.879  1.00  0.00    -0.545 OA
ENDBRANCH   1   7
BRANCH   2  10
ATOM     10  C   UNL     1      -5.076  35.888  23.276  1.00  0.00     0.072 C 
ATOM     11  O   UNL     1      -4.195  35.076  22.887  1.00  0.00    -0.545 OA
ATOM     12  O   UNL     1      -6.125  35.423  24.060  1.00  0.00    -0.545 OA
ENDBRANCH   2  10
TORSDOF 2
ENDMDL
MODEL 4
REMARK VINA RESULT:    -4.562      2.090      3.354
REMARK INTER + INTRA:          -5.138
REMARK INTER:                  -5.122
REMARK INTRA:                  -0.016
REMARK UNBOUND:                -0.043
REMARK SMILES O=C([O-])c1ccccc1C(=O)[O-]
REMARK SMILES IDX 4 1 9 2 5 3 8 4 6 5 7 6 2 7 1 8 3 9 10 10 11 11 12 12
REMARK H PARENT
REMARK Flexibility Score: inf
ROOT
ATOM      1  C   UNL     1      -4.998  37.237  22.937  1.00  0.00     0.006 A 
ATOM      2  C   UNL     1      -4.915  37.742  21.610  1.00  0.00     0.006 A 
ATOM      3  C   UNL     1      -5.000  38.142  24.014  1.00  0.00     0.010 A 
ATOM      4  C   UNL     1      -4.903  39.135  21.407  1.00  0.00     0.010 A 
ATOM      5  C   UNL     1      -4.965  39.519  23.791  1.00  0.00     0.001 A 
ATOM      6  C   UNL     1      -4.929  40.014  22.489  1.00  0.00     0.001 A 
ENDROOT
BRANCH   1   7
ATOM      7  C   UNL     1      -5.154  35.796  23.242  1.00  0.00     0.072 C 
ATOM      8  O   UNL     1      -6.123  35.384  23.932  1.00  0.00    -0.545 OA
ATOM      9  O   UNL     1      -4.191  34.887  22.821  1.00  0.00    -0.545 OA
ENDBRANCH   1   7
BRANCH   2  10
ATOM     10  C   UNL     1      -4.768  36.863  20.426  1.00  0.00     0.072 C 
ATOM     11  O   UNL     1      -5.781  36.323  19.907  1.00  0.00    -0.545 OA
ATOM     12  O   UNL     1      -3.525  36.674  19.834  1.00  0.00    -0.545 OA
ENDBRANCH   2  10
TORSDOF 2
ENDMDL
MODEL 5
REMARK VINA RESULT:    -4.540      1.834      3.393
REMARK INTER + INTRA:          -5.114
REMARK INTER:                  -4.928
REMARK INTRA:                  -0.187
REMARK UNBOUND:                -0.043
REMARK SMILES O=C([O-])c1ccccc1C(=O)[O-]
REMARK SMILES IDX 4 1 9 2 5 3 8 4 6 5 7 6 2 7 1 8 3 9 10 10 11 11 12 12
REMARK H PARENT
REMARK Flexibility Score: inf
ROOT
ATOM      1  C   UNL     1      -5.281  38.048  22.962  1.00  0.00     0.006 A 
ATOM      2  C   UNL     1      -5.473  37.416  24.222  1.00  0.00     0.006 A 
ATOM      3  C   UNL     1      -5.477  37.300  21.786  1.00  0.00     0.010 A 
ATOM      4  C   UNL     1      -5.916  36.080  24.258  1.00  0.00     0.010 A 
ATOM      5  C   UNL     1      -5.894  35.971  21.845  1.00  0.00     0.001 A 
ATOM      6  C   UNL     1      -6.125  35.366  23.078  1.00  0.00     0.001 A 
ENDROOT
BRANCH   1   7
ATOM      7  C   UNL     1      -4.951  39.485  22.824  1.00  0.00     0.072 C 
ATOM      8  O   UNL     1      -5.824  40.316  22.461  1.00  0.00    -0.545 OA
ATOM      9  O   UNL     1      -3.648  39.923  23.030  1.00  0.00    -0.545 OA
ENDBRANCH   1   7
BRANCH   2  10
ATOM     10  C   UNL     1      -5.157  38.082  25.508  1.00  0.00     0.072 C 
ATOM     11  O   UNL     1      -6.086  38.499  26.250  1.00  0.00    -0.545 OA
ATOM     12  O   UNL     1      -3.842  38.195  25.943  1.00  0.00    -0.545 OA
ENDBRANCH   2  10
TORSDOF 2
ENDMDL
MODEL 6
REMARK VINA RESULT:    -4.507      1.797      3.135
REMARK INTER + INTRA:          -5.077
REMARK INTER:                  -4.901
REMARK INTRA:                  -0.177
REMARK UNBOUND:                -0.043
REMARK SMILES O=C([O-])c1ccccc1C(=O)[O-]
REMARK SMILES IDX 4 1 9 2 5 3 8 4 6 5 7 6 2 7 1 8 3 9 10 10 11 11 12 12
REMARK H PARENT
REMARK Flexibility Score: inf
ROOT
ATOM      1  C   UNL     1      -5.423  37.422  24.231  1.00  0.00     0.006 A 
ATOM      2  C   UNL     1      -5.207  38.021  22.958  1.00  0.00     0.006 A 
ATOM      3  C   UNL     1      -5.898  36.099  24.292  1.00  0.00     0.010 A 
ATOM      4  C   UNL     1      -5.412  37.252  21.797  1.00  0.00     0.010 A 
ATOM      5  C   UNL     1      -6.115  35.362  23.127  1.00  0.00     0.001 A 
ATOM      6  C   UNL     1      -5.861  35.934  21.883  1.00  0.00     0.001 A 
ENDROOT
BRANCH   1   7
ATOM      7  C   UNL     1      -5.104  38.104  25.506  1.00  0.00     0.072 C 
ATOM      8  O   UNL     1      -6.014  38.617  26.208  1.00  0.00    -0.545 OA
ATOM      9  O   UNL     1      -3.781  38.242  25.910  1.00  0.00    -0.545 OA
ENDBRANCH   1   7
BRANCH   2  10
ATOM     10  C   UNL     1      -4.843  39.448  22.796  1.00  0.00     0.072 C 
ATOM     11  O   UNL     1      -3.644  39.813  22.913  1.00  0.00    -0.545 OA
ATOM     12  O   UNL     1      -5.805  40.389  22.449  1.00  0.00    -0.545 OA
ENDBRANCH   2  10
TORSDOF 2
ENDMDL
MODEL 7
REMARK VINA RESULT:    -4.296      2.279      3.416
REMARK INTER + INTRA:          -4.842
REMARK INTER:                  -4.796
REMARK INTRA:                  -0.046
REMARK UNBOUND:                -0.043
REMARK SMILES O=C([O-])c1ccccc1C(=O)[O-]
REMARK SMILES IDX 4 1 9 2 5 3 8 4 6 5 7 6 2 7 1 8 3 9 10 10 11 11 12 12
REMARK H PARENT
REMARK Flexibility Score: inf
ROOT
ATOM      1  C   UNL     1      -5.000  38.377  23.704  1.00  0.00     0.006 A 
ATOM      2  C   UNL     1      -5.025  37.389  22.681  1.00  0.00     0.006 A 
ATOM      3  C   UNL     1      -5.011  39.737  23.343  1.00  0.00     0.010 A 
ATOM      4  C   UNL     1      -5.125  37.798  21.338  1.00  0.00     0.010 A 
ATOM      5  C   UNL     1      -5.088  40.120  22.004  1.00  0.00     0.001 A 
ATOM      6  C   UNL     1      -5.158  39.152  21.004  1.00  0.00     0.001 A 
ENDROOT
BRANCH   1   7
ATOM      7  C   UNL     1      -5.034  38.043  25.147  1.00  0.00     0.072 C 
ATOM      8  O   UNL     1      -6.125  37.807  25.729  1.00  0.00    -0.545 OA
ATOM      9  O   UNL     1      -3.861  38.052  25.892  1.00  0.00    -0.545 OA
ENDBRANCH   1   7
BRANCH   2  10
ATOM     10  C   UNL     1      -4.877  35.942  22.961  1.00  0.00     0.072 C 
ATOM     11  O   UNL     1      -5.769  35.327  23.604  1.00  0.00    -0.545 OA
ATOM     12  O   UNL     1      -3.791  35.231  22.464  1.00  0.00    -0.545 OA
ENDBRANCH   2  10
TORSDOF 2
ENDMDL
MODEL 8
REMARK VINA RESULT:    -4.093      1.815      4.227
REMARK INTER + INTRA:          -4.615
REMARK INTER:                  -4.852
REMARK INTRA:                   0.238
REMARK UNBOUND:                -0.043
REMARK SMILES O=C([O-])c1ccccc1C(=O)[O-]
REMARK SMILES IDX 4 1 9 2 5 3 8 4 6 5 7 6 2 7 1 8 3 9 10 10 11 11 12 12
REMARK H PARENT
REMARK Flexibility Score: inf
ROOT
ATOM      1  C   UNL     1      -4.855  37.049  21.427  1.00  0.00     0.006 A 
ATOM      2  C   UNL     1      -4.434  38.380  21.152  1.00  0.00     0.006 A 
ATOM      3  C   UNL     1      -4.721  36.069  20.427  1.00  0.00     0.010 A 
ATOM      4  C   UNL     1      -3.836  38.666  19.910  1.00  0.00     0.010 A 
ATOM      5  C   UNL     1      -4.145  36.380  19.194  1.00  0.00     0.001 A 
ATOM      6  C   UNL     1      -3.693  37.672  18.942  1.00  0.00     0.001 A 
ENDROOT
BRANCH   1   7
ATOM      7  C   UNL     1      -5.367  36.623  22.750  1.00  0.00     0.072 C 
ATOM      8  O   UNL     1      -6.125  37.373  23.420  1.00  0.00    -0.545 OA
ATOM      9  O   UNL     1      -4.961  35.412  23.298  1.00  0.00    -0.545 OA
ENDBRANCH   1   7
BRANCH   2  10
ATOM     10  C   UNL     1      -4.664  39.503  22.091  1.00  0.00     0.072 C 
ATOM     11  O   UNL     1      -3.835  39.741  23.009  1.00  0.00    -0.545 OA
ATOM     12  O   UNL     1      -5.758  40.346  21.934  1.00  0.00    -0.545 OA
ENDBRANCH   2  10
TORSDOF 2
ENDMDL
MODEL 9
REMARK VINA RESULT:    -4.066      1.820      3.492
REMARK INTER + INTRA:          -4.585
REMARK INTER:                  -4.678
REMARK INTRA:                   0.093
REMARK UNBOUND:                -0.043
REMARK SMILES O=C([O-])c1ccccc1C(=O)[O-]
REMARK SMILES IDX 4 1 9 2 5 3 8 4 6 5 7 6 2 7 1 8 3 9 10 10 11 11 12 12
REMARK H PARENT
REMARK Flexibility Score: inf
ROOT
ATOM      1  C   UNL     1      -4.553  38.425  21.337  1.00  0.00     0.006 A 
ATOM      2  C   UNL     1      -4.838  37.087  21.725  1.00  0.00     0.006 A 
ATOM      3  C   UNL     1      -4.039  38.670  20.050  1.00  0.00     0.010 A 
ATOM      4  C   UNL     1      -4.660  36.050  20.789  1.00  0.00     0.010 A 
ATOM      5  C   UNL     1      -3.849  37.625  19.146  1.00  0.00     0.001 A 
ATOM      6  C   UNL     1      -4.170  36.319  19.511  1.00  0.00     0.001 A 
ENDROOT
BRANCH   1   7
ATOM      7  C   UNL     1      -4.838  39.593  22.203  1.00  0.00     0.072 C 
ATOM      8  O   UNL     1      -5.976  40.130  22.207  1.00  0.00    -0.545 OA
ATOM      9  O   UNL     1      -3.827  40.150  22.977  1.00  0.00    -0.545 OA
ENDBRANCH   1   7
BRANCH   2  10
ATOM     10  C   UNL     1      -5.249  36.721  23.101  1.00  0.00     0.072 C 
ATOM     11  O   UNL     1      -6.124  35.834  23.286  1.00  0.00    -0.545 OA
ATOM     12  O   UNL     1      -4.632  37.302  24.202  1.00  0.00    -0.545 OA
ENDBRANCH   2  10
TORSDOF 2
ENDMDL
