MODEL 1
REMARK VINA RESULT:    -6.372      0.000      0.000
REMARK INTER + INTRA:          -7.769
REMARK INTER:                  -7.490
REMARK INTRA:                  -0.279
REMARK UNBOUND:                -0.279
REMARK SMILES O=c1cc(-c2ccc(O)c(O)c2)oc2cc(O)cc(O)c12
REMARK SMILES IDX 4 1 3 2 2 3 1 4 21 5 19 6 18 7 16 8 15 9 14 10 13 11 5 12
REMARK SMILES IDX 6 13 7 14 8 15 12 16 10 17 9 18 11 20 20 22 17 24
REMARK H PARENT 9 19 11 21 20 23 17 25
REMARK Flexibility Score: inf
ROOT
ATOM      1  C   UNL     1      10.874 -15.608  14.250  1.00  0.00     0.138 A 
ATOM      2  C   UNL     1      10.444 -15.099  13.016  1.00  0.00     0.100 A 
ATOM      3  C   UNL     1      10.603 -15.865  11.861  1.00  0.00     0.197 A 
ATOM      4  O   UNL     1      10.264 -15.358  10.760  1.00  0.00    -0.289 OA
ATOM      5  C   UNL     1      11.165 -17.161  11.947  1.00  0.00     0.107 A 
ATOM      6  C   UNL     1      11.337 -18.048  10.843  1.00  0.00     0.134 A 
ATOM      7  C   UNL     1      12.013 -19.260  11.030  1.00  0.00     0.093 A 
ATOM      8  C   UNL     1      12.469 -19.644  12.291  1.00  0.00     0.123 A 
ATOM      9  C   UNL     1      12.259 -18.808  13.389  1.00  0.00     0.094 A 
ATOM     10  C   UNL     1      11.619 -17.577  13.228  1.00  0.00     0.146 A 
ATOM     11  O   UNL     1      11.450 -16.804  14.296  1.00  0.00    -0.456 OA
ENDROOT
BRANCH   1  12
ATOM     12  C   UNL     1      10.729 -14.835  15.510  1.00  0.00     0.021 A 
ATOM     13  C   UNL     1      11.300 -13.560  15.664  1.00  0.00     0.016 A 
ATOM     14  C   UNL     1      11.138 -12.851  16.856  1.00  0.00     0.051 A 
ATOM     15  C   UNL     1      10.402 -13.392  17.915  1.00  0.00     0.157 A 
ATOM     16  C   UNL     1       9.978 -15.372  16.569  1.00  0.00     0.062 A 
ATOM     17  C   UNL     1       9.812 -14.669  17.768  1.00  0.00     0.158 A 
BRANCH  15  18
ATOM     18  O   UNL     1      10.281 -12.634  19.081  1.00  0.00    -0.504 OA
ATOM     19  H   UNL     1      10.944 -11.929  19.368  1.00  0.00     0.293 HD
ENDBRANCH  15  18
BRANCH  17  20
ATOM     20  O   UNL     1       9.059 -15.272  18.778  1.00  0.00    -0.504 OA
ATOM     21  H   UNL     1       9.319 -16.132  19.240  1.00  0.00     0.293 HD
ENDBRANCH  17  20
ENDBRANCH   1  12
BRANCH   6  22
ATOM     22  O   UNL     1      10.846 -17.800   9.558  1.00  0.00    -0.507 OA
ATOM     23  H   UNL     1      10.800 -18.483   8.817  1.00  0.00     0.293 HD
ENDBRANCH   6  22
BRANCH   8  24
ATOM     24  O   UNL     1      13.125 -20.864  12.442  1.00  0.00    -0.508 OA
ATOM     25  H   UNL     1      13.323 -21.249  13.358  1.00  0.00     0.293 HD
ENDBRANCH   8  24
TORSDOF 5
ENDMDL
MODEL 2
REMARK VINA RESULT:    -6.283      1.526      7.378
REMARK INTER + INTRA:          -7.664
REMARK INTER:                  -7.398
REMARK INTRA:                  -0.266
REMARK UNBOUND:                -0.279
REMARK SMILES O=c1cc(-c2ccc(O)c(O)c2)oc2cc(O)cc(O)c12
REMARK SMILES IDX 4 1 3 2 2 3 1 4 21 5 19 6 18 7 16 8 15 9 14 10 13 11 5 12
REMARK SMILES IDX 6 13 7 14 8 15 12 16 10 17 9 18 11 20 20 22 17 24
REMARK H PARENT 9 19 11 21 20 23 17 25
REMARK Flexibility Score: inf
ROOT
ATOM      1  C   UNL     1      10.951 -15.358  15.214  1.00  0.00     0.138 A 
ATOM      2  C   UNL     1      10.147 -15.724  16.302  1.00  0.00     0.100 A 
ATOM      3  C   UNL     1       9.993 -14.844  17.374  1.00  0.00     0.197 A 
ATOM      4  O   UNL     1       9.316 -15.225  18.364  1.00  0.00    -0.289 OA
ATOM      5  C   UNL     1      10.622 -13.576  17.338  1.00  0.00     0.107 A 
ATOM      6  C   UNL     1      10.503 -12.581  18.354  1.00  0.00     0.134 A 
ATOM      7  C   UNL     1      11.266 -11.411  18.266  1.00  0.00     0.093 A 
ATOM      8  C   UNL     1      12.096 -11.171  17.171  1.00  0.00     0.123 A 
ATOM      9  C   UNL     1      12.180 -12.114  16.145  1.00  0.00     0.094 A 
ATOM     10  C   UNL     1      11.458 -13.308  16.221  1.00  0.00     0.146 A 
ATOM     11  O   UNL     1      11.575 -14.186  15.230  1.00  0.00    -0.456 OA
ENDROOT
BRANCH   1  12
ATOM     12  C   UNL     1      11.148 -16.257  14.048  1.00  0.00     0.021 A 
ATOM     13  C   UNL     1      10.516 -16.017  12.815  1.00  0.00     0.016 A 
ATOM     14  C   UNL     1      10.728 -16.873  11.733  1.00  0.00     0.051 A 
ATOM     15  C   UNL     1      11.577 -17.978  11.851  1.00  0.00     0.157 A 
ATOM     16  C   UNL     1      12.012 -17.360  14.162  1.00  0.00     0.062 A 
ATOM     17  C   UNL     1      12.229 -18.224  13.081  1.00  0.00     0.158 A 
BRANCH  15  18
ATOM     18  O   UNL     1      11.743 -18.796  10.732  1.00  0.00    -0.504 OA
ATOM     19  H   UNL     1      12.090 -19.744  10.770  1.00  0.00     0.293 HD
ENDBRANCH  15  18
BRANCH  17  20
ATOM     20  O   UNL     1      13.094 -19.303  13.274  1.00  0.00    -0.504 OA
ATOM     21  H   UNL     1      13.216 -20.055  12.610  1.00  0.00     0.293 HD
ENDBRANCH  17  20
ENDBRANCH   1  12
BRANCH   6  22
ATOM     22  O   UNL     1       9.639 -12.681  19.448  1.00  0.00    -0.507 OA
ATOM     23  H   UNL     1       9.371 -11.912  20.044  1.00  0.00     0.293 HD
ENDBRANCH   6  22
BRANCH   8  24
ATOM     24  O   UNL     1      12.829  -9.988  17.110  1.00  0.00    -0.508 OA
ATOM     25  H   UNL     1      12.385  -9.083  17.218  1.00  0.00     0.293 HD
ENDBRANCH   8  24
TORSDOF 5
ENDMDL
MODEL 3
REMARK VINA RESULT:    -6.170      1.951      7.675
REMARK INTER + INTRA:          -7.532
REMARK INTER:                  -7.238
REMARK INTRA:                  -0.294
REMARK UNBOUND:                -0.279
REMARK SMILES O=c1cc(-c2ccc(O)c(O)c2)oc2cc(O)cc(O)c12
REMARK SMILES IDX 4 1 3 2 2 3 1 4 21 5 19 6 18 7 16 8 15 9 14 10 13 11 5 12
REMARK SMILES IDX 6 13 7 14 8 15 12 16 10 17 9 18 11 20 20 22 17 24
REMARK H PARENT 9 19 11 21 20 23 17 25
REMARK Flexibility Score: inf
ROOT
ATOM      1  C   UNL     1      10.479 -14.542  14.635  1.00  0.00     0.138 A 
ATOM      2  C   UNL     1      10.187 -15.295  15.781  1.00  0.00     0.100 A 
ATOM      3  C   UNL     1      10.056 -14.654  17.014  1.00  0.00     0.197 A 
ATOM      4  O   UNL     1       9.855 -15.362  18.034  1.00  0.00    -0.289 OA
ATOM      5  C   UNL     1      10.185 -13.246  17.092  1.00  0.00     0.107 A 
ATOM      6  C   UNL     1      10.030 -12.481  18.286  1.00  0.00     0.134 A 
ATOM      7  C   UNL     1      10.297 -11.107  18.264  1.00  0.00     0.093 A 
ATOM      8  C   UNL     1      10.654 -10.460  17.081  1.00  0.00     0.123 A 
ATOM      9  C   UNL     1      10.756 -11.189  15.895  1.00  0.00     0.094 A 
ATOM     10  C   UNL     1      10.530 -12.568  15.892  1.00  0.00     0.146 A 
ATOM     11  O   UNL     1      10.651 -13.229  14.745  1.00  0.00    -0.456 OA
ENDROOT
BRANCH   1  12
ATOM     12  C   UNL     1      10.629 -15.173  13.300  1.00  0.00     0.021 A 
ATOM     13  C   UNL     1      11.331 -16.379  13.127  1.00  0.00     0.016 A 
ATOM     14  C   UNL     1      11.447 -16.955  11.861  1.00  0.00     0.051 A 
ATOM     15  C   UNL     1      10.864 -16.350  10.744  1.00  0.00     0.157 A 
ATOM     16  C   UNL     1      10.031 -14.572  12.179  1.00  0.00     0.062 A 
ATOM     17  C   UNL     1      10.144 -15.144  10.905  1.00  0.00     0.158 A 
BRANCH  15  18
ATOM     18  O   UNL     1      11.019 -16.976   9.506  1.00  0.00    -0.504 OA
ATOM     19  H   UNL     1      11.592 -16.614   8.757  1.00  0.00     0.293 HD
ENDBRANCH  15  18
BRANCH  17  20
ATOM     20  O   UNL     1       9.530 -14.484   9.838  1.00  0.00    -0.504 OA
ATOM     21  H   UNL     1       9.794 -13.563   9.516  1.00  0.00     0.293 HD
ENDBRANCH  17  20
ENDBRANCH   1  12
BRANCH   6  22
ATOM     22  O   UNL     1       9.597 -13.013  19.504  1.00  0.00    -0.507 OA
ATOM     23  H   UNL     1       8.810 -12.671  20.035  1.00  0.00     0.293 HD
ENDBRANCH   6  22
BRANCH   8  24
ATOM     24  O   UNL     1      10.898  -9.088  17.094  1.00  0.00    -0.508 OA
ATOM     25  H   UNL     1      11.773  -8.702  16.760  1.00  0.00     0.293 HD
ENDBRANCH   8  24
TORSDOF 5
ENDMDL
MODEL 4
REMARK VINA RESULT:    -6.114      1.369      3.085
REMARK INTER + INTRA:          -7.466
REMARK INTER:                  -7.186
REMARK INTRA:                  -0.279
REMARK UNBOUND:                -0.279
REMARK SMILES O=c1cc(-c2ccc(O)c(O)c2)oc2cc(O)cc(O)c12
REMARK SMILES IDX 4 1 3 2 2 3 1 4 21 5 19 6 18 7 16 8 15 9 14 10 13 11 5 12
REMARK SMILES IDX 6 13 7 14 8 15 12 16 10 17 9 18 11 20 20 22 17 24
REMARK H PARENT 9 19 11 21 20 23 17 25
REMARK Flexibility Score: inf
ROOT
ATOM      1  C   UNL     1      11.115 -15.944  14.755  1.00  0.00     0.138 A 
ATOM      2  C   UNL     1      11.880 -17.115  14.842  1.00  0.00     0.100 A 
ATOM      3  C   UNL     1      12.251 -17.785  13.675  1.00  0.00     0.197 A 
ATOM      4  O   UNL     1      12.884 -18.867  13.787  1.00  0.00    -0.289 OA
ATOM      5  C   UNL     1      11.881 -17.259  12.414  1.00  0.00     0.107 A 
ATOM      6  C   UNL     1      12.239 -17.834  11.158  1.00  0.00     0.134 A 
ATOM      7  C   UNL     1      11.717 -17.290   9.978  1.00  0.00     0.093 A 
ATOM      8  C   UNL     1      10.901 -16.159  10.003  1.00  0.00     0.123 A 
ATOM      9  C   UNL     1      10.588 -15.557  11.223  1.00  0.00     0.094 A 
ATOM     10  C   UNL     1      11.065 -16.097  12.420  1.00  0.00     0.146 A 
ATOM     11  O   UNL     1      10.734 -15.502  13.562  1.00  0.00    -0.456 OA
ENDROOT
BRANCH   1  12
ATOM     12  C   UNL     1      10.693 -15.192  15.965  1.00  0.00     0.021 A 
ATOM     13  C   UNL     1       9.933 -15.795  16.981  1.00  0.00     0.016 A 
ATOM     14  C   UNL     1       9.559 -15.066  18.113  1.00  0.00     0.051 A 
ATOM     15  C   UNL     1       9.939 -13.729  18.259  1.00  0.00     0.157 A 
ATOM     16  C   UNL     1      11.086 -13.852  16.118  1.00  0.00     0.062 A 
ATOM     17  C   UNL     1      10.715 -13.114  17.249  1.00  0.00     0.158 A 
BRANCH  15  18
ATOM     18  O   UNL     1       9.530 -13.056  19.412  1.00  0.00    -0.504 OA
ATOM     19  H   UNL     1       9.109 -13.508  20.211  1.00  0.00     0.293 HD
ENDBRANCH  15  18
BRANCH  17  20
ATOM     20  O   UNL     1      11.136 -11.784  17.327  1.00  0.00    -0.504 OA
ATOM     21  H   UNL     1      10.581 -11.038  17.722  1.00  0.00     0.293 HD
ENDBRANCH  17  20
ENDBRANCH   1  12
BRANCH   6  22
ATOM     22  O   UNL     1      13.115 -18.913  11.013  1.00  0.00    -0.507 OA
ATOM     23  H   UNL     1      13.648 -19.327  11.763  1.00  0.00     0.293 HD
ENDBRANCH   6  22
BRANCH   8  24
ATOM     24  O   UNL     1      10.412 -15.637   8.807  1.00  0.00    -0.508 OA
ATOM     25  H   UNL     1       9.720 -14.897   8.796  1.00  0.00     0.293 HD
ENDBRANCH   8  24
TORSDOF 5
ENDMDL
MODEL 5
REMARK VINA RESULT:    -5.958      1.761      3.313
REMARK INTER + INTRA:          -7.282
REMARK INTER:                  -7.018
REMARK INTRA:                  -0.264
REMARK UNBOUND:                -0.279
REMARK SMILES O=c1cc(-c2ccc(O)c(O)c2)oc2cc(O)cc(O)c12
REMARK SMILES IDX 4 1 3 2 2 3 1 4 21 5 19 6 18 7 16 8 15 9 14 10 13 11 5 12
REMARK SMILES IDX 6 13 7 14 8 15 12 16 10 17 9 18 11 20 20 22 17 24
REMARK H PARENT 9 19 11 21 20 23 17 25
REMARK Flexibility Score: inf
ROOT
ATOM      1  C   UNL     1      11.169 -14.352  15.136  1.00  0.00     0.138 A 
ATOM      2  C   UNL     1      11.641 -15.665  15.264  1.00  0.00     0.100 A 
ATOM      3  C   UNL     1      11.625 -16.515  14.158  1.00  0.00     0.197 A 
ATOM      4  O   UNL     1      11.998 -17.707  14.318  1.00  0.00    -0.289 OA
ATOM      5  C   UNL     1      11.164 -16.035  12.909  1.00  0.00     0.107 A 
ATOM      6  C   UNL     1      11.140 -16.799  11.703  1.00  0.00     0.134 A 
ATOM      7  C   UNL     1      10.552 -16.256  10.555  1.00  0.00     0.093 A 
ATOM      8  C   UNL     1      10.042 -14.958  10.550  1.00  0.00     0.123 A 
ATOM      9  C   UNL     1      10.108 -14.182  11.709  1.00  0.00     0.094 A 
ATOM     10  C   UNL     1      10.657 -14.709  12.881  1.00  0.00     0.146 A 
ATOM     11  O   UNL     1      10.689 -13.943  13.967  1.00  0.00    -0.456 OA
ENDROOT
BRANCH   1  12
ATOM     12  C   UNL     1      11.164 -13.405  16.281  1.00  0.00     0.021 A 
ATOM     13  C   UNL     1      12.011 -12.284  16.316  1.00  0.00     0.016 A 
ATOM     14  C   UNL     1      11.977 -11.405  17.401  1.00  0.00     0.051 A 
ATOM     15  C   UNL     1      11.099 -11.619  18.467  1.00  0.00     0.157 A 
ATOM     16  C   UNL     1      10.272 -13.612  17.346  1.00  0.00     0.062 A 
ATOM     17  C   UNL     1      10.232 -12.736  18.439  1.00  0.00     0.158 A 
BRANCH  15  18
ATOM     18  O   UNL     1      11.117 -10.705  19.522  1.00  0.00    -0.504 OA
ATOM     19  H   UNL     1      11.497 -10.903  20.436  1.00  0.00     0.293 HD
ENDBRANCH  15  18
BRANCH  17  20
ATOM     20  O   UNL     1       9.325 -13.013  19.463  1.00  0.00    -0.504 OA
ATOM     21  H   UNL     1       9.575 -13.459  20.335  1.00  0.00     0.293 HD
ENDBRANCH  17  20
ENDBRANCH   1  12
BRANCH   6  22
ATOM     22  O   UNL     1      11.698 -18.074  11.575  1.00  0.00    -0.507 OA
ATOM     23  H   UNL     1      12.336 -18.493  12.234  1.00  0.00     0.293 HD
ENDBRANCH   6  22
BRANCH   8  24
ATOM     24  O   UNL     1       9.478 -14.445   9.383  1.00  0.00    -0.508 OA
ATOM     25  H   UNL     1       8.801 -14.974   8.845  1.00  0.00     0.293 HD
ENDBRANCH   8  24
TORSDOF 5
ENDMDL
MODEL 6
REMARK VINA RESULT:    -5.882      1.676      3.330
REMARK INTER + INTRA:          -7.192
REMARK INTER:                  -6.885
REMARK INTRA:                  -0.307
REMARK UNBOUND:                -0.279
REMARK SMILES O=c1cc(-c2ccc(O)c(O)c2)oc2cc(O)cc(O)c12
REMARK SMILES IDX 4 1 3 2 2 3 1 4 21 5 19 6 18 7 16 8 15 9 14 10 13 11 5 12
REMARK SMILES IDX 6 13 7 14 8 15 12 16 10 17 9 18 11 20 20 22 17 24
REMARK H PARENT 9 19 11 21 20 23 17 25
REMARK Flexibility Score: inf
ROOT
ATOM      1  C   UNL     1      11.169 -15.130  15.518  1.00  0.00     0.138 A 
ATOM      2  C   UNL     1      11.863 -16.180  16.135  1.00  0.00     0.100 A 
ATOM      3  C   UNL     1      12.236 -17.297  15.385  1.00  0.00     0.197 A 
ATOM      4  O   UNL     1      12.802 -18.250  15.979  1.00  0.00    -0.289 OA
ATOM      5  C   UNL     1      11.940 -17.345  14.001  1.00  0.00     0.107 A 
ATOM      6  C   UNL     1      12.307 -18.413  13.129  1.00  0.00     0.134 A 
ATOM      7  C   UNL     1      11.857 -18.405  11.803  1.00  0.00     0.093 A 
ATOM      8  C   UNL     1      11.106 -17.342  11.302  1.00  0.00     0.123 A 
ATOM      9  C   UNL     1      10.786 -16.266  12.132  1.00  0.00     0.094 A 
ATOM     10  C   UNL     1      11.191 -16.261  13.469  1.00  0.00     0.146 A 
ATOM     11  O   UNL     1      10.855 -15.225  14.231  1.00  0.00    -0.456 OA
ENDROOT
BRANCH   1  12
ATOM     12  C   UNL     1      10.749 -13.920  16.270  1.00  0.00     0.021 A 
ATOM     13  C   UNL     1      10.502 -13.958  17.653  1.00  0.00     0.016 A 
ATOM     14  C   UNL     1      10.119 -12.801  18.335  1.00  0.00     0.051 A 
ATOM     15  C   UNL     1       9.980 -11.586  17.660  1.00  0.00     0.157 A 
ATOM     16  C   UNL     1      10.623 -12.695  15.593  1.00  0.00     0.062 A 
ATOM     17  C   UNL     1      10.238 -11.531  16.270  1.00  0.00     0.158 A 
BRANCH  15  18
ATOM     18  O   UNL     1       9.591 -10.468  18.400  1.00  0.00    -0.504 OA
ATOM     19  H   UNL     1       9.718 -10.378  19.398  1.00  0.00     0.293 HD
ENDBRANCH  15  18
BRANCH  17  20
ATOM     20  O   UNL     1      10.125 -10.353  15.529  1.00  0.00    -0.504 OA
ATOM     21  H   UNL     1       9.672 -10.293  14.627  1.00  0.00     0.293 HD
ENDBRANCH  17  20
ENDBRANCH   1  12
BRANCH   6  22
ATOM     22  O   UNL     1      13.125 -19.482  13.504  1.00  0.00    -0.507 OA
ATOM     23  H   UNL     1      12.833 -20.257  14.080  1.00  0.00     0.293 HD
ENDBRANCH   6  22
BRANCH   8  24
ATOM     24  O   UNL     1      10.689 -17.362   9.972  1.00  0.00    -0.508 OA
ATOM     25  H   UNL     1      10.871 -18.157   9.372  1.00  0.00     0.293 HD
ENDBRANCH   8  24
TORSDOF 5
ENDMDL
MODEL 7
REMARK VINA RESULT:    -5.836      1.167      1.381
REMARK INTER + INTRA:          -7.138
REMARK INTER:                  -6.828
REMARK INTRA:                  -0.310
REMARK UNBOUND:                -0.279
REMARK SMILES O=c1cc(-c2ccc(O)c(O)c2)oc2cc(O)cc(O)c12
REMARK SMILES IDX 4 1 3 2 2 3 1 4 21 5 19 6 18 7 16 8 15 9 14 10 13 11 5 12
REMARK SMILES IDX 6 13 7 14 8 15 12 16 10 17 9 18 11 20 20 22 17 24
REMARK H PARENT 9 19 11 21 20 23 17 25
REMARK Flexibility Score: inf
ROOT
ATOM      1  C   UNL     1      10.531 -14.669  13.960  1.00  0.00     0.138 A 
ATOM      2  C   UNL     1      10.420 -13.823  12.849  1.00  0.00     0.100 A 
ATOM      3  C   UNL     1      10.571 -14.346  11.564  1.00  0.00     0.197 A 
ATOM      4  O   UNL     1      10.528 -13.552  10.589  1.00  0.00    -0.289 OA
ATOM      5  C   UNL     1      10.804 -15.732  11.393  1.00  0.00     0.107 A 
ATOM      6  C   UNL     1      10.934 -16.384  10.130  1.00  0.00     0.134 A 
ATOM      7  C   UNL     1      11.279 -17.740  10.087  1.00  0.00     0.093 A 
ATOM      8  C   UNL     1      11.440 -18.482  11.257  1.00  0.00     0.123 A 
ATOM      9  C   UNL     1      11.263 -17.867  12.498  1.00  0.00     0.094 A 
ATOM     10  C   UNL     1      10.952 -16.507  12.574  1.00  0.00     0.146 A 
ATOM     11  O   UNL     1      10.805 -15.955  13.774  1.00  0.00    -0.456 OA
ENDROOT
BRANCH   1  12
ATOM     12  C   UNL     1      10.378 -14.164  15.348  1.00  0.00     0.021 A 
ATOM     13  C   UNL     1      10.582 -12.810  15.669  1.00  0.00     0.016 A 
ATOM     14  C   UNL     1      10.420 -12.361  16.981  1.00  0.00     0.051 A 
ATOM     15  C   UNL     1      10.047 -13.245  17.998  1.00  0.00     0.157 A 
ATOM     16  C   UNL     1       9.989 -15.049  16.368  1.00  0.00     0.062 A 
ATOM     17  C   UNL     1       9.825 -14.607  17.687  1.00  0.00     0.158 A 
BRANCH  15  18
ATOM     18  O   UNL     1       9.905 -12.733  19.289  1.00  0.00    -0.504 OA
ATOM     19  H   UNL     1       9.624 -11.785  19.494  1.00  0.00     0.293 HD
ENDBRANCH  15  18
BRANCH  17  20
ATOM     20  O   UNL     1       9.446 -15.547  18.647  1.00  0.00    -0.504 OA
ATOM     21  H   UNL     1       9.873 -15.628  19.559  1.00  0.00     0.293 HD
ENDBRANCH  17  20
ENDBRANCH   1  12
BRANCH   6  22
ATOM     22  O   UNL     1      10.712 -15.757   8.901  1.00  0.00    -0.507 OA
ATOM     23  H   UNL     1      11.225 -14.958   8.560  1.00  0.00     0.293 HD
ENDBRANCH   6  22
BRANCH   8  24
ATOM     24  O   UNL     1      11.770 -19.833  11.175  1.00  0.00    -0.508 OA
ATOM     25  H   UNL     1      11.267 -20.534  11.706  1.00  0.00     0.293 HD
ENDBRANCH   8  24
TORSDOF 5
ENDMDL
MODEL 8
REMARK VINA RESULT:    -5.273     14.657     17.018
REMARK INTER + INTRA:          -6.477
REMARK INTER:                  -6.199
REMARK INTRA:                  -0.278
REMARK UNBOUND:                -0.279
REMARK SMILES O=c1cc(-c2ccc(O)c(O)c2)oc2cc(O)cc(O)c12
REMARK SMILES IDX 4 1 3 2 2 3 1 4 21 5 19 6 18 7 16 8 15 9 14 10 13 11 5 12
REMARK SMILES IDX 6 13 7 14 8 15 12 16 10 17 9 18 11 20 20 22 17 24
REMARK H PARENT 9 19 11 21 20 23 17 25
REMARK Flexibility Score: inf
ROOT
ATOM      1  C   UNL     1       0.560 -27.700  12.754  1.00  0.00     0.138 A 
ATOM      2  C   UNL     1       0.226 -28.650  13.728  1.00  0.00     0.100 A 
ATOM      3  C   UNL     1      -0.493 -28.258  14.859  1.00  0.00     0.197 A 
ATOM      4  O   UNL     1      -0.724 -29.121  15.745  1.00  0.00    -0.289 OA
ATOM      5  C   UNL     1      -0.906 -26.911  14.997  1.00  0.00     0.107 A 
ATOM      6  C   UNL     1      -1.677 -26.406  16.086  1.00  0.00     0.134 A 
ATOM      7  C   UNL     1      -1.927 -25.031  16.174  1.00  0.00     0.093 A 
ATOM      8  C   UNL     1      -1.486 -24.152  15.184  1.00  0.00     0.123 A 
ATOM      9  C   UNL     1      -0.777 -24.643  14.087  1.00  0.00     0.094 A 
ATOM     10  C   UNL     1      -0.482 -26.005  13.988  1.00  0.00     0.146 A 
ATOM     11  O   UNL     1       0.208 -26.431  12.935  1.00  0.00    -0.456 OA
ENDROOT
BRANCH   1  12
ATOM     12  C   UNL     1       1.322 -28.063  11.533  1.00  0.00     0.021 A 
ATOM     13  C   UNL     1       2.600 -28.644  11.605  1.00  0.00     0.016 A 
ATOM     14  C   UNL     1       3.289 -28.986  10.439  1.00  0.00     0.051 A 
ATOM     15  C   UNL     1       2.720 -28.764   9.182  1.00  0.00     0.157 A 
ATOM     16  C   UNL     1       0.745 -27.853  10.269  1.00  0.00     0.062 A 
ATOM     17  C   UNL     1       1.430 -28.192   9.095  1.00  0.00     0.158 A 
BRANCH  15  18
ATOM     18  O   UNL     1       3.463 -29.125   8.056  1.00  0.00    -0.504 OA
ATOM     19  H   UNL     1       3.260 -29.927   7.478  1.00  0.00     0.293 HD
ENDBRANCH  15  18
BRANCH  17  20
ATOM     20  O   UNL     1       0.795 -27.945   7.876  1.00  0.00    -0.504 OA
ATOM     21  H   UNL     1      -0.165 -27.642   7.790  1.00  0.00     0.293 HD
ENDBRANCH  17  20
ENDBRANCH   1  12
BRANCH   6  22
ATOM     22  O   UNL     1      -2.238 -27.206  17.085  1.00  0.00    -0.507 OA
ATOM     23  H   UNL     1      -1.719 -27.642  17.832  1.00  0.00     0.293 HD
ENDBRANCH   6  22
BRANCH   8  24
ATOM     24  O   UNL     1      -1.766 -22.792  15.298  1.00  0.00    -0.508 OA
ATOM     25  H   UNL     1      -1.106 -22.087  14.991  1.00  0.00     0.293 HD
ENDBRANCH   8  24
TORSDOF 5
ENDMDL
