MODEL 1
REMARK VINA RESULT:    -6.631      0.000      0.000
REMARK INTER + INTRA:          -7.794
REMARK INTER:                  -7.600
REMARK INTRA:                  -0.193
REMARK UNBOUND:                -0.193
REMARK SMILES O=c1c(-c2ccc(O)cc2)coc2c(O)c(O)ccc12
REMARK SMILES IDX 3 1 11 2 12 3 13 4 20 5 2 6 1 7 19 8 18 9 16 10 14 11 4 12
REMARK SMILES IDX 5 13 6 14 7 15 10 16 9 17 8 18 15 20 17 22
REMARK H PARENT 8 19 15 21 17 23
REMARK Flexibility Score: inf
ROOT
ATOM      1  C   UNL     1      32.230 -30.649   1.791  1.00  0.00     0.065 A 
ATOM      2  C   UNL     1      32.017 -31.859   1.114  1.00  0.00     0.208 A 
ATOM      3  O   UNL     1      31.752 -32.977   1.779  1.00  0.00    -0.459 OA
ATOM      4  C   UNL     1      31.671 -33.027   3.105  1.00  0.00     0.183 A 
ATOM      5  C   UNL     1      31.875 -31.856   3.871  1.00  0.00     0.069 A 
ATOM      6  C   UNL     1      32.163 -30.656   3.198  1.00  0.00     0.200 A 
ATOM      7  O   UNL     1      32.383 -29.597   3.850  1.00  0.00    -0.288 OA
ATOM      8  C   UNL     1      31.790 -31.923   5.273  1.00  0.00     0.020 A 
ATOM      9  C   UNL     1      31.503 -33.136   5.902  1.00  0.00     0.051 A 
ATOM     10  C   UNL     1      31.299 -34.296   5.149  1.00  0.00     0.161 A 
ATOM     11  C   UNL     1      31.382 -34.246   3.747  1.00  0.00     0.201 A 
ENDROOT
BRANCH   1  12
ATOM     12  C   UNL     1      32.517 -29.411   1.024  1.00  0.00    -0.011 A 
ATOM     13  C   UNL     1      33.764 -29.227   0.400  1.00  0.00     0.013 A 
ATOM     14  C   UNL     1      34.032 -28.055  -0.313  1.00  0.00     0.047 A 
ATOM     15  C   UNL     1      33.059 -27.052  -0.409  1.00  0.00     0.115 A 
ATOM     16  C   UNL     1      31.549 -28.396   0.928  1.00  0.00     0.013 A 
ATOM     17  C   UNL     1      31.820 -27.225   0.213  1.00  0.00     0.047 A 
BRANCH  15  18
ATOM     18  O   UNL     1      33.314 -25.880  -1.119  1.00  0.00    -0.508 OA
ATOM     19  H   UNL     1      32.925 -24.990  -0.828  1.00  0.00     0.293 HD
ENDBRANCH  15  18
ENDBRANCH   1  12
BRANCH  11  20
ATOM     20  O   UNL     1      31.178 -35.410   3.003  1.00  0.00    -0.502 OA
ATOM     21  H   UNL     1      31.680 -35.598   2.143  1.00  0.00     0.293 HD
ENDBRANCH  11  20
BRANCH  10  22
ATOM     22  O   UNL     1      31.015 -35.489   5.811  1.00  0.00    -0.504 OA
ATOM     23  H   UNL     1      30.877 -35.530   6.814  1.00  0.00     0.293 HD
ENDBRANCH  10  22
TORSDOF 4
ENDMDL
MODEL 2
REMARK VINA RESULT:    -6.624      1.035      2.120
REMARK INTER + INTRA:          -7.785
REMARK INTER:                  -7.566
REMARK INTRA:                  -0.220
REMARK UNBOUND:                -0.193
REMARK SMILES O=c1c(-c2ccc(O)cc2)coc2c(O)c(O)ccc12
REMARK SMILES IDX 3 1 11 2 12 3 13 4 20 5 2 6 1 7 19 8 18 9 16 10 14 11 4 12
REMARK SMILES IDX 5 13 6 14 7 15 10 16 9 17 8 18 15 20 17 22
REMARK H PARENT 8 19 15 21 17 23
REMARK Flexibility Score: inf
ROOT
ATOM      1  C   UNL     1      32.184 -30.030   2.437  1.00  0.00     0.065 A 
ATOM      2  C   UNL     1      32.408 -29.854   3.811  1.00  0.00     0.208 A 
ATOM      3  O   UNL     1      32.222 -30.852   4.666  1.00  0.00    -0.459 OA
ATOM      4  C   UNL     1      31.819 -32.062   4.289  1.00  0.00     0.183 A 
ATOM      5  C   UNL     1      31.565 -32.330   2.924  1.00  0.00     0.069 A 
ATOM      6  C   UNL     1      31.747 -31.292   1.992  1.00  0.00     0.200 A 
ATOM      7  O   UNL     1      31.500 -31.485   0.769  1.00  0.00    -0.288 OA
ATOM      8  C   UNL     1      31.136 -33.611   2.538  1.00  0.00     0.020 A 
ATOM      9  C   UNL     1      30.966 -34.612   3.496  1.00  0.00     0.051 A 
ATOM     10  C   UNL     1      31.218 -34.353   4.846  1.00  0.00     0.161 A 
ATOM     11  C   UNL     1      31.646 -33.076   5.249  1.00  0.00     0.201 A 
ENDROOT
BRANCH   1  12
ATOM     12  C   UNL     1      32.407 -28.900   1.500  1.00  0.00    -0.011 A 
ATOM     13  C   UNL     1      33.539 -28.872   0.665  1.00  0.00     0.013 A 
ATOM     14  C   UNL     1      33.747 -27.800  -0.208  1.00  0.00     0.047 A 
ATOM     15  C   UNL     1      32.829 -26.744  -0.257  1.00  0.00     0.115 A 
ATOM     16  C   UNL     1      31.494 -27.831   1.449  1.00  0.00     0.013 A 
ATOM     17  C   UNL     1      31.705 -26.762   0.573  1.00  0.00     0.047 A 
BRANCH  15  18
ATOM     18  O   UNL     1      33.026 -25.671  -1.125  1.00  0.00    -0.508 OA
ATOM     19  H   UNL     1      33.772 -25.001  -0.978  1.00  0.00     0.293 HD
ENDBRANCH  15  18
ENDBRANCH   1  12
BRANCH  11  20
ATOM     20  O   UNL     1      31.893 -32.827   6.600  1.00  0.00    -0.502 OA
ATOM     21  H   UNL     1      32.397 -32.006   6.915  1.00  0.00     0.293 HD
ENDBRANCH  11  20
BRANCH  10  22
ATOM     22  O   UNL     1      31.037 -35.377   5.775  1.00  0.00    -0.504 OA
ATOM     23  H   UNL     1      30.476 -36.197   5.573  1.00  0.00     0.293 HD
ENDBRANCH  10  22
TORSDOF 4
ENDMDL
MODEL 3
REMARK VINA RESULT:    -6.298      2.453      3.515
REMARK INTER + INTRA:          -7.412
REMARK INTER:                  -7.137
REMARK INTRA:                  -0.275
REMARK UNBOUND:                -0.193
REMARK SMILES O=c1c(-c2ccc(O)cc2)coc2c(O)c(O)ccc12
REMARK SMILES IDX 3 1 11 2 12 3 13 4 20 5 2 6 1 7 19 8 18 9 16 10 14 11 4 12
REMARK SMILES IDX 5 13 6 14 7 15 10 16 9 17 8 18 15 20 17 22
REMARK H PARENT 8 19 15 21 17 23
REMARK Flexibility Score: inf
ROOT
ATOM      1  C   UNL     1      31.284 -32.055   3.089  1.00  0.00     0.065 A 
ATOM      2  C   UNL     1      31.508 -32.174   4.468  1.00  0.00     0.208 A 
ATOM      3  O   UNL     1      30.676 -32.863   5.239  1.00  0.00    -0.459 OA
ATOM      4  C   UNL     1      29.595 -33.477   4.767  1.00  0.00     0.183 A 
ATOM      5  C   UNL     1      29.287 -33.408   3.389  1.00  0.00     0.069 A 
ATOM      6  C   UNL     1      30.145 -32.680   2.545  1.00  0.00     0.200 A 
ATOM      7  O   UNL     1      29.886 -32.570   1.314  1.00  0.00    -0.288 OA
ATOM      8  C   UNL     1      28.139 -34.057   2.903  1.00  0.00     0.020 A 
ATOM      9  C   UNL     1      27.312 -34.767   3.775  1.00  0.00     0.051 A 
ATOM     10  C   UNL     1      27.612 -34.840   5.138  1.00  0.00     0.161 A 
ATOM     11  C   UNL     1      28.756 -34.194   5.640  1.00  0.00     0.201 A 
ENDROOT
BRANCH   1  12
ATOM     12  C   UNL     1      32.234 -31.285   2.247  1.00  0.00    -0.011 A 
ATOM     13  C   UNL     1      33.390 -31.895   1.727  1.00  0.00     0.013 A 
ATOM     14  C   UNL     1      34.285 -31.161   0.943  1.00  0.00     0.047 A 
ATOM     15  C   UNL     1      34.039 -29.809   0.672  1.00  0.00     0.115 A 
ATOM     16  C   UNL     1      31.999 -29.925   1.976  1.00  0.00     0.013 A 
ATOM     17  C   UNL     1      32.895 -29.195   1.190  1.00  0.00     0.047 A 
BRANCH  15  18
ATOM     18  O   UNL     1      34.923 -29.068  -0.109  1.00  0.00    -0.508 OA
ATOM     19  H   UNL     1      35.293 -28.179   0.208  1.00  0.00     0.293 HD
ENDBRANCH  15  18
ENDBRANCH   1  12
BRANCH  11  20
ATOM     20  O   UNL     1      29.047 -34.272   7.004  1.00  0.00    -0.502 OA
ATOM     21  H   UNL     1      28.631 -33.645   7.682  1.00  0.00     0.293 HD
ENDBRANCH  11  20
BRANCH  10  22
ATOM     22  O   UNL     1      26.764 -35.558   5.979  1.00  0.00    -0.504 OA
ATOM     23  H   UNL     1      26.973 -36.503   6.279  1.00  0.00     0.293 HD
ENDBRANCH  10  22
TORSDOF 4
ENDMDL
MODEL 4
REMARK VINA RESULT:    -6.155      6.770      9.557
REMARK INTER + INTRA:          -7.248
REMARK INTER:                  -6.966
REMARK INTRA:                  -0.282
REMARK UNBOUND:                -0.193
REMARK SMILES O=c1c(-c2ccc(O)cc2)coc2c(O)c(O)ccc12
REMARK SMILES IDX 3 1 11 2 12 3 13 4 20 5 2 6 1 7 19 8 18 9 16 10 14 11 4 12
REMARK SMILES IDX 5 13 6 14 7 15 10 16 9 17 8 18 15 20 17 22
REMARK H PARENT 8 19 15 21 17 23
REMARK Flexibility Score: inf
ROOT
ATOM      1  C   UNL     1      28.312 -24.585   2.340  1.00  0.00     0.065 A 
ATOM      2  C   UNL     1      28.299 -23.292   1.796  1.00  0.00     0.208 A 
ATOM      3  O   UNL     1      27.832 -22.263   2.493  1.00  0.00    -0.459 OA
ATOM      4  C   UNL     1      27.355 -22.383   3.728  1.00  0.00     0.183 A 
ATOM      5  C   UNL     1      27.325 -23.649   4.355  1.00  0.00     0.069 A 
ATOM      6  C   UNL     1      27.806 -24.762   3.643  1.00  0.00     0.200 A 
ATOM      7  O   UNL     1      27.766 -25.914   4.158  1.00  0.00    -0.288 OA
ATOM      8  C   UNL     1      26.814 -23.764   5.659  1.00  0.00     0.020 A 
ATOM      9  C   UNL     1      26.343 -22.634   6.330  1.00  0.00     0.051 A 
ATOM     10  C   UNL     1      26.372 -21.379   5.716  1.00  0.00     0.161 A 
ATOM     11  C   UNL     1      26.879 -21.248   4.411  1.00  0.00     0.201 A 
ENDROOT
BRANCH   1  12
ATOM     12  C   UNL     1      28.846 -25.719   1.544  1.00  0.00    -0.011 A 
ATOM     13  C   UNL     1      30.216 -26.036   1.576  1.00  0.00     0.013 A 
ATOM     14  C   UNL     1      30.714 -27.099   0.817  1.00  0.00     0.047 A 
ATOM     15  C   UNL     1      29.851 -27.855   0.014  1.00  0.00     0.115 A 
ATOM     16  C   UNL     1      27.988 -26.479   0.730  1.00  0.00     0.013 A 
ATOM     17  C   UNL     1      28.489 -27.542  -0.027  1.00  0.00     0.047 A 
BRANCH  15  18
ATOM     18  O   UNL     1      30.335 -28.918  -0.746  1.00  0.00    -0.508 OA
ATOM     19  H   UNL     1      30.721 -28.774  -1.672  1.00  0.00     0.293 HD
ENDBRANCH  15  18
ENDBRANCH   1  12
BRANCH  11  20
ATOM     20  O   UNL     1      26.903 -19.990   3.804  1.00  0.00    -0.502 OA
ATOM     21  H   UNL     1      26.058 -19.461   3.623  1.00  0.00     0.293 HD
ENDBRANCH  11  20
BRANCH  10  22
ATOM     22  O   UNL     1      25.894 -20.273   6.416  1.00  0.00    -0.504 OA
ATOM     23  H   UNL     1      26.508 -19.654   6.933  1.00  0.00     0.293 HD
ENDBRANCH  10  22
TORSDOF 4
ENDMDL
MODEL 5
REMARK VINA RESULT:    -6.121      4.389      8.346
REMARK INTER + INTRA:          -7.209
REMARK INTER:                  -6.924
REMARK INTRA:                  -0.285
REMARK UNBOUND:                -0.193
REMARK SMILES O=c1c(-c2ccc(O)cc2)coc2c(O)c(O)ccc12
REMARK SMILES IDX 3 1 11 2 12 3 13 4 20 5 2 6 1 7 19 8 18 9 16 10 14 11 4 12
REMARK SMILES IDX 5 13 6 14 7 15 10 16 9 17 8 18 15 20 17 22
REMARK H PARENT 8 19 15 21 17 23
REMARK Flexibility Score: inf
ROOT
ATOM      1  C   UNL     1      27.891 -34.673   4.430  1.00  0.00     0.065 A 
ATOM      2  C   UNL     1      28.564 -34.506   5.650  1.00  0.00     0.208 A 
ATOM      3  O   UNL     1      29.668 -33.772   5.726  1.00  0.00    -0.459 OA
ATOM      4  C   UNL     1      30.201 -33.158   4.674  1.00  0.00     0.183 A 
ATOM      5  C   UNL     1      29.593 -33.274   3.403  1.00  0.00     0.069 A 
ATOM      6  C   UNL     1      28.426 -34.049   3.286  1.00  0.00     0.200 A 
ATOM      7  O   UNL     1      27.873 -34.202   2.161  1.00  0.00    -0.288 OA
ATOM      8  C   UNL     1      30.169 -32.624   2.298  1.00  0.00     0.020 A 
ATOM      9  C   UNL     1      31.331 -31.865   2.458  1.00  0.00     0.051 A 
ATOM     10  C   UNL     1      31.934 -31.746   3.712  1.00  0.00     0.161 A 
ATOM     11  C   UNL     1      31.372 -32.392   4.827  1.00  0.00     0.201 A 
ENDROOT
BRANCH   1  12
ATOM     12  C   UNL     1      26.655 -35.493   4.372  1.00  0.00    -0.011 A 
ATOM     13  C   UNL     1      25.391 -34.899   4.545  1.00  0.00     0.013 A 
ATOM     14  C   UNL     1      24.231 -35.678   4.499  1.00  0.00     0.047 A 
ATOM     15  C   UNL     1      24.319 -37.059   4.283  1.00  0.00     0.115 A 
ATOM     16  C   UNL     1      26.734 -36.882   4.163  1.00  0.00     0.013 A 
ATOM     17  C   UNL     1      25.572 -37.657   4.116  1.00  0.00     0.047 A 
BRANCH  15  18
ATOM     18  O   UNL     1      23.170 -37.845   4.233  1.00  0.00    -0.508 OA
ATOM     19  H   UNL     1      22.741 -38.210   5.076  1.00  0.00     0.293 HD
ENDBRANCH  15  18
ENDBRANCH   1  12
BRANCH  11  20
ATOM     20  O   UNL     1      31.983 -32.267   6.076  1.00  0.00    -0.502 OA
ATOM     21  H   UNL     1      31.693 -32.816   6.877  1.00  0.00     0.293 HD
ENDBRANCH  11  20
BRANCH  10  22
ATOM     22  O   UNL     1      33.093 -30.981   3.833  1.00  0.00    -0.504 OA
ATOM     23  H   UNL     1      33.335 -30.499   4.691  1.00  0.00     0.293 HD
ENDBRANCH  10  22
TORSDOF 4
ENDMDL
MODEL 6
REMARK VINA RESULT:    -6.003      6.154      9.039
REMARK INTER + INTRA:          -7.074
REMARK INTER:                  -6.814
REMARK INTRA:                  -0.260
REMARK UNBOUND:                -0.193
REMARK SMILES O=c1c(-c2ccc(O)cc2)coc2c(O)c(O)ccc12
REMARK SMILES IDX 3 1 11 2 12 3 13 4 20 5 2 6 1 7 19 8 18 9 16 10 14 11 4 12
REMARK SMILES IDX 5 13 6 14 7 15 10 16 9 17 8 18 15 20 17 22
REMARK H PARENT 8 19 15 21 17 23
REMARK Flexibility Score: inf
ROOT
ATOM      1  C   UNL     1      28.736 -25.400   2.512  1.00  0.00     0.065 A 
ATOM      2  C   UNL     1      28.128 -25.905   3.670  1.00  0.00     0.208 A 
ATOM      3  O   UNL     1      27.481 -25.102   4.507  1.00  0.00    -0.459 OA
ATOM      4  C   UNL     1      27.368 -23.792   4.309  1.00  0.00     0.183 A 
ATOM      5  C   UNL     1      27.953 -23.195   3.169  1.00  0.00     0.069 A 
ATOM      6  C   UNL     1      28.651 -24.017   2.265  1.00  0.00     0.200 A 
ATOM      7  O   UNL     1      29.214 -23.514   1.253  1.00  0.00    -0.288 OA
ATOM      8  C   UNL     1      27.830 -21.809   2.973  1.00  0.00     0.020 A 
ATOM      9  C   UNL     1      27.130 -21.029   3.896  1.00  0.00     0.051 A 
ATOM     10  C   UNL     1      26.548 -21.614   5.024  1.00  0.00     0.161 A 
ATOM     11  C   UNL     1      26.664 -22.999   5.235  1.00  0.00     0.201 A 
ENDROOT
BRANCH   1  12
ATOM     12  C   UNL     1      29.447 -26.320   1.588  1.00  0.00    -0.011 A 
ATOM     13  C   UNL     1      28.821 -26.790   0.419  1.00  0.00     0.013 A 
ATOM     14  C   UNL     1      29.492 -27.663  -0.441  1.00  0.00     0.047 A 
ATOM     15  C   UNL     1      30.796 -28.080  -0.144  1.00  0.00     0.115 A 
ATOM     16  C   UNL     1      30.754 -26.749   1.882  1.00  0.00     0.013 A 
ATOM     17  C   UNL     1      31.423 -27.622   1.018  1.00  0.00     0.047 A 
BRANCH  15  18
ATOM     18  O   UNL     1      31.476 -28.949  -0.995  1.00  0.00    -0.508 OA
ATOM     19  H   UNL     1      32.084 -29.675  -0.634  1.00  0.00     0.293 HD
ENDBRANCH  15  18
ENDBRANCH   1  12
BRANCH  11  20
ATOM     20  O   UNL     1      26.080 -23.575   6.365  1.00  0.00    -0.502 OA
ATOM     21  H   UNL     1      26.573 -24.240   6.949  1.00  0.00     0.293 HD
ENDBRANCH  11  20
BRANCH  10  22
ATOM     22  O   UNL     1      25.857 -20.804   5.924  1.00  0.00    -0.504 OA
ATOM     23  H   UNL     1      25.568 -21.136   6.836  1.00  0.00     0.293 HD
ENDBRANCH  10  22
TORSDOF 4
ENDMDL
MODEL 7
REMARK VINA RESULT:    -5.836      6.430      9.318
REMARK INTER + INTRA:          -6.882
REMARK INTER:                  -7.350
REMARK INTRA:                   0.468
REMARK UNBOUND:                -0.193
REMARK SMILES O=c1c(-c2ccc(O)cc2)coc2c(O)c(O)ccc12
REMARK SMILES IDX 3 1 11 2 12 3 13 4 20 5 2 6 1 7 19 8 18 9 16 10 14 11 4 12
REMARK SMILES IDX 5 13 6 14 7 15 10 16 9 17 8 18 15 20 17 22
REMARK H PARENT 8 19 15 21 17 23
REMARK Flexibility Score: inf
ROOT
ATOM      1  C   UNL     1      28.136 -24.004   3.310  1.00  0.00     0.065 A 
ATOM      2  C   UNL     1      28.057 -25.397   3.452  1.00  0.00     0.208 A 
ATOM      3  O   UNL     1      28.706 -26.206   2.623  1.00  0.00    -0.459 OA
ATOM      4  C   UNL     1      29.460 -25.762   1.622  1.00  0.00     0.183 A 
ATOM      5  C   UNL     1      29.594 -24.372   1.400  1.00  0.00     0.069 A 
ATOM      6  C   UNL     1      28.915 -23.487   2.257  1.00  0.00     0.200 A 
ATOM      7  O   UNL     1      28.986 -22.240   2.070  1.00  0.00    -0.288 OA
ATOM      8  C   UNL     1      30.390 -23.915   0.336  1.00  0.00     0.020 A 
ATOM      9  C   UNL     1      31.046 -24.827  -0.493  1.00  0.00     0.051 A 
ATOM     10  C   UNL     1      30.918 -26.202  -0.277  1.00  0.00     0.161 A 
ATOM     11  C   UNL     1      30.124 -26.676   0.782  1.00  0.00     0.201 A 
ENDROOT
BRANCH   1  12
ATOM     12  C   UNL     1      27.407 -23.121   4.255  1.00  0.00    -0.011 A 
ATOM     13  C   UNL     1      27.136 -21.781   3.921  1.00  0.00     0.013 A 
ATOM     14  C   UNL     1      26.458 -20.952   4.819  1.00  0.00     0.047 A 
ATOM     15  C   UNL     1      26.044 -21.450   6.062  1.00  0.00     0.115 A 
ATOM     16  C   UNL     1      26.994 -23.610   5.507  1.00  0.00     0.013 A 
ATOM     17  C   UNL     1      26.315 -22.778   6.402  1.00  0.00     0.047 A 
BRANCH  15  18
ATOM     18  O   UNL     1      25.365 -20.633   6.964  1.00  0.00    -0.508 OA
ATOM     19  H   UNL     1      24.356 -20.545   6.942  1.00  0.00     0.293 HD
ENDBRANCH  15  18
ENDBRANCH   1  12
BRANCH  11  20
ATOM     20  O   UNL     1      30.001 -28.051   0.989  1.00  0.00    -0.502 OA
ATOM     21  H   UNL     1      29.526 -28.436   1.797  1.00  0.00     0.293 HD
ENDBRANCH  11  20
BRANCH  10  22
ATOM     22  O   UNL     1      31.587 -27.083  -1.125  1.00  0.00    -0.504 OA
ATOM     23  H   UNL     1      32.174 -26.761  -1.885  1.00  0.00     0.293 HD
ENDBRANCH  10  22
TORSDOF 4
ENDMDL
MODEL 8
REMARK VINA RESULT:    -5.750      3.229      7.326
REMARK INTER + INTRA:          -6.784
REMARK INTER:                  -6.642
REMARK INTRA:                  -0.142
REMARK UNBOUND:                -0.193
REMARK SMILES O=c1c(-c2ccc(O)cc2)coc2c(O)c(O)ccc12
REMARK SMILES IDX 3 1 11 2 12 3 13 4 20 5 2 6 1 7 19 8 18 9 16 10 14 11 4 12
REMARK SMILES IDX 5 13 6 14 7 15 10 16 9 17 8 18 15 20 17 22
REMARK H PARENT 8 19 15 21 17 23
REMARK Flexibility Score: inf
ROOT
ATOM      1  C   UNL     1      29.102 -33.549   3.260  1.00  0.00     0.065 A 
ATOM      2  C   UNL     1      28.995 -33.194   1.907  1.00  0.00     0.208 A 
ATOM      3  O   UNL     1      29.903 -32.416   1.331  1.00  0.00    -0.459 OA
ATOM      4  C   UNL     1      30.955 -31.929   1.982  1.00  0.00     0.183 A 
ATOM      5  C   UNL     1      31.142 -32.230   3.351  1.00  0.00     0.069 A 
ATOM      6  C   UNL     1      30.195 -33.048   3.993  1.00  0.00     0.200 A 
ATOM      7  O   UNL     1      30.312 -33.313   5.222  1.00  0.00    -0.288 OA
ATOM      8  C   UNL     1      32.255 -31.706   4.029  1.00  0.00     0.020 A 
ATOM      9  C   UNL     1      33.171 -30.896   3.354  1.00  0.00     0.051 A 
ATOM     10  C   UNL     1      32.992 -30.596   2.001  1.00  0.00     0.161 A 
ATOM     11  C   UNL     1      31.882 -31.111   1.309  1.00  0.00     0.201 A 
ENDROOT
BRANCH   1  12
ATOM     12  C   UNL     1      28.077 -34.427   3.879  1.00  0.00    -0.011 A 
ATOM     13  C   UNL     1      27.957 -35.774   3.491  1.00  0.00     0.013 A 
ATOM     14  C   UNL     1      26.984 -36.593   4.071  1.00  0.00     0.047 A 
ATOM     15  C   UNL     1      26.117 -36.076   5.043  1.00  0.00     0.115 A 
ATOM     16  C   UNL     1      27.198 -33.915   4.850  1.00  0.00     0.013 A 
ATOM     17  C   UNL     1      26.226 -34.737   5.429  1.00  0.00     0.047 A 
BRANCH  15  18
ATOM     18  O   UNL     1      25.144 -36.883   5.629  1.00  0.00    -0.508 OA
ATOM     19  H   UNL     1      24.217 -36.970   5.229  1.00  0.00     0.293 HD
ENDBRANCH  15  18
ENDBRANCH   1  12
BRANCH  11  20
ATOM     20  O   UNL     1      31.711 -30.805  -0.043  1.00  0.00    -0.502 OA
ATOM     21  H   UNL     1      31.639 -31.523  -0.755  1.00  0.00     0.293 HD
ENDBRANCH  11  20
BRANCH  10  22
ATOM     22  O   UNL     1      33.926 -29.784   1.360  1.00  0.00    -0.504 OA
ATOM     23  H   UNL     1      34.724 -30.166   0.866  1.00  0.00     0.293 HD
ENDBRANCH  10  22
TORSDOF 4
ENDMDL
MODEL 9
REMARK VINA RESULT:    -5.677      6.466      9.659
REMARK INTER + INTRA:          -6.700
REMARK INTER:                  -6.510
REMARK INTRA:                  -0.189
REMARK UNBOUND:                -0.193
REMARK SMILES O=c1c(-c2ccc(O)cc2)coc2c(O)c(O)ccc12
REMARK SMILES IDX 3 1 11 2 12 3 13 4 20 5 2 6 1 7 19 8 18 9 16 10 14 11 4 12
REMARK SMILES IDX 5 13 6 14 7 15 10 16 9 17 8 18 15 20 17 22
REMARK H PARENT 8 19 15 21 17 23
REMARK Flexibility Score: inf
ROOT
ATOM      1  C   UNL     1      25.243 -35.232   4.492  1.00  0.00     0.065 A 
ATOM      2  C   UNL     1      25.734 -35.375   5.799  1.00  0.00     0.208 A 
ATOM      3  O   UNL     1      26.968 -34.997   6.110  1.00  0.00    -0.459 OA
ATOM      4  C   UNL     1      27.807 -34.469   5.224  1.00  0.00     0.183 A 
ATOM      5  C   UNL     1      27.400 -34.291   3.881  1.00  0.00     0.069 A 
ATOM      6  C   UNL     1      26.100 -34.687   3.517  1.00  0.00     0.200 A 
ATOM      7  O   UNL     1      25.712 -34.573   2.321  1.00  0.00    -0.288 OA
ATOM      8  C   UNL     1      28.297 -33.736   2.954  1.00  0.00     0.020 A 
ATOM      9  C   UNL     1      29.580 -33.359   3.357  1.00  0.00     0.051 A 
ATOM     10  C   UNL     1      29.987 -33.531   4.683  1.00  0.00     0.161 A 
ATOM     11  C   UNL     1      29.102 -34.087   5.622  1.00  0.00     0.201 A 
ENDROOT
BRANCH   1  12
ATOM     12  C   UNL     1      23.857 -35.655   4.171  1.00  0.00    -0.011 A 
ATOM     13  C   UNL     1      22.860 -34.701   3.897  1.00  0.00     0.013 A 
ATOM     14  C   UNL     1      21.555 -35.106   3.605  1.00  0.00     0.047 A 
ATOM     15  C   UNL     1      21.227 -36.467   3.586  1.00  0.00     0.115 A 
ATOM     16  C   UNL     1      23.517 -37.020   4.158  1.00  0.00     0.013 A 
ATOM     17  C   UNL     1      22.211 -37.421   3.864  1.00  0.00     0.047 A 
BRANCH  15  18
ATOM     18  O   UNL     1      19.930 -36.883   3.295  1.00  0.00    -0.508 OA
ATOM     19  H   UNL     1      19.584 -36.909   2.342  1.00  0.00     0.293 HD
ENDBRANCH  15  18
ENDBRANCH   1  12
BRANCH  11  20
ATOM     20  O   UNL     1      29.518 -34.255   6.945  1.00  0.00    -0.502 OA
ATOM     21  H   UNL     1      29.127 -33.715   7.708  1.00  0.00     0.293 HD
ENDBRANCH  11  20
BRANCH  10  22
ATOM     22  O   UNL     1      31.275 -33.143   5.049  1.00  0.00    -0.504 OA
ATOM     23  H   UNL     1      31.947 -32.796   4.374  1.00  0.00     0.293 HD
ENDBRANCH  10  22
TORSDOF 4
ENDMDL
