MODEL 1
REMARK VINA RESULT:     9.993      0.000      0.000
REMARK INTER + INTRA:          16.732
REMARK INTER:                  14.667
REMARK INTRA:                   2.065
REMARK UNBOUND:                 2.065
REMARK SMILES CC(C)(O)CC[C@@H](O)[C@](C)(O)[C@H]1CC[C@@]2(O)C3=CC(=O)[C@H]4C[C@@H](O)[C@@H](O)C[C@@]4(C)[C@@H]3CC[C@@]12C
REMARK SMILES IDX 6 1 7 2 9 3 10 4 12 5 34 6 33 7 32 8 15 9 31 10 17 11 14 12
REMARK SMILES IDX 13 13 30 14 18 15 28 16 19 17 21 18 27 19 29 20 20 21 22 22
REMARK SMILES IDX 25 23 23 24 16 25 26 27 24 29 11 31 8 33 5 35 2 36 1 37 3 38
REMARK SMILES IDX 4 39
REMARK H PARENT 16 26 26 28 24 30 11 32 8 34 4 40
REMARK Flexibility Score: inf
ROOT
ATOM      1  C   UNL     1      -8.271   8.478  -6.862  1.00  0.00     0.038 C 
ENDROOT
BRANCH   1   2
ATOM      2  C   UNL     1      -7.021   8.150  -7.742  1.00  0.00     0.146 C 
BRANCH   2   3
ATOM      3  C   UNL     1      -7.311   7.657  -9.218  1.00  0.00     0.091 C 
ATOM      4  C   UNL     1      -6.096   8.005 -10.125  1.00  0.00     0.045 C 
BRANCH   3   5
ATOM      5  C   UNL     1      -7.552   6.075  -9.326  1.00  0.00     0.032 C 
ATOM      6  C   UNL     1     -10.064   5.722  -9.011  1.00  0.00     0.015 C 
ATOM      7  C   UNL     1      -8.650   5.345  -8.471  1.00  0.00     0.006 C 
ATOM      8  C   UNL     1      -8.652   5.698  -6.946  1.00  0.00     0.011 C 
ATOM      9  C   UNL     1      -8.315   3.813  -8.712  1.00  0.00     0.092 C 
ATOM     10  C   UNL     1      -7.665   4.900  -6.092  1.00  0.00     0.009 C 
ATOM     11  C   UNL     1      -8.536   2.935  -7.461  1.00  0.00    -0.031 C 
ATOM     12  C   UNL     1      -6.818   3.757  -9.110  1.00  0.00     0.041 C 
ATOM     13  C   UNL     1      -6.311   5.185  -9.259  1.00  0.00     0.010 C 
ATOM     14  C   UNL     1      -7.921   3.369  -6.126  1.00  0.00     0.025 C 
ATOM     15  C   UNL     1      -9.085   1.707  -7.570  1.00  0.00     0.050 C 
ATOM     16  C   UNL     1      -8.696   2.773  -4.878  1.00  0.00    -0.013 C 
ATOM     17  C   UNL     1      -9.326   0.847  -6.401  1.00  0.00     0.159 C 
ATOM     18  C   UNL     1      -8.808   1.219  -5.040  1.00  0.00     0.070 C 
ATOM     19  C   UNL     1      -8.013   3.065  -3.495  1.00  0.00     0.042 C 
ATOM     20  C   UNL     1     -10.124   3.378  -4.809  1.00  0.00     0.013 C 
ATOM     21  O   UNL     1      -9.943  -0.242  -6.554  1.00  0.00    -0.295 OA
ATOM     22  C   UNL     1      -7.469   0.484  -4.805  1.00  0.00     0.047 C 
ATOM     23  C   UNL     1      -6.693   2.320  -3.240  1.00  0.00     0.143 C 
ATOM     24  C   UNL     1      -6.883   0.804  -3.426  1.00  0.00     0.143 C 
BRANCH   9  25
ATOM     25  O   UNL     1      -9.037   3.322  -9.826  1.00  0.00    -0.385 OA
ATOM     26  H   UNL     1      -9.715   3.996 -10.094  1.00  0.00     0.211 HD
ENDBRANCH   9  25
BRANCH  23  27
ATOM     27  O   UNL     1      -5.680   2.812  -4.081  1.00  0.00    -0.390 OA
ATOM     28  H   UNL     1      -5.829   3.787  -4.184  1.00  0.00     0.211 HD
ENDBRANCH  23  27
BRANCH  24  29
ATOM     29  O   UNL     1      -5.658   0.135  -3.276  1.00  0.00    -0.390 OA
ATOM     30  H   UNL     1      -5.257   0.067  -4.181  1.00  0.00     0.211 HD
ENDBRANCH  24  29
ENDBRANCH   3   5
BRANCH   3  31
ATOM     31  O   UNL     1      -8.443   8.322  -9.729  1.00  0.00    -0.387 OA
ATOM     32  H   UNL     1      -8.351   8.451 -10.707  1.00  0.00     0.211 HD
ENDBRANCH   3  31
ENDBRANCH   2   3
BRANCH   2  33
ATOM     33  O   UNL     1      -6.207   7.222  -7.071  1.00  0.00    -0.390 OA
ATOM     34  H   UNL     1      -6.130   7.520  -6.127  1.00  0.00     0.211 HD
ENDBRANCH   2  33
ENDBRANCH   1   2
BRANCH   1  35
ATOM     35  C   UNL     1      -7.971   8.419  -5.346  1.00  0.00     0.037 C 
BRANCH  35  36
ATOM     36  C   UNL     1      -9.224   8.225  -4.446  1.00  0.00     0.059 C 
ATOM     37  C   UNL     1     -10.125   7.075  -4.960  1.00  0.00     0.042 C 
ATOM     38  C   UNL     1     -10.048   9.527  -4.472  1.00  0.00     0.042 C 
BRANCH  36  39
ATOM     39  O   UNL     1      -8.836   7.998  -3.110  1.00  0.00    -0.390 OA
ATOM     40  H   UNL     1      -8.532   8.859  -2.718  1.00  0.00     0.211 HD
ENDBRANCH  36  39
ENDBRANCH  35  36
ENDBRANCH   1  35
TORSDOF 11
ENDMDL
