MODEL 1
REMARK VINA RESULT:    -2.934      0.000      0.000
REMARK INTER + INTRA:          -2.838
REMARK INTER:                  -3.620
REMARK INTRA:                   0.782
REMARK UNBOUND:                 0.782
REMARK SMILES CC1=CC=CC(C)(C)CC1=O
REMARK SMILES IDX 1 1 2 2 3 3 10 4 11 5 9 6 4 8 5 9 6 10 7 11 8 12
REMARK H PARENT
REMARK Flexibility Score: 80.00
ROOT
ATOM      1  C   UNL     1      28.036  45.001  87.973  1.00  0.00     0.048 C 
ATOM      2  C   UNL     1      28.676  45.098  86.608  1.00  0.00    -0.008 C 
ATOM      3  C   UNL     1      29.387  44.035  86.173  1.00  0.00     0.007 C 
ENDROOT
BRANCH   2   4
ATOM      4  C   UNL     1      28.406  46.327  85.822  1.00  0.00     0.159 C 
ATOM      5  O   UNL     1      27.537  47.139  86.241  1.00  0.00    -0.295 OA
BRANCH   4   6
ATOM      6  C   UNL     1      29.126  46.671  84.553  1.00  0.00     0.091 CG0
ATOM      7  G   UNL     1      28.980  45.590  83.459  1.00  0.00     0.000 G0
ENDBRANCH   4   6
ENDBRANCH   2   4
BRANCH   3   8
ATOM      8  C   UNL     1      30.097  43.826  84.890  1.00  0.00    -0.003 C 
ATOM      9  C   UNL     1      29.940  44.468  83.725  1.00  0.00    -0.020 C 
BRANCH   9  10
ATOM     10  C   UNL     1      28.990  45.609  83.449  1.00  0.00    -0.010 CG0
ATOM     11  C   UNL     1      29.378  46.247  82.095  1.00  0.00     0.016 C 
ATOM     12  C   UNL     1      27.544  45.075  83.326  1.00  0.00     0.016 C 
ATOM     13  G   UNL     1      29.137  46.685  84.547  1.00  0.00     0.000 G0
ENDBRANCH   9  10
ENDBRANCH   3   8
TORSDOF 0
ENDMDL
MODEL 2
REMARK VINA RESULT:    -2.922      1.647      3.525
REMARK INTER + INTRA:          -2.823
REMARK INTER:                  -3.571
REMARK INTRA:                   0.748
REMARK UNBOUND:                 0.782
REMARK SMILES CC1=CC=CC(C)(C)CC1=O
REMARK SMILES IDX 1 1 2 2 3 3 10 4 11 5 9 6 4 8 5 9 6 10 7 11 8 12
REMARK H PARENT
REMARK Flexibility Score: 80.00
ROOT
ATOM      1  C   UNL     1      29.327  44.863  81.262  1.00  0.00     0.048 C 
ATOM      2  C   UNL     1      29.012  44.823  82.739  1.00  0.00    -0.008 C 
ATOM      3  C   UNL     1      29.965  44.347  83.569  1.00  0.00     0.007 C 
ENDROOT
BRANCH   2   4
ATOM      4  C   UNL     1      27.706  45.383  83.167  1.00  0.00     0.159 C 
ATOM      5  O   UNL     1      27.021  46.036  82.332  1.00  0.00    -0.295 OA
BRANCH   4   6
ATOM      6  C   UNL     1      27.141  45.203  84.542  1.00  0.00     0.091 CG0
ATOM      7  G   UNL     1      28.045  45.782  85.652  1.00  0.00     0.000 G0
ENDBRANCH   4   6
ENDBRANCH   2   4
BRANCH   3   8
ATOM      8  C   UNL     1      29.960  44.211  85.044  1.00  0.00    -0.003 C 
ATOM      9  C   UNL     1      29.168  44.808  85.944  1.00  0.00    -0.020 C 
BRANCH   9  10
ATOM     10  C   UNL     1      28.043  45.771  85.650  1.00  0.00    -0.010 CG0
ATOM     11  C   UNL     1      27.184  45.917  86.928  1.00  0.00     0.016 C 
ATOM     12  C   UNL     1      28.616  47.164  85.300  1.00  0.00     0.016 C 
ATOM     13  G   UNL     1      27.146  45.197  84.531  1.00  0.00     0.000 G0
ENDBRANCH   9  10
ENDBRANCH   3   8
TORSDOF 0
ENDMDL
MODEL 3
REMARK VINA RESULT:    -2.809     18.326     19.367
REMARK INTER + INTRA:          -2.685
REMARK INTER:                  -3.451
REMARK INTRA:                   0.766
REMARK UNBOUND:                 0.782
REMARK SMILES CC1=CC=CC(C)(C)CC1=O
REMARK SMILES IDX 1 1 2 2 3 3 10 4 11 5 9 6 4 8 5 9 6 10 7 11 8 12
REMARK H PARENT
REMARK Flexibility Score: 80.00
ROOT
ATOM      1  C   UNL     1      25.034  28.388  73.589  1.00  0.00     0.048 C 
ATOM      2  C   UNL     1      26.380  29.070  73.654  1.00  0.00    -0.008 C 
ATOM      3  C   UNL     1      27.449  28.313  73.983  1.00  0.00     0.007 C 
ENDROOT
BRANCH   2   4
ATOM      4  C   UNL     1      26.430  30.504  73.275  1.00  0.00     0.159 C 
ATOM      5  O   UNL     1      25.410  31.032  72.753  1.00  0.00    -0.295 OA
BRANCH   4   6
ATOM      6  C   UNL     1      27.630  31.374  73.494  1.00  0.00     0.091 CG0
ATOM      7  G   UNL     1      28.899  30.850  72.786  1.00  0.00     0.000 G0
ENDBRANCH   4   6
ENDBRANCH   2   4
BRANCH   3   8
ATOM      8  C   UNL     1      28.878  28.685  74.101  1.00  0.00    -0.003 C 
ATOM      9  C   UNL     1      29.517  29.748  73.597  1.00  0.00    -0.020 C 
BRANCH   9  10
ATOM     10  C   UNL     1      28.902  30.865  72.788  1.00  0.00    -0.010 CG0
ATOM     11  C   UNL     1      29.918  32.028  72.715  1.00  0.00     0.016 C 
ATOM     12  C   UNL     1      28.627  30.382  71.344  1.00  0.00     0.016 C 
ATOM     13  G   UNL     1      27.630  31.382  73.496  1.00  0.00     0.000 G0
ENDBRANCH   9  10
ENDBRANCH   3   8
TORSDOF 0
ENDMDL
MODEL 4
REMARK VINA RESULT:    -2.786     18.546     19.606
REMARK INTER + INTRA:          -2.656
REMARK INTER:                  -3.415
REMARK INTRA:                   0.759
REMARK UNBOUND:                 0.782
REMARK SMILES CC1=CC=CC(C)(C)CC1=O
REMARK SMILES IDX 1 1 2 2 3 3 10 4 11 5 9 6 4 8 5 9 6 10 7 11 8 12
REMARK H PARENT
REMARK Flexibility Score: 80.00
ROOT
ATOM      1  C   UNL     1      28.053  27.906  75.143  1.00  0.00     0.048 C 
ATOM      2  C   UNL     1      27.708  28.806  73.980  1.00  0.00    -0.008 C 
ATOM      3  C   UNL     1      26.400  28.978  73.689  1.00  0.00     0.007 C 
ENDROOT
BRANCH   2   4
ATOM      4  C   UNL     1      28.834  29.491  73.299  1.00  0.00     0.159 C 
ATOM      5  O   UNL     1      29.984  29.432  73.815  1.00  0.00    -0.295 OA
BRANCH   4   6
ATOM      6  C   UNL     1      28.686  30.242  72.011  1.00  0.00     0.091 CG0
ATOM      7  G   UNL     1      27.655  31.389  72.090  1.00  0.00     0.000 G0
ENDBRANCH   4   6
ENDBRANCH   2   4
BRANCH   3   8
ATOM      8  C   UNL     1      25.760  29.808  72.642  1.00  0.00    -0.003 C 
ATOM      9  C   UNL     1      26.267  30.841  71.957  1.00  0.00    -0.020 C 
BRANCH   9  10
ATOM     10  C   UNL     1      27.664  31.400  72.079  1.00  0.00    -0.010 CG0
ATOM     11  C   UNL     1      27.919  32.336  70.876  1.00  0.00     0.016 C 
ATOM     12  C   UNL     1      27.785  32.242  73.371  1.00  0.00     0.016 C 
ATOM     13  G   UNL     1      28.693  30.249  72.020  1.00  0.00     0.000 G0
ENDBRANCH   9  10
ENDBRANCH   3   8
TORSDOF 0
ENDMDL
MODEL 5
REMARK VINA RESULT:    -2.782     10.731     11.456
REMARK INTER + INTRA:          -2.651
REMARK INTER:                  -3.396
REMARK INTRA:                   0.745
REMARK UNBOUND:                 0.782
REMARK SMILES CC1=CC=CC(C)(C)CC1=O
REMARK SMILES IDX 1 1 2 2 3 3 10 4 11 5 9 6 4 8 5 9 6 10 7 11 8 12
REMARK H PARENT
REMARK Flexibility Score: 80.00
ROOT
ATOM      1  C   UNL     1      24.156  37.623  88.240  1.00  0.00     0.048 C 
ATOM      2  C   UNL     1      23.419  36.985  87.086  1.00  0.00    -0.008 C 
ATOM      3  C   UNL     1      23.715  35.702  86.787  1.00  0.00     0.007 C 
ENDROOT
BRANCH   2   4
ATOM      4  C   UNL     1      22.371  37.799  86.422  1.00  0.00     0.159 C 
ATOM      5  O   UNL     1      22.022  38.891  86.951  1.00  0.00    -0.295 OA
BRANCH   4   6
ATOM      6  C   UNL     1      21.708  37.404  85.138  1.00  0.00     0.091 CG0
ATOM      7  G   UNL     1      20.993  36.037  85.219  1.00  0.00     0.000 G0
ENDBRANCH   4   6
ENDBRANCH   2   4
BRANCH   3   8
ATOM      8  C   UNL     1      23.150  34.813  85.746  1.00  0.00    -0.003 C 
ATOM      9  C   UNL     1      21.997  34.928  85.073  1.00  0.00    -0.020 C 
BRANCH   9  10
ATOM     10  C   UNL     1      20.987  36.042  85.207  1.00  0.00    -0.010 CG0
ATOM     11  C   UNL     1      20.019  35.966  84.005  1.00  0.00     0.016 C 
ATOM     12  C   UNL     1      20.158  35.851  86.499  1.00  0.00     0.016 C 
ATOM     13  G   UNL     1      21.708  37.407  85.158  1.00  0.00     0.000 G0
ENDBRANCH   9  10
ENDBRANCH   3   8
TORSDOF 0
ENDMDL
MODEL 6
REMARK VINA RESULT:    -2.755     10.605     11.414
REMARK INTER + INTRA:          -2.618
REMARK INTER:                  -3.373
REMARK INTRA:                   0.755
REMARK UNBOUND:                 0.782
REMARK SMILES CC1=CC=CC(C)(C)CC1=O
REMARK SMILES IDX 1 1 2 2 3 3 10 4 11 5 9 6 4 8 5 9 6 10 7 11 8 12
REMARK H PARENT
REMARK Flexibility Score: 80.00
ROOT
ATOM      1  C   UNL     1      22.916  33.402  88.480  1.00  0.00     0.048 C 
ATOM      2  C   UNL     1      22.993  34.715  87.737  1.00  0.00    -0.008 C 
ATOM      3  C   UNL     1      22.861  34.682  86.393  1.00  0.00     0.007 C 
ENDROOT
BRANCH   2   4
ATOM      4  C   UNL     1      23.130  35.946  88.554  1.00  0.00     0.159 C 
ATOM      5  O   UNL     1      22.982  35.865  89.805  1.00  0.00    -0.295 OA
BRANCH   4   6
ATOM      6  C   UNL     1      23.454  37.289  87.976  1.00  0.00     0.091 CG0
ATOM      7  G   UNL     1      22.422  37.767  86.932  1.00  0.00     0.000 G0
ENDBRANCH   4   6
ENDBRANCH   2   4
BRANCH   3   8
ATOM      8  C   UNL     1      22.865  35.791  85.410  1.00  0.00    -0.003 C 
ATOM      9  C   UNL     1      22.672  37.100  85.614  1.00  0.00    -0.020 C 
BRANCH   9  10
ATOM     10  C   UNL     1      22.423  37.775  86.941  1.00  0.00    -0.010 CG0
ATOM     11  C   UNL     1      22.618  39.297  86.756  1.00  0.00     0.016 C 
ATOM     12  C   UNL     1      20.962  37.534  87.391  1.00  0.00     0.016 C 
ATOM     13  G   UNL     1      23.454  37.280  87.979  1.00  0.00     0.000 G0
ENDBRANCH   9  10
ENDBRANCH   3   8
TORSDOF 0
ENDMDL
MODEL 7
REMARK VINA RESULT:    -2.695     10.686     11.667
REMARK INTER + INTRA:          -2.543
REMARK INTER:                  -3.304
REMARK INTRA:                   0.761
REMARK UNBOUND:                 0.782
REMARK SMILES CC1=CC=CC(C)(C)CC1=O
REMARK SMILES IDX 1 1 2 2 3 3 10 4 11 5 9 6 4 8 5 9 6 10 7 11 8 12
REMARK H PARENT
REMARK Flexibility Score: 80.00
ROOT
ATOM      1  C   UNL     1      21.891  34.590  84.203  1.00  0.00     0.048 C 
ATOM      2  C   UNL     1      22.117  35.354  85.486  1.00  0.00    -0.008 C 
ATOM      3  C   UNL     1      23.265  35.120  86.159  1.00  0.00     0.007 C 
ENDROOT
BRANCH   2   4
ATOM      4  C   UNL     1      21.092  36.358  85.864  1.00  0.00     0.159 C 
ATOM      5  O   UNL     1      20.213  36.680  85.017  1.00  0.00    -0.295 OA
BRANCH   4   6
ATOM      6  C   UNL     1      21.030  37.008  87.212  1.00  0.00     0.091 CG0
ATOM      7  G   UNL     1      22.310  37.796  87.567  1.00  0.00     0.000 G0
ENDBRANCH   4   6
ENDBRANCH   2   4
BRANCH   3   8
ATOM      8  C   UNL     1      23.773  35.726  87.412  1.00  0.00    -0.003 C 
ATOM      9  C   UNL     1      23.395  36.861  88.014  1.00  0.00    -0.020 C 
BRANCH   9  10
ATOM     10  C   UNL     1      22.309  37.803  87.553  1.00  0.00    -0.010 CG0
ATOM     11  C   UNL     1      21.973  38.763  88.718  1.00  0.00     0.016 C 
ATOM     12  C   UNL     1      22.818  38.655  86.367  1.00  0.00     0.016 C 
ATOM     13  G   UNL     1      21.035  37.001  87.208  1.00  0.00     0.000 G0
ENDBRANCH   9  10
ENDBRANCH   3   8
TORSDOF 0
ENDMDL
MODEL 8
REMARK VINA RESULT:    -2.675      9.619     10.643
REMARK INTER + INTRA:          -2.519
REMARK INTER:                  -3.264
REMARK INTRA:                   0.745
REMARK UNBOUND:                 0.782
REMARK SMILES CC1=CC=CC(C)(C)CC1=O
REMARK SMILES IDX 1 1 2 2 3 3 10 4 11 5 9 6 4 8 5 9 6 10 7 11 8 12
REMARK H PARENT
REMARK Flexibility Score: 80.00
ROOT
ATOM      1  C   UNL     1      23.362  34.722  86.537  1.00  0.00     0.048 C 
ATOM      2  C   UNL     1      23.175  36.213  86.687  1.00  0.00    -0.008 C 
ATOM      3  C   UNL     1      22.682  36.891  85.628  1.00  0.00     0.007 C 
ENDROOT
BRANCH   2   4
ATOM      4  C   UNL     1      23.477  36.801  88.015  1.00  0.00     0.159 C 
ATOM      5  O   UNL     1      23.671  36.028  88.994  1.00  0.00    -0.295 OA
BRANCH   4   6
ATOM      6  C   UNL     1      23.582  38.275  88.261  1.00  0.00     0.091 CG0
ATOM      7  G   UNL     1      22.283  39.042  87.928  1.00  0.00     0.000 G0
ENDBRANCH   4   6
ENDBRANCH   2   4
BRANCH   3   8
ATOM      8  C   UNL     1      22.369  38.332  85.483  1.00  0.00    -0.003 C 
ATOM      9  C   UNL     1      22.183  39.255  86.436  1.00  0.00    -0.020 C 
BRANCH   9  10
ATOM     10  C   UNL     1      22.279  39.038  87.927  1.00  0.00    -0.010 CG0
ATOM     11  C   UNL     1      22.358  40.420  88.615  1.00  0.00     0.016 C 
ATOM     12  C   UNL     1      21.007  38.322  88.440  1.00  0.00     0.016 C 
ATOM     13  G   UNL     1      23.573  38.262  88.258  1.00  0.00     0.000 G0
ENDBRANCH   9  10
ENDBRANCH   3   8
TORSDOF 0
ENDMDL
MODEL 9
REMARK VINA RESULT:    -2.572      2.409      4.659
REMARK INTER + INTRA:          -2.392
REMARK INTER:                  -3.146
REMARK INTRA:                   0.754
REMARK UNBOUND:                 0.782
REMARK SMILES CC1=CC=CC(C)(C)CC1=O
REMARK SMILES IDX 1 1 2 2 3 3 10 4 11 5 9 6 4 8 5 9 6 10 7 11 8 12
REMARK H PARENT
REMARK Flexibility Score: 80.00
ROOT
ATOM      1  C   UNL     1      28.931  45.821  78.990  1.00  0.00     0.048 C 
ATOM      2  C   UNL     1      29.072  45.849  80.494  1.00  0.00    -0.008 C 
ATOM      3  C   UNL     1      29.168  47.056  81.091  1.00  0.00     0.007 C 
ENDROOT
BRANCH   2   4
ATOM      4  C   UNL     1      29.015  44.545  81.201  1.00  0.00     0.159 C 
ATOM      5  O   UNL     1      28.649  43.521  80.561  1.00  0.00    -0.295 OA
BRANCH   4   6
ATOM      6  C   UNL     1      29.387  44.370  82.642  1.00  0.00     0.091 CG0
ATOM      7  G   UNL     1      28.521  45.217  83.600  1.00  0.00     0.000 G0
ENDBRANCH   4   6
ENDBRANCH   2   4
BRANCH   3   8
ATOM      8  C   UNL     1      29.287  47.400  82.528  1.00  0.00    -0.003 C 
ATOM      9  C   UNL     1      29.010  46.648  83.601  1.00  0.00    -0.020 C 
BRANCH   9  10
ATOM     10  C   UNL     1      28.520  45.220  83.594  1.00  0.00    -0.010 CG0
ATOM     11  C   UNL     1      28.687  44.643  85.019  1.00  0.00     0.016 C 
ATOM     12  C   UNL     1      27.016  45.178  83.237  1.00  0.00     0.016 C 
ATOM     13  G   UNL     1      29.385  44.377  82.630  1.00  0.00     0.000 G0
ENDBRANCH   9  10
ENDBRANCH   3   8
TORSDOF 0
ENDMDL
