MODEL 1
REMARK VINA RESULT:    -4.705      0.000      0.000
REMARK INTER + INTRA:          -6.281
REMARK INTER:                  -5.805
REMARK INTRA:                  -0.476
REMARK UNBOUND:                -0.476
REMARK SMILES C=CC[C@H](C)C(=O)CC
REMARK SMILES IDX 4 1 5 2 6 3 7 4 8 5 9 6 3 7 2 8 1 9
REMARK H PARENT
REMARK Flexibility Score: inf
ROOT
ATOM      1  C   UNL     1      32.509  20.290  16.908  1.00  0.00     0.057 C 
ATOM      2  C   UNL     1      31.381  20.842  16.027  1.00  0.00     0.016 C 
ENDROOT
BRANCH   1   3
ATOM      3  C   UNL     1      33.861  20.579  16.286  1.00  0.00     0.135 C 
ATOM      4  O   UNL     1      34.086  20.184  15.151  1.00  0.00    -0.299 OA
BRANCH   3   5
ATOM      5  C   UNL     1      34.949  21.312  17.031  1.00  0.00     0.072 C 
ATOM      6  C   UNL     1      34.499  21.662  18.446  1.00  0.00     0.012 C 
ENDBRANCH   3   5
ENDBRANCH   1   3
BRANCH   1   7
ATOM      7  C   UNL     1      32.306  18.786  17.183  1.00  0.00     0.038 C 
BRANCH   7   8
ATOM      8  C   UNL     1      32.447  18.452  18.645  1.00  0.00    -0.034 C 
ATOM      9  C   UNL     1      31.858  19.203  19.578  1.00  0.00     0.004 C 
ENDBRANCH   7   8
ENDBRANCH   1   7
TORSDOF 4
ENDMDL
MODEL 2
REMARK VINA RESULT:    -4.644      1.590      3.366
REMARK INTER + INTRA:          -6.205
REMARK INTER:                  -5.772
REMARK INTRA:                  -0.434
REMARK UNBOUND:                -0.476
REMARK SMILES C=CC[C@H](C)C(=O)CC
REMARK SMILES IDX 4 1 5 2 6 3 7 4 8 5 9 6 3 7 2 8 1 9
REMARK H PARENT
REMARK Flexibility Score: inf
ROOT
ATOM      1  C   UNL     1      33.763  19.326  15.210  1.00  0.00     0.057 C 
ATOM      2  C   UNL     1      32.525  20.228  15.133  1.00  0.00     0.016 C 
ENDROOT
BRANCH   1   3
ATOM      3  C   UNL     1      33.433  18.027  15.918  1.00  0.00     0.135 C 
ATOM      4  O   UNL     1      34.034  17.010  15.601  1.00  0.00    -0.299 OA
BRANCH   3   5
ATOM      5  C   UNL     1      32.368  17.941  16.984  1.00  0.00     0.072 C 
ATOM      6  C   UNL     1      32.946  18.257  18.359  1.00  0.00     0.012 C 
ENDBRANCH   3   5
ENDBRANCH   1   3
BRANCH   1   7
ATOM      7  C   UNL     1      34.942  20.065  15.875  1.00  0.00     0.038 C 
BRANCH   7   8
ATOM      8  C   UNL     1      34.479  21.208  16.741  1.00  0.00    -0.034 C 
ATOM      9  C   UNL     1      35.148  21.546  17.845  1.00  0.00     0.004 C 
ENDBRANCH   7   8
ENDBRANCH   1   7
TORSDOF 4
ENDMDL
MODEL 3
REMARK VINA RESULT:    -4.583     11.114     12.256
REMARK INTER + INTRA:          -6.130
REMARK INTER:                  -5.658
REMARK INTRA:                  -0.472
REMARK UNBOUND:                -0.476
REMARK SMILES C=CC[C@H](C)C(=O)CC
REMARK SMILES IDX 4 1 5 2 6 3 7 4 8 5 9 6 3 7 2 8 1 9
REMARK H PARENT
REMARK Flexibility Score: inf
ROOT
ATOM      1  C   UNL     1      27.320  18.583  27.579  1.00  0.00     0.057 C 
ATOM      2  C   UNL     1      26.163  17.901  26.839  1.00  0.00     0.016 C 
ENDROOT
BRANCH   1   3
ATOM      3  C   UNL     1      26.963  20.017  27.921  1.00  0.00     0.135 C 
ATOM      4  O   UNL     1      25.878  20.457  27.568  1.00  0.00    -0.299 OA
BRANCH   3   5
ATOM      5  C   UNL     1      27.914  20.928  28.657  1.00  0.00     0.072 C 
ATOM      6  C   UNL     1      27.997  20.552  30.133  1.00  0.00     0.012 C 
ENDBRANCH   3   5
ENDBRANCH   1   3
BRANCH   1   7
ATOM      7  C   UNL     1      28.626  18.490  26.762  1.00  0.00     0.038 C 
BRANCH   7   8
ATOM      8  C   UNL     1      29.745  17.862  27.552  1.00  0.00    -0.034 C 
ATOM      9  C   UNL     1      29.528  17.369  28.773  1.00  0.00     0.004 C 
ENDBRANCH   7   8
ENDBRANCH   1   7
TORSDOF 4
ENDMDL
MODEL 4
REMARK VINA RESULT:    -4.552      1.572      2.625
REMARK INTER + INTRA:          -6.092
REMARK INTER:                  -5.613
REMARK INTRA:                  -0.479
REMARK UNBOUND:                -0.476
REMARK SMILES C=CC[C@H](C)C(=O)CC
REMARK SMILES IDX 4 1 5 2 6 3 7 4 8 5 9 6 3 7 2 8 1 9
REMARK H PARENT
REMARK Flexibility Score: inf
ROOT
ATOM      1  C   UNL     1      32.672  20.322  16.705  1.00  0.00     0.057 C 
ATOM      2  C   UNL     1      31.419  20.869  16.010  1.00  0.00     0.016 C 
ENDROOT
BRANCH   1   3
ATOM      3  C   UNL     1      33.007  18.937  16.186  1.00  0.00     0.135 C 
ATOM      4  O   UNL     1      32.098  18.203  15.828  1.00  0.00    -0.299 OA
BRANCH   3   5
ATOM      5  C   UNL     1      34.425  18.423  16.123  1.00  0.00     0.072 C 
ATOM      6  C   UNL     1      35.353  19.460  15.498  1.00  0.00     0.012 C 
ENDBRANCH   3   5
ENDBRANCH   1   3
BRANCH   1   7
ATOM      7  C   UNL     1      32.503  20.340  18.238  1.00  0.00     0.038 C 
BRANCH   7   8
ATOM      8  C   UNL     1      33.716  20.899  18.936  1.00  0.00    -0.034 C 
ATOM      9  C   UNL     1      34.579  21.682  18.286  1.00  0.00     0.004 C 
ENDBRANCH   7   8
ENDBRANCH   1   7
TORSDOF 4
ENDMDL
MODEL 5
REMARK VINA RESULT:    -4.547      1.396      2.659
REMARK INTER + INTRA:          -6.086
REMARK INTER:                  -5.622
REMARK INTRA:                  -0.464
REMARK UNBOUND:                -0.476
REMARK SMILES C=CC[C@H](C)C(=O)CC
REMARK SMILES IDX 4 1 5 2 6 3 7 4 8 5 9 6 3 7 2 8 1 9
REMARK H PARENT
REMARK Flexibility Score: inf
ROOT
ATOM      1  C   UNL     1      34.085  20.363  17.350  1.00  0.00     0.057 C 
ATOM      2  C   UNL     1      34.997  21.596  17.369  1.00  0.00     0.016 C 
ENDROOT
BRANCH   1   3
ATOM      3  C   UNL     1      34.169  19.658  16.010  1.00  0.00     0.135 C 
ATOM      4  O   UNL     1      33.749  20.228  15.014  1.00  0.00    -0.299 OA
BRANCH   3   5
ATOM      5  C   UNL     1      34.729  18.264  15.870  1.00  0.00     0.072 C 
ATOM      6  C   UNL     1      33.614  17.223  15.903  1.00  0.00     0.012 C 
ENDBRANCH   3   5
ENDBRANCH   1   3
BRANCH   1   7
ATOM      7  C   UNL     1      32.635  20.746  17.713  1.00  0.00     0.038 C 
BRANCH   7   8
ATOM      8  C   UNL     1      31.912  19.626  18.416  1.00  0.00    -0.034 C 
ATOM      9  C   UNL     1      32.563  18.800  19.237  1.00  0.00     0.004 C 
ENDBRANCH   7   8
ENDBRANCH   1   7
TORSDOF 4
ENDMDL
MODEL 6
REMARK VINA RESULT:    -4.529      9.540     11.738
REMARK INTER + INTRA:          -6.064
REMARK INTER:                  -5.575
REMARK INTRA:                  -0.489
REMARK UNBOUND:                -0.476
REMARK SMILES C=CC[C@H](C)C(=O)CC
REMARK SMILES IDX 4 1 5 2 6 3 7 4 8 5 9 6 3 7 2 8 1 9
REMARK H PARENT
REMARK Flexibility Score: inf
ROOT
ATOM      1  C   UNL     1      28.639  17.623  28.196  1.00  0.00     0.057 C 
ATOM      2  C   UNL     1      29.691  17.412  29.292  1.00  0.00     0.016 C 
ENDROOT
BRANCH   1   3
ATOM      3  C   UNL     1      29.290  18.128  26.923  1.00  0.00     0.135 C 
ATOM      4  O   UNL     1      30.508  18.089  26.825  1.00  0.00    -0.299 OA
BRANCH   3   5
ATOM      5  C   UNL     1      28.486  18.705  25.784  1.00  0.00     0.072 C 
ATOM      6  C   UNL     1      28.966  20.110  25.434  1.00  0.00     0.012 C 
ENDBRANCH   3   5
ENDBRANCH   1   3
BRANCH   1   7
ATOM      7  C   UNL     1      27.517  18.562  28.685  1.00  0.00     0.038 C 
BRANCH   7   8
ATOM      8  C   UNL     1      28.060  19.772  29.398  1.00  0.00    -0.034 C 
ATOM      9  C   UNL     1      27.802  21.003  28.951  1.00  0.00     0.004 C 
ENDBRANCH   7   8
ENDBRANCH   1   7
TORSDOF 4
ENDMDL
MODEL 7
REMARK VINA RESULT:    -4.526      1.649      3.277
REMARK INTER + INTRA:          -6.060
REMARK INTER:                  -5.649
REMARK INTRA:                  -0.411
REMARK UNBOUND:                -0.476
REMARK SMILES C=CC[C@H](C)C(=O)CC
REMARK SMILES IDX 4 1 5 2 6 3 7 4 8 5 9 6 3 7 2 8 1 9
REMARK H PARENT
REMARK Flexibility Score: inf
ROOT
ATOM      1  C   UNL     1      34.158  20.845  16.764  1.00  0.00     0.057 C 
ATOM      2  C   UNL     1      35.002  21.678  17.737  1.00  0.00     0.016 C 
ENDROOT
BRANCH   1   3
ATOM      3  C   UNL     1      32.758  20.645  17.310  1.00  0.00     0.135 C 
ATOM      4  O   UNL     1      31.801  20.897  16.591  1.00  0.00    -0.299 OA
BRANCH   3   5
ATOM      5  C   UNL     1      32.504  20.172  18.721  1.00  0.00     0.072 C 
ATOM      6  C   UNL     1      31.994  18.735  18.730  1.00  0.00     0.012 C 
ENDBRANCH   3   5
ENDBRANCH   1   3
BRANCH   1   7
ATOM      7  C   UNL     1      34.852  19.505  16.444  1.00  0.00     0.038 C 
BRANCH   7   8
ATOM      8  C   UNL     1      34.031  18.650  15.514  1.00  0.00    -0.034 C 
ATOM      9  C   UNL     1      33.837  17.354  15.767  1.00  0.00     0.004 C 
ENDBRANCH   7   8
ENDBRANCH   1   7
TORSDOF 4
ENDMDL
MODEL 8
REMARK VINA RESULT:    -4.464      1.791      2.423
REMARK INTER + INTRA:          -5.984
REMARK INTER:                  -5.535
REMARK INTRA:                  -0.449
REMARK UNBOUND:                -0.476
REMARK SMILES C=CC[C@H](C)C(=O)CC
REMARK SMILES IDX 4 1 5 2 6 3 7 4 8 5 9 6 3 7 2 8 1 9
REMARK H PARENT
REMARK Flexibility Score: inf
ROOT
ATOM      1  C   UNL     1      32.217  20.166  17.871  1.00  0.00     0.057 C 
ATOM      2  C   UNL     1      31.672  20.667  16.528  1.00  0.00     0.016 C 
ENDROOT
BRANCH   1   3
ATOM      3  C   UNL     1      33.570  20.785  18.162  1.00  0.00     0.135 C 
ATOM      4  O   UNL     1      33.949  20.863  19.322  1.00  0.00    -0.299 OA
BRANCH   3   5
ATOM      5  C   UNL     1      34.453  21.336  17.069  1.00  0.00     0.072 C 
ATOM      6  C   UNL     1      35.321  20.237  16.465  1.00  0.00     0.012 C 
ENDBRANCH   3   5
ENDBRANCH   1   3
BRANCH   1   7
ATOM      7  C   UNL     1      32.266  18.624  17.904  1.00  0.00     0.038 C 
BRANCH   7   8
ATOM      8  C   UNL     1      32.301  18.028  16.521  1.00  0.00    -0.034 C 
ATOM      9  C   UNL     1      33.314  17.249  16.137  1.00  0.00     0.004 C 
ENDBRANCH   7   8
ENDBRANCH   1   7
TORSDOF 4
ENDMDL
MODEL 9
REMARK VINA RESULT:    -4.464      1.731      3.282
REMARK INTER + INTRA:          -5.984
REMARK INTER:                  -5.678
REMARK INTRA:                  -0.307
REMARK UNBOUND:                -0.476
REMARK SMILES C=CC[C@H](C)C(=O)CC
REMARK SMILES IDX 4 1 5 2 6 3 7 4 8 5 9 6 3 7 2 8 1 9
REMARK H PARENT
REMARK Flexibility Score: inf
ROOT
ATOM      1  C   UNL     1      34.616  19.891  16.653  1.00  0.00     0.057 C 
ATOM      2  C   UNL     1      35.610  19.598  15.523  1.00  0.00     0.016 C 
ENDROOT
BRANCH   1   3
ATOM      3  C   UNL     1      33.224  19.423  16.274  1.00  0.00     0.135 C 
ATOM      4  O   UNL     1      32.771  18.421  16.807  1.00  0.00    -0.299 OA
BRANCH   3   5
ATOM      5  C   UNL     1      32.391  20.138  15.238  1.00  0.00     0.072 C 
ATOM      6  C   UNL     1      31.201  20.840  15.886  1.00  0.00     0.012 C 
ENDBRANCH   3   5
ENDBRANCH   1   3
BRANCH   1   7
ATOM      7  C   UNL     1      34.640  21.386  17.034  1.00  0.00     0.038 C 
BRANCH   7   8
ATOM      8  C   UNL     1      34.648  21.590  18.527  1.00  0.00    -0.034 C 
ATOM      9  C   UNL     1      33.629  21.175  19.281  1.00  0.00     0.004 C 
ENDBRANCH   7   8
ENDBRANCH   1   7
TORSDOF 4
ENDMDL
