MODEL 1
REMARK VINA RESULT:    -4.818      0.000      0.000
REMARK INTER + INTRA:          -4.935
REMARK INTER:                  -5.945
REMARK INTRA:                   1.010
REMARK UNBOUND:                 1.010
REMARK SMILES C=C1[C@@H]2CC[C@H]3[C@@H]2C(C)(C)CCC[C@@]13C
REMARK SMILES IDX 14 1 6 2 7 3 3 4 2 5 1 6 4 7 5 8 15 9 8 10 9 11 10 12 11 13
REMARK SMILES IDX 13 15 12 16
REMARK H PARENT
REMARK Flexibility Score: 80.00
ROOT
ATOM      1  C   UNL     1       8.251  31.524  22.340  1.00  0.00    -0.008 C 
ATOM      2  C   UNL     1       9.769  31.659  22.747  1.00  0.00     0.003 C 
ATOM      3  C   UNL     1       9.888  33.084  23.335  1.00  0.00     0.006 C 
ATOM      4  C   UNL     1       9.242  33.753  22.130  1.00  0.00     0.019 C 
ATOM      5  C   UNL     1       7.969  32.967  21.987  1.00  0.00    -0.068 C 
ATOM      6  C   UNL     1       6.817  33.462  21.519  1.00  0.00     0.009 C 
ATOM      7  C   UNL     1      10.184  33.283  20.998  1.00  0.00     0.008 C 
ATOM      8  C   UNL     1      10.630  31.876  21.473  1.00  0.00     0.005 C 
ATOM      9  C   UNL     1       8.006  30.620  21.101  1.00  0.00     0.016 C 
ENDROOT
BRANCH   3  10
ATOM     10  C   UNL     1       9.331  33.409  24.774  1.00  0.00    -0.032 C 
ATOM     11  C   UNL     1       9.316  34.945  24.969  1.00  0.00     0.011 C 
ATOM     12  C   UNL     1      10.324  32.838  25.823  1.00  0.00     0.011 C 
BRANCH  10  13
ATOM     13  C   UNL     1       7.896  32.896  25.073  1.00  0.00     0.007 CG0
ATOM     14  G   UNL     1       7.712  31.388  24.905  1.00  0.00     0.000 G0
ENDBRANCH  10  13
ENDBRANCH   3  10
BRANCH   1  15
ATOM     15  C   UNL     1       7.340  30.988  23.482  1.00  0.00     0.011 C 
BRANCH  15  16
ATOM     16  C   UNL     1       7.705  31.391  24.910  1.00  0.00     0.001 CG0
ATOM     17  G   UNL     1       7.895  32.899  25.076  1.00  0.00     0.000 G0
ENDBRANCH  15  16
ENDBRANCH   1  15
TORSDOF 0
ENDMDL
MODEL 2
REMARK VINA RESULT:    -4.580      1.721      4.117
REMARK INTER + INTRA:          -4.641
REMARK INTER:                  -5.657
REMARK INTRA:                   1.016
REMARK UNBOUND:                 1.010
REMARK SMILES C=C1[C@@H]2CC[C@H]3[C@@H]2C(C)(C)CCC[C@@]13C
REMARK SMILES IDX 14 1 6 2 7 3 3 4 2 5 1 6 4 7 5 8 15 9 8 10 9 11 10 12 11 13
REMARK SMILES IDX 13 15 12 16
REMARK H PARENT
REMARK Flexibility Score: 80.00
ROOT
ATOM      1  C   UNL     1       9.962  32.694  24.469  1.00  0.00    -0.008 C 
ATOM      2  C   UNL     1       8.830  31.654  24.113  1.00  0.00     0.003 C 
ATOM      3  C   UNL     1       7.953  32.377  23.066  1.00  0.00     0.006 C 
ATOM      4  C   UNL     1       7.762  33.621  23.925  1.00  0.00     0.019 C 
ATOM      5  C   UNL     1       9.180  33.973  24.275  1.00  0.00    -0.068 C 
ATOM      6  C   UNL     1       9.626  35.218  24.482  1.00  0.00     0.009 C 
ATOM      7  C   UNL     1       7.131  33.001  25.193  1.00  0.00     0.008 C 
ATOM      8  C   UNL     1       7.793  31.602  25.268  1.00  0.00     0.005 C 
ATOM      9  C   UNL     1      10.469  32.602  25.934  1.00  0.00     0.016 C 
ENDROOT
BRANCH   3  10
ATOM     10  C   UNL     1       8.452  32.550  21.581  1.00  0.00    -0.032 C 
ATOM     11  C   UNL     1       7.523  33.554  20.854  1.00  0.00     0.011 C 
ATOM     12  C   UNL     1       8.292  31.188  20.850  1.00  0.00     0.011 C 
BRANCH  10  13
ATOM     13  C   UNL     1       9.906  33.070  21.414  1.00  0.00     0.007 CG0
ATOM     14  G   UNL     1      10.971  32.210  22.095  1.00  0.00     0.000 G0
ENDBRANCH  10  13
ENDBRANCH   3  10
BRANCH   1  15
ATOM     15  C   UNL     1      11.213  32.600  23.547  1.00  0.00     0.011 C 
BRANCH  15  16
ATOM     16  C   UNL     1      10.975  32.211  22.090  1.00  0.00     0.001 CG0
ATOM     17  G   UNL     1       9.901  33.062  21.411  1.00  0.00     0.000 G0
ENDBRANCH  15  16
ENDBRANCH   1  15
TORSDOF 0
ENDMDL
MODEL 3
REMARK VINA RESULT:    -4.471      1.947      3.784
REMARK INTER + INTRA:          -4.507
REMARK INTER:                  -5.528
REMARK INTRA:                   1.022
REMARK UNBOUND:                 1.010
REMARK SMILES C=C1[C@@H]2CC[C@H]3[C@@H]2C(C)(C)CCC[C@@]13C
REMARK SMILES IDX 14 1 6 2 7 3 3 4 2 5 1 6 4 7 5 8 15 9 8 10 9 11 10 12 11 13
REMARK SMILES IDX 13 15 12 16
REMARK H PARENT
REMARK Flexibility Score: 80.00
ROOT
ATOM      1  C   UNL     1      10.871  32.343  22.046  1.00  0.00    -0.008 C 
ATOM      2  C   UNL     1       9.950  32.257  23.324  1.00  0.00     0.003 C 
ATOM      3  C   UNL     1       8.531  32.578  22.803  1.00  0.00     0.006 C 
ATOM      4  C   UNL     1       8.957  33.869  22.117  1.00  0.00     0.019 C 
ATOM      5  C   UNL     1      10.114  33.404  21.278  1.00  0.00    -0.068 C 
ATOM      6  C   UNL     1      10.461  33.932  20.098  1.00  0.00     0.009 C 
ATOM      7  C   UNL     1       9.557  34.646  23.310  1.00  0.00     0.008 C 
ATOM      8  C   UNL     1      10.156  33.525  24.197  1.00  0.00     0.005 C 
ATOM      9  C   UNL     1      12.316  32.832  22.338  1.00  0.00     0.016 C 
ENDROOT
BRANCH   3  10
ATOM     10  C   UNL     1       7.717  31.511  21.977  1.00  0.00    -0.032 C 
ATOM     11  C   UNL     1       6.482  32.201  21.347  1.00  0.00     0.011 C 
ATOM     12  C   UNL     1       7.172  30.441  22.962  1.00  0.00     0.011 C 
BRANCH  10  13
ATOM     13  C   UNL     1       8.492  30.819  20.822  1.00  0.00     0.007 CG0
ATOM     14  G   UNL     1       9.762  30.087  21.257  1.00  0.00     0.000 G0
ENDBRANCH  10  13
ENDBRANCH   3  10
BRANCH   1  15
ATOM     15  C   UNL     1      10.993  31.000  21.268  1.00  0.00     0.011 C 
BRANCH  15  16
ATOM     16  C   UNL     1       9.763  30.094  21.248  1.00  0.00     0.001 CG0
ATOM     17  G   UNL     1       8.489  30.824  20.823  1.00  0.00     0.000 G0
ENDBRANCH  15  16
ENDBRANCH   1  15
TORSDOF 0
ENDMDL
MODEL 4
REMARK VINA RESULT:    -4.465      2.375      4.209
REMARK INTER + INTRA:          -4.499
REMARK INTER:                  -5.521
REMARK INTRA:                   1.022
REMARK UNBOUND:                 1.010
REMARK SMILES C=C1[C@@H]2CC[C@H]3[C@@H]2C(C)(C)CCC[C@@]13C
REMARK SMILES IDX 14 1 6 2 7 3 3 4 2 5 1 6 4 7 5 8 15 9 8 10 9 11 10 12 11 13
REMARK SMILES IDX 13 15 12 16
REMARK H PARENT
REMARK Flexibility Score: 80.00
ROOT
ATOM      1  C   UNL     1       8.472  33.017  21.579  1.00  0.00    -0.008 C 
ATOM      2  C   UNL     1       9.591  34.043  22.011  1.00  0.00     0.003 C 
ATOM      3  C   UNL     1      10.791  33.159  22.420  1.00  0.00     0.006 C 
ATOM      4  C   UNL     1       9.974  32.300  23.376  1.00  0.00     0.019 C 
ATOM      5  C   UNL     1       8.828  31.874  22.502  1.00  0.00    -0.068 C 
ATOM      6  C   UNL     1       8.177  30.709  22.615  1.00  0.00     0.009 C 
ATOM      7  C   UNL     1       9.423  33.380  24.335  1.00  0.00     0.008 C 
ATOM      8  C   UNL     1       9.253  34.616  23.415  1.00  0.00     0.005 C 
ATOM      9  C   UNL     1       7.025  33.499  21.868  1.00  0.00     0.016 C 
ENDROOT
BRANCH   3  10
ATOM     10  C   UNL     1      11.675  32.447  21.326  1.00  0.00    -0.032 C 
ATOM     11  C   UNL     1      12.596  31.414  22.021  1.00  0.00     0.011 C 
ATOM     12  C   UNL     1      12.607  33.510  20.683  1.00  0.00     0.011 C 
BRANCH  10  13
ATOM     13  C   UNL     1      10.894  31.690  20.217  1.00  0.00     0.007 CG0
ATOM     14  G   UNL     1       9.908  32.554  19.431  1.00  0.00     0.000 G0
ENDBRANCH  10  13
ENDBRANCH   3  10
BRANCH   1  15
ATOM     15  C   UNL     1       8.530  32.624  20.074  1.00  0.00     0.011 C 
BRANCH  15  16
ATOM     16  C   UNL     1       9.910  32.555  19.425  1.00  0.00     0.001 CG0
ATOM     17  G   UNL     1      10.901  31.699  20.215  1.00  0.00     0.000 G0
ENDBRANCH  15  16
ENDBRANCH   1  15
TORSDOF 0
ENDMDL
MODEL 5
REMARK VINA RESULT:    -4.301      4.662      6.496
REMARK INTER + INTRA:          -4.296
REMARK INTER:                  -5.295
REMARK INTRA:                   0.999
REMARK UNBOUND:                 1.010
REMARK SMILES C=C1[C@@H]2CC[C@H]3[C@@H]2C(C)(C)CCC[C@@]13C
REMARK SMILES IDX 14 1 6 2 7 3 3 4 2 5 1 6 4 7 5 8 15 9 8 10 9 11 10 12 11 13
REMARK SMILES IDX 13 15 12 16
REMARK H PARENT
REMARK Flexibility Score: 80.00
ROOT
ATOM      1  C   UNL     1      12.944  32.662  19.878  1.00  0.00    -0.008 C 
ATOM      2  C   UNL     1      14.277  32.037  19.311  1.00  0.00     0.003 C 
ATOM      3  C   UNL     1      14.754  31.070  20.418  1.00  0.00     0.006 C 
ATOM      4  C   UNL     1      14.678  32.119  21.519  1.00  0.00     0.019 C 
ATOM      5  C   UNL     1      13.278  32.639  21.352  1.00  0.00    -0.068 C 
ATOM      6  C   UNL     1      12.513  33.099  22.349  1.00  0.00     0.009 C 
ATOM      7  C   UNL     1      15.624  33.202  20.952  1.00  0.00     0.008 C 
ATOM      8  C   UNL     1      15.424  33.078  19.421  1.00  0.00     0.005 C 
ATOM      9  C   UNL     1      12.684  34.123  19.419  1.00  0.00     0.016 C 
ENDROOT
BRANCH   3  10
ATOM     10  C   UNL     1      14.037  29.684  20.638  1.00  0.00    -0.032 C 
ATOM     11  C   UNL     1      14.507  29.085  21.987  1.00  0.00     0.011 C 
ATOM     12  C   UNL     1      14.512  28.705  19.529  1.00  0.00     0.011 C 
BRANCH  10  13
ATOM     13  C   UNL     1      12.484  29.726  20.674  1.00  0.00     0.007 CG0
ATOM     14  G   UNL     1      11.836  30.342  19.434  1.00  0.00     0.000 G0
ENDBRANCH  10  13
ENDBRANCH   3  10
BRANCH   1  15
ATOM     15  C   UNL     1      11.668  31.841  19.530  1.00  0.00     0.011 C 
BRANCH  15  16
ATOM     16  C   UNL     1      11.821  30.324  19.434  1.00  0.00     0.001 CG0
ATOM     17  G   UNL     1      12.482  29.711  20.669  1.00  0.00     0.000 G0
ENDBRANCH  15  16
ENDBRANCH   1  15
TORSDOF 0
ENDMDL
MODEL 6
REMARK VINA RESULT:    -4.275      1.667      3.259
REMARK INTER + INTRA:          -4.264
REMARK INTER:                  -5.305
REMARK INTRA:                   1.040
REMARK UNBOUND:                 1.010
REMARK SMILES C=C1[C@@H]2CC[C@H]3[C@@H]2C(C)(C)CCC[C@@]13C
REMARK SMILES IDX 14 1 6 2 7 3 3 4 2 5 1 6 4 7 5 8 15 9 8 10 9 11 10 12 11 13
REMARK SMILES IDX 13 15 12 16
REMARK H PARENT
REMARK Flexibility Score: 80.00
ROOT
ATOM      1  C   UNL     1       9.426  32.665  20.956  1.00  0.00    -0.008 C 
ATOM      2  C   UNL     1       8.486  33.707  21.675  1.00  0.00     0.003 C 
ATOM      3  C   UNL     1       8.217  33.093  23.068  1.00  0.00     0.006 C 
ATOM      4  C   UNL     1       7.769  31.749  22.508  1.00  0.00     0.019 C 
ATOM      5  C   UNL     1       8.913  31.397  21.600  1.00  0.00    -0.068 C 
ATOM      6  C   UNL     1       9.322  30.149  21.338  1.00  0.00     0.009 C 
ATOM      7  C   UNL     1       6.599  32.190  21.599  1.00  0.00     0.008 C 
ATOM      8  C   UNL     1       7.047  33.589  21.102  1.00  0.00     0.005 C 
ATOM      9  C   UNL     1       9.232  32.592  19.417  1.00  0.00     0.016 C 
ENDROOT
BRANCH   3  10
ATOM     10  C   UNL     1       9.327  33.117  24.186  1.00  0.00    -0.032 C 
ATOM     11  C   UNL     1       8.882  32.203  25.354  1.00  0.00     0.011 C 
ATOM     12  C   UNL     1       9.413  34.559  24.758  1.00  0.00     0.011 C 
BRANCH  10  13
ATOM     13  C   UNL     1      10.739  32.640  23.745  1.00  0.00     0.007 CG0
ATOM     14  G   UNL     1      11.345  33.434  22.588  1.00  0.00     0.000 G0
ENDBRANCH  10  13
ENDBRANCH   3  10
BRANCH   1  15
ATOM     15  C   UNL     1      10.943  32.906  21.213  1.00  0.00     0.011 C 
BRANCH  15  16
ATOM     16  C   UNL     1      11.340  33.438  22.588  1.00  0.00     0.001 CG0
ATOM     17  G   UNL     1      10.740  32.629  23.739  1.00  0.00     0.000 G0
ENDBRANCH  15  16
ENDBRANCH   1  15
TORSDOF 0
ENDMDL
MODEL 7
REMARK VINA RESULT:    -4.253      4.406      6.444
REMARK INTER + INTRA:          -4.237
REMARK INTER:                  -5.241
REMARK INTRA:                   1.004
REMARK UNBOUND:                 1.010
REMARK SMILES C=C1[C@@H]2CC[C@H]3[C@@H]2C(C)(C)CCC[C@@]13C
REMARK SMILES IDX 14 1 6 2 7 3 3 4 2 5 1 6 4 7 5 8 15 9 8 10 9 11 10 12 11 13
REMARK SMILES IDX 13 15 12 16
REMARK H PARENT
REMARK Flexibility Score: 80.00
ROOT
ATOM      1  C   UNL     1      12.796  33.071  20.063  1.00  0.00    -0.008 C 
ATOM      2  C   UNL     1      12.972  33.037  21.630  1.00  0.00     0.003 C 
ATOM      3  C   UNL     1      13.092  31.534  21.975  1.00  0.00     0.006 C 
ATOM      4  C   UNL     1      11.822  31.150  21.228  1.00  0.00     0.019 C 
ATOM      5  C   UNL     1      12.063  31.762  19.876  1.00  0.00    -0.068 C 
ATOM      6  C   UNL     1      11.601  31.265  18.722  1.00  0.00     0.009 C 
ATOM      7  C   UNL     1      10.784  32.046  21.942  1.00  0.00     0.008 C 
ATOM      8  C   UNL     1      11.603  33.309  22.311  1.00  0.00     0.005 C 
ATOM      9  C   UNL     1      11.919  34.246  19.549  1.00  0.00     0.016 C 
ENDROOT
BRANCH   3  10
ATOM     10  C   UNL     1      14.421  30.743  21.671  1.00  0.00    -0.032 C 
ATOM     11  C   UNL     1      14.147  29.227  21.827  1.00  0.00     0.011 C 
ATOM     12  C   UNL     1      15.471  31.119  22.752  1.00  0.00     0.011 C 
BRANCH  10  13
ATOM     13  C   UNL     1      15.022  30.955  20.254  1.00  0.00     0.007 CG0
ATOM     14  G   UNL     1      15.338  32.410  19.909  1.00  0.00     0.000 G0
ENDBRANCH  10  13
ENDBRANCH   3  10
BRANCH   1  15
ATOM     15  C   UNL     1      14.141  33.131  19.281  1.00  0.00     0.011 C 
BRANCH  15  16
ATOM     16  C   UNL     1      15.334  32.400  19.892  1.00  0.00     0.001 CG0
ATOM     17  G   UNL     1      15.023  30.949  20.260  1.00  0.00     0.000 G0
ENDBRANCH  15  16
ENDBRANCH   1  15
TORSDOF 0
ENDMDL
MODEL 8
REMARK VINA RESULT:    -4.241      3.918      5.931
REMARK INTER + INTRA:          -4.223
REMARK INTER:                  -5.250
REMARK INTRA:                   1.028
REMARK UNBOUND:                 1.010
REMARK SMILES C=C1[C@@H]2CC[C@H]3[C@@H]2C(C)(C)CCC[C@@]13C
REMARK SMILES IDX 14 1 6 2 7 3 3 4 2 5 1 6 4 7 5 8 15 9 8 10 9 11 10 12 11 13
REMARK SMILES IDX 13 15 12 16
REMARK H PARENT
REMARK Flexibility Score: 80.00
ROOT
ATOM      1  C   UNL     1      14.037  31.347  19.877  1.00  0.00    -0.008 C 
ATOM      2  C   UNL     1      13.179  30.345  20.743  1.00  0.00     0.003 C 
ATOM      3  C   UNL     1      12.698  31.186  21.948  1.00  0.00     0.006 C 
ATOM      4  C   UNL     1      14.096  31.675  22.303  1.00  0.00     0.019 C 
ATOM      5  C   UNL     1      14.575  32.222  20.988  1.00  0.00    -0.068 C 
ATOM      6  C   UNL     1      15.423  33.248  20.853  1.00  0.00     0.009 C 
ATOM      7  C   UNL     1      14.827  30.330  22.518  1.00  0.00     0.008 C 
ATOM      8  C   UNL     1      14.125  29.383  21.511  1.00  0.00     0.005 C 
ATOM      9  C   UNL     1      15.214  30.679  19.115  1.00  0.00     0.016 C 
ENDROOT
BRANCH   3  10
ATOM     10  C   UNL     1      11.543  32.245  21.780  1.00  0.00    -0.032 C 
ATOM     11  C   UNL     1      11.477  33.121  23.055  1.00  0.00     0.011 C 
ATOM     12  C   UNL     1      10.191  31.485  21.694  1.00  0.00     0.011 C 
BRANCH  10  13
ATOM     13  C   UNL     1      11.684  33.210  20.570  1.00  0.00     0.007 CG0
ATOM     14  G   UNL     1      11.767  32.516  19.210  1.00  0.00     0.000 G0
ENDBRANCH  10  13
ENDBRANCH   3  10
BRANCH   1  15
ATOM     15  C   UNL     1      13.206  32.141  18.827  1.00  0.00     0.011 C 
BRANCH  15  16
ATOM     16  C   UNL     1      11.776  32.516  19.211  1.00  0.00     0.001 CG0
ATOM     17  G   UNL     1      11.682  33.195  20.578  1.00  0.00     0.000 G0
ENDBRANCH  15  16
ENDBRANCH   1  15
TORSDOF 0
ENDMDL
