MODEL 1
REMARK VINA RESULT:    -4.279      0.000      0.000
REMARK INTER + INTRA:          -9.385
REMARK INTER:                  -7.782
REMARK INTRA:                  -1.603
REMARK UNBOUND:                -1.603
REMARK SMILES CCCCCCCCCCCCCC[C@@H](C)C(=O)[O-]
REMARK SMILES IDX 9 1 10 2 11 3 12 4 13 5 14 6 15 7 16 8 17 9 18 10 19 11 8 12
REMARK SMILES IDX 7 13 6 14 5 15 4 16 3 17 2 18 1 19
REMARK H PARENT
REMARK Flexibility Score: inf
ROOT
ATOM      1  C   UNL     1      40.367  22.886 222.590  1.00  0.00     0.000 C 
ENDROOT
BRANCH   1   2
ATOM      2  C   UNL     1      41.681  22.224 223.067  1.00  0.00     0.000 C 
BRANCH   2   3
ATOM      3  C   UNL     1      42.079  20.941 222.309  1.00  0.00     0.000 C 
BRANCH   3   4
ATOM      4  C   UNL     1      41.994  19.636 223.124  1.00  0.00     0.000 C 
BRANCH   4   5
ATOM      5  C   UNL     1      42.586  19.765 224.537  1.00  0.00     0.001 C 
BRANCH   5   6
ATOM      6  C   UNL     1      41.585  19.376 225.643  1.00  0.00     0.009 C 
BRANCH   6   7
ATOM      7  C   UNL     1      40.103  19.458 225.212  1.00  0.00     0.032 C 
ATOM      8  C   UNL     1      39.307  18.292 225.808  1.00  0.00     0.014 C 
BRANCH   7   9
ATOM      9  C   UNL     1      39.479  20.767 225.615  1.00  0.00     0.044 C 
ATOM     10  O   UNL     1      38.382  21.134 225.117  1.00  0.00    -0.550 OA
ATOM     11  O   UNL     1      40.109  21.574 226.555  1.00  0.00    -0.550 OA
ENDBRANCH   7   9
ENDBRANCH   6   7
ENDBRANCH   5   6
ENDBRANCH   4   5
ENDBRANCH   3   4
ENDBRANCH   2   3
ENDBRANCH   1   2
BRANCH   1  12
ATOM     12  C   UNL     1      40.151  24.312 223.131  1.00  0.00     0.000 C 
BRANCH  12  13
ATOM     13  C   UNL     1      39.015  24.451 224.163  1.00  0.00    -0.000 C 
BRANCH  13  14
ATOM     14  C   UNL     1      38.042  25.622 223.913  1.00  0.00    -0.000 C 
BRANCH  14  15
ATOM     15  C   UNL     1      36.634  25.213 223.445  1.00  0.00    -0.000 C 
BRANCH  15  16
ATOM     16  C   UNL     1      36.633  23.927 222.607  1.00  0.00    -0.000 C 
BRANCH  16  17
ATOM     17  C   UNL     1      35.551  23.982 221.518  1.00  0.00    -0.000 C 
BRANCH  17  18
ATOM     18  C   UNL     1      36.139  23.971 220.099  1.00  0.00    -0.003 C 
ATOM     19  C   UNL     1      37.540  23.361 220.043  1.00  0.00     0.004 C 
ENDBRANCH  17  18
ENDBRANCH  16  17
ENDBRANCH  15  16
ENDBRANCH  14  15
ENDBRANCH  13  14
ENDBRANCH  12  13
ENDBRANCH   1  12
TORSDOF 14
ENDMDL
MODEL 2
REMARK VINA RESULT:    -4.207      1.243      2.488
REMARK INTER + INTRA:          -9.253
REMARK INTER:                  -7.327
REMARK INTRA:                  -1.926
REMARK UNBOUND:                -1.603
REMARK SMILES CCCCCCCCCCCCCC[C@@H](C)C(=O)[O-]
REMARK SMILES IDX 9 1 10 2 11 3 12 4 13 5 14 6 15 7 16 8 17 9 18 10 19 11 8 12
REMARK SMILES IDX 7 13 6 14 5 15 4 16 3 17 2 18 1 19
REMARK H PARENT
REMARK Flexibility Score: inf
ROOT
ATOM      1  C   UNL     1      39.643  24.891 225.471  1.00  0.00     0.000 C 
ENDROOT
BRANCH   1   2
ATOM      2  C   UNL     1      40.964  24.456 224.795  1.00  0.00     0.000 C 
BRANCH   2   3
ATOM      3  C   UNL     1      40.846  24.099 223.298  1.00  0.00     0.000 C 
BRANCH   3   4
ATOM      4  C   UNL     1      40.725  22.596 222.982  1.00  0.00     0.000 C 
BRANCH   4   5
ATOM      5  C   UNL     1      41.833  21.750 223.633  1.00  0.00     0.001 C 
BRANCH   5   6
ATOM      6  C   UNL     1      41.330  20.376 224.116  1.00  0.00     0.009 C 
BRANCH   6   7
ATOM      7  C   UNL     1      41.305  20.216 225.653  1.00  0.00     0.032 C 
ATOM      8  C   UNL     1      42.150  21.307 226.320  1.00  0.00     0.014 C 
BRANCH   7   9
ATOM      9  C   UNL     1      39.901  20.250 226.193  1.00  0.00     0.044 C 
ATOM     10  O   UNL     1      39.677  20.030 227.413  1.00  0.00    -0.550 OA
ATOM     11  O   UNL     1      38.840  20.542 225.344  1.00  0.00    -0.550 OA
ENDBRANCH   7   9
ENDBRANCH   6   7
ENDBRANCH   5   6
ENDBRANCH   4   5
ENDBRANCH   3   4
ENDBRANCH   2   3
ENDBRANCH   1   2
BRANCH   1  12
ATOM     12  C   UNL     1      38.692  25.671 224.545  1.00  0.00     0.000 C 
BRANCH  12  13
ATOM     13  C   UNL     1      37.283  25.064 224.400  1.00  0.00    -0.000 C 
BRANCH  13  14
ATOM     14  C   UNL     1      37.226  23.522 224.436  1.00  0.00    -0.000 C 
BRANCH  14  15
ATOM     15  C   UNL     1      36.719  22.857 223.144  1.00  0.00    -0.000 C 
BRANCH  15  16
ATOM     16  C   UNL     1      36.586  23.844 221.975  1.00  0.00    -0.000 C 
BRANCH  16  17
ATOM     17  C   UNL     1      37.475  23.421 220.796  1.00  0.00    -0.000 C 
BRANCH  17  18
ATOM     18  C   UNL     1      36.854  23.770 219.434  1.00  0.00    -0.003 C 
ATOM     19  C   UNL     1      35.405  24.243 219.547  1.00  0.00     0.004 C 
ENDBRANCH  17  18
ENDBRANCH  16  17
ENDBRANCH  15  16
ENDBRANCH  14  15
ENDBRANCH  13  14
ENDBRANCH  12  13
ENDBRANCH   1  12
TORSDOF 14
ENDMDL
MODEL 3
REMARK VINA RESULT:    -4.074      2.199      3.096
REMARK INTER + INTRA:          -9.012
REMARK INTER:                  -6.630
REMARK INTRA:                  -2.381
REMARK UNBOUND:                -1.603
REMARK SMILES CCCCCCCCCCCCCC[C@@H](C)C(=O)[O-]
REMARK SMILES IDX 9 1 10 2 11 3 12 4 13 5 14 6 15 7 16 8 17 9 18 10 19 11 8 12
REMARK SMILES IDX 7 13 6 14 5 15 4 16 3 17 2 18 1 19
REMARK H PARENT
REMARK Flexibility Score: inf
ROOT
ATOM      1  C   UNL     1      41.919  22.412 223.469  1.00  0.00     0.000 C 
ENDROOT
BRANCH   1   2
ATOM      2  C   UNL     1      41.886  20.968 224.021  1.00  0.00     0.000 C 
BRANCH   2   3
ATOM      3  C   UNL     1      41.962  20.853 225.558  1.00  0.00     0.000 C 
BRANCH   3   4
ATOM      4  C   UNL     1      40.915  19.927 226.205  1.00  0.00     0.000 C 
BRANCH   4   5
ATOM      5  C   UNL     1      40.040  19.190 225.177  1.00  0.00     0.001 C 
BRANCH   5   6
ATOM      6  C   UNL     1      39.028  18.231 225.832  1.00  0.00     0.009 C 
BRANCH   6   7
ATOM      7  C   UNL     1      37.959  18.934 226.699  1.00  0.00     0.032 C 
ATOM      8  C   UNL     1      36.647  19.079 225.921  1.00  0.00     0.014 C 
BRANCH   7   9
ATOM      9  C   UNL     1      37.715  18.194 227.987  1.00  0.00     0.044 C 
ATOM     10  O   UNL     1      37.017  17.146 228.002  1.00  0.00    -0.550 OA
ATOM     11  O   UNL     1      38.277  18.660 229.170  1.00  0.00    -0.550 OA
ENDBRANCH   7   9
ENDBRANCH   6   7
ENDBRANCH   5   6
ENDBRANCH   4   5
ENDBRANCH   3   4
ENDBRANCH   2   3
ENDBRANCH   1   2
BRANCH   1  12
ATOM     12  C   UNL     1      41.680  23.496 224.537  1.00  0.00     0.000 C 
BRANCH  12  13
ATOM     13  C   UNL     1      40.289  24.156 224.495  1.00  0.00    -0.000 C 
BRANCH  13  14
ATOM     14  C   UNL     1      39.446  23.992 225.777  1.00  0.00    -0.000 C 
BRANCH  14  15
ATOM     15  C   UNL     1      38.452  22.817 225.761  1.00  0.00    -0.000 C 
BRANCH  15  16
ATOM     16  C   UNL     1      38.280  22.200 224.365  1.00  0.00    -0.000 C 
BRANCH  16  17
ATOM     17  C   UNL     1      36.923  22.587 223.758  1.00  0.00    -0.000 C 
BRANCH  17  18
ATOM     18  C   UNL     1      37.064  23.504 222.534  1.00  0.00    -0.003 C 
ATOM     19  C   UNL     1      36.513  24.909 222.778  1.00  0.00     0.004 C 
ENDBRANCH  17  18
ENDBRANCH  16  17
ENDBRANCH  15  16
ENDBRANCH  14  15
ENDBRANCH  13  14
ENDBRANCH  12  13
ENDBRANCH   1  12
TORSDOF 14
ENDMDL
MODEL 4
REMARK VINA RESULT:    -4.062      2.623      3.479
REMARK INTER + INTRA:          -8.989
REMARK INTER:                  -7.406
REMARK INTRA:                  -1.584
REMARK UNBOUND:                -1.603
REMARK SMILES CCCCCCCCCCCCCC[C@@H](C)C(=O)[O-]
REMARK SMILES IDX 9 1 10 2 11 3 12 4 13 5 14 6 15 7 16 8 17 9 18 10 19 11 8 12
REMARK SMILES IDX 7 13 6 14 5 15 4 16 3 17 2 18 1 19
REMARK H PARENT
REMARK Flexibility Score: inf
ROOT
ATOM      1  C   UNL     1      38.689  25.576 226.376  1.00  0.00     0.000 C 
ENDROOT
BRANCH   1   2
ATOM      2  C   UNL     1      39.068  24.279 227.128  1.00  0.00     0.000 C 
BRANCH   2   3
ATOM      3  C   UNL     1      39.532  23.113 226.230  1.00  0.00     0.000 C 
BRANCH   3   4
ATOM      4  C   UNL     1      38.813  21.771 226.463  1.00  0.00     0.000 C 
BRANCH   4   5
ATOM      5  C   UNL     1      39.157  20.708 225.405  1.00  0.00     0.001 C 
BRANCH   5   6
ATOM      6  C   UNL     1      38.524  19.337 225.707  1.00  0.00     0.009 C 
BRANCH   6   7
ATOM      7  C   UNL     1      37.314  19.395 226.667  1.00  0.00     0.032 C 
ATOM      8  C   UNL     1      36.017  19.076 225.916  1.00  0.00     0.014 C 
BRANCH   7   9
ATOM      9  C   UNL     1      37.481  18.454 227.829  1.00  0.00     0.044 C 
ATOM     10  O   UNL     1      38.290  18.718 228.757  1.00  0.00    -0.550 OA
ATOM     11  O   UNL     1      36.725  17.289 227.890  1.00  0.00    -0.550 OA
ENDBRANCH   7   9
ENDBRANCH   6   7
ENDBRANCH   5   6
ENDBRANCH   4   5
ENDBRANCH   3   4
ENDBRANCH   2   3
ENDBRANCH   1   2
BRANCH   1  12
ATOM     12  C   UNL     1      38.990  25.535 224.866  1.00  0.00     0.000 C 
BRANCH  12  13
ATOM     13  C   UNL     1      37.779  25.808 223.954  1.00  0.00    -0.000 C 
BRANCH  13  14
ATOM     14  C   UNL     1      36.541  24.928 224.227  1.00  0.00    -0.000 C 
BRANCH  14  15
ATOM     15  C   UNL     1      36.684  23.453 223.810  1.00  0.00    -0.000 C 
BRANCH  15  16
ATOM     16  C   UNL     1      36.714  23.262 222.286  1.00  0.00    -0.000 C 
BRANCH  16  17
ATOM     17  C   UNL     1      35.540  23.993 221.618  1.00  0.00    -0.000 C 
BRANCH  17  18
ATOM     18  C   UNL     1      35.724  24.143 220.101  1.00  0.00    -0.003 C 
ATOM     19  C   UNL     1      37.061  23.591 219.608  1.00  0.00     0.004 C 
ENDBRANCH  17  18
ENDBRANCH  16  17
ENDBRANCH  15  16
ENDBRANCH  14  15
ENDBRANCH  13  14
ENDBRANCH  12  13
ENDBRANCH   1  12
TORSDOF 14
ENDMDL
MODEL 5
REMARK VINA RESULT:    -4.057      1.983      2.896
REMARK INTER + INTRA:          -8.981
REMARK INTER:                  -7.233
REMARK INTRA:                  -1.748
REMARK UNBOUND:                -1.603
REMARK SMILES CCCCCCCCCCCCCC[C@@H](C)C(=O)[O-]
REMARK SMILES IDX 9 1 10 2 11 3 12 4 13 5 14 6 15 7 16 8 17 9 18 10 19 11 8 12
REMARK SMILES IDX 7 13 6 14 5 15 4 16 3 17 2 18 1 19
REMARK H PARENT
REMARK Flexibility Score: inf
ROOT
ATOM      1  C   UNL     1      41.309  22.203 223.325  1.00  0.00     0.000 C 
ENDROOT
BRANCH   1   2
ATOM      2  C   UNL     1      40.653  21.220 224.322  1.00  0.00     0.000 C 
BRANCH   2   3
ATOM      3  C   UNL     1      40.951  21.502 225.810  1.00  0.00     0.000 C 
BRANCH   3   4
ATOM      4  C   UNL     1      39.717  21.594 226.727  1.00  0.00     0.000 C 
BRANCH   4   5
ATOM      5  C   UNL     1      38.427  21.089 226.059  1.00  0.00     0.001 C 
BRANCH   5   6
ATOM      6  C   UNL     1      37.367  20.627 227.078  1.00  0.00     0.009 C 
BRANCH   6   7
ATOM      7  C   UNL     1      37.005  19.128 226.979  1.00  0.00     0.032 C 
ATOM      8  C   UNL     1      36.608  18.764 225.544  1.00  0.00     0.014 C 
BRANCH   7   9
ATOM      9  C   UNL     1      38.140  18.252 227.437  1.00  0.00     0.044 C 
ATOM     10  O   UNL     1      38.851  17.634 226.601  1.00  0.00    -0.550 OA
ATOM     11  O   UNL     1      38.419  18.133 228.794  1.00  0.00    -0.550 OA
ENDBRANCH   7   9
ENDBRANCH   6   7
ENDBRANCH   5   6
ENDBRANCH   4   5
ENDBRANCH   3   4
ENDBRANCH   2   3
ENDBRANCH   1   2
BRANCH   1  12
ATOM     12  C   UNL     1      40.899  23.673 223.532  1.00  0.00     0.000 C 
BRANCH  12  13
ATOM     13  C   UNL     1      39.623  24.103 222.784  1.00  0.00    -0.000 C 
BRANCH  13  14
ATOM     14  C   UNL     1      38.469  24.593 223.683  1.00  0.00    -0.000 C 
BRANCH  14  15
ATOM     15  C   UNL     1      37.271  23.632 223.791  1.00  0.00    -0.000 C 
BRANCH  15  16
ATOM     16  C   UNL     1      36.780  23.133 222.425  1.00  0.00    -0.000 C 
BRANCH  16  17
ATOM     17  C   UNL     1      35.992  24.228 221.691  1.00  0.00    -0.000 C 
BRANCH  17  18
ATOM     18  C   UNL     1      36.241  24.220 220.175  1.00  0.00    -0.003 C 
ATOM     19  C   UNL     1      37.397  23.307 219.769  1.00  0.00     0.004 C 
ENDBRANCH  17  18
ENDBRANCH  16  17
ENDBRANCH  15  16
ENDBRANCH  14  15
ENDBRANCH  13  14
ENDBRANCH  12  13
ENDBRANCH   1  12
TORSDOF 14
ENDMDL
MODEL 6
REMARK VINA RESULT:    -4.032      1.730      2.465
REMARK INTER + INTRA:          -8.936
REMARK INTER:                  -7.359
REMARK INTRA:                  -1.577
REMARK UNBOUND:                -1.603
REMARK SMILES CCCCCCCCCCCCCC[C@@H](C)C(=O)[O-]
REMARK SMILES IDX 9 1 10 2 11 3 12 4 13 5 14 6 15 7 16 8 17 9 18 10 19 11 8 12
REMARK SMILES IDX 7 13 6 14 5 15 4 16 3 17 2 18 1 19
REMARK H PARENT
REMARK Flexibility Score: inf
ROOT
ATOM      1  C   UNL     1      40.597  24.302 225.099  1.00  0.00     0.000 C 
ENDROOT
BRANCH   1   2
ATOM      2  C   UNL     1      41.749  23.269 225.100  1.00  0.00     0.000 C 
BRANCH   2   3
ATOM      3  C   UNL     1      41.949  22.514 226.431  1.00  0.00     0.000 C 
BRANCH   3   4
ATOM      4  C   UNL     1      42.043  20.981 226.314  1.00  0.00     0.000 C 
BRANCH   4   5
ATOM      5  C   UNL     1      41.932  20.476 224.866  1.00  0.00     0.001 C 
BRANCH   5   6
ATOM      6  C   UNL     1      40.693  19.589 224.636  1.00  0.00     0.009 C 
BRANCH   6   7
ATOM      7  C   UNL     1      39.570  19.787 225.679  1.00  0.00     0.032 C 
ATOM      8  C   UNL     1      38.617  20.903 225.237  1.00  0.00     0.014 C 
BRANCH   7   9
ATOM      9  C   UNL     1      38.800  18.515 225.914  1.00  0.00     0.044 C 
ATOM     10  O   UNL     1      39.358  17.515 226.438  1.00  0.00    -0.550 OA
ATOM     11  O   UNL     1      37.456  18.445 225.565  1.00  0.00    -0.550 OA
ENDBRANCH   7   9
ENDBRANCH   6   7
ENDBRANCH   5   6
ENDBRANCH   4   5
ENDBRANCH   3   4
ENDBRANCH   2   3
ENDBRANCH   1   2
BRANCH   1  12
ATOM     12  C   UNL     1      39.700  24.238 223.849  1.00  0.00     0.000 C 
BRANCH  12  13
ATOM     13  C   UNL     1      38.383  25.030 223.954  1.00  0.00    -0.000 C 
BRANCH  13  14
ATOM     14  C   UNL     1      37.140  24.191 224.321  1.00  0.00    -0.000 C 
BRANCH  14  15
ATOM     15  C   UNL     1      36.612  23.281 223.198  1.00  0.00    -0.000 C 
BRANCH  15  16
ATOM     16  C   UNL     1      36.601  23.970 221.825  1.00  0.00    -0.000 C 
BRANCH  16  17
ATOM     17  C   UNL     1      37.612  23.312 220.873  1.00  0.00    -0.000 C 
BRANCH  17  18
ATOM     18  C   UNL     1      37.162  23.365 219.406  1.00  0.00    -0.003 C 
ATOM     19  C   UNL     1      35.960  24.284 219.187  1.00  0.00     0.004 C 
ENDBRANCH  17  18
ENDBRANCH  16  17
ENDBRANCH  15  16
ENDBRANCH  14  15
ENDBRANCH  13  14
ENDBRANCH  12  13
ENDBRANCH   1  12
TORSDOF 14
ENDMDL
MODEL 7
REMARK VINA RESULT:    -3.941      3.000      6.453
REMARK INTER + INTRA:          -8.769
REMARK INTER:                  -6.913
REMARK INTRA:                  -1.856
REMARK UNBOUND:                -1.603
REMARK SMILES CCCCCCCCCCCCCC[C@@H](C)C(=O)[O-]
REMARK SMILES IDX 9 1 10 2 11 3 12 4 13 5 14 6 15 7 16 8 17 9 18 10 19 11 8 12
REMARK SMILES IDX 7 13 6 14 5 15 4 16 3 17 2 18 1 19
REMARK H PARENT
REMARK Flexibility Score: inf
ROOT
ATOM      1  C   UNL     1      37.557  24.052 226.789  1.00  0.00     0.000 C 
ENDROOT
BRANCH   1   2
ATOM      2  C   UNL     1      36.694  25.216 226.250  1.00  0.00     0.000 C 
BRANCH   2   3
ATOM      3  C   UNL     1      36.362  25.142 224.745  1.00  0.00     0.000 C 
BRANCH   3   4
ATOM      4  C   UNL     1      37.538  25.427 223.792  1.00  0.00     0.000 C 
BRANCH   4   5
ATOM      5  C   UNL     1      38.092  24.161 223.118  1.00  0.00     0.001 C 
BRANCH   5   6
ATOM      6  C   UNL     1      37.016  23.378 222.341  1.00  0.00     0.009 C 
BRANCH   6   7
ATOM      7  C   UNL     1      36.594  24.035 221.008  1.00  0.00     0.032 C 
ATOM      8  C   UNL     1      37.263  23.328 219.825  1.00  0.00     0.014 C 
BRANCH   7   9
ATOM      9  C   UNL     1      35.098  24.027 220.834  1.00  0.00     0.044 C 
ATOM     10  O   UNL     1      34.340  23.841 221.822  1.00  0.00    -0.550 OA
ATOM     11  O   UNL     1      34.547  24.240 219.577  1.00  0.00    -0.550 OA
ENDBRANCH   7   9
ENDBRANCH   6   7
ENDBRANCH   5   6
ENDBRANCH   4   5
ENDBRANCH   3   4
ENDBRANCH   2   3
ENDBRANCH   1   2
BRANCH   1  12
ATOM     12  C   UNL     1      38.926  24.491 227.342  1.00  0.00     0.000 C 
BRANCH  12  13
ATOM     13  C   UNL     1      39.382  25.897 226.908  1.00  0.00    -0.000 C 
BRANCH  13  14
ATOM     14  C   UNL     1      40.715  25.945 226.132  1.00  0.00    -0.000 C 
BRANCH  14  15
ATOM     15  C   UNL     1      40.983  24.735 225.219  1.00  0.00    -0.000 C 
BRANCH  15  16
ATOM     16  C   UNL     1      42.025  23.768 225.799  1.00  0.00    -0.000 C 
BRANCH  16  17
ATOM     17  C   UNL     1      41.782  22.336 225.300  1.00  0.00    -0.000 C 
BRANCH  17  18
ATOM     18  C   UNL     1      41.092  22.297 223.928  1.00  0.00    -0.003 C 
ATOM     19  C   UNL     1      41.988  21.727 222.829  1.00  0.00     0.004 C 
ENDBRANCH  17  18
ENDBRANCH  16  17
ENDBRANCH  15  16
ENDBRANCH  14  15
ENDBRANCH  13  14
ENDBRANCH  12  13
ENDBRANCH   1  12
TORSDOF 14
ENDMDL
MODEL 8
REMARK VINA RESULT:    -3.893      2.655      4.071
REMARK INTER + INTRA:          -8.683
REMARK INTER:                  -6.309
REMARK INTRA:                  -2.374
REMARK UNBOUND:                -1.603
REMARK SMILES CCCCCCCCCCCCCC[C@@H](C)C(=O)[O-]
REMARK SMILES IDX 9 1 10 2 11 3 12 4 13 5 14 6 15 7 16 8 17 9 18 10 19 11 8 12
REMARK SMILES IDX 7 13 6 14 5 15 4 16 3 17 2 18 1 19
REMARK H PARENT
REMARK Flexibility Score: inf
ROOT
ATOM      1  C   UNL     1      41.625  22.206 225.412  1.00  0.00     0.000 C 
ENDROOT
BRANCH   1   2
ATOM      2  C   UNL     1      42.175  21.096 226.339  1.00  0.00     0.000 C 
BRANCH   2   3
ATOM      3  C   UNL     1      41.307  20.789 227.577  1.00  0.00     0.000 C 
BRANCH   3   4
ATOM      4  C   UNL     1      40.463  19.503 227.492  1.00  0.00     0.000 C 
BRANCH   4   5
ATOM      5  C   UNL     1      40.104  19.109 226.049  1.00  0.00     0.001 C 
BRANCH   5   6
ATOM      6  C   UNL     1      38.928  18.116 225.976  1.00  0.00     0.009 C 
BRANCH   6   7
ATOM      7  C   UNL     1      37.951  18.203 227.171  1.00  0.00     0.032 C 
ATOM      8  C   UNL     1      36.569  18.669 226.701  1.00  0.00     0.014 C 
BRANCH   7   9
ATOM      9  C   UNL     1      37.833  16.885 227.888  1.00  0.00     0.044 C 
ATOM     10  O   UNL     1      36.739  16.261 227.908  1.00  0.00    -0.550 OA
ATOM     11  O   UNL     1      38.944  16.340 228.522  1.00  0.00    -0.550 OA
ENDBRANCH   7   9
ENDBRANCH   6   7
ENDBRANCH   5   6
ENDBRANCH   4   5
ENDBRANCH   3   4
ENDBRANCH   2   3
ENDBRANCH   1   2
BRANCH   1  12
ATOM     12  C   UNL     1      41.450  21.768 223.946  1.00  0.00     0.000 C 
BRANCH  12  13
ATOM     13  C   UNL     1      40.959  22.874 222.992  1.00  0.00    -0.000 C 
BRANCH  13  14
ATOM     14  C   UNL     1      40.611  24.216 223.668  1.00  0.00    -0.000 C 
BRANCH  14  15
ATOM     15  C   UNL     1      39.109  24.552 223.720  1.00  0.00    -0.000 C 
BRANCH  15  16
ATOM     16  C   UNL     1      38.235  23.483 223.048  1.00  0.00    -0.000 C 
BRANCH  16  17
ATOM     17  C   UNL     1      37.214  22.906 224.040  1.00  0.00    -0.000 C 
BRANCH  17  18
ATOM     18  C   UNL     1      37.795  21.766 224.889  1.00  0.00    -0.003 C 
ATOM     19  C   UNL     1      38.012  22.164 226.349  1.00  0.00     0.004 C 
ENDBRANCH  17  18
ENDBRANCH  16  17
ENDBRANCH  15  16
ENDBRANCH  14  15
ENDBRANCH  13  14
ENDBRANCH  12  13
ENDBRANCH   1  12
TORSDOF 14
ENDMDL
MODEL 9
REMARK VINA RESULT:    -3.878      2.225      3.662
REMARK INTER + INTRA:          -8.656
REMARK INTER:                  -5.931
REMARK INTRA:                  -2.725
REMARK UNBOUND:                -1.603
REMARK SMILES CCCCCCCCCCCCCC[C@@H](C)C(=O)[O-]
REMARK SMILES IDX 9 1 10 2 11 3 12 4 13 5 14 6 15 7 16 8 17 9 18 10 19 11 8 12
REMARK SMILES IDX 7 13 6 14 5 15 4 16 3 17 2 18 1 19
REMARK H PARENT
REMARK Flexibility Score: inf
ROOT
ATOM      1  C   UNL     1      41.958  24.324 225.059  1.00  0.00     0.000 C 
ENDROOT
BRANCH   1   2
ATOM      2  C   UNL     1      42.132  23.602 226.415  1.00  0.00     0.000 C 
BRANCH   2   3
ATOM      3  C   UNL     1      41.237  22.361 226.615  1.00  0.00     0.000 C 
BRANCH   3   4
ATOM      4  C   UNL     1      41.973  21.008 226.632  1.00  0.00     0.000 C 
BRANCH   4   5
ATOM      5  C   UNL     1      41.382  19.985 225.646  1.00  0.00     0.001 C 
BRANCH   5   6
ATOM      6  C   UNL     1      39.931  20.313 225.243  1.00  0.00     0.009 C 
BRANCH   6   7
ATOM      7  C   UNL     1      38.870  19.407 225.908  1.00  0.00     0.032 C 
ATOM      8  C   UNL     1      39.432  17.999 226.134  1.00  0.00     0.014 C 
BRANCH   7   9
ATOM      9  C   UNL     1      38.386  19.983 227.212  1.00  0.00     0.044 C 
ATOM     10  O   UNL     1      37.394  20.758 227.241  1.00  0.00    -0.550 OA
ATOM     11  O   UNL     1      39.029  19.648 228.398  1.00  0.00    -0.550 OA
ENDBRANCH   7   9
ENDBRANCH   6   7
ENDBRANCH   5   6
ENDBRANCH   4   5
ENDBRANCH   3   4
ENDBRANCH   2   3
ENDBRANCH   1   2
BRANCH   1  12
ATOM     12  C   UNL     1      41.587  23.389 223.894  1.00  0.00     0.000 C 
BRANCH  12  13
ATOM     13  C   UNL     1      40.452  23.900 222.986  1.00  0.00    -0.000 C 
BRANCH  13  14
ATOM     14  C   UNL     1      39.049  23.346 223.315  1.00  0.00    -0.000 C 
BRANCH  14  15
ATOM     15  C   UNL     1      38.135  24.305 224.099  1.00  0.00    -0.000 C 
BRANCH  15  16
ATOM     16  C   UNL     1      38.039  23.953 225.591  1.00  0.00    -0.000 C 
BRANCH  16  17
ATOM     17  C   UNL     1      38.598  25.090 226.460  1.00  0.00    -0.000 C 
BRANCH  17  18
ATOM     18  C   UNL     1      38.955  26.339 225.640  1.00  0.00    -0.003 C 
ATOM     19  C   UNL     1      39.922  27.271 226.371  1.00  0.00     0.004 C 
ENDBRANCH  17  18
ENDBRANCH  16  17
ENDBRANCH  15  16
ENDBRANCH  14  15
ENDBRANCH  13  14
ENDBRANCH  12  13
ENDBRANCH   1  12
TORSDOF 14
ENDMDL
