MODEL 1
REMARK VINA RESULT:    -3.325      0.000      0.000
REMARK INTER + INTRA:          -7.144
REMARK INTER:                  -5.658
REMARK INTRA:                  -1.487
REMARK UNBOUND:                -1.487
REMARK SMILES CCCCCCCCCCCCCC(=O)[O-]
REMARK SMILES IDX 8 1 9 2 10 3 11 4 12 5 13 6 14 7 15 8 16 9 7 10 6 11 5 12
REMARK SMILES IDX 4 13 3 14 2 15 1 16
REMARK H PARENT
REMARK Flexibility Score: inf
ROOT
ATOM      1  C   UNL     1      60.568  31.333  60.403  1.00  0.00     0.000 C 
ENDROOT
BRANCH   1   2
ATOM      2  C   UNL     1      61.086  31.089  61.829  1.00  0.00     0.000 C 
BRANCH   2   3
ATOM      3  C   UNL     1      62.321  30.174  61.864  1.00  0.00     0.000 C 
BRANCH   3   4
ATOM      4  C   UNL     1      63.617  30.917  61.495  1.00  0.00     0.000 C 
BRANCH   4   5
ATOM      5  C   UNL     1      64.312  30.320  60.257  1.00  0.00     0.006 C 
BRANCH   5   6
ATOM      6  C   UNL     1      65.799  29.986  60.464  1.00  0.00     0.053 C 
BRANCH   6   7
ATOM      7  C   UNL     1      66.002  28.567  60.896  1.00  0.00     0.041 C 
ATOM      8  O   UNL     1      65.030  27.767  60.919  1.00  0.00    -0.550 OA
ATOM      9  O   UNL     1      67.257  28.136  61.305  1.00  0.00    -0.550 OA
ENDBRANCH   6   7
ENDBRANCH   5   6
ENDBRANCH   4   5
ENDBRANCH   3   4
ENDBRANCH   2   3
ENDBRANCH   1   2
BRANCH   1  10
ATOM     10  C   UNL     1      60.719  32.808  60.011  1.00  0.00     0.000 C 
BRANCH  10  11
ATOM     11  C   UNL     1      61.772  32.979  58.905  1.00  0.00    -0.000 C 
BRANCH  11  12
ATOM     12  C   UNL     1      62.907  33.941  59.297  1.00  0.00    -0.000 C 
BRANCH  12  13
ATOM     13  C   UNL     1      62.800  34.537  60.713  1.00  0.00    -0.000 C 
BRANCH  13  14
ATOM     14  C   UNL     1      64.146  34.560  61.457  1.00  0.00    -0.000 C 
BRANCH  14  15
ATOM     15  C   UNL     1      64.450  35.930  62.081  1.00  0.00    -0.003 C 
ATOM     16  C   UNL     1      64.481  37.059  61.050  1.00  0.00     0.004 C 
ENDBRANCH  14  15
ENDBRANCH  13  14
ENDBRANCH  12  13
ENDBRANCH  11  12
ENDBRANCH  10  11
ENDBRANCH   1  10
TORSDOF 12
ENDMDL
MODEL 2
REMARK VINA RESULT:    -3.300      1.412      2.500
REMARK INTER + INTRA:          -7.101
REMARK INTER:                  -5.321
REMARK INTRA:                  -1.780
REMARK UNBOUND:                -1.487
REMARK SMILES CCCCCCCCCCCCCC(=O)[O-]
REMARK SMILES IDX 8 1 9 2 10 3 11 4 12 5 13 6 14 7 15 8 16 9 7 10 6 11 5 12
REMARK SMILES IDX 4 13 3 14 2 15 1 16
REMARK H PARENT
REMARK Flexibility Score: inf
ROOT
ATOM      1  C   UNL     1      61.773  32.808  59.445  1.00  0.00     0.000 C 
ENDROOT
BRANCH   1   2
ATOM      2  C   UNL     1      60.987  31.509  59.210  1.00  0.00     0.000 C 
BRANCH   2   3
ATOM      3  C   UNL     1      60.359  30.953  60.499  1.00  0.00     0.000 C 
BRANCH   3   4
ATOM      4  C   UNL     1      61.322  31.015  61.698  1.00  0.00     0.000 C 
BRANCH   4   5
ATOM      5  C   UNL     1      62.214  29.764  61.808  1.00  0.00     0.006 C 
BRANCH   5   6
ATOM      6  C   UNL     1      63.703  30.017  61.517  1.00  0.00     0.053 C 
BRANCH   6   7
ATOM      7  C   UNL     1      64.231  29.109  60.451  1.00  0.00     0.041 C 
ATOM      8  O   UNL     1      63.942  29.316  59.243  1.00  0.00    -0.550 OA
ATOM      9  O   UNL     1      65.014  28.014  60.792  1.00  0.00    -0.550 OA
ENDBRANCH   6   7
ENDBRANCH   5   6
ENDBRANCH   4   5
ENDBRANCH   3   4
ENDBRANCH   2   3
ENDBRANCH   1   2
BRANCH   1  10
ATOM     10  C   UNL     1      63.140  32.753  58.752  1.00  0.00     0.000 C 
BRANCH  10  11
ATOM     11  C   UNL     1      64.268  33.119  59.729  1.00  0.00    -0.000 C 
BRANCH  11  12
ATOM     12  C   UNL     1      63.754  33.768  61.027  1.00  0.00    -0.000 C 
BRANCH  12  13
ATOM     13  C   UNL     1      64.198  35.226  61.250  1.00  0.00    -0.000 C 
BRANCH  13  14
ATOM     14  C   UNL     1      63.015  36.184  61.474  1.00  0.00    -0.000 C 
BRANCH  14  15
ATOM     15  C   UNL     1      62.183  36.398  60.201  1.00  0.00    -0.003 C 
ATOM     16  C   UNL     1      60.678  36.430  60.473  1.00  0.00     0.004 C 
ENDBRANCH  14  15
ENDBRANCH  13  14
ENDBRANCH  12  13
ENDBRANCH  11  12
ENDBRANCH  10  11
ENDBRANCH   1  10
TORSDOF 12
ENDMDL
MODEL 3
REMARK VINA RESULT:    -3.283      2.309      3.866
REMARK INTER + INTRA:          -7.073
REMARK INTER:                  -5.512
REMARK INTRA:                  -1.561
REMARK UNBOUND:                -1.487
REMARK SMILES CCCCCCCCCCCCCC(=O)[O-]
REMARK SMILES IDX 8 1 9 2 10 3 11 4 12 5 13 6 14 7 15 8 16 9 7 10 6 11 5 12
REMARK SMILES IDX 4 13 3 14 2 15 1 16
REMARK H PARENT
REMARK Flexibility Score: inf
ROOT
ATOM      1  C   UNL     1      63.822  33.047  60.848  1.00  0.00     0.000 C 
ENDROOT
BRANCH   1   2
ATOM      2  C   UNL     1      63.029  33.052  59.532  1.00  0.00     0.000 C 
BRANCH   2   3
ATOM      3  C   UNL     1      61.657  32.371  59.661  1.00  0.00     0.000 C 
BRANCH   3   4
ATOM      4  C   UNL     1      61.148  32.343  61.113  1.00  0.00     0.000 C 
BRANCH   4   5
ATOM      5  C   UNL     1      60.848  30.916  61.610  1.00  0.00     0.006 C 
BRANCH   5   6
ATOM      6  C   UNL     1      62.097  30.053  61.856  1.00  0.00     0.053 C 
BRANCH   6   7
ATOM      7  C   UNL     1      61.946  28.672  61.299  1.00  0.00     0.041 C 
ATOM      8  O   UNL     1      62.306  27.673  61.976  1.00  0.00    -0.550 OA
ATOM      9  O   UNL     1      61.438  28.488  60.020  1.00  0.00    -0.550 OA
ENDBRANCH   6   7
ENDBRANCH   5   6
ENDBRANCH   4   5
ENDBRANCH   3   4
ENDBRANCH   2   3
ENDBRANCH   1   2
BRANCH   1  10
ATOM     10  C   UNL     1      64.095  34.478  61.328  1.00  0.00     0.000 C 
BRANCH  10  11
ATOM     11  C   UNL     1      64.292  35.430  60.138  1.00  0.00    -0.000 C 
BRANCH  11  12
ATOM     12  C   UNL     1      63.736  36.842  60.397  1.00  0.00    -0.000 C 
BRANCH  12  13
ATOM     13  C   UNL     1      62.671  36.932  61.506  1.00  0.00    -0.000 C 
BRANCH  13  14
ATOM     14  C   UNL     1      61.247  37.124  60.955  1.00  0.00    -0.000 C 
BRANCH  14  15
ATOM     15  C   UNL     1      60.651  35.821  60.402  1.00  0.00    -0.003 C 
ATOM     16  C   UNL     1      60.120  35.969  58.975  1.00  0.00     0.004 C 
ENDBRANCH  14  15
ENDBRANCH  13  14
ENDBRANCH  12  13
ENDBRANCH  11  12
ENDBRANCH  10  11
ENDBRANCH   1  10
TORSDOF 12
ENDMDL
MODEL 4
REMARK VINA RESULT:    -3.230     11.697     13.724
REMARK INTER + INTRA:          -6.982
REMARK INTER:                  -5.529
REMARK INTRA:                  -1.453
REMARK UNBOUND:                -1.487
REMARK SMILES CCCCCCCCCCCCCC(=O)[O-]
REMARK SMILES IDX 8 1 9 2 10 3 11 4 12 5 13 6 14 7 15 8 16 9 7 10 6 11 5 12
REMARK SMILES IDX 4 13 3 14 2 15 1 16
REMARK H PARENT
REMARK Flexibility Score: inf
ROOT
ATOM      1  C   UNL     1      58.122  29.239  49.630  1.00  0.00     0.000 C 
ENDROOT
BRANCH   1   2
ATOM      2  C   UNL     1      59.636  28.985  49.573  1.00  0.00     0.000 C 
BRANCH   2   3
ATOM      3  C   UNL     1      59.984  27.495  49.425  1.00  0.00     0.000 C 
BRANCH   3   4
ATOM      4  C   UNL     1      58.734  26.597  49.403  1.00  0.00     0.000 C 
BRANCH   4   5
ATOM      5  C   UNL     1      58.807  25.452  50.430  1.00  0.00     0.006 C 
BRANCH   5   6
ATOM      6  C   UNL     1      58.816  25.913  51.896  1.00  0.00     0.053 C 
BRANCH   6   7
ATOM      7  C   UNL     1      57.844  25.143  52.735  1.00  0.00     0.041 C 
ATOM      8  O   UNL     1      58.254  24.445  53.700  1.00  0.00    -0.550 OA
ATOM      9  O   UNL     1      56.489  25.171  52.433  1.00  0.00    -0.550 OA
ENDBRANCH   6   7
ENDBRANCH   5   6
ENDBRANCH   4   5
ENDBRANCH   3   4
ENDBRANCH   2   3
ENDBRANCH   1   2
BRANCH   1  10
ATOM     10  C   UNL     1      57.675  29.569  51.061  1.00  0.00     0.000 C 
BRANCH  10  11
ATOM     11  C   UNL     1      56.422  28.768  51.444  1.00  0.00    -0.000 C 
BRANCH  11  12
ATOM     12  C   UNL     1      55.134  29.323  50.809  1.00  0.00    -0.000 C 
BRANCH  12  13
ATOM     13  C   UNL     1      54.267  28.284  50.074  1.00  0.00    -0.000 C 
BRANCH  13  14
ATOM     14  C   UNL     1      54.982  26.936  49.880  1.00  0.00    -0.000 C 
BRANCH  14  15
ATOM     15  C   UNL     1      54.154  25.945  49.049  1.00  0.00    -0.003 C 
ATOM     16  C   UNL     1      53.016  25.306  49.846  1.00  0.00     0.004 C 
ENDBRANCH  14  15
ENDBRANCH  13  14
ENDBRANCH  12  13
ENDBRANCH  11  12
ENDBRANCH  10  11
ENDBRANCH   1  10
TORSDOF 12
ENDMDL
MODEL 5
REMARK VINA RESULT:    -3.221     12.003     13.181
REMARK INTER + INTRA:          -6.968
REMARK INTER:                  -5.205
REMARK INTRA:                  -1.762
REMARK UNBOUND:                -1.487
REMARK SMILES CCCCCCCCCCCCCC(=O)[O-]
REMARK SMILES IDX 8 1 9 2 10 3 11 4 12 5 13 6 14 7 15 8 16 9 7 10 6 11 5 12
REMARK SMILES IDX 4 13 3 14 2 15 1 16
REMARK H PARENT
REMARK Flexibility Score: inf
ROOT
ATOM      1  C   UNL     1      56.425  27.160  51.431  1.00  0.00     0.000 C 
ENDROOT
BRANCH   1   2
ATOM      2  C   UNL     1      57.456  28.298  51.428  1.00  0.00     0.000 C 
BRANCH   2   3
ATOM      3  C   UNL     1      57.329  29.213  50.199  1.00  0.00     0.000 C 
BRANCH   3   4
ATOM      4  C   UNL     1      58.672  29.418  49.475  1.00  0.00     0.000 C 
BRANCH   4   5
ATOM      5  C   UNL     1      59.296  28.093  48.996  1.00  0.00     0.006 C 
BRANCH   5   6
ATOM      6  C   UNL     1      60.688  27.800  49.578  1.00  0.00     0.053 C 
BRANCH   6   7
ATOM      7  C   UNL     1      60.874  26.347  49.888  1.00  0.00     0.041 C 
ATOM      8  O   UNL     1      59.874  25.613  50.107  1.00  0.00    -0.550 OA
ATOM      9  O   UNL     1      62.152  25.809  49.967  1.00  0.00    -0.550 OA
ENDBRANCH   6   7
ENDBRANCH   5   6
ENDBRANCH   4   5
ENDBRANCH   3   4
ENDBRANCH   2   3
ENDBRANCH   1   2
BRANCH   1  10
ATOM     10  C   UNL     1      55.873  26.919  50.019  1.00  0.00     0.000 C 
BRANCH  10  11
ATOM     11  C   UNL     1      54.337  26.892  50.026  1.00  0.00    -0.000 C 
BRANCH  11  12
ATOM     12  C   UNL     1      53.709  28.262  49.715  1.00  0.00    -0.000 C 
BRANCH  12  13
ATOM     13  C   UNL     1      53.085  28.985  50.924  1.00  0.00    -0.000 C 
BRANCH  13  14
ATOM     14  C   UNL     1      53.618  30.417  51.106  1.00  0.00    -0.000 C 
BRANCH  14  15
ATOM     15  C   UNL     1      54.574  30.541  52.301  1.00  0.00    -0.003 C 
ATOM     16  C   UNL     1      54.277  29.528  53.407  1.00  0.00     0.004 C 
ENDBRANCH  14  15
ENDBRANCH  13  14
ENDBRANCH  12  13
ENDBRANCH  11  12
ENDBRANCH  10  11
ENDBRANCH   1  10
TORSDOF 12
ENDMDL
MODEL 6
REMARK VINA RESULT:    -3.220      3.355      5.573
REMARK INTER + INTRA:          -6.966
REMARK INTER:                  -5.260
REMARK INTRA:                  -1.706
REMARK UNBOUND:                -1.487
REMARK SMILES CCCCCCCCCCCCCC(=O)[O-]
REMARK SMILES IDX 8 1 9 2 10 3 11 4 12 5 13 6 14 7 15 8 16 9 7 10 6 11 5 12
REMARK SMILES IDX 4 13 3 14 2 15 1 16
REMARK H PARENT
REMARK Flexibility Score: inf
ROOT
ATOM      1  C   UNL     1      61.385  30.637  61.848  1.00  0.00     0.000 C 
ENDROOT
BRANCH   1   2
ATOM      2  C   UNL     1      60.752  31.802  61.072  1.00  0.00     0.000 C 
BRANCH   2   3
ATOM      3  C   UNL     1      61.342  31.967  59.661  1.00  0.00     0.000 C 
BRANCH   3   4
ATOM      4  C   UNL     1      61.852  33.395  59.399  1.00  0.00     0.000 C 
BRANCH   4   5
ATOM      5  C   UNL     1      62.121  34.178  60.698  1.00  0.00     0.006 C 
BRANCH   5   6
ATOM      6  C   UNL     1      63.606  34.479  60.962  1.00  0.00     0.053 C 
BRANCH   6   7
ATOM      7  C   UNL     1      63.801  35.807  61.625  1.00  0.00     0.041 C 
ATOM      8  O   UNL     1      62.867  36.652  61.638  1.00  0.00    -0.550 OA
ATOM      9  O   UNL     1      65.024  36.125  62.200  1.00  0.00    -0.550 OA
ENDBRANCH   6   7
ENDBRANCH   5   6
ENDBRANCH   4   5
ENDBRANCH   3   4
ENDBRANCH   2   3
ENDBRANCH   1   2
BRANCH   1  10
ATOM     10  C   UNL     1      61.273  29.327  61.056  1.00  0.00     0.000 C 
BRANCH  10  11
ATOM     11  C   UNL     1      62.361  28.331  61.484  1.00  0.00    -0.000 C 
BRANCH  11  12
ATOM     12  C   UNL     1      63.153  27.757  60.295  1.00  0.00    -0.000 C 
BRANCH  12  13
ATOM     13  C   UNL     1      64.406  28.559  59.895  1.00  0.00    -0.000 C 
BRANCH  13  14
ATOM     14  C   UNL     1      64.884  29.515  61.002  1.00  0.00    -0.000 C 
BRANCH  14  15
ATOM     15  C   UNL     1      64.904  30.981  60.545  1.00  0.00    -0.003 C 
ATOM     16  C   UNL     1      64.950  31.129  59.024  1.00  0.00     0.004 C 
ENDBRANCH  14  15
ENDBRANCH  13  14
ENDBRANCH  12  13
ENDBRANCH  11  12
ENDBRANCH  10  11
ENDBRANCH   1  10
TORSDOF 12
ENDMDL
MODEL 7
REMARK VINA RESULT:    -3.187     11.880     14.095
REMARK INTER + INTRA:          -6.909
REMARK INTER:                  -5.290
REMARK INTRA:                  -1.619
REMARK UNBOUND:                -1.487
REMARK SMILES CCCCCCCCCCCCCC(=O)[O-]
REMARK SMILES IDX 8 1 9 2 10 3 11 4 12 5 13 6 14 7 15 8 16 9 7 10 6 11 5 12
REMARK SMILES IDX 4 13 3 14 2 15 1 16
REMARK H PARENT
REMARK Flexibility Score: inf
ROOT
ATOM      1  C   UNL     1      59.682  27.754  49.204  1.00  0.00     0.000 C 
ENDROOT
BRANCH   1   2
ATOM      2  C   UNL     1      59.073  29.165  49.198  1.00  0.00     0.000 C 
BRANCH   2   3
ATOM      3  C   UNL     1      57.745  29.242  49.967  1.00  0.00     0.000 C 
BRANCH   3   4
ATOM      4  C   UNL     1      57.227  27.856  50.391  1.00  0.00     0.000 C 
BRANCH   4   5
ATOM      5  C   UNL     1      55.718  27.681  50.134  1.00  0.00     0.006 C 
BRANCH   5   6
ATOM      6  C   UNL     1      55.304  26.258  49.727  1.00  0.00     0.053 C 
BRANCH   6   7
ATOM      7  C   UNL     1      53.830  26.147  49.489  1.00  0.00     0.041 C 
ATOM      8  O   UNL     1      53.282  25.014  49.430  1.00  0.00    -0.550 OA
ATOM      9  O   UNL     1      53.067  27.291  49.300  1.00  0.00    -0.550 OA
ENDBRANCH   6   7
ENDBRANCH   5   6
ENDBRANCH   4   5
ENDBRANCH   3   4
ENDBRANCH   2   3
ENDBRANCH   1   2
BRANCH   1  10
ATOM     10  C   UNL     1      61.061  27.756  49.876  1.00  0.00     0.000 C 
BRANCH  10  11
ATOM     11  C   UNL     1      61.024  28.523  51.206  1.00  0.00    -0.000 C 
BRANCH  11  12
ATOM     12  C   UNL     1      60.441  27.693  52.364  1.00  0.00    -0.000 C 
BRANCH  12  13
ATOM     13  C   UNL     1      60.687  26.176  52.270  1.00  0.00    -0.000 C 
BRANCH  13  14
ATOM     14  C   UNL     1      59.444  25.344  52.630  1.00  0.00    -0.000 C 
BRANCH  14  15
ATOM     15  C   UNL     1      58.785  24.707  51.398  1.00  0.00    -0.003 C 
ATOM     16  C   UNL     1      59.803  24.220  50.366  1.00  0.00     0.004 C 
ENDBRANCH  14  15
ENDBRANCH  13  14
ENDBRANCH  12  13
ENDBRANCH  11  12
ENDBRANCH  10  11
ENDBRANCH   1  10
TORSDOF 12
ENDMDL
MODEL 8
REMARK VINA RESULT:    -3.158      2.365      3.801
REMARK INTER + INTRA:          -6.860
REMARK INTER:                  -5.407
REMARK INTRA:                  -1.454
REMARK UNBOUND:                -1.487
REMARK SMILES CCCCCCCCCCCCCC(=O)[O-]
REMARK SMILES IDX 8 1 9 2 10 3 11 4 12 5 13 6 14 7 15 8 16 9 7 10 6 11 5 12
REMARK SMILES IDX 4 13 3 14 2 15 1 16
REMARK H PARENT
REMARK Flexibility Score: inf
ROOT
ATOM      1  C   UNL     1      60.549  34.091  57.493  1.00  0.00     0.000 C 
ENDROOT
BRANCH   1   2
ATOM      2  C   UNL     1      61.881  33.331  57.407  1.00  0.00     0.000 C 
BRANCH   2   3
ATOM      3  C   UNL     1      61.988  32.201  58.444  1.00  0.00     0.000 C 
BRANCH   3   4
ATOM      4  C   UNL     1      60.830  32.219  59.458  1.00  0.00     0.000 C 
BRANCH   4   5
ATOM      5  C   UNL     1      61.317  32.355  60.913  1.00  0.00     0.006 C 
BRANCH   5   6
ATOM      6  C   UNL     1      61.027  31.131  61.797  1.00  0.00     0.053 C 
BRANCH   6   7
ATOM      7  C   UNL     1      62.158  30.149  61.787  1.00  0.00     0.041 C 
ATOM      8  O   UNL     1      63.350  30.556  61.793  1.00  0.00    -0.550 OA
ATOM      9  O   UNL     1      61.897  28.786  61.739  1.00  0.00    -0.550 OA
ENDBRANCH   6   7
ENDBRANCH   5   6
ENDBRANCH   4   5
ENDBRANCH   3   4
ENDBRANCH   2   3
ENDBRANCH   1   2
BRANCH   1  10
ATOM     10  C   UNL     1      60.787  35.589  57.719  1.00  0.00     0.000 C 
BRANCH  10  11
ATOM     11  C   UNL     1      59.889  36.127  58.844  1.00  0.00    -0.000 C 
BRANCH  11  12
ATOM     12  C   UNL     1      60.472  35.885  60.248  1.00  0.00    -0.000 C 
BRANCH  12  13
ATOM     13  C   UNL     1      61.086  37.125  60.923  1.00  0.00    -0.000 C 
BRANCH  13  14
ATOM     14  C   UNL     1      62.601  36.990  61.160  1.00  0.00    -0.000 C 
BRANCH  14  15
ATOM     15  C   UNL     1      63.097  35.547  60.986  1.00  0.00    -0.003 C 
ATOM     16  C   UNL     1      64.359  35.251  61.796  1.00  0.00     0.004 C 
ENDBRANCH  14  15
ENDBRANCH  13  14
ENDBRANCH  12  13
ENDBRANCH  11  12
ENDBRANCH  10  11
ENDBRANCH   1  10
TORSDOF 12
ENDMDL
MODEL 9
REMARK VINA RESULT:    -3.132     11.688     13.465
REMARK INTER + INTRA:          -6.817
REMARK INTER:                  -5.076
REMARK INTRA:                  -1.740
REMARK UNBOUND:                -1.487
REMARK SMILES CCCCCCCCCCCCCC(=O)[O-]
REMARK SMILES IDX 8 1 9 2 10 3 11 4 12 5 13 6 14 7 15 8 16 9 7 10 6 11 5 12
REMARK SMILES IDX 4 13 3 14 2 15 1 16
REMARK H PARENT
REMARK Flexibility Score: inf
ROOT
ATOM      1  C   UNL     1      59.502  28.093  49.140  1.00  0.00     0.000 C 
ENDROOT
BRANCH   1   2
ATOM      2  C   UNL     1      58.815  26.742  49.388  1.00  0.00     0.000 C 
BRANCH   2   3
ATOM      3  C   UNL     1      59.734  25.728  50.090  1.00  0.00     0.000 C 
BRANCH   3   4
ATOM      4  C   UNL     1      59.018  24.968  51.221  1.00  0.00     0.000 C 
BRANCH   4   5
ATOM      5  C   UNL     1      57.628  25.550  51.540  1.00  0.00     0.006 C 
BRANCH   5   6
ATOM      6  C   UNL     1      57.452  26.011  52.996  1.00  0.00     0.053 C 
BRANCH   6   7
ATOM      7  C   UNL     1      56.035  25.878  53.461  1.00  0.00     0.041 C 
ATOM      8  O   UNL     1      55.706  26.277  54.610  1.00  0.00    -0.550 OA
ATOM      9  O   UNL     1      55.085  25.286  52.640  1.00  0.00    -0.550 OA
ENDBRANCH   6   7
ENDBRANCH   5   6
ENDBRANCH   4   5
ENDBRANCH   3   4
ENDBRANCH   2   3
ENDBRANCH   1   2
BRANCH   1  10
ATOM     10  C   UNL     1      58.551  29.256  49.453  1.00  0.00     0.000 C 
BRANCH  10  11
ATOM     11  C   UNL     1      58.347  29.408  50.968  1.00  0.00    -0.000 C 
BRANCH  11  12
ATOM     12  C   UNL     1      56.883  29.214  51.402  1.00  0.00    -0.000 C 
BRANCH  12  13
ATOM     13  C   UNL     1      55.913  28.819  50.272  1.00  0.00    -0.000 C 
BRANCH  13  14
ATOM     14  C   UNL     1      54.509  28.456  50.787  1.00  0.00    -0.000 C 
BRANCH  14  15
ATOM     15  C   UNL     1      53.811  27.413  49.903  1.00  0.00    -0.003 C 
ATOM     16  C   UNL     1      54.748  26.291  49.453  1.00  0.00     0.004 C 
ENDBRANCH  14  15
ENDBRANCH  13  14
ENDBRANCH  12  13
ENDBRANCH  11  12
ENDBRANCH  10  11
ENDBRANCH   1  10
TORSDOF 12
ENDMDL
