MODEL 1
REMARK VINA RESULT:    -5.125      0.000      0.000
REMARK INTER + INTRA:         -10.054
REMARK INTER:                  -9.020
REMARK INTRA:                  -1.035
REMARK UNBOUND:                -1.035
REMARK SMILES CCCCCCC=CCCCCCCCC(=O)[O-]
REMARK SMILES IDX 10 1 11 2 12 3 13 4 14 5 15 6 16 7 17 8 18 9 9 10 8 11 7 12
REMARK SMILES IDX 6 13 5 14 4 15 3 16 2 17 1 18
REMARK H PARENT
REMARK Flexibility Score: inf
ROOT
ATOM      1  C   UNL     1       0.610  -7.238  -2.989  1.00  0.00     0.004 C 
ENDROOT
BRANCH   1   2
ATOM      2  C   UNL     1       1.404  -8.361  -2.294  1.00  0.00     0.000 C 
BRANCH   2   3
ATOM      3  C   UNL     1       2.776  -8.676  -2.925  1.00  0.00     0.000 C 
BRANCH   3   4
ATOM      4  C   UNL     1       3.683  -7.453  -3.151  1.00  0.00     0.000 C 
BRANCH   4   5
ATOM      5  C   UNL     1       5.135  -7.697  -2.712  1.00  0.00     0.006 C 
BRANCH   5   6
ATOM      6  C   UNL     1       5.185  -8.467  -1.389  1.00  0.00     0.053 C 
BRANCH   6   7
ATOM      7  C   UNL     1       5.124  -7.522  -0.230  1.00  0.00     0.041 C 
ATOM      8  O   UNL     1       4.276  -7.695   0.683  1.00  0.00    -0.550 OA
ATOM      9  O   UNL     1       5.972  -6.422  -0.186  1.00  0.00    -0.550 OA
ENDBRANCH   6   7
ENDBRANCH   5   6
ENDBRANCH   4   5
ENDBRANCH   3   4
ENDBRANCH   2   3
ENDBRANCH   1   2
BRANCH   1  10
ATOM     10  C   UNL     1      -0.893  -7.221  -2.660  1.00  0.00     0.027 C 
BRANCH  10  11
ATOM     11  C   UNL     1      -1.677  -8.300  -3.373  1.00  0.00    -0.031 C 
ATOM     12  C   UNL     1      -2.979  -8.228  -3.706  1.00  0.00    -0.031 C 
BRANCH  12  13
ATOM     13  C   UNL     1      -3.899  -7.075  -3.385  1.00  0.00     0.027 C 
BRANCH  13  14
ATOM     14  C   UNL     1      -3.749  -5.938  -4.411  1.00  0.00     0.004 C 
BRANCH  14  15
ATOM     15  C   UNL     1      -4.726  -6.056  -5.603  1.00  0.00     0.000 C 
BRANCH  15  16
ATOM     16  C   UNL     1      -4.091  -6.676  -6.861  1.00  0.00    -0.000 C 
BRANCH  16  17
ATOM     17  C   UNL     1      -4.894  -7.833  -7.477  1.00  0.00    -0.003 C 
ATOM     18  C   UNL     1      -5.505  -8.757  -6.423  1.00  0.00     0.004 C 
ENDBRANCH  16  17
ENDBRANCH  15  16
ENDBRANCH  14  15
ENDBRANCH  13  14
ENDBRANCH  12  13
ENDBRANCH  10  11
ENDBRANCH   1  10
TORSDOF 13
ENDMDL
MODEL 2
REMARK VINA RESULT:    -4.932      1.063      1.688
REMARK INTER + INTRA:          -9.715
REMARK INTER:                  -8.920
REMARK INTRA:                  -0.795
REMARK UNBOUND:                -1.035
REMARK SMILES CCCCCCC=CCCCCCCCC(=O)[O-]
REMARK SMILES IDX 10 1 11 2 12 3 13 4 14 5 15 6 16 7 17 8 18 9 9 10 8 11 7 12
REMARK SMILES IDX 6 13 5 14 4 15 3 16 2 17 1 18
REMARK H PARENT
REMARK Flexibility Score: inf
ROOT
ATOM      1  C   UNL     1      -0.386  -7.205  -2.604  1.00  0.00     0.004 C 
ENDROOT
BRANCH   1   2
ATOM      2  C   UNL     1       0.971  -7.812  -3.012  1.00  0.00     0.000 C 
BRANCH   2   3
ATOM      3  C   UNL     1       2.193  -7.231  -2.272  1.00  0.00     0.000 C 
BRANCH   3   4
ATOM      4  C   UNL     1       3.423  -6.965  -3.158  1.00  0.00     0.000 C 
BRANCH   4   5
ATOM      5  C   UNL     1       4.719  -7.540  -2.569  1.00  0.00     0.006 C 
BRANCH   5   6
ATOM      6  C   UNL     1       4.432  -8.357  -1.306  1.00  0.00     0.053 C 
BRANCH   6   7
ATOM      7  C   UNL     1       5.172  -7.790  -0.135  1.00  0.00     0.041 C 
ATOM      8  O   UNL     1       5.263  -8.447   0.934  1.00  0.00    -0.550 OA
ATOM      9  O   UNL     1       5.718  -6.515  -0.210  1.00  0.00    -0.550 OA
ENDBRANCH   6   7
ENDBRANCH   5   6
ENDBRANCH   4   5
ENDBRANCH   3   4
ENDBRANCH   2   3
ENDBRANCH   1   2
BRANCH   1  10
ATOM     10  C   UNL     1      -1.600  -7.808  -3.333  1.00  0.00     0.027 C 
BRANCH  10  11
ATOM     11  C   UNL     1      -2.798  -6.887  -3.370  1.00  0.00    -0.031 C 
ATOM     12  C   UNL     1      -4.075  -7.273  -3.543  1.00  0.00    -0.031 C 
BRANCH  12  13
ATOM     13  C   UNL     1      -4.534  -8.693  -3.774  1.00  0.00     0.027 C 
BRANCH  13  14
ATOM     14  C   UNL     1      -6.020  -8.743  -4.169  1.00  0.00     0.004 C 
BRANCH  14  15
ATOM     15  C   UNL     1      -6.321  -8.035  -5.509  1.00  0.00     0.000 C 
BRANCH  15  16
ATOM     16  C   UNL     1      -5.330  -8.393  -6.633  1.00  0.00    -0.000 C 
BRANCH  16  17
ATOM     17  C   UNL     1      -4.504  -7.207  -7.159  1.00  0.00    -0.003 C 
ATOM     18  C   UNL     1      -5.365  -5.989  -7.491  1.00  0.00     0.004 C 
ENDBRANCH  16  17
ENDBRANCH  15  16
ENDBRANCH  14  15
ENDBRANCH  13  14
ENDBRANCH  12  13
ENDBRANCH  10  11
ENDBRANCH   1  10
TORSDOF 13
ENDMDL
MODEL 3
REMARK VINA RESULT:    -4.853      1.167      2.393
REMARK INTER + INTRA:          -9.576
REMARK INTER:                  -8.574
REMARK INTRA:                  -1.003
REMARK UNBOUND:                -1.035
REMARK SMILES CCCCCCC=CCCCCCCCC(=O)[O-]
REMARK SMILES IDX 10 1 11 2 12 3 13 4 14 5 15 6 16 7 17 8 18 9 9 10 8 11 7 12
REMARK SMILES IDX 6 13 5 14 4 15 3 16 2 17 1 18
REMARK H PARENT
REMARK Flexibility Score: inf
ROOT
ATOM      1  C   UNL     1      -1.457  -6.837  -3.009  1.00  0.00     0.004 C 
ENDROOT
BRANCH   1   2
ATOM      2  C   UNL     1      -0.446  -8.000  -2.983  1.00  0.00     0.000 C 
BRANCH   2   3
ATOM      3  C   UNL     1       1.030  -7.578  -2.847  1.00  0.00     0.000 C 
BRANCH   3   4
ATOM      4  C   UNL     1       1.931  -8.587  -2.113  1.00  0.00     0.000 C 
BRANCH   4   5
ATOM      5  C   UNL     1       3.385  -8.558  -2.605  1.00  0.00     0.006 C 
BRANCH   5   6
ATOM      6  C   UNL     1       4.360  -8.784  -1.446  1.00  0.00     0.053 C 
BRANCH   6   7
ATOM      7  C   UNL     1       4.774  -7.477  -0.847  1.00  0.00     0.041 C 
ATOM      8  O   UNL     1       5.280  -7.441   0.305  1.00  0.00    -0.550 OA
ATOM      9  O   UNL     1       4.556  -6.294  -1.542  1.00  0.00    -0.550 OA
ENDBRANCH   6   7
ENDBRANCH   5   6
ENDBRANCH   4   5
ENDBRANCH   3   4
ENDBRANCH   2   3
ENDBRANCH   1   2
BRANCH   1  10
ATOM     10  C   UNL     1      -2.829  -7.197  -3.607  1.00  0.00     0.027 C 
BRANCH  10  11
ATOM     11  C   UNL     1      -3.659  -5.988  -3.976  1.00  0.00    -0.031 C 
ATOM     12  C   UNL     1      -4.195  -5.750  -5.188  1.00  0.00    -0.031 C 
BRANCH  12  13
ATOM     13  C   UNL     1      -4.026  -6.627  -6.405  1.00  0.00     0.027 C 
BRANCH  13  14
ATOM     14  C   UNL     1      -5.044  -6.266  -7.500  1.00  0.00     0.004 C 
BRANCH  14  15
ATOM     15  C   UNL     1      -6.242  -7.241  -7.567  1.00  0.00     0.000 C 
BRANCH  15  16
ATOM     16  C   UNL     1      -6.076  -8.483  -6.671  1.00  0.00    -0.000 C 
BRANCH  16  17
ATOM     17  C   UNL     1      -7.073  -8.565  -5.504  1.00  0.00    -0.003 C 
ATOM     18  C   UNL     1      -6.384  -8.663  -4.143  1.00  0.00     0.004 C 
ENDBRANCH  16  17
ENDBRANCH  15  16
ENDBRANCH  14  15
ENDBRANCH  13  14
ENDBRANCH  12  13
ENDBRANCH  10  11
ENDBRANCH   1  10
TORSDOF 13
ENDMDL
MODEL 4
REMARK VINA RESULT:    -4.761      1.271      2.272
REMARK INTER + INTRA:          -9.414
REMARK INTER:                  -8.557
REMARK INTRA:                  -0.857
REMARK UNBOUND:                -1.035
REMARK SMILES CCCCCCC=CCCCCCCCC(=O)[O-]
REMARK SMILES IDX 10 1 11 2 12 3 13 4 14 5 15 6 16 7 17 8 18 9 9 10 8 11 7 12
REMARK SMILES IDX 6 13 5 14 4 15 3 16 2 17 1 18
REMARK H PARENT
REMARK Flexibility Score: inf
ROOT
ATOM      1  C   UNL     1      -1.758  -7.949  -3.372  1.00  0.00     0.004 C 
ENDROOT
BRANCH   1   2
ATOM      2  C   UNL     1      -0.519  -7.224  -2.811  1.00  0.00     0.000 C 
BRANCH   2   3
ATOM      3  C   UNL     1       0.718  -8.118  -2.596  1.00  0.00     0.000 C 
BRANCH   3   4
ATOM      4  C   UNL     1       2.067  -7.448  -2.910  1.00  0.00     0.000 C 
BRANCH   4   5
ATOM      5  C   UNL     1       3.118  -7.679  -1.813  1.00  0.00     0.006 C 
BRANCH   5   6
ATOM      6  C   UNL     1       4.325  -6.757  -2.009  1.00  0.00     0.053 C 
BRANCH   6   7
ATOM      7  C   UNL     1       5.484  -7.230  -1.190  1.00  0.00     0.041 C 
ATOM      8  O   UNL     1       6.467  -7.785  -1.746  1.00  0.00    -0.550 OA
ATOM      9  O   UNL     1       5.455  -7.103   0.193  1.00  0.00    -0.550 OA
ENDBRANCH   6   7
ENDBRANCH   5   6
ENDBRANCH   4   5
ENDBRANCH   3   4
ENDBRANCH   2   3
ENDBRANCH   1   2
BRANCH   1  10
ATOM     10  C   UNL     1      -2.987  -7.045  -3.580  1.00  0.00     0.027 C 
BRANCH  10  11
ATOM     11  C   UNL     1      -4.278  -7.664  -3.096  1.00  0.00    -0.031 C 
ATOM     12  C   UNL     1      -5.160  -8.330  -3.864  1.00  0.00    -0.031 C 
BRANCH  12  13
ATOM     13  C   UNL     1      -5.038  -8.538  -5.354  1.00  0.00     0.027 C 
BRANCH  13  14
ATOM     14  C   UNL     1      -6.084  -7.711  -6.122  1.00  0.00     0.004 C 
BRANCH  14  15
ATOM     15  C   UNL     1      -5.513  -6.405  -6.721  1.00  0.00     0.000 C 
BRANCH  15  16
ATOM     16  C   UNL     1      -3.991  -6.446  -6.950  1.00  0.00    -0.000 C 
BRANCH  16  17
ATOM     17  C   UNL     1      -3.570  -6.564  -8.424  1.00  0.00    -0.003 C 
ATOM     18  C   UNL     1      -4.111  -7.827  -9.094  1.00  0.00     0.004 C 
ENDBRANCH  16  17
ENDBRANCH  15  16
ENDBRANCH  14  15
ENDBRANCH  13  14
ENDBRANCH  12  13
ENDBRANCH  10  11
ENDBRANCH   1  10
TORSDOF 13
ENDMDL
MODEL 5
REMARK VINA RESULT:    -4.745      3.936      9.925
REMARK INTER + INTRA:          -9.385
REMARK INTER:                  -8.708
REMARK INTRA:                  -0.677
REMARK UNBOUND:                -1.035
REMARK SMILES CCCCCCC=CCCCCCCCC(=O)[O-]
REMARK SMILES IDX 10 1 11 2 12 3 13 4 14 5 15 6 16 7 17 8 18 9 9 10 8 11 7 12
REMARK SMILES IDX 6 13 5 14 4 15 3 16 2 17 1 18
REMARK H PARENT
REMARK Flexibility Score: inf
ROOT
ATOM      1  C   UNL     1       1.210  -7.159  -2.660  1.00  0.00     0.004 C 
ENDROOT
BRANCH   1   2
ATOM      2  C   UNL     1      -0.018  -8.055  -2.911  1.00  0.00     0.000 C 
BRANCH   2   3
ATOM      3  C   UNL     1      -1.372  -7.318  -2.923  1.00  0.00     0.000 C 
BRANCH   3   4
ATOM      4  C   UNL     1      -2.524  -8.083  -3.598  1.00  0.00     0.000 C 
BRANCH   4   5
ATOM      5  C   UNL     1      -3.905  -7.680  -3.061  1.00  0.00     0.006 C 
BRANCH   5   6
ATOM      6  C   UNL     1      -4.791  -7.132  -4.183  1.00  0.00     0.053 C 
BRANCH   6   7
ATOM      7  C   UNL     1      -4.120  -5.983  -4.866  1.00  0.00     0.041 C 
ATOM      8  O   UNL     1      -3.905  -4.912  -4.240  1.00  0.00    -0.550 OA
ATOM      9  O   UNL     1      -3.777  -6.078  -6.209  1.00  0.00    -0.550 OA
ENDBRANCH   6   7
ENDBRANCH   5   6
ENDBRANCH   4   5
ENDBRANCH   3   4
ENDBRANCH   2   3
ENDBRANCH   1   2
BRANCH   1  10
ATOM     10  C   UNL     1       2.552  -7.780  -3.089  1.00  0.00     0.027 C 
BRANCH  10  11
ATOM     11  C   UNL     1       3.747  -6.915  -2.759  1.00  0.00    -0.031 C 
ATOM     12  C   UNL     1       4.637  -7.154  -1.778  1.00  0.00    -0.031 C 
BRANCH  12  13
ATOM     13  C   UNL     1       4.573  -8.306  -0.805  1.00  0.00     0.027 C 
BRANCH  13  14
ATOM     14  C   UNL     1       5.946  -8.985  -0.651  1.00  0.00     0.004 C 
BRANCH  14  15
ATOM     15  C   UNL     1       7.058  -8.313  -1.487  1.00  0.00     0.000 C 
BRANCH  15  16
ATOM     16  C   UNL     1       8.302  -7.930  -0.664  1.00  0.00    -0.000 C 
BRANCH  16  17
ATOM     17  C   UNL     1       8.800  -6.493  -0.890  1.00  0.00    -0.003 C 
ATOM     18  C   UNL     1      10.125  -6.208  -0.183  1.00  0.00     0.004 C 
ENDBRANCH  16  17
ENDBRANCH  15  16
ENDBRANCH  14  15
ENDBRANCH  13  14
ENDBRANCH  12  13
ENDBRANCH  10  11
ENDBRANCH   1  10
TORSDOF 13
ENDMDL
MODEL 6
REMARK VINA RESULT:    -4.573      1.785      3.616
REMARK INTER + INTRA:          -9.083
REMARK INTER:                  -8.077
REMARK INTRA:                  -1.007
REMARK UNBOUND:                -1.035
REMARK SMILES CCCCCCC=CCCCCCCCC(=O)[O-]
REMARK SMILES IDX 10 1 11 2 12 3 13 4 14 5 15 6 16 7 17 8 18 9 9 10 8 11 7 12
REMARK SMILES IDX 6 13 5 14 4 15 3 16 2 17 1 18
REMARK H PARENT
REMARK Flexibility Score: inf
ROOT
ATOM      1  C   UNL     1      -3.469  -7.155  -3.295  1.00  0.00     0.004 C 
ENDROOT
BRANCH   1   2
ATOM      2  C   UNL     1      -2.153  -7.957  -3.289  1.00  0.00     0.000 C 
BRANCH   2   3
ATOM      3  C   UNL     1      -0.912  -7.170  -2.821  1.00  0.00     0.000 C 
BRANCH   3   4
ATOM      4  C   UNL     1       0.420  -7.933  -2.927  1.00  0.00     0.000 C 
BRANCH   4   5
ATOM      5  C   UNL     1       1.638  -7.058  -2.595  1.00  0.00     0.006 C 
BRANCH   5   6
ATOM      6  C   UNL     1       2.897  -7.587  -3.288  1.00  0.00     0.053 C 
BRANCH   6   7
ATOM      7  C   UNL     1       4.091  -7.422  -2.401  1.00  0.00     0.041 C 
ATOM      8  O   UNL     1       4.248  -6.361  -1.742  1.00  0.00    -0.550 OA
ATOM      9  O   UNL     1       5.055  -8.420  -2.342  1.00  0.00    -0.550 OA
ENDBRANCH   6   7
ENDBRANCH   5   6
ENDBRANCH   4   5
ENDBRANCH   3   4
ENDBRANCH   2   3
ENDBRANCH   1   2
BRANCH   1  10
ATOM     10  C   UNL     1      -3.684  -6.290  -4.550  1.00  0.00     0.027 C 
BRANCH  10  11
ATOM     11  C   UNL     1      -5.132  -6.191  -4.971  1.00  0.00    -0.031 C 
ATOM     12  C   UNL     1      -5.778  -7.071  -5.758  1.00  0.00    -0.031 C 
BRANCH  12  13
ATOM     13  C   UNL     1      -5.157  -8.290  -6.396  1.00  0.00     0.027 C 
BRANCH  13  14
ATOM     14  C   UNL     1      -4.899  -8.066  -7.896  1.00  0.00     0.004 C 
BRANCH  14  15
ATOM     15  C   UNL     1      -6.113  -7.468  -8.643  1.00  0.00     0.000 C 
BRANCH  15  16
ATOM     16  C   UNL     1      -5.733  -6.378  -9.663  1.00  0.00    -0.000 C 
BRANCH  16  17
ATOM     17  C   UNL     1      -5.688  -4.954  -9.087  1.00  0.00    -0.003 C 
ATOM     18  C   UNL     1      -6.939  -4.601  -8.283  1.00  0.00     0.004 C 
ENDBRANCH  16  17
ENDBRANCH  15  16
ENDBRANCH  14  15
ENDBRANCH  13  14
ENDBRANCH  12  13
ENDBRANCH  10  11
ENDBRANCH   1  10
TORSDOF 13
ENDMDL
MODEL 7
REMARK VINA RESULT:    -4.486      4.547      9.965
REMARK INTER + INTRA:          -8.929
REMARK INTER:                  -8.411
REMARK INTRA:                  -0.518
REMARK UNBOUND:                -1.035
REMARK SMILES CCCCCCC=CCCCCCCCC(=O)[O-]
REMARK SMILES IDX 10 1 11 2 12 3 13 4 14 5 15 6 16 7 17 8 18 9 9 10 8 11 7 12
REMARK SMILES IDX 6 13 5 14 4 15 3 16 2 17 1 18
REMARK H PARENT
REMARK Flexibility Score: inf
ROOT
ATOM      1  C   UNL     1      -0.834  -7.172  -2.765  1.00  0.00     0.004 C 
ENDROOT
BRANCH   1   2
ATOM      2  C   UNL     1      -2.002  -8.001  -3.334  1.00  0.00     0.000 C 
BRANCH   2   3
ATOM      3  C   UNL     1      -3.389  -7.337  -3.218  1.00  0.00     0.000 C 
BRANCH   3   4
ATOM      4  C   UNL     1      -4.275  -7.461  -4.470  1.00  0.00     0.000 C 
BRANCH   4   5
ATOM      5  C   UNL     1      -4.240  -6.204  -5.353  1.00  0.00     0.006 C 
BRANCH   5   6
ATOM      6  C   UNL     1      -5.399  -6.206  -6.354  1.00  0.00     0.053 C 
BRANCH   6   7
ATOM      7  C   UNL     1      -4.880  -6.191  -7.757  1.00  0.00     0.041 C 
ATOM      8  O   UNL     1      -5.680  -6.218  -8.728  1.00  0.00    -0.550 OA
ATOM      9  O   UNL     1      -3.510  -6.199  -7.990  1.00  0.00    -0.550 OA
ENDBRANCH   6   7
ENDBRANCH   5   6
ENDBRANCH   4   5
ENDBRANCH   3   4
ENDBRANCH   2   3
ENDBRANCH   1   2
BRANCH   1  10
ATOM     10  C   UNL     1       0.479  -7.956  -2.588  1.00  0.00     0.027 C 
BRANCH  10  11
ATOM     11  C   UNL     1       1.714  -7.131  -2.866  1.00  0.00    -0.031 C 
ATOM     12  C   UNL     1       2.873  -7.206  -2.185  1.00  0.00    -0.031 C 
BRANCH  12  13
ATOM     13  C   UNL     1       3.129  -8.097  -0.994  1.00  0.00     0.027 C 
BRANCH  13  14
ATOM     14  C   UNL     1       4.635  -8.328  -0.781  1.00  0.00     0.004 C 
BRANCH  14  15
ATOM     15  C   UNL     1       5.520  -7.561  -1.790  1.00  0.00     0.000 C 
BRANCH  15  16
ATOM     16  C   UNL     1       7.028  -7.673  -1.496  1.00  0.00    -0.000 C 
BRANCH  16  17
ATOM     17  C   UNL     1       7.640  -6.437  -0.817  1.00  0.00    -0.003 C 
ATOM     18  C   UNL     1       9.167  -6.488  -0.760  1.00  0.00     0.004 C 
ENDBRANCH  16  17
ENDBRANCH  15  16
ENDBRANCH  14  15
ENDBRANCH  13  14
ENDBRANCH  12  13
ENDBRANCH  10  11
ENDBRANCH   1  10
TORSDOF 13
ENDMDL
MODEL 8
REMARK VINA RESULT:    -4.421     11.597     13.303
REMARK INTER + INTRA:          -8.815
REMARK INTER:                  -8.039
REMARK INTRA:                  -0.776
REMARK UNBOUND:                -1.035
REMARK SMILES CCCCCCC=CCCCCCCCC(=O)[O-]
REMARK SMILES IDX 10 1 11 2 12 3 13 4 14 5 15 6 16 7 17 8 18 9 9 10 8 11 7 12
REMARK SMILES IDX 6 13 5 14 4 15 3 16 2 17 1 18
REMARK H PARENT
REMARK Flexibility Score: inf
ROOT
ATOM      1  C   UNL     1       8.213   1.521  -3.202  1.00  0.00     0.004 C 
ENDROOT
BRANCH   1   2
ATOM      2  C   UNL     1       8.685   2.609  -2.218  1.00  0.00     0.000 C 
BRANCH   2   3
ATOM      3  C   UNL     1       8.167   4.029  -2.519  1.00  0.00     0.000 C 
BRANCH   3   4
ATOM      4  C   UNL     1       8.690   5.126  -1.575  1.00  0.00     0.000 C 
BRANCH   4   5
ATOM      5  C   UNL     1       9.242   4.566  -0.256  1.00  0.00     0.006 C 
BRANCH   5   6
ATOM      6  C   UNL     1       8.611   5.274   0.947  1.00  0.00     0.053 C 
BRANCH   6   7
ATOM      7  C   UNL     1       7.420   4.513   1.437  1.00  0.00     0.041 C 
ATOM      8  O   UNL     1       7.241   3.319   1.081  1.00  0.00    -0.550 OA
ATOM      9  O   UNL     1       6.481   5.140   2.247  1.00  0.00    -0.550 OA
ENDBRANCH   6   7
ENDBRANCH   5   6
ENDBRANCH   4   5
ENDBRANCH   3   4
ENDBRANCH   2   3
ENDBRANCH   1   2
BRANCH   1  10
ATOM     10  C   UNL     1       7.594   2.062  -4.503  1.00  0.00     0.027 C 
BRANCH  10  11
ATOM     11  C   UNL     1       7.063   0.977  -5.412  1.00  0.00    -0.031 C 
ATOM     12  C   UNL     1       7.126   0.986  -6.757  1.00  0.00    -0.031 C 
BRANCH  12  13
ATOM     13  C   UNL     1       7.699   2.102  -7.597  1.00  0.00     0.027 C 
BRANCH  13  14
ATOM     14  C   UNL     1       6.807   2.402  -8.814  1.00  0.00     0.004 C 
BRANCH  14  15
ATOM     15  C   UNL     1       5.320   2.045  -8.585  1.00  0.00     0.000 C 
BRANCH  15  16
ATOM     16  C   UNL     1       4.361   2.747  -9.564  1.00  0.00    -0.000 C 
BRANCH  16  17
ATOM     17  C   UNL     1       3.123   3.376  -8.904  1.00  0.00    -0.003 C 
ATOM     18  C   UNL     1       1.822   3.012  -9.618  1.00  0.00     0.004 C 
ENDBRANCH  16  17
ENDBRANCH  15  16
ENDBRANCH  14  15
ENDBRANCH  13  14
ENDBRANCH  12  13
ENDBRANCH  10  11
ENDBRANCH   1  10
TORSDOF 13
ENDMDL
MODEL 9
REMARK VINA RESULT:    -4.386     11.883     14.720
REMARK INTER + INTRA:          -8.754
REMARK INTER:                  -7.038
REMARK INTRA:                  -1.716
REMARK UNBOUND:                -1.035
REMARK SMILES CCCCCCC=CCCCCCCCC(=O)[O-]
REMARK SMILES IDX 10 1 11 2 12 3 13 4 14 5 15 6 16 7 17 8 18 9 9 10 8 11 7 12
REMARK SMILES IDX 6 13 5 14 4 15 3 16 2 17 1 18
REMARK H PARENT
REMARK Flexibility Score: inf
ROOT
ATOM      1  C   UNL     1       9.234   3.558  -2.505  1.00  0.00     0.004 C 
ENDROOT
BRANCH   1   2
ATOM      2  C   UNL     1       8.001   4.481  -2.568  1.00  0.00     0.000 C 
BRANCH   2   3
ATOM      3  C   UNL     1       8.163   5.835  -1.849  1.00  0.00     0.000 C 
BRANCH   3   4
ATOM      4  C   UNL     1       9.406   5.948  -0.948  1.00  0.00     0.000 C 
BRANCH   4   5
ATOM      5  C   UNL     1       9.056   6.050   0.544  1.00  0.00     0.006 C 
BRANCH   5   6
ATOM      6  C   UNL     1       9.043   4.665   1.199  1.00  0.00     0.053 C 
BRANCH   6   7
ATOM      7  C   UNL     1       7.640   4.161   1.330  1.00  0.00     0.041 C 
ATOM      8  O   UNL     1       7.286   3.113   0.730  1.00  0.00    -0.550 OA
ATOM      9  O   UNL     1       6.712   4.876   2.077  1.00  0.00    -0.550 OA
ENDBRANCH   6   7
ENDBRANCH   5   6
ENDBRANCH   4   5
ENDBRANCH   3   4
ENDBRANCH   2   3
ENDBRANCH   1   2
BRANCH   1  10
ATOM     10  C   UNL     1      10.018   3.451  -3.825  1.00  0.00     0.027 C 
BRANCH  10  11
ATOM     11  C   UNL     1       9.491   4.359  -4.913  1.00  0.00    -0.031 C 
ATOM     12  C   UNL     1       9.354   4.025  -6.210  1.00  0.00    -0.031 C 
BRANCH  12  13
ATOM     13  C   UNL     1       9.745   2.699  -6.816  1.00  0.00     0.027 C 
BRANCH  13  14
ATOM     14  C   UNL     1       8.589   2.094  -7.632  1.00  0.00     0.004 C 
BRANCH  14  15
ATOM     15  C   UNL     1       7.273   1.973  -6.831  1.00  0.00     0.000 C 
BRANCH  15  16
ATOM     16  C   UNL     1       6.876   0.519  -6.513  1.00  0.00    -0.000 C 
BRANCH  16  17
ATOM     17  C   UNL     1       7.842  -0.213  -5.567  1.00  0.00    -0.003 C 
ATOM     18  C   UNL     1       7.988   0.483  -4.214  1.00  0.00     0.004 C 
ENDBRANCH  16  17
ENDBRANCH  15  16
ENDBRANCH  14  15
ENDBRANCH  13  14
ENDBRANCH  12  13
ENDBRANCH  10  11
ENDBRANCH   1  10
TORSDOF 13
ENDMDL
