MODEL 1
REMARK VINA RESULT:    -6.325      0.000      0.000
REMARK INTER + INTRA:          -7.762
REMARK INTER:                  -7.619
REMARK INTRA:                  -0.143
REMARK UNBOUND:                -0.143
REMARK SMILES O=c1c(O)c(-c2ccc(O)c(O)c2)oc2cc(O)cc(O)c12
REMARK SMILES IDX 5 1 3 2 2 3 1 4 22 5 20 6 19 7 17 8 16 9 15 10 14 11 6 12
REMARK SMILES IDX 7 13 8 14 9 15 13 16 11 17 10 18 12 20 4 22 21 24 18 26
REMARK H PARENT 10 19 12 21 4 23 21 25 18 27
REMARK Flexibility Score: inf
ROOT
ATOM      1  C   UNL     1      19.418  18.103   5.756  1.00  0.00     0.180 A 
ATOM      2  C   UNL     1      20.080  19.120   6.466  1.00  0.00     0.208 A 
ATOM      3  C   UNL     1      19.503  20.398   6.520  1.00  0.00     0.238 A 
ATOM      4  O   UNL     1      20.138  21.322   7.093  1.00  0.00    -0.285 OA
ATOM      5  C   UNL     1      18.246  20.632   5.911  1.00  0.00     0.111 A 
ATOM      6  C   UNL     1      17.548  21.878   5.942  1.00  0.00     0.134 A 
ATOM      7  C   UNL     1      16.360  22.020   5.214  1.00  0.00     0.093 A 
ATOM      8  C   UNL     1      15.812  20.949   4.510  1.00  0.00     0.123 A 
ATOM      9  C   UNL     1      16.458  19.712   4.520  1.00  0.00     0.094 A 
ATOM     10  C   UNL     1      17.664  19.547   5.204  1.00  0.00     0.146 A 
ATOM     11  O   UNL     1      18.256  18.360   5.169  1.00  0.00    -0.452 OA
ENDROOT
BRANCH   1  12
ATOM     12  C   UNL     1      19.969  16.734   5.642  1.00  0.00     0.025 A 
ATOM     13  C   UNL     1      21.195  16.535   4.988  1.00  0.00     0.016 A 
ATOM     14  C   UNL     1      21.745  15.256   4.886  1.00  0.00     0.051 A 
ATOM     15  C   UNL     1      21.086  14.157   5.453  1.00  0.00     0.157 A 
ATOM     16  C   UNL     1      19.321  15.631   6.227  1.00  0.00     0.062 A 
ATOM     17  C   UNL     1      19.871  14.347   6.130  1.00  0.00     0.158 A 
BRANCH  15  18
ATOM     18  O   UNL     1      21.637  12.879   5.349  1.00  0.00    -0.504 OA
ATOM     19  H   UNL     1      21.414  12.267   4.572  1.00  0.00     0.293 HD
ENDBRANCH  15  18
BRANCH  17  20
ATOM     20  O   UNL     1      19.197  13.276   6.716  1.00  0.00    -0.504 OA
ATOM     21  H   UNL     1      19.106  13.183   7.720  1.00  0.00     0.293 HD
ENDBRANCH  17  20
ENDBRANCH   1  12
BRANCH   2  22
ATOM     22  O   UNL     1      21.283  18.849   7.125  1.00  0.00    -0.502 OA
ATOM     23  H   UNL     1      21.343  18.762   8.132  1.00  0.00     0.293 HD
ENDBRANCH   2  22
BRANCH   6  24
ATOM     24  O   UNL     1      17.959  22.989   6.684  1.00  0.00    -0.507 OA
ATOM     25  H   UNL     1      18.868  23.095   7.108  1.00  0.00     0.293 HD
ENDBRANCH   6  24
BRANCH   8  26
ATOM     26  O   UNL     1      14.619  21.123   3.812  1.00  0.00    -0.508 OA
ATOM     27  H   UNL     1      14.495  20.756   2.875  1.00  0.00     0.293 HD
ENDBRANCH   8  26
TORSDOF 6
ENDMDL
MODEL 2
REMARK VINA RESULT:    -5.994      1.344      6.726
REMARK INTER + INTRA:          -7.363
REMARK INTER:                  -7.828
REMARK INTRA:                   0.465
REMARK UNBOUND:                -0.143
REMARK SMILES O=c1c(O)c(-c2ccc(O)c(O)c2)oc2cc(O)cc(O)c12
REMARK SMILES IDX 5 1 3 2 2 3 1 4 22 5 20 6 19 7 17 8 16 9 15 10 14 11 6 12
REMARK SMILES IDX 7 13 8 14 9 15 13 16 11 17 10 18 12 20 4 22 21 24 18 26
REMARK H PARENT 10 19 12 21 4 23 21 25 18 27
REMARK Flexibility Score: inf
ROOT
ATOM      1  C   UNL     1      18.825  18.300   5.644  1.00  0.00     0.180 A 
ATOM      2  C   UNL     1      19.997  18.858   6.183  1.00  0.00     0.208 A 
ATOM      3  C   UNL     1      21.041  18.004   6.573  1.00  0.00     0.238 A 
ATOM      4  O   UNL     1      22.055  18.505   7.124  1.00  0.00    -0.285 OA
ATOM      5  C   UNL     1      20.924  16.607   6.369  1.00  0.00     0.111 A 
ATOM      6  C   UNL     1      21.938  15.653   6.686  1.00  0.00     0.134 A 
ATOM      7  C   UNL     1      21.669  14.286   6.538  1.00  0.00     0.093 A 
ATOM      8  C   UNL     1      20.450  13.842   6.027  1.00  0.00     0.123 A 
ATOM      9  C   UNL     1      19.474  14.769   5.662  1.00  0.00     0.094 A 
ATOM     10  C   UNL     1      19.696  16.137   5.833  1.00  0.00     0.146 A 
ATOM     11  O   UNL     1      18.732  16.984   5.494  1.00  0.00    -0.452 OA
ENDROOT
BRANCH   1  12
ATOM     12  C   UNL     1      17.676  19.133   5.223  1.00  0.00     0.025 A 
ATOM     13  C   UNL     1      16.469  18.513   4.864  1.00  0.00     0.016 A 
ATOM     14  C   UNL     1      15.365  19.280   4.483  1.00  0.00     0.051 A 
ATOM     15  C   UNL     1      15.447  20.678   4.472  1.00  0.00     0.157 A 
ATOM     16  C   UNL     1      17.748  20.537   5.230  1.00  0.00     0.062 A 
ATOM     17  C   UNL     1      16.642  21.309   4.851  1.00  0.00     0.158 A 
BRANCH  15  18
ATOM     18  O   UNL     1      14.344  21.442   4.089  1.00  0.00    -0.504 OA
ATOM     19  H   UNL     1      13.396  21.141   4.287  1.00  0.00     0.293 HD
ENDBRANCH  15  18
BRANCH  17  20
ATOM     20  O   UNL     1      16.751  22.699   4.864  1.00  0.00    -0.504 OA
ATOM     21  H   UNL     1      17.600  23.175   4.584  1.00  0.00     0.293 HD
ENDBRANCH  17  20
ENDBRANCH   1  12
BRANCH   2  22
ATOM     22  O   UNL     1      20.123  20.244   6.306  1.00  0.00    -0.502 OA
ATOM     23  H   UNL     1      20.988  20.732   6.102  1.00  0.00     0.293 HD
ENDBRANCH   2  22
BRANCH   6  24
ATOM     24  O   UNL     1      23.223  15.989   7.121  1.00  0.00    -0.507 OA
ATOM     25  H   UNL     1      23.911  16.476   6.567  1.00  0.00     0.293 HD
ENDBRANCH   6  24
BRANCH   8  26
ATOM     26  O   UNL     1      20.224  12.476   5.877  1.00  0.00    -0.508 OA
ATOM     27  H   UNL     1      20.789  11.788   6.362  1.00  0.00     0.293 HD
ENDBRANCH   8  26
TORSDOF 6
ENDMDL
MODEL 3
REMARK VINA RESULT:    -5.918      1.672      3.369
REMARK INTER + INTRA:          -7.273
REMARK INTER:                  -7.583
REMARK INTRA:                   0.310
REMARK UNBOUND:                -0.143
REMARK SMILES O=c1c(O)c(-c2ccc(O)c(O)c2)oc2cc(O)cc(O)c12
REMARK SMILES IDX 5 1 3 2 2 3 1 4 22 5 20 6 19 7 17 8 16 9 15 10 14 11 6 12
REMARK SMILES IDX 7 13 8 14 9 15 13 16 11 17 10 18 12 20 4 22 21 24 18 26
REMARK H PARENT 10 19 12 21 4 23 21 25 18 27
REMARK Flexibility Score: inf
ROOT
ATOM      1  C   UNL     1      18.217  19.505   5.580  1.00  0.00     0.180 A 
ATOM      2  C   UNL     1      17.147  19.363   4.679  1.00  0.00     0.208 A 
ATOM      3  C   UNL     1      16.323  20.470   4.422  1.00  0.00     0.238 A 
ATOM      4  O   UNL     1      15.323  20.315   3.673  1.00  0.00    -0.285 OA
ATOM      5  C   UNL     1      16.611  21.720   5.022  1.00  0.00     0.111 A 
ATOM      6  C   UNL     1      15.869  22.919   4.797  1.00  0.00     0.134 A 
ATOM      7  C   UNL     1      16.183  24.072   5.528  1.00  0.00     0.093 A 
ATOM      8  C   UNL     1      17.248  24.088   6.428  1.00  0.00     0.123 A 
ATOM      9  C   UNL     1      18.014  22.937   6.614  1.00  0.00     0.094 A 
ATOM     10  C   UNL     1      17.703  21.760   5.929  1.00  0.00     0.146 A 
ATOM     11  O   UNL     1      18.444  20.682   6.152  1.00  0.00    -0.452 OA
ENDROOT
BRANCH   1  12
ATOM     12  C   UNL     1      19.121  18.381   5.914  1.00  0.00     0.025 A 
ATOM     13  C   UNL     1      20.403  18.653   6.416  1.00  0.00     0.016 A 
ATOM     14  C   UNL     1      21.266  17.609   6.758  1.00  0.00     0.051 A 
ATOM     15  C   UNL     1      20.853  16.277   6.618  1.00  0.00     0.157 A 
ATOM     16  C   UNL     1      18.703  17.044   5.794  1.00  0.00     0.062 A 
ATOM     17  C   UNL     1      19.564  15.995   6.137  1.00  0.00     0.158 A 
BRANCH  15  18
ATOM     18  O   UNL     1      21.717  15.236   6.958  1.00  0.00    -0.504 OA
ATOM     19  H   UNL     1      21.394  14.277   7.019  1.00  0.00     0.293 HD
ENDBRANCH  15  18
BRANCH  17  20
ATOM     20  O   UNL     1      19.119  14.681   6.000  1.00  0.00    -0.504 OA
ATOM     21  H   UNL     1      19.084  14.216   5.101  1.00  0.00     0.293 HD
ENDBRANCH  17  20
ENDBRANCH   1  12
BRANCH   2  22
ATOM     22  O   UNL     1      16.925  18.141   4.038  1.00  0.00    -0.502 OA
ATOM     23  H   UNL     1      16.040  17.908   3.603  1.00  0.00     0.293 HD
ENDBRANCH   2  22
BRANCH   6  24
ATOM     24  O   UNL     1      14.841  23.041   3.858  1.00  0.00    -0.507 OA
ATOM     25  H   UNL     1      14.974  23.262   2.882  1.00  0.00     0.293 HD
ENDBRANCH   6  24
BRANCH   8  26
ATOM     26  O   UNL     1      17.542  25.257   7.125  1.00  0.00    -0.508 OA
ATOM     27  H   UNL     1      18.201  25.938   6.765  1.00  0.00     0.293 HD
ENDBRANCH   8  26
TORSDOF 6
ENDMDL
MODEL 4
REMARK VINA RESULT:    -5.877      5.491     10.553
REMARK INTER + INTRA:          -7.223
REMARK INTER:                  -6.925
REMARK INTRA:                  -0.298
REMARK UNBOUND:                -0.143
REMARK SMILES O=c1c(O)c(-c2ccc(O)c(O)c2)oc2cc(O)cc(O)c12
REMARK SMILES IDX 5 1 3 2 2 3 1 4 22 5 20 6 19 7 17 8 16 9 15 10 14 11 6 12
REMARK SMILES IDX 7 13 8 14 9 15 13 16 11 17 10 18 12 20 4 22 21 24 18 26
REMARK H PARENT 10 19 12 21 4 23 21 25 18 27
REMARK Flexibility Score: inf
ROOT
ATOM      1  C   UNL     1      11.880  22.763   5.391  1.00  0.00     0.180 A 
ATOM      2  C   UNL     1      13.009  23.052   4.604  1.00  0.00     0.208 A 
ATOM      3  C   UNL     1      13.974  22.052   4.404  1.00  0.00     0.238 A 
ATOM      4  O   UNL     1      15.017  22.342   3.762  1.00  0.00    -0.285 OA
ATOM      5  C   UNL     1      13.773  20.759   4.944  1.00  0.00     0.111 A 
ATOM      6  C   UNL     1      14.663  19.657   4.767  1.00  0.00     0.134 A 
ATOM      7  C   UNL     1      14.414  18.453   5.438  1.00  0.00     0.093 A 
ATOM      8  C   UNL     1      13.276  18.290   6.227  1.00  0.00     0.123 A 
ATOM      9  C   UNL     1      12.371  19.342   6.362  1.00  0.00     0.094 A 
ATOM     10  C   UNL     1      12.611  20.568   5.738  1.00  0.00     0.146 A 
ATOM     11  O   UNL     1      11.735  21.550   5.911  1.00  0.00    -0.452 OA
ENDROOT
BRANCH   1  12
ATOM     12  C   UNL     1      10.828  23.768   5.659  1.00  0.00     0.025 A 
ATOM     13  C   UNL     1      10.858  24.496   6.859  1.00  0.00     0.016 A 
ATOM     14  C   UNL     1       9.887  25.464   7.125  1.00  0.00     0.051 A 
ATOM     15  C   UNL     1       8.881  25.732   6.187  1.00  0.00     0.157 A 
ATOM     16  C   UNL     1       9.828  24.054   4.711  1.00  0.00     0.062 A 
ATOM     17  C   UNL     1       8.855  25.026   4.974  1.00  0.00     0.158 A 
BRANCH  15  18
ATOM     18  O   UNL     1       7.912  26.698   6.455  1.00  0.00    -0.504 OA
ATOM     19  H   UNL     1       7.840  27.139   7.365  1.00  0.00     0.293 HD
ENDBRANCH  15  18
BRANCH  17  20
ATOM     20  O   UNL     1       7.875  25.279   4.014  1.00  0.00    -0.504 OA
ATOM     21  H   UNL     1       7.991  25.989   3.301  1.00  0.00     0.293 HD
ENDBRANCH  17  20
ENDBRANCH   1  12
BRANCH   2  22
ATOM     22  O   UNL     1      13.151  24.312   4.015  1.00  0.00    -0.502 OA
ATOM     23  H   UNL     1      12.483  24.680   3.350  1.00  0.00     0.293 HD
ENDBRANCH   2  22
BRANCH   6  24
ATOM     24  O   UNL     1      15.784  19.681   3.931  1.00  0.00    -0.507 OA
ATOM     25  H   UNL     1      15.852  19.206   3.044  1.00  0.00     0.293 HD
ENDBRANCH   6  24
BRANCH   8  26
ATOM     26  O   UNL     1      13.051  17.072   6.865  1.00  0.00    -0.508 OA
ATOM     27  H   UNL     1      13.789  16.385   6.972  1.00  0.00     0.293 HD
ENDBRANCH   8  26
TORSDOF 6
ENDMDL
MODEL 5
REMARK VINA RESULT:    -5.793      1.426      6.689
REMARK INTER + INTRA:          -7.122
REMARK INTER:                  -7.595
REMARK INTRA:                   0.473
REMARK UNBOUND:                -0.143
REMARK SMILES O=c1c(O)c(-c2ccc(O)c(O)c2)oc2cc(O)cc(O)c12
REMARK SMILES IDX 5 1 3 2 2 3 1 4 22 5 20 6 19 7 17 8 16 9 15 10 14 11 6 12
REMARK SMILES IDX 7 13 8 14 9 15 13 16 11 17 10 18 12 20 4 22 21 24 18 26
REMARK H PARENT 10 19 12 21 4 23 21 25 18 27
REMARK Flexibility Score: inf
ROOT
ATOM      1  C   UNL     1      19.453  18.107   5.921  1.00  0.00     0.180 A 
ATOM      2  C   UNL     1      20.739  18.462   6.365  1.00  0.00     0.208 A 
ATOM      3  C   UNL     1      21.664  17.447   6.654  1.00  0.00     0.238 A 
ATOM      4  O   UNL     1      22.787  17.771   7.123  1.00  0.00    -0.285 OA
ATOM      5  C   UNL     1      21.314  16.091   6.444  1.00  0.00     0.111 A 
ATOM      6  C   UNL     1      22.188  14.983   6.661  1.00  0.00     0.134 A 
ATOM      7  C   UNL     1      21.696  13.679   6.520  1.00  0.00     0.093 A 
ATOM      8  C   UNL     1      20.385  13.442   6.110  1.00  0.00     0.123 A 
ATOM      9  C   UNL     1      19.540  14.519   5.841  1.00  0.00     0.094 A 
ATOM     10  C   UNL     1      19.987  15.831   6.009  1.00  0.00     0.146 A 
ATOM     11  O   UNL     1      19.143  16.825   5.763  1.00  0.00    -0.452 OA
ENDROOT
BRANCH   1  12
ATOM     12  C   UNL     1      18.419  19.118   5.609  1.00  0.00     0.025 A 
ATOM     13  C   UNL     1      18.590  20.439   6.053  1.00  0.00     0.016 A 
ATOM     14  C   UNL     1      17.638  21.416   5.754  1.00  0.00     0.051 A 
ATOM     15  C   UNL     1      16.508  21.091   4.991  1.00  0.00     0.157 A 
ATOM     16  C   UNL     1      17.295  18.801   4.827  1.00  0.00     0.062 A 
ATOM     17  C   UNL     1      16.339  19.778   4.523  1.00  0.00     0.158 A 
BRANCH  15  18
ATOM     18  O   UNL     1      15.558  22.068   4.695  1.00  0.00    -0.504 OA
ATOM     19  H   UNL     1      15.630  23.008   5.065  1.00  0.00     0.293 HD
ENDBRANCH  15  18
BRANCH  17  20
ATOM     20  O   UNL     1      15.233  19.426   3.750  1.00  0.00    -0.504 OA
ATOM     21  H   UNL     1      14.694  18.588   3.932  1.00  0.00     0.293 HD
ENDBRANCH  17  20
ENDBRANCH   1  12
BRANCH   2  22
ATOM     22  O   UNL     1      21.091  19.809   6.494  1.00  0.00    -0.502 OA
ATOM     23  H   UNL     1      20.581  20.449   7.090  1.00  0.00     0.293 HD
ENDBRANCH   2  22
BRANCH   6  24
ATOM     24  O   UNL     1      23.541  15.104   6.990  1.00  0.00    -0.507 OA
ATOM     25  H   UNL     1      24.156  15.825   6.644  1.00  0.00     0.293 HD
ENDBRANCH   6  24
BRANCH   8  26
ATOM     26  O   UNL     1      19.937  12.132   5.963  1.00  0.00    -0.508 OA
ATOM     27  H   UNL     1      19.952  11.476   6.735  1.00  0.00     0.293 HD
ENDBRANCH   8  26
TORSDOF 6
ENDMDL
MODEL 6
REMARK VINA RESULT:    -5.684      7.389     10.501
REMARK INTER + INTRA:          -6.990
REMARK INTER:                  -6.691
REMARK INTRA:                  -0.300
REMARK UNBOUND:                -0.143
REMARK SMILES O=c1c(O)c(-c2ccc(O)c(O)c2)oc2cc(O)cc(O)c12
REMARK SMILES IDX 5 1 3 2 2 3 1 4 22 5 20 6 19 7 17 8 16 9 15 10 14 11 6 12
REMARK SMILES IDX 7 13 8 14 9 15 13 16 11 17 10 18 12 20 4 22 21 24 18 26
REMARK H PARENT 10 19 12 21 4 23 21 25 18 27
REMARK Flexibility Score: inf
ROOT
ATOM      1  C   UNL     1      24.823  24.189   5.476  1.00  0.00     0.180 A 
ATOM      2  C   UNL     1      26.039  23.872   6.106  1.00  0.00     0.208 A 
ATOM      3  C   UNL     1      26.726  22.712   5.713  1.00  0.00     0.238 A 
ATOM      4  O   UNL     1      27.775  22.394   6.333  1.00  0.00    -0.285 OA
ATOM      5  C   UNL     1      26.220  21.914   4.659  1.00  0.00     0.111 A 
ATOM      6  C   UNL     1      26.857  20.742   4.149  1.00  0.00     0.134 A 
ATOM      7  C   UNL     1      26.208  19.973   3.174  1.00  0.00     0.093 A 
ATOM      8  C   UNL     1      24.980  20.365   2.646  1.00  0.00     0.123 A 
ATOM      9  C   UNL     1      24.375  21.539   3.097  1.00  0.00     0.094 A 
ATOM     10  C   UNL     1      24.977  22.307   4.096  1.00  0.00     0.146 A 
ATOM     11  O   UNL     1      24.357  23.404   4.512  1.00  0.00    -0.452 OA
ENDROOT
BRANCH   1  12
ATOM     12  C   UNL     1      24.034  25.386   5.844  1.00  0.00     0.025 A 
ATOM     13  C   UNL     1      22.963  25.257   6.742  1.00  0.00     0.016 A 
ATOM     14  C   UNL     1      22.217  26.376   7.120  1.00  0.00     0.051 A 
ATOM     15  C   UNL     1      22.541  27.643   6.619  1.00  0.00     0.157 A 
ATOM     16  C   UNL     1      24.369  26.663   5.359  1.00  0.00     0.062 A 
ATOM     17  C   UNL     1      23.625  27.787   5.738  1.00  0.00     0.158 A 
BRANCH  15  18
ATOM     18  O   UNL     1      21.794  28.759   6.997  1.00  0.00    -0.504 OA
ATOM     19  H   UNL     1      20.815  28.682   7.247  1.00  0.00     0.293 HD
ENDBRANCH  15  18
BRANCH  17  20
ATOM     20  O   UNL     1      23.982  29.037   5.233  1.00  0.00    -0.504 OA
ATOM     21  H   UNL     1      23.444  29.499   4.510  1.00  0.00     0.293 HD
ENDBRANCH  17  20
ENDBRANCH   1  12
BRANCH   2  22
ATOM     22  O   UNL     1      26.561  24.713   7.092  1.00  0.00    -0.502 OA
ATOM     23  H   UNL     1      25.985  25.123   7.817  1.00  0.00     0.293 HD
ENDBRANCH   2  22
BRANCH   6  24
ATOM     24  O   UNL     1      28.125  20.305   4.543  1.00  0.00    -0.507 OA
ATOM     25  H   UNL     1      28.369  19.346   4.740  1.00  0.00     0.293 HD
ENDBRANCH   6  24
BRANCH   8  26
ATOM     26  O   UNL     1      24.373  19.585   1.664  1.00  0.00    -0.508 OA
ATOM     27  H   UNL     1      23.478  19.135   1.822  1.00  0.00     0.293 HD
ENDBRANCH   8  26
TORSDOF 6
ENDMDL
MODEL 7
REMARK VINA RESULT:    -5.298      1.473      6.906
REMARK INTER + INTRA:          -6.526
REMARK INTER:                  -6.673
REMARK INTRA:                   0.147
REMARK UNBOUND:                -0.143
REMARK SMILES O=c1c(O)c(-c2ccc(O)c(O)c2)oc2cc(O)cc(O)c12
REMARK SMILES IDX 5 1 3 2 2 3 1 4 22 5 20 6 19 7 17 8 16 9 15 10 14 11 6 12
REMARK SMILES IDX 7 13 8 14 9 15 13 16 11 17 10 18 12 20 4 22 21 24 18 26
REMARK H PARENT 10 19 12 21 4 23 21 25 18 27
REMARK Flexibility Score: inf
ROOT
ATOM      1  C   UNL     1      17.472  20.109   5.398  1.00  0.00     0.180 A 
ATOM      2  C   UNL     1      18.474  20.791   6.112  1.00  0.00     0.208 A 
ATOM      3  C   UNL     1      19.667  20.118   6.421  1.00  0.00     0.238 A 
ATOM      4  O   UNL     1      20.527  20.710   7.124  1.00  0.00    -0.285 OA
ATOM      5  C   UNL     1      19.869  18.793   5.966  1.00  0.00     0.111 A 
ATOM      6  C   UNL     1      21.057  18.031   6.183  1.00  0.00     0.134 A 
ATOM      7  C   UNL     1      21.102  16.692   5.777  1.00  0.00     0.093 A 
ATOM      8  C   UNL     1      20.030  16.104   5.108  1.00  0.00     0.123 A 
ATOM      9  C   UNL     1      18.885  16.856   4.841  1.00  0.00     0.094 A 
ATOM     10  C   UNL     1      18.793  18.183   5.267  1.00  0.00     0.146 A 
ATOM     11  O   UNL     1      17.678  18.855   5.012  1.00  0.00    -0.452 OA
ENDROOT
BRANCH   1  12
ATOM     12  C   UNL     1      16.183  20.744   5.048  1.00  0.00     0.025 A 
ATOM     13  C   UNL     1      14.991  20.017   5.196  1.00  0.00     0.016 A 
ATOM     14  C   UNL     1      13.761  20.602   4.891  1.00  0.00     0.051 A 
ATOM     15  C   UNL     1      13.701  21.931   4.450  1.00  0.00     0.157 A 
ATOM     16  C   UNL     1      16.117  22.084   4.625  1.00  0.00     0.062 A 
ATOM     17  C   UNL     1      14.884  22.675   4.321  1.00  0.00     0.158 A 
BRANCH  15  18
ATOM     18  O   UNL     1      12.471  22.513   4.144  1.00  0.00    -0.504 OA
ATOM     19  H   UNL     1      11.834  22.819   4.871  1.00  0.00     0.293 HD
ENDBRANCH  15  18
BRANCH  17  20
ATOM     20  O   UNL     1      14.857  24.004   3.898  1.00  0.00    -0.504 OA
ATOM     21  H   UNL     1      15.596  24.657   4.127  1.00  0.00     0.293 HD
ENDBRANCH  17  20
ENDBRANCH   1  12
BRANCH   2  22
ATOM     22  O   UNL     1      18.286  22.124   6.486  1.00  0.00    -0.502 OA
ATOM     23  H   UNL     1      17.409  22.465   6.862  1.00  0.00     0.293 HD
ENDBRANCH   2  22
BRANCH   6  24
ATOM     24  O   UNL     1      22.221  18.544   6.763  1.00  0.00    -0.507 OA
ATOM     25  H   UNL     1      22.753  19.321   6.401  1.00  0.00     0.293 HD
ENDBRANCH   6  24
BRANCH   8  26
ATOM     26  O   UNL     1      20.117  14.774   4.703  1.00  0.00    -0.508 OA
ATOM     27  H   UNL     1      19.788  14.018   5.292  1.00  0.00     0.293 HD
ENDBRANCH   8  26
TORSDOF 6
ENDMDL
MODEL 8
REMARK VINA RESULT:    -5.156      1.816      7.294
REMARK INTER + INTRA:          -6.355
REMARK INTER:                  -6.449
REMARK INTRA:                   0.094
REMARK UNBOUND:                -0.143
REMARK SMILES O=c1c(O)c(-c2ccc(O)c(O)c2)oc2cc(O)cc(O)c12
REMARK SMILES IDX 5 1 3 2 2 3 1 4 22 5 20 6 19 7 17 8 16 9 15 10 14 11 6 12
REMARK SMILES IDX 7 13 8 14 9 15 13 16 11 17 10 18 12 20 4 22 21 24 18 26
REMARK H PARENT 10 19 12 21 4 23 21 25 18 27
REMARK Flexibility Score: inf
ROOT
ATOM      1  C   UNL     1      19.280  19.403   5.999  1.00  0.00     0.180 A 
ATOM      2  C   UNL     1      18.725  18.172   5.608  1.00  0.00     0.208 A 
ATOM      3  C   UNL     1      19.543  17.031   5.595  1.00  0.00     0.238 A 
ATOM      4  O   UNL     1      19.059  15.948   5.172  1.00  0.00    -0.285 OA
ATOM      5  C   UNL     1      20.889  17.121   6.026  1.00  0.00     0.111 A 
ATOM      6  C   UNL     1      21.794  16.019   6.096  1.00  0.00     0.134 A 
ATOM      7  C   UNL     1      23.134  16.248   6.437  1.00  0.00     0.093 A 
ATOM      8  C   UNL     1      23.585  17.524   6.772  1.00  0.00     0.123 A 
ATOM      9  C   UNL     1      22.695  18.598   6.760  1.00  0.00     0.094 A 
ATOM     10  C   UNL     1      21.362  18.410   6.387  1.00  0.00     0.146 A 
ATOM     11  O   UNL     1      20.554  19.463   6.368  1.00  0.00    -0.452 OA
ENDROOT
BRANCH   1  12
ATOM     12  C   UNL     1      18.487  20.653   6.026  1.00  0.00     0.025 A 
ATOM     13  C   UNL     1      18.678  21.570   7.071  1.00  0.00     0.016 A 
ATOM     14  C   UNL     1      17.956  22.765   7.106  1.00  0.00     0.051 A 
ATOM     15  C   UNL     1      17.044  23.069   6.086  1.00  0.00     0.157 A 
ATOM     16  C   UNL     1      17.587  20.971   4.993  1.00  0.00     0.062 A 
ATOM     17  C   UNL     1      16.863  22.170   5.024  1.00  0.00     0.158 A 
BRANCH  15  18
ATOM     18  O   UNL     1      16.323  24.262   6.124  1.00  0.00    -0.504 OA
ATOM     19  H   UNL     1      16.084  24.765   5.277  1.00  0.00     0.293 HD
ENDBRANCH  15  18
BRANCH  17  20
ATOM     20  O   UNL     1      15.974  22.450   3.987  1.00  0.00    -0.504 OA
ATOM     21  H   UNL     1      14.991  22.211   4.041  1.00  0.00     0.293 HD
ENDBRANCH  17  20
ENDBRANCH   1  12
BRANCH   2  22
ATOM     22  O   UNL     1      17.375  18.089   5.259  1.00  0.00    -0.502 OA
ATOM     23  H   UNL     1      16.639  18.475   5.838  1.00  0.00     0.293 HD
ENDBRANCH   2  22
BRANCH   6  24
ATOM     24  O   UNL     1      21.430  14.689   5.868  1.00  0.00    -0.507 OA
ATOM     25  H   UNL     1      20.636  14.394   5.320  1.00  0.00     0.293 HD
ENDBRANCH   6  24
BRANCH   8  26
ATOM     26  O   UNL     1      24.920  17.711   7.124  1.00  0.00    -0.508 OA
ATOM     27  H   UNL     1      25.657  17.137   6.731  1.00  0.00     0.293 HD
ENDBRANCH   8  26
TORSDOF 6
ENDMDL
MODEL 9
REMARK VINA RESULT:    -4.810      3.982      7.008
REMARK INTER + INTRA:          -5.938
REMARK INTER:                  -5.755
REMARK INTRA:                  -0.184
REMARK UNBOUND:                -0.143
REMARK SMILES O=c1c(O)c(-c2ccc(O)c(O)c2)oc2cc(O)cc(O)c12
REMARK SMILES IDX 5 1 3 2 2 3 1 4 22 5 20 6 19 7 17 8 16 9 15 10 14 11 6 12
REMARK SMILES IDX 7 13 8 14 9 15 13 16 11 17 10 18 12 20 4 22 21 24 18 26
REMARK H PARENT 10 19 12 21 4 23 21 25 18 27
REMARK Flexibility Score: inf
ROOT
ATOM      1  C   UNL     1      23.201  18.769   5.897  1.00  0.00     0.180 A 
ATOM      2  C   UNL     1      21.994  19.310   6.376  1.00  0.00     0.208 A 
ATOM      3  C   UNL     1      20.896  18.457   6.571  1.00  0.00     0.238 A 
ATOM      4  O   UNL     1      19.799  18.960   6.927  1.00  0.00    -0.285 OA
ATOM      5  C   UNL     1      21.032  17.067   6.339  1.00  0.00     0.111 A 
ATOM      6  C   UNL     1      19.998  16.104   6.546  1.00  0.00     0.134 A 
ATOM      7  C   UNL     1      20.215  14.769   6.181  1.00  0.00     0.093 A 
ATOM      8  C   UNL     1      21.445  14.350   5.677  1.00  0.00     0.123 A 
ATOM      9  C   UNL     1      22.480  15.273   5.523  1.00  0.00     0.094 A 
ATOM     10  C   UNL     1      22.284  16.618   5.841  1.00  0.00     0.146 A 
ATOM     11  O   UNL     1      23.288  17.466   5.658  1.00  0.00    -0.452 OA
ENDROOT
BRANCH   1  12
ATOM     12  C   UNL     1      24.397  19.606   5.653  1.00  0.00     0.025 A 
ATOM     13  C   UNL     1      24.371  20.567   4.630  1.00  0.00     0.016 A 
ATOM     14  C   UNL     1      25.480  21.382   4.395  1.00  0.00     0.051 A 
ATOM     15  C   UNL     1      26.627  21.259   5.190  1.00  0.00     0.157 A 
ATOM     16  C   UNL     1      25.542  19.500   6.462  1.00  0.00     0.062 A 
ATOM     17  C   UNL     1      26.656  20.318   6.231  1.00  0.00     0.158 A 
BRANCH  15  18
ATOM     18  O   UNL     1      27.735  22.073   4.952  1.00  0.00    -0.504 OA
ATOM     19  H   UNL     1      28.287  22.453   5.712  1.00  0.00     0.293 HD
ENDBRANCH  15  18
BRANCH  17  20
ATOM     20  O   UNL     1      27.777  20.181   7.049  1.00  0.00    -0.504 OA
ATOM     21  H   UNL     1      28.711  20.400   6.723  1.00  0.00     0.293 HD
ENDBRANCH  17  20
ENDBRANCH   1  12
BRANCH   2  22
ATOM     22  O   UNL     1      21.903  20.673   6.672  1.00  0.00    -0.502 OA
ATOM     23  H   UNL     1      22.329  21.385   6.091  1.00  0.00     0.293 HD
ENDBRANCH   2  22
BRANCH   6  24
ATOM     24  O   UNL     1      18.759  16.396   7.125  1.00  0.00    -0.507 OA
ATOM     25  H   UNL     1      18.251  15.781   7.742  1.00  0.00     0.293 HD
ENDBRANCH   6  24
BRANCH   8  26
ATOM     26  O   UNL     1      21.631  13.011   5.342  1.00  0.00    -0.508 OA
ATOM     27  H   UNL     1      20.871  12.342   5.390  1.00  0.00     0.293 HD
ENDBRANCH   8  26
TORSDOF 6
ENDMDL
