MODEL 1
REMARK VINA RESULT:    -4.092      0.000      0.000
REMARK INTER + INTRA:          -6.065
REMARK INTER:                  -5.767
REMARK INTRA:                  -0.298
REMARK UNBOUND:                -0.298
REMARK SMILES CCCCCCCCC(=O)[O-]
REMARK SMILES IDX 6 1 7 2 8 3 9 4 10 5 11 6 5 7 4 8 3 9 2 10 1 11
REMARK H PARENT
REMARK Flexibility Score: inf
ROOT
ATOM      1  C   UNL     1       3.089 -36.884  19.370  1.00  0.00     0.000 C 
ENDROOT
BRANCH   1   2
ATOM      2  C   UNL     1       4.625 -36.893  19.238  1.00  0.00     0.006 C 
BRANCH   2   3
ATOM      3  C   UNL     1       5.370 -36.604  20.555  1.00  0.00     0.053 C 
BRANCH   3   4
ATOM      4  C   UNL     1       5.791 -35.171  20.678  1.00  0.00     0.041 C 
ATOM      5  O   UNL     1       6.001 -34.665  21.813  1.00  0.00    -0.550 OA
ATOM      6  O   UNL     1       5.993 -34.404  19.538  1.00  0.00    -0.550 OA
ENDBRANCH   3   4
ENDBRANCH   2   3
ENDBRANCH   1   2
BRANCH   1   7
ATOM      7  C   UNL     1       2.317 -36.882  18.039  1.00  0.00     0.000 C 
BRANCH   7   8
ATOM      8  C   UNL     1       3.191 -36.488  16.839  1.00  0.00    -0.000 C 
BRANCH   8   9
ATOM      9  C   UNL     1       2.354 -35.801  15.754  1.00  0.00    -0.000 C 
BRANCH   9  10
ATOM     10  C   UNL     1       3.115 -35.746  14.425  1.00  0.00    -0.003 C 
ATOM     11  C   UNL     1       4.123 -36.885  14.319  1.00  0.00     0.004 C 
ENDBRANCH   9  10
ENDBRANCH   8   9
ENDBRANCH   7   8
ENDBRANCH   1   7
TORSDOF 7
ENDMDL
MODEL 2
REMARK VINA RESULT:    -4.063      3.339      6.956
REMARK INTER + INTRA:          -6.024
REMARK INTER:                  -5.791
REMARK INTRA:                  -0.233
REMARK UNBOUND:                -0.298
REMARK SMILES CCCCCCCCC(=O)[O-]
REMARK SMILES IDX 6 1 7 2 8 3 9 4 10 5 11 6 5 7 4 8 3 9 2 10 1 11
REMARK H PARENT
REMARK Flexibility Score: inf
ROOT
ATOM      1  C   UNL     1       5.045 -34.968  21.277  1.00  0.00     0.000 C 
ENDROOT
BRANCH   1   2
ATOM      2  C   UNL     1       5.529 -35.495  19.912  1.00  0.00     0.006 C 
BRANCH   2   3
ATOM      3  C   UNL     1       4.965 -36.878  19.536  1.00  0.00     0.053 C 
BRANCH   3   4
ATOM      4  C   UNL     1       3.648 -36.791  18.824  1.00  0.00     0.041 C 
ATOM      5  O   UNL     1       3.608 -36.541  17.591  1.00  0.00    -0.550 OA
ATOM      6  O   UNL     1       2.467 -37.027  19.516  1.00  0.00    -0.550 OA
ENDBRANCH   3   4
ENDBRANCH   2   3
ENDBRANCH   1   2
BRANCH   1   7
ATOM      7  C   UNL     1       6.098 -34.986  22.398  1.00  0.00     0.000 C 
BRANCH   7   8
ATOM      8  C   UNL     1       5.572 -34.424  23.726  1.00  0.00    -0.000 C 
BRANCH   8   9
ATOM      9  C   UNL     1       6.125 -35.219  24.915  1.00  0.00    -0.000 C 
BRANCH   9  10
ATOM     10  C   UNL     1       5.037 -36.098  25.543  1.00  0.00    -0.003 C 
ATOM     11  C   UNL     1       5.611 -37.429  26.020  1.00  0.00     0.004 C 
ENDBRANCH   9  10
ENDBRANCH   8   9
ENDBRANCH   7   8
ENDBRANCH   1   7
TORSDOF 7
ENDMDL
MODEL 3
REMARK VINA RESULT:    -3.957      3.001      6.077
REMARK INTER + INTRA:          -5.875
REMARK INTER:                  -5.667
REMARK INTRA:                  -0.207
REMARK UNBOUND:                -0.298
REMARK SMILES CCCCCCCCC(=O)[O-]
REMARK SMILES IDX 6 1 7 2 8 3 9 4 10 5 11 6 5 7 4 8 3 9 2 10 1 11
REMARK H PARENT
REMARK Flexibility Score: inf
ROOT
ATOM      1  C   UNL     1       3.472 -36.844  19.501  1.00  0.00     0.000 C 
ENDROOT
BRANCH   1   2
ATOM      2  C   UNL     1       2.840 -36.841  18.095  1.00  0.00     0.006 C 
BRANCH   2   3
ATOM      3  C   UNL     1       3.689 -36.125  17.027  1.00  0.00     0.053 C 
BRANCH   3   4
ATOM      4  C   UNL     1       2.921 -35.845  15.770  1.00  0.00     0.041 C 
ATOM      5  O   UNL     1       1.704 -35.526  15.827  1.00  0.00    -0.550 OA
ATOM      6  O   UNL     1       3.559 -35.897  14.538  1.00  0.00    -0.550 OA
ENDBRANCH   3   4
ENDBRANCH   2   3
ENDBRANCH   1   2
BRANCH   1   7
ATOM      7  C   UNL     1       4.824 -36.119  19.614  1.00  0.00     0.000 C 
BRANCH   7   8
ATOM      8  C   UNL     1       4.818 -34.997  20.661  1.00  0.00    -0.000 C 
BRANCH   8   9
ATOM      9  C   UNL     1       5.779 -35.316  21.812  1.00  0.00    -0.000 C 
BRANCH   9  10
ATOM     10  C   UNL     1       5.426 -34.505  23.065  1.00  0.00    -0.003 C 
ATOM     11  C   UNL     1       5.856 -35.236  24.333  1.00  0.00     0.004 C 
ENDBRANCH   9  10
ENDBRANCH   8   9
ENDBRANCH   7   8
ENDBRANCH   1   7
TORSDOF 7
ENDMDL
MODEL 4
REMARK VINA RESULT:    -3.644      1.706      2.935
REMARK INTER + INTRA:          -5.434
REMARK INTER:                  -5.179
REMARK INTRA:                  -0.255
REMARK UNBOUND:                -0.298
REMARK SMILES CCCCCCCCC(=O)[O-]
REMARK SMILES IDX 6 1 7 2 8 3 9 4 10 5 11 6 5 7 4 8 3 9 2 10 1 11
REMARK H PARENT
REMARK Flexibility Score: inf
ROOT
ATOM      1  C   UNL     1       5.429 -35.286  19.761  1.00  0.00     0.000 C 
ENDROOT
BRANCH   1   2
ATOM      2  C   UNL     1       6.015 -34.751  21.083  1.00  0.00     0.006 C 
BRANCH   2   3
ATOM      3  C   UNL     1       5.984 -35.767  22.240  1.00  0.00     0.053 C 
BRANCH   3   4
ATOM      4  C   UNL     1       5.658 -35.132  23.558  1.00  0.00     0.041 C 
ATOM      5  O   UNL     1       5.266 -33.936  23.608  1.00  0.00    -0.550 OA
ATOM      6  O   UNL     1       5.749 -35.873  24.729  1.00  0.00    -0.550 OA
ENDBRANCH   3   4
ENDBRANCH   2   3
ENDBRANCH   1   2
BRANCH   1   7
ATOM      7  C   UNL     1       4.773 -36.675  19.849  1.00  0.00     0.000 C 
BRANCH   7   8
ATOM      8  C   UNL     1       3.470 -36.775  19.043  1.00  0.00    -0.000 C 
BRANCH   8   9
ATOM      9  C   UNL     1       3.724 -36.497  17.556  1.00  0.00    -0.000 C 
BRANCH   9  10
ATOM     10  C   UNL     1       2.404 -36.319  16.797  1.00  0.00    -0.003 C 
ATOM     11  C   UNL     1       2.645 -35.782  15.390  1.00  0.00     0.004 C 
ENDBRANCH   9  10
ENDBRANCH   8   9
ENDBRANCH   7   8
ENDBRANCH   1   7
TORSDOF 7
ENDMDL
MODEL 5
REMARK VINA RESULT:    -3.522      3.245      5.225
REMARK INTER + INTRA:          -5.261
REMARK INTER:                  -4.846
REMARK INTRA:                  -0.415
REMARK UNBOUND:                -0.298
REMARK SMILES CCCCCCCCC(=O)[O-]
REMARK SMILES IDX 6 1 7 2 8 3 9 4 10 5 11 6 5 7 4 8 3 9 2 10 1 11
REMARK H PARENT
REMARK Flexibility Score: inf
ROOT
ATOM      1  C   UNL     1       5.322 -34.487  22.822  1.00  0.00     0.000 C 
ENDROOT
BRANCH   1   2
ATOM      2  C   UNL     1       6.125 -35.271  23.879  1.00  0.00     0.006 C 
BRANCH   2   3
ATOM      3  C   UNL     1       5.294 -35.713  25.099  1.00  0.00     0.053 C 
BRANCH   3   4
ATOM      4  C   UNL     1       5.459 -37.169  25.415  1.00  0.00     0.041 C 
ATOM      5  O   UNL     1       5.288 -38.037  24.519  1.00  0.00    -0.550 OA
ATOM      6  O   UNL     1       5.843 -37.565  26.689  1.00  0.00    -0.550 OA
ENDBRANCH   3   4
ENDBRANCH   2   3
ENDBRANCH   1   2
BRANCH   1   7
ATOM      7  C   UNL     1       5.421 -35.031  21.387  1.00  0.00     0.000 C 
BRANCH   7   8
ATOM      8  C   UNL     1       5.752 -36.530  21.336  1.00  0.00    -0.000 C 
BRANCH   8   9
ATOM      9  C   UNL     1       5.202 -37.169  20.055  1.00  0.00    -0.000 C 
BRANCH   9  10
ATOM     10  C   UNL     1       3.870 -36.527  19.648  1.00  0.00    -0.003 C 
ATOM     11  C   UNL     1       3.681 -36.562  18.135  1.00  0.00     0.004 C 
ENDBRANCH   9  10
ENDBRANCH   8   9
ENDBRANCH   7   8
ENDBRANCH   1   7
TORSDOF 7
ENDMDL
MODEL 6
REMARK VINA RESULT:    -3.168      3.026      5.062
REMARK INTER + INTRA:          -4.762
REMARK INTER:                  -4.189
REMARK INTRA:                  -0.573
REMARK UNBOUND:                -0.298
REMARK SMILES CCCCCCCCC(=O)[O-]
REMARK SMILES IDX 6 1 7 2 8 3 9 4 10 5 11 6 5 7 4 8 3 9 2 10 1 11
REMARK H PARENT
REMARK Flexibility Score: inf
ROOT
ATOM      1  C   UNL     1       3.071 -36.839  19.429  1.00  0.00     0.000 C 
ENDROOT
BRANCH   1   2
ATOM      2  C   UNL     1       2.540 -36.875  17.982  1.00  0.00     0.006 C 
BRANCH   2   3
ATOM      3  C   UNL     1       3.521 -36.305  16.940  1.00  0.00     0.053 C 
BRANCH   3   4
ATOM      4  C   UNL     1       2.862 -36.014  15.625  1.00  0.00     0.041 C 
ATOM      5  O   UNL     1       3.524 -36.072  14.555  1.00  0.00    -0.550 OA
ATOM      6  O   UNL     1       1.506 -35.718  15.577  1.00  0.00    -0.550 OA
ENDBRANCH   3   4
ENDBRANCH   2   3
ENDBRANCH   1   2
BRANCH   1   7
ATOM      7  C   UNL     1       4.603 -36.823  19.565  1.00  0.00     0.000 C 
BRANCH   7   8
ATOM      8  C   UNL     1       5.083 -36.170  20.870  1.00  0.00    -0.000 C 
BRANCH   8   9
ATOM      9  C   UNL     1       5.702 -34.795  20.598  1.00  0.00    -0.000 C 
BRANCH   9  10
ATOM     10  C   UNL     1       6.125 -34.662  19.130  1.00  0.00    -0.003 C 
ATOM     11  C   UNL     1       5.446 -33.467  18.467  1.00  0.00     0.004 C 
ENDBRANCH   9  10
ENDBRANCH   8   9
ENDBRANCH   7   8
ENDBRANCH   1   7
TORSDOF 7
ENDMDL
MODEL 7
REMARK VINA RESULT:    -3.074      2.245      2.654
REMARK INTER + INTRA:          -4.630
REMARK INTER:                  -4.379
REMARK INTRA:                  -0.252
REMARK UNBOUND:                -0.298
REMARK SMILES CCCCCCCCC(=O)[O-]
REMARK SMILES IDX 6 1 7 2 8 3 9 4 10 5 11 6 5 7 4 8 3 9 2 10 1 11
REMARK H PARENT
REMARK Flexibility Score: inf
ROOT
ATOM      1  C   UNL     1       3.913 -36.438  19.804  1.00  0.00     0.000 C 
ENDROOT
BRANCH   1   2
ATOM      2  C   UNL     1       5.292 -36.649  20.462  1.00  0.00     0.006 C 
BRANCH   2   3
ATOM      3  C   UNL     1       5.764 -38.115  20.476  1.00  0.00     0.053 C 
BRANCH   3   4
ATOM      4  C   UNL     1       5.780 -38.704  21.854  1.00  0.00     0.041 C 
ATOM      5  O   UNL     1       5.716 -37.957  22.866  1.00  0.00    -0.550 OA
ATOM      6  O   UNL     1       5.824 -40.082  22.021  1.00  0.00    -0.550 OA
ENDBRANCH   3   4
ENDBRANCH   2   3
ENDBRANCH   1   2
BRANCH   1   7
ATOM      7  C   UNL     1       3.849 -36.759  18.301  1.00  0.00     0.000 C 
BRANCH   7   8
ATOM      8  C   UNL     1       2.421 -36.714  17.738  1.00  0.00    -0.000 C 
BRANCH   8   9
ATOM      9  C   UNL     1       2.411 -36.147  16.314  1.00  0.00    -0.000 C 
BRANCH   9  10
ATOM     10  C   UNL     1       3.590 -36.690  15.497  1.00  0.00    -0.003 C 
ATOM     11  C   UNL     1       3.707 -35.975  14.155  1.00  0.00     0.004 C 
ENDBRANCH   9  10
ENDBRANCH   8   9
ENDBRANCH   7   8
ENDBRANCH   1   7
TORSDOF 7
ENDMDL
MODEL 8
REMARK VINA RESULT:    -2.993      3.236      5.730
REMARK INTER + INTRA:          -4.516
REMARK INTER:                  -4.160
REMARK INTRA:                  -0.356
REMARK UNBOUND:                -0.298
REMARK SMILES CCCCCCCCC(=O)[O-]
REMARK SMILES IDX 6 1 7 2 8 3 9 4 10 5 11 6 5 7 4 8 3 9 2 10 1 11
REMARK H PARENT
REMARK Flexibility Score: inf
ROOT
ATOM      1  C   UNL     1       2.631 -36.773  18.094  1.00  0.00     0.000 C 
ENDROOT
BRANCH   1   2
ATOM      2  C   UNL     1       3.659 -36.579  16.961  1.00  0.00     0.006 C 
BRANCH   2   3
ATOM      3  C   UNL     1       3.325 -35.421  16.002  1.00  0.00     0.053 C 
BRANCH   3   4
ATOM      4  C   UNL     1       3.139 -35.879  14.586  1.00  0.00     0.041 C 
ATOM      5  O   UNL     1       2.021 -35.758  14.021  1.00  0.00    -0.550 OA
ATOM      6  O   UNL     1       4.213 -36.401  13.878  1.00  0.00    -0.550 OA
ENDBRANCH   3   4
ENDBRANCH   2   3
ENDBRANCH   1   2
BRANCH   1   7
ATOM      7  C   UNL     1       3.223 -36.842  19.512  1.00  0.00     0.000 C 
BRANCH   7   8
ATOM      8  C   UNL     1       4.558 -36.095  19.641  1.00  0.00    -0.000 C 
BRANCH   8   9
ATOM      9  C   UNL     1       5.371 -36.627  20.827  1.00  0.00    -0.000 C 
BRANCH   9  10
ATOM     10  C   UNL     1       5.660 -38.125  20.667  1.00  0.00    -0.003 C 
ATOM     11  C   UNL     1       5.758 -38.815  22.024  1.00  0.00     0.004 C 
ENDBRANCH   9  10
ENDBRANCH   8   9
ENDBRANCH   7   8
ENDBRANCH   1   7
TORSDOF 7
ENDMDL
MODEL 9
REMARK VINA RESULT:    -2.841      3.327      7.034
REMARK INTER + INTRA:          -4.301
REMARK INTER:                  -4.264
REMARK INTRA:                  -0.037
REMARK UNBOUND:                -0.298
REMARK SMILES CCCCCCCCC(=O)[O-]
REMARK SMILES IDX 6 1 7 2 8 3 9 4 10 5 11 6 5 7 4 8 3 9 2 10 1 11
REMARK H PARENT
REMARK Flexibility Score: inf
ROOT
ATOM      1  C   UNL     1       6.124 -35.377  22.090  1.00  0.00     0.000 C 
ENDROOT
BRANCH   1   2
ATOM      2  C   UNL     1       5.375 -36.644  21.632  1.00  0.00     0.006 C 
BRANCH   2   3
ATOM      3  C   UNL     1       5.533 -36.960  20.133  1.00  0.00     0.053 C 
BRANCH   3   4
ATOM      4  C   UNL     1       4.675 -36.089  19.265  1.00  0.00     0.041 C 
ATOM      5  O   UNL     1       3.653 -36.563  18.702  1.00  0.00    -0.550 OA
ATOM      6  O   UNL     1       4.981 -34.743  19.112  1.00  0.00    -0.550 OA
ENDBRANCH   3   4
ENDBRANCH   2   3
ENDBRANCH   1   2
BRANCH   1   7
ATOM      7  C   UNL     1       5.343 -34.465  23.051  1.00  0.00     0.000 C 
BRANCH   7   8
ATOM      8  C   UNL     1       5.732 -34.670  24.522  1.00  0.00    -0.000 C 
BRANCH   8   9
ATOM      9  C   UNL     1       6.125 -36.128  24.787  1.00  0.00    -0.000 C 
BRANCH   9  10
ATOM     10  C   UNL     1       5.104 -36.816  25.701  1.00  0.00    -0.003 C 
ATOM     11  C   UNL     1       5.796 -37.711  26.724  1.00  0.00     0.004 C 
ENDBRANCH   9  10
ENDBRANCH   8   9
ENDBRANCH   7   8
ENDBRANCH   1   7
TORSDOF 7
ENDMDL
