MODEL 1
REMARK VINA RESULT:    -3.900      0.000      0.000
REMARK INTER + INTRA:          -5.233
REMARK INTER:                  -5.039
REMARK INTRA:                  -0.193
REMARK UNBOUND:                -0.193
REMARK SMILES CCCCCCC(=O)[O-]
REMARK SMILES IDX 5 1 6 2 7 3 8 4 9 5 4 6 3 7 2 8 1 9
REMARK H PARENT
REMARK Flexibility Score: inf
ROOT
ATOM      1  C   UNL     1      37.273  23.302 223.848  1.00  0.00     0.006 C 
ENDROOT
BRANCH   1   2
ATOM      2  C   UNL     1      36.729  23.795 225.196  1.00  0.00     0.053 C 
BRANCH   2   3
ATOM      3  C   UNL     1      36.323  25.237 225.139  1.00  0.00     0.041 C 
ATOM      4  O   UNL     1      37.121  26.103 224.694  1.00  0.00    -0.550 OA
ATOM      5  O   UNL     1      35.052  25.617 225.549  1.00  0.00    -0.550 OA
ENDBRANCH   2   3
ENDBRANCH   1   2
BRANCH   1   6
ATOM      6  C   UNL     1      36.192  23.298 222.753  1.00  0.00     0.000 C 
BRANCH   6   7
ATOM      7  C   UNL     1      36.545  24.216 221.572  1.00  0.00    -0.000 C 
BRANCH   7   8
ATOM      8  C   UNL     1      37.035  23.436 220.343  1.00  0.00    -0.003 C 
ATOM      9  C   UNL     1      36.347  23.927 219.072  1.00  0.00     0.004 C 
ENDBRANCH   7   8
ENDBRANCH   6   7
ENDBRANCH   1   6
TORSDOF 5
ENDMDL
MODEL 2
REMARK VINA RESULT:    -3.678      2.671      3.863
REMARK INTER + INTRA:          -4.946
REMARK INTER:                  -4.706
REMARK INTRA:                  -0.240
REMARK UNBOUND:                -0.193
REMARK SMILES CCCCCCC(=O)[O-]
REMARK SMILES IDX 5 1 6 2 7 3 8 4 9 5 4 6 3 7 2 8 1 9
REMARK H PARENT
REMARK Flexibility Score: inf
ROOT
ATOM      1  C   UNL     1      38.337  25.996 224.510  1.00  0.00     0.006 C 
ENDROOT
BRANCH   1   2
ATOM      2  C   UNL     1      37.114  25.436 223.771  1.00  0.00     0.053 C 
BRANCH   2   3
ATOM      3  C   UNL     1      36.139  24.797 224.712  1.00  0.00     0.041 C 
ATOM      4  O   UNL     1      36.181  23.557 224.925  1.00  0.00    -0.550 OA
ATOM      5  O   UNL     1      35.202  25.579 225.377  1.00  0.00    -0.550 OA
ENDBRANCH   2   3
ENDBRANCH   1   2
BRANCH   1   6
ATOM      6  C   UNL     1      39.480  24.970 224.601  1.00  0.00     0.000 C 
BRANCH   6   7
ATOM      7  C   UNL     1      39.626  24.134 223.319  1.00  0.00    -0.000 C 
BRANCH   7   8
ATOM      8  C   UNL     1      40.983  23.422 223.228  1.00  0.00    -0.003 C 
ATOM      9  C   UNL     1      41.798  23.630 224.501  1.00  0.00     0.004 C 
ENDBRANCH   7   8
ENDBRANCH   6   7
ENDBRANCH   1   6
TORSDOF 5
ENDMDL
MODEL 3
REMARK VINA RESULT:    -3.604      3.257      5.103
REMARK INTER + INTRA:          -4.851
REMARK INTER:                  -4.655
REMARK INTRA:                  -0.196
REMARK UNBOUND:                -0.193
REMARK SMILES CCCCCCC(=O)[O-]
REMARK SMILES IDX 5 1 6 2 7 3 8 4 9 5 4 6 3 7 2 8 1 9
REMARK H PARENT
REMARK Flexibility Score: inf
ROOT
ATOM      1  C   UNL     1      38.655  25.321 224.195  1.00  0.00     0.006 C 
ENDROOT
BRANCH   1   2
ATOM      2  C   UNL     1      37.189  25.476 223.769  1.00  0.00     0.053 C 
BRANCH   2   3
ATOM      3  C   UNL     1      36.246  25.025 224.842  1.00  0.00     0.041 C 
ATOM      4  O   UNL     1      36.183  23.810 225.162  1.00  0.00    -0.550 OA
ATOM      5  O   UNL     1      35.459  25.955 225.510  1.00  0.00    -0.550 OA
ENDBRANCH   2   3
ENDBRANCH   1   2
BRANCH   1   6
ATOM      6  C   UNL     1      39.000  26.194 225.415  1.00  0.00     0.000 C 
BRANCH   6   7
ATOM      7  C   UNL     1      40.348  25.815 226.049  1.00  0.00    -0.000 C 
BRANCH   7   8
ATOM      8  C   UNL     1      41.204  27.042 226.396  1.00  0.00    -0.003 C 
ATOM      9  C   UNL     1      40.362  28.315 226.396  1.00  0.00     0.004 C 
ENDBRANCH   7   8
ENDBRANCH   6   7
ENDBRANCH   1   6
TORSDOF 5
ENDMDL
MODEL 4
REMARK VINA RESULT:    -3.523      1.739      1.956
REMARK INTER + INTRA:          -4.746
REMARK INTER:                  -4.528
REMARK INTRA:                  -0.218
REMARK UNBOUND:                -0.193
REMARK SMILES CCCCCCC(=O)[O-]
REMARK SMILES IDX 5 1 6 2 7 3 8 4 9 5 4 6 3 7 2 8 1 9
REMARK H PARENT
REMARK Flexibility Score: inf
ROOT
ATOM      1  C   UNL     1      37.072  24.186 223.433  1.00  0.00     0.006 C 
ENDROOT
BRANCH   1   2
ATOM      2  C   UNL     1      37.647  23.096 224.347  1.00  0.00     0.053 C 
BRANCH   2   3
ATOM      3  C   UNL     1      36.955  23.060 225.675  1.00  0.00     0.041 C 
ATOM      4  O   UNL     1      36.744  24.126 226.310  1.00  0.00    -0.550 OA
ATOM      5  O   UNL     1      36.517  21.849 226.198  1.00  0.00    -0.550 OA
ENDBRANCH   2   3
ENDBRANCH   1   2
BRANCH   1   6
ATOM      6  C   UNL     1      35.660  23.837 222.932  1.00  0.00     0.000 C 
BRANCH   6   7
ATOM      7  C   UNL     1      35.580  23.760 221.399  1.00  0.00    -0.000 C 
BRANCH   7   8
ATOM      8  C   UNL     1      36.963  23.666 220.738  1.00  0.00    -0.003 C 
ATOM      9  C   UNL     1      36.839  23.399 219.241  1.00  0.00     0.004 C 
ENDBRANCH   7   8
ENDBRANCH   6   7
ENDBRANCH   1   6
TORSDOF 5
ENDMDL
MODEL 5
REMARK VINA RESULT:    -3.517      2.984      4.549
REMARK INTER + INTRA:          -4.738
REMARK INTER:                  -4.495
REMARK INTRA:                  -0.243
REMARK UNBOUND:                -0.193
REMARK SMILES CCCCCCC(=O)[O-]
REMARK SMILES IDX 5 1 6 2 7 3 8 4 9 5 4 6 3 7 2 8 1 9
REMARK H PARENT
REMARK Flexibility Score: inf
ROOT
ATOM      1  C   UNL     1      38.583  25.264 224.109  1.00  0.00     0.006 C 
ENDROOT
BRANCH   1   2
ATOM      2  C   UNL     1      37.102  25.435 223.746  1.00  0.00     0.053 C 
BRANCH   2   3
ATOM      3  C   UNL     1      36.202  25.012 224.866  1.00  0.00     0.041 C 
ATOM      4  O   UNL     1      36.185  23.813 225.249  1.00  0.00    -0.550 OA
ATOM      5  O   UNL     1      35.403  25.951 225.508  1.00  0.00    -0.550 OA
ENDBRANCH   2   3
ENDBRANCH   1   2
BRANCH   1   6
ATOM      6  C   UNL     1      38.998  26.162 225.288  1.00  0.00     0.000 C 
BRANCH   6   7
ATOM      7  C   UNL     1      40.335  25.734 225.914  1.00  0.00    -0.000 C 
BRANCH   7   8
ATOM      8  C   UNL     1      40.726  24.295 225.547  1.00  0.00    -0.003 C 
ATOM      9  C   UNL     1      42.161  24.232 225.030  1.00  0.00     0.004 C 
ENDBRANCH   7   8
ENDBRANCH   6   7
ENDBRANCH   1   6
TORSDOF 5
ENDMDL
MODEL 6
REMARK VINA RESULT:    -3.485      2.245      3.051
REMARK INTER + INTRA:          -4.698
REMARK INTER:                  -4.474
REMARK INTRA:                  -0.224
REMARK UNBOUND:                -0.193
REMARK SMILES CCCCCCC(=O)[O-]
REMARK SMILES IDX 5 1 6 2 7 3 8 4 9 5 4 6 3 7 2 8 1 9
REMARK H PARENT
REMARK Flexibility Score: inf
ROOT
ATOM      1  C   UNL     1      37.082  22.995 224.366  1.00  0.00     0.006 C 
ENDROOT
BRANCH   1   2
ATOM      2  C   UNL     1      36.879  23.969 225.534  1.00  0.00     0.053 C 
BRANCH   2   3
ATOM      3  C   UNL     1      36.278  25.265 225.081  1.00  0.00     0.041 C 
ATOM      4  O   UNL     1      36.864  25.968 224.216  1.00  0.00    -0.550 OA
ATOM      5  O   UNL     1      35.056  25.681 225.593  1.00  0.00    -0.550 OA
ENDBRANCH   2   3
ENDBRANCH   1   2
BRANCH   1   6
ATOM      6  C   UNL     1      38.571  22.738 224.078  1.00  0.00     0.000 C 
BRANCH   6   7
ATOM      7  C   UNL     1      39.079  23.516 222.854  1.00  0.00    -0.000 C 
BRANCH   7   8
ATOM      8  C   UNL     1      40.540  23.966 223.002  1.00  0.00    -0.003 C 
ATOM      9  C   UNL     1      41.405  22.844 223.569  1.00  0.00     0.004 C 
ENDBRANCH   7   8
ENDBRANCH   6   7
ENDBRANCH   1   6
TORSDOF 5
ENDMDL
MODEL 7
REMARK VINA RESULT:    -3.465      2.857      3.757
REMARK INTER + INTRA:          -4.671
REMARK INTER:                  -4.552
REMARK INTRA:                  -0.118
REMARK UNBOUND:                -0.193
REMARK SMILES CCCCCCC(=O)[O-]
REMARK SMILES IDX 5 1 6 2 7 3 8 4 9 5 4 6 3 7 2 8 1 9
REMARK H PARENT
REMARK Flexibility Score: inf
ROOT
ATOM      1  C   UNL     1      38.867  25.021 224.257  1.00  0.00     0.006 C 
ENDROOT
BRANCH   1   2
ATOM      2  C   UNL     1      37.446  25.417 223.832  1.00  0.00     0.053 C 
BRANCH   2   3
ATOM      3  C   UNL     1      36.435  25.078 224.885  1.00  0.00     0.041 C 
ATOM      4  O   UNL     1      35.774  25.990 225.447  1.00  0.00    -0.550 OA
ATOM      5  O   UNL     1      36.203  23.751 225.223  1.00  0.00    -0.550 OA
ENDBRANCH   2   3
ENDBRANCH   1   2
BRANCH   1   6
ATOM      6  C   UNL     1      39.386  23.800 223.477  1.00  0.00     0.000 C 
BRANCH   6   7
ATOM      7  C   UNL     1      40.903  23.853 223.239  1.00  0.00    -0.000 C 
BRANCH   7   8
ATOM      8  C   UNL     1      41.611  22.550 223.640  1.00  0.00    -0.003 C 
ATOM      9  C   UNL     1      41.280  21.424 222.664  1.00  0.00     0.004 C 
ENDBRANCH   7   8
ENDBRANCH   6   7
ENDBRANCH   1   6
TORSDOF 5
ENDMDL
MODEL 8
REMARK VINA RESULT:    -3.439      2.641      4.196
REMARK INTER + INTRA:          -4.638
REMARK INTER:                  -4.444
REMARK INTRA:                  -0.194
REMARK UNBOUND:                -0.193
REMARK SMILES CCCCCCC(=O)[O-]
REMARK SMILES IDX 5 1 6 2 7 3 8 4 9 5 4 6 3 7 2 8 1 9
REMARK H PARENT
REMARK Flexibility Score: inf
ROOT
ATOM      1  C   UNL     1      37.185  23.052 224.463  1.00  0.00     0.006 C 
ENDROOT
BRANCH   1   2
ATOM      2  C   UNL     1      36.886  24.017 225.618  1.00  0.00     0.053 C 
BRANCH   2   3
ATOM      3  C   UNL     1      36.266  25.291 225.133  1.00  0.00     0.041 C 
ATOM      4  O   UNL     1      36.849  25.989 224.262  1.00  0.00    -0.550 OA
ATOM      5  O   UNL     1      35.029  25.693 225.622  1.00  0.00    -0.550 OA
ENDBRANCH   2   3
ENDBRANCH   1   2
BRANCH   1   6
ATOM      6  C   UNL     1      37.022  21.580 224.881  1.00  0.00     0.000 C 
BRANCH   6   7
ATOM      7  C   UNL     1      36.917  21.407 226.405  1.00  0.00    -0.000 C 
BRANCH   7   8
ATOM      8  C   UNL     1      36.282  20.067 226.807  1.00  0.00    -0.003 C 
ATOM      9  C   UNL     1      35.840  19.279 225.577  1.00  0.00     0.004 C 
ENDBRANCH   7   8
ENDBRANCH   6   7
ENDBRANCH   1   6
TORSDOF 5
ENDMDL
MODEL 9
REMARK VINA RESULT:    -3.432      2.859      3.724
REMARK INTER + INTRA:          -4.629
REMARK INTER:                  -4.221
REMARK INTRA:                  -0.407
REMARK UNBOUND:                -0.193
REMARK SMILES CCCCCCC(=O)[O-]
REMARK SMILES IDX 5 1 6 2 7 3 8 4 9 5 4 6 3 7 2 8 1 9
REMARK H PARENT
REMARK Flexibility Score: inf
ROOT
ATOM      1  C   UNL     1      38.073  23.530 225.488  1.00  0.00     0.006 C 
ENDROOT
BRANCH   1   2
ATOM      2  C   UNL     1      38.082  22.200 226.253  1.00  0.00     0.053 C 
BRANCH   2   3
ATOM      3  C   UNL     1      36.810  21.434 226.053  1.00  0.00     0.041 C 
ATOM      4  O   UNL     1      36.112  21.093 227.043  1.00  0.00    -0.550 OA
ATOM      5  O   UNL     1      36.381  21.123 224.769  1.00  0.00    -0.550 OA
ENDBRANCH   2   3
ENDBRANCH   1   2
BRANCH   1   6
ATOM      6  C   UNL     1      36.920  24.447 225.932  1.00  0.00     0.000 C 
BRANCH   6   7
ATOM      7  C   UNL     1      36.083  24.957 224.748  1.00  0.00    -0.000 C 
BRANCH   7   8
ATOM      8  C   UNL     1      36.671  24.552 223.388  1.00  0.00    -0.003 C 
ATOM      9  C   UNL     1      35.662  23.749 222.572  1.00  0.00     0.004 C 
ENDBRANCH   7   8
ENDBRANCH   6   7
ENDBRANCH   1   6
TORSDOF 5
ENDMDL
