MODEL 1
REMARK VINA RESULT:    -5.028      0.000      0.000
REMARK INTER + INTRA:         -11.110
REMARK INTER:                  -9.144
REMARK INTRA:                  -1.966
REMARK UNBOUND:                -1.966
REMARK SMILES CCCCCCCCCCCCCCCC(=O)[O-]
REMARK SMILES IDX 9 1 10 2 11 3 12 4 13 5 14 6 15 7 16 8 17 9 18 10 8 11 7 12
REMARK SMILES IDX 6 13 5 14 4 15 3 16 2 17 1 18
REMARK H PARENT
REMARK Flexibility Score: inf
ROOT
ATOM      1  C   UNL     1      35.137   5.505   8.517  1.00  0.00     0.000 C 
ENDROOT
BRANCH   1   2
ATOM      2  C   UNL     1      33.987   4.603   8.031  1.00  0.00     0.000 C 
BRANCH   2   3
ATOM      3  C   UNL     1      32.860   4.464   9.069  1.00  0.00     0.000 C 
BRANCH   3   4
ATOM      4  C   UNL     1      32.775   3.048   9.665  1.00  0.00     0.000 C 
BRANCH   4   5
ATOM      5  C   UNL     1      33.164   3.012  11.153  1.00  0.00     0.000 C 
BRANCH   5   6
ATOM      6  C   UNL     1      33.130   4.407  11.810  1.00  0.00     0.006 C 
BRANCH   6   7
ATOM      7  C   UNL     1      32.741   4.382  13.298  1.00  0.00     0.053 C 
BRANCH   7   8
ATOM      8  C   UNL     1      33.886   4.006  14.186  1.00  0.00     0.041 C 
ATOM      9  O   UNL     1      34.762   4.859  14.487  1.00  0.00    -0.550 OA
ATOM     10  O   UNL     1      33.985   2.712  14.683  1.00  0.00    -0.550 OA
ENDBRANCH   7   8
ENDBRANCH   6   7
ENDBRANCH   5   6
ENDBRANCH   4   5
ENDBRANCH   3   4
ENDBRANCH   2   3
ENDBRANCH   1   2
BRANCH   1  11
ATOM     11  C   UNL     1      36.048   4.873   9.586  1.00  0.00     0.000 C 
BRANCH  11  12
ATOM     12  C   UNL     1      36.923   5.871  10.368  1.00  0.00    -0.000 C 
BRANCH  12  13
ATOM     13  C   UNL     1      36.241   6.438  11.632  1.00  0.00    -0.000 C 
BRANCH  13  14
ATOM     14  C   UNL     1      35.511   7.764  11.357  1.00  0.00    -0.000 C 
BRANCH  14  15
ATOM     15  C   UNL     1      34.242   7.928  12.209  1.00  0.00    -0.000 C 
BRANCH  15  16
ATOM     16  C   UNL     1      32.970   8.032  11.350  1.00  0.00    -0.000 C 
BRANCH  16  17
ATOM     17  C   UNL     1      31.719   8.352  12.184  1.00  0.00    -0.003 C 
ATOM     18  C   UNL     1      31.363   9.838  12.175  1.00  0.00     0.004 C 
ENDBRANCH  16  17
ENDBRANCH  15  16
ENDBRANCH  14  15
ENDBRANCH  13  14
ENDBRANCH  12  13
ENDBRANCH  11  12
ENDBRANCH   1  11
TORSDOF 14
ENDMDL
MODEL 2
REMARK VINA RESULT:    -4.973      2.715      5.183
REMARK INTER + INTRA:         -11.009
REMARK INTER:                  -9.012
REMARK INTRA:                  -1.997
REMARK UNBOUND:                -1.966
REMARK SMILES CCCCCCCCCCCCCCCC(=O)[O-]
REMARK SMILES IDX 9 1 10 2 11 3 12 4 13 5 14 6 15 7 16 8 17 9 18 10 8 11 7 12
REMARK SMILES IDX 6 13 5 14 4 15 3 16 2 17 1 18
REMARK H PARENT
REMARK Flexibility Score: inf
ROOT
ATOM      1  C   UNL     1      31.889   7.238  12.465  1.00  0.00     0.000 C 
ENDROOT
BRANCH   1   2
ATOM      2  C   UNL     1      31.505   5.768  12.211  1.00  0.00     0.000 C 
BRANCH   2   3
ATOM      3  C   UNL     1      32.144   4.802  13.223  1.00  0.00     0.000 C 
BRANCH   3   4
ATOM      4  C   UNL     1      33.358   4.055  12.643  1.00  0.00     0.000 C 
BRANCH   4   5
ATOM      5  C   UNL     1      33.055   3.408  11.281  1.00  0.00     0.000 C 
BRANCH   5   6
ATOM      6  C   UNL     1      33.961   3.942  10.154  1.00  0.00     0.006 C 
BRANCH   6   7
ATOM      7  C   UNL     1      33.254   4.922   9.202  1.00  0.00     0.053 C 
BRANCH   7   8
ATOM      8  C   UNL     1      34.208   5.617   8.280  1.00  0.00     0.041 C 
ATOM      9  O   UNL     1      34.024   6.825   7.971  1.00  0.00    -0.550 OA
ATOM     10  O   UNL     1      35.300   4.933   7.764  1.00  0.00    -0.550 OA
ENDBRANCH   7   8
ENDBRANCH   6   7
ENDBRANCH   5   6
ENDBRANCH   4   5
ENDBRANCH   3   4
ENDBRANCH   2   3
ENDBRANCH   1   2
BRANCH   1  11
ATOM     11  C   UNL     1      32.929   7.813  11.486  1.00  0.00     0.000 C 
BRANCH  11  12
ATOM     12  C   UNL     1      34.317   8.088  12.098  1.00  0.00    -0.000 C 
BRANCH  12  13
ATOM     13  C   UNL     1      35.491   7.670  11.187  1.00  0.00    -0.000 C 
BRANCH  13  14
ATOM     14  C   UNL     1      36.080   6.304  11.582  1.00  0.00    -0.000 C 
BRANCH  14  15
ATOM     15  C   UNL     1      37.210   5.854  10.642  1.00  0.00    -0.000 C 
BRANCH  15  16
ATOM     16  C   UNL     1      38.386   6.846  10.623  1.00  0.00    -0.000 C 
BRANCH  16  17
ATOM     17  C   UNL     1      39.151   6.880  11.955  1.00  0.00    -0.003 C 
ATOM     18  C   UNL     1      40.668   6.885  11.769  1.00  0.00     0.004 C 
ENDBRANCH  16  17
ENDBRANCH  15  16
ENDBRANCH  14  15
ENDBRANCH  13  14
ENDBRANCH  12  13
ENDBRANCH  11  12
ENDBRANCH   1  11
TORSDOF 14
ENDMDL
MODEL 3
REMARK VINA RESULT:    -4.941      2.601      4.251
REMARK INTER + INTRA:         -10.951
REMARK INTER:                  -9.143
REMARK INTRA:                  -1.808
REMARK UNBOUND:                -1.966
REMARK SMILES CCCCCCCCCCCCCCCC(=O)[O-]
REMARK SMILES IDX 9 1 10 2 11 3 12 4 13 5 14 6 15 7 16 8 17 9 18 10 8 11 7 12
REMARK SMILES IDX 6 13 5 14 4 15 3 16 2 17 1 18
REMARK H PARENT
REMARK Flexibility Score: inf
ROOT
ATOM      1  C   UNL     1      34.578   4.853  13.942  1.00  0.00     0.000 C 
ENDROOT
BRANCH   1   2
ATOM      2  C   UNL     1      33.104   4.757  13.507  1.00  0.00     0.000 C 
BRANCH   2   3
ATOM      3  C   UNL     1      32.873   3.702  12.411  1.00  0.00     0.000 C 
BRANCH   3   4
ATOM      4  C   UNL     1      32.769   4.321  11.006  1.00  0.00     0.000 C 
BRANCH   4   5
ATOM      5  C   UNL     1      33.600   3.555   9.963  1.00  0.00     0.000 C 
BRANCH   5   6
ATOM      6  C   UNL     1      34.870   4.319   9.537  1.00  0.00     0.006 C 
BRANCH   6   7
ATOM      7  C   UNL     1      34.878   4.734   8.056  1.00  0.00     0.053 C 
BRANCH   7   8
ATOM      8  C   UNL     1      33.817   5.742   7.736  1.00  0.00     0.041 C 
ATOM      9  O   UNL     1      33.019   5.542   6.782  1.00  0.00    -0.550 OA
ATOM     10  O   UNL     1      33.708   6.902   8.492  1.00  0.00    -0.550 OA
ENDBRANCH   7   8
ENDBRANCH   6   7
ENDBRANCH   5   6
ENDBRANCH   4   5
ENDBRANCH   3   4
ENDBRANCH   2   3
ENDBRANCH   1   2
BRANCH   1  11
ATOM     11  C   UNL     1      35.267   6.187  13.600  1.00  0.00     0.000 C 
BRANCH  11  12
ATOM     12  C   UNL     1      35.600   6.384  12.109  1.00  0.00    -0.000 C 
BRANCH  12  13
ATOM     13  C   UNL     1      35.102   7.727  11.533  1.00  0.00    -0.000 C 
BRANCH  13  14
ATOM     14  C   UNL     1      33.911   8.297  12.323  1.00  0.00    -0.000 C 
BRANCH  14  15
ATOM     15  C   UNL     1      32.556   7.900  11.716  1.00  0.00    -0.000 C 
BRANCH  15  16
ATOM     16  C   UNL     1      31.403   8.779  12.233  1.00  0.00    -0.000 C 
BRANCH  16  17
ATOM     17  C   UNL     1      31.628  10.272  11.952  1.00  0.00    -0.003 C 
ATOM     18  C   UNL     1      30.400  11.128  12.263  1.00  0.00     0.004 C 
ENDBRANCH  16  17
ENDBRANCH  15  16
ENDBRANCH  14  15
ENDBRANCH  13  14
ENDBRANCH  12  13
ENDBRANCH  11  12
ENDBRANCH   1  11
TORSDOF 14
ENDMDL
MODEL 4
REMARK VINA RESULT:    -4.868      1.056      2.054
REMARK INTER + INTRA:         -10.818
REMARK INTER:                  -8.745
REMARK INTRA:                  -2.073
REMARK UNBOUND:                -1.966
REMARK SMILES CCCCCCCCCCCCCCCC(=O)[O-]
REMARK SMILES IDX 9 1 10 2 11 3 12 4 13 5 14 6 15 7 16 8 17 9 18 10 8 11 7 12
REMARK SMILES IDX 6 13 5 14 4 15 3 16 2 17 1 18
REMARK H PARENT
REMARK Flexibility Score: inf
ROOT
ATOM      1  C   UNL     1      36.673   5.718   9.924  1.00  0.00     0.000 C 
ENDROOT
BRANCH   1   2
ATOM      2  C   UNL     1      35.943   4.453   9.437  1.00  0.00     0.000 C 
BRANCH   2   3
ATOM      3  C   UNL     1      35.086   4.705   8.184  1.00  0.00     0.000 C 
BRANCH   3   4
ATOM      4  C   UNL     1      33.616   5.007   8.523  1.00  0.00     0.000 C 
BRANCH   4   5
ATOM      5  C   UNL     1      32.942   3.858   9.293  1.00  0.00     0.000 C 
BRANCH   5   6
ATOM      6  C   UNL     1      32.511   4.268  10.715  1.00  0.00     0.006 C 
BRANCH   6   7
ATOM      7  C   UNL     1      33.447   3.750  11.820  1.00  0.00     0.053 C 
BRANCH   7   8
ATOM      8  C   UNL     1      33.124   4.325  13.164  1.00  0.00     0.041 C 
ATOM      9  O   UNL     1      31.929   4.574  13.477  1.00  0.00    -0.550 OA
ATOM     10  O   UNL     1      34.142   4.587  14.072  1.00  0.00    -0.550 OA
ENDBRANCH   7   8
ENDBRANCH   6   7
ENDBRANCH   5   6
ENDBRANCH   4   5
ENDBRANCH   3   4
ENDBRANCH   2   3
ENDBRANCH   1   2
BRANCH   1  11
ATOM     11  C   UNL     1      36.334   6.147  11.365  1.00  0.00     0.000 C 
BRANCH  11  12
ATOM     12  C   UNL     1      35.666   7.530  11.491  1.00  0.00    -0.000 C 
BRANCH  12  13
ATOM     13  C   UNL     1      34.606   7.810  10.405  1.00  0.00    -0.000 C 
BRANCH  13  14
ATOM     14  C   UNL     1      33.175   7.810  10.970  1.00  0.00    -0.000 C 
BRANCH  14  15
ATOM     15  C   UNL     1      33.145   7.882  12.505  1.00  0.00    -0.000 C 
BRANCH  15  16
ATOM     16  C   UNL     1      31.878   8.576  13.034  1.00  0.00    -0.000 C 
BRANCH  16  17
ATOM     17  C   UNL     1      31.163   9.403  11.954  1.00  0.00    -0.003 C 
ATOM     18  C   UNL     1      31.021  10.878  12.331  1.00  0.00     0.004 C 
ENDBRANCH  16  17
ENDBRANCH  15  16
ENDBRANCH  14  15
ENDBRANCH  13  14
ENDBRANCH  12  13
ENDBRANCH  11  12
ENDBRANCH   1  11
TORSDOF 14
ENDMDL
MODEL 5
REMARK VINA RESULT:    -4.859      1.351      3.082
REMARK INTER + INTRA:         -10.802
REMARK INTER:                  -8.819
REMARK INTRA:                  -1.982
REMARK UNBOUND:                -1.966
REMARK SMILES CCCCCCCCCCCCCCCC(=O)[O-]
REMARK SMILES IDX 9 1 10 2 11 3 12 4 13 5 14 6 15 7 16 8 17 9 18 10 8 11 7 12
REMARK SMILES IDX 6 13 5 14 4 15 3 16 2 17 1 18
REMARK H PARENT
REMARK Flexibility Score: inf
ROOT
ATOM      1  C   UNL     1      34.140   5.670   8.127  1.00  0.00     0.000 C 
ENDROOT
BRANCH   1   2
ATOM      2  C   UNL     1      32.891   4.794   7.912  1.00  0.00     0.000 C 
BRANCH   2   3
ATOM      3  C   UNL     1      32.742   3.697   8.980  1.00  0.00     0.000 C 
BRANCH   3   4
ATOM      4  C   UNL     1      33.993   3.559   9.865  1.00  0.00     0.000 C 
BRANCH   4   5
ATOM      5  C   UNL     1      33.642   3.359  11.350  1.00  0.00     0.000 C 
BRANCH   5   6
ATOM      6  C   UNL     1      32.558   4.338  11.842  1.00  0.00     0.006 C 
BRANCH   6   7
ATOM      7  C   UNL     1      32.480   4.460  13.374  1.00  0.00     0.053 C 
BRANCH   7   8
ATOM      8  C   UNL     1      33.805   4.244  14.036  1.00  0.00     0.041 C 
ATOM      9  O   UNL     1      34.684   5.146  14.003  1.00  0.00    -0.550 OA
ATOM     10  O   UNL     1      34.070   3.048  14.691  1.00  0.00    -0.550 OA
ENDBRANCH   7   8
ENDBRANCH   6   7
ENDBRANCH   5   6
ENDBRANCH   4   5
ENDBRANCH   3   4
ENDBRANCH   2   3
ENDBRANCH   1   2
BRANCH   1  11
ATOM     11  C   UNL     1      33.928   7.173   7.866  1.00  0.00     0.000 C 
BRANCH  11  12
ATOM     12  C   UNL     1      33.785   8.039   9.132  1.00  0.00    -0.000 C 
BRANCH  12  13
ATOM     13  C   UNL     1      33.519   7.224  10.415  1.00  0.00    -0.000 C 
BRANCH  13  14
ATOM     14  C   UNL     1      34.259   7.798  11.637  1.00  0.00    -0.000 C 
BRANCH  14  15
ATOM     15  C   UNL     1      35.787   7.731  11.487  1.00  0.00    -0.000 C 
BRANCH  15  16
ATOM     16  C   UNL     1      36.281   6.311  11.156  1.00  0.00    -0.000 C 
BRANCH  16  17
ATOM     17  C   UNL     1      37.640   6.311  10.439  1.00  0.00    -0.003 C 
ATOM     18  C   UNL     1      38.795   6.721  11.354  1.00  0.00     0.004 C 
ENDBRANCH  16  17
ENDBRANCH  15  16
ENDBRANCH  14  15
ENDBRANCH  13  14
ENDBRANCH  12  13
ENDBRANCH  11  12
ENDBRANCH   1  11
TORSDOF 14
ENDMDL
MODEL 6
REMARK VINA RESULT:    -4.776      3.965      5.515
REMARK INTER + INTRA:         -10.651
REMARK INTER:                  -8.628
REMARK INTRA:                  -2.023
REMARK UNBOUND:                -1.966
REMARK SMILES CCCCCCCCCCCCCCCC(=O)[O-]
REMARK SMILES IDX 9 1 10 2 11 3 12 4 13 5 14 6 15 7 16 8 17 9 18 10 8 11 7 12
REMARK SMILES IDX 6 13 5 14 4 15 3 16 2 17 1 18
REMARK H PARENT
REMARK Flexibility Score: inf
ROOT
ATOM      1  C   UNL     1      36.730   5.632  10.103  1.00  0.00     0.000 C 
ENDROOT
BRANCH   1   2
ATOM      2  C   UNL     1      35.651   4.691   9.536  1.00  0.00     0.000 C 
BRANCH   2   3
ATOM      3  C   UNL     1      35.101   5.163   8.180  1.00  0.00     0.000 C 
BRANCH   3   4
ATOM      4  C   UNL     1      33.572   5.335   8.188  1.00  0.00     0.000 C 
BRANCH   4   5
ATOM      5  C   UNL     1      32.829   3.990   8.250  1.00  0.00     0.000 C 
BRANCH   5   6
ATOM      6  C   UNL     1      32.010   3.703   6.976  1.00  0.00     0.006 C 
BRANCH   6   7
ATOM      7  C   UNL     1      32.139   4.793   5.898  1.00  0.00     0.053 C 
BRANCH   7   8
ATOM      8  C   UNL     1      31.424   4.436   4.632  1.00  0.00     0.041 C 
ATOM      9  O   UNL     1      31.343   5.272   3.693  1.00  0.00    -0.550 OA
ATOM     10  O   UNL     1      30.847   3.181   4.488  1.00  0.00    -0.550 OA
ENDBRANCH   7   8
ENDBRANCH   6   7
ENDBRANCH   5   6
ENDBRANCH   4   5
ENDBRANCH   3   4
ENDBRANCH   2   3
ENDBRANCH   1   2
BRANCH   1  11
ATOM     11  C   UNL     1      36.356   6.319  11.430  1.00  0.00     0.000 C 
BRANCH  11  12
ATOM     12  C   UNL     1      35.747   7.727  11.285  1.00  0.00    -0.000 C 
BRANCH  12  13
ATOM     13  C   UNL     1      34.415   7.910  12.043  1.00  0.00    -0.000 C 
BRANCH  13  14
ATOM     14  C   UNL     1      33.217   7.332  11.270  1.00  0.00    -0.000 C 
BRANCH  14  15
ATOM     15  C   UNL     1      32.229   6.588  12.182  1.00  0.00    -0.000 C 
BRANCH  15  16
ATOM     16  C   UNL     1      32.051   5.115  11.773  1.00  0.00    -0.000 C 
BRANCH  16  17
ATOM     17  C   UNL     1      33.245   4.240  12.184  1.00  0.00    -0.003 C 
ATOM     18  C   UNL     1      33.698   4.489  13.622  1.00  0.00     0.004 C 
ENDBRANCH  16  17
ENDBRANCH  15  16
ENDBRANCH  14  15
ENDBRANCH  13  14
ENDBRANCH  12  13
ENDBRANCH  11  12
ENDBRANCH   1  11
TORSDOF 14
ENDMDL
MODEL 7
REMARK VINA RESULT:    -4.705      2.779      5.053
REMARK INTER + INTRA:         -10.522
REMARK INTER:                  -8.512
REMARK INTRA:                  -2.010
REMARK UNBOUND:                -1.966
REMARK SMILES CCCCCCCCCCCCCCCC(=O)[O-]
REMARK SMILES IDX 9 1 10 2 11 3 12 4 13 5 14 6 15 7 16 8 17 9 18 10 8 11 7 12
REMARK SMILES IDX 6 13 5 14 4 15 3 16 2 17 1 18
REMARK H PARENT
REMARK Flexibility Score: inf
ROOT
ATOM      1  C   UNL     1      32.003   4.861  13.245  1.00  0.00     0.000 C 
ENDROOT
BRANCH   1   2
ATOM      2  C   UNL     1      33.329   4.090  13.108  1.00  0.00     0.000 C 
BRANCH   2   3
ATOM      3  C   UNL     1      33.177   2.778  12.319  1.00  0.00     0.000 C 
BRANCH   3   4
ATOM      4  C   UNL     1      33.624   2.913  10.853  1.00  0.00     0.000 C 
BRANCH   4   5
ATOM      5  C   UNL     1      32.494   2.589   9.861  1.00  0.00     0.000 C 
BRANCH   5   6
ATOM      6  C   UNL     1      32.534   3.480   8.603  1.00  0.00     0.006 C 
BRANCH   6   7
ATOM      7  C   UNL     1      33.447   4.710   8.742  1.00  0.00     0.053 C 
BRANCH   7   8
ATOM      8  C   UNL     1      33.383   5.611   7.549  1.00  0.00     0.041 C 
ATOM      9  O   UNL     1      33.738   6.816   7.645  1.00  0.00    -0.550 OA
ATOM     10  O   UNL     1      32.934   5.122   6.329  1.00  0.00    -0.550 OA
ENDBRANCH   7   8
ENDBRANCH   6   7
ENDBRANCH   5   6
ENDBRANCH   4   5
ENDBRANCH   3   4
ENDBRANCH   2   3
ENDBRANCH   1   2
BRANCH   1  11
ATOM     11  C   UNL     1      31.718   5.864  12.111  1.00  0.00     0.000 C 
BRANCH  11  12
ATOM     12  C   UNL     1      31.873   7.346  12.500  1.00  0.00    -0.000 C 
BRANCH  12  13
ATOM     13  C   UNL     1      32.654   8.182  11.462  1.00  0.00    -0.000 C 
BRANCH  13  14
ATOM     14  C   UNL     1      33.991   7.529  11.071  1.00  0.00    -0.000 C 
BRANCH  14  15
ATOM     15  C   UNL     1      34.940   7.363  12.269  1.00  0.00    -0.000 C 
BRANCH  15  16
ATOM     16  C   UNL     1      36.023   6.300  12.015  1.00  0.00    -0.000 C 
BRANCH  16  17
ATOM     17  C   UNL     1      36.385   6.171  10.527  1.00  0.00    -0.003 C 
ATOM     18  C   UNL     1      37.785   6.698  10.209  1.00  0.00     0.004 C 
ENDBRANCH  16  17
ENDBRANCH  15  16
ENDBRANCH  14  15
ENDBRANCH  13  14
ENDBRANCH  12  13
ENDBRANCH  11  12
ENDBRANCH   1  11
TORSDOF 14
ENDMDL
MODEL 8
REMARK VINA RESULT:    -4.699      3.556      4.944
REMARK INTER + INTRA:         -10.510
REMARK INTER:                  -8.663
REMARK INTRA:                  -1.848
REMARK UNBOUND:                -1.966
REMARK SMILES CCCCCCCCCCCCCCCC(=O)[O-]
REMARK SMILES IDX 9 1 10 2 11 3 12 4 13 5 14 6 15 7 16 8 17 9 18 10 8 11 7 12
REMARK SMILES IDX 6 13 5 14 4 15 3 16 2 17 1 18
REMARK H PARENT
REMARK Flexibility Score: inf
ROOT
ATOM      1  C   UNL     1      33.061   4.474  12.559  1.00  0.00     0.000 C 
ENDROOT
BRANCH   1   2
ATOM      2  C   UNL     1      33.244   3.101  11.886  1.00  0.00     0.000 C 
BRANCH   2   3
ATOM      3  C   UNL     1      33.474   3.207  10.369  1.00  0.00     0.000 C 
BRANCH   3   4
ATOM      4  C   UNL     1      32.753   4.413   9.743  1.00  0.00     0.000 C 
BRANCH   4   5
ATOM      5  C   UNL     1      33.689   5.273   8.876  1.00  0.00     0.000 C 
BRANCH   5   6
ATOM      6  C   UNL     1      33.451   5.073   7.366  1.00  0.00     0.006 C 
BRANCH   6   7
ATOM      7  C   UNL     1      32.189   4.257   7.039  1.00  0.00     0.053 C 
BRANCH   7   8
ATOM      8  C   UNL     1      31.887   4.226   5.573  1.00  0.00     0.041 C 
ATOM      9  O   UNL     1      31.664   3.129   4.995  1.00  0.00    -0.550 OA
ATOM     10  O   UNL     1      31.850   5.408   4.845  1.00  0.00    -0.550 OA
ENDBRANCH   7   8
ENDBRANCH   6   7
ENDBRANCH   5   6
ENDBRANCH   4   5
ENDBRANCH   3   4
ENDBRANCH   2   3
ENDBRANCH   1   2
BRANCH   1  11
ATOM     11  C   UNL     1      34.048   4.768  13.705  1.00  0.00     0.000 C 
BRANCH  11  12
ATOM     12  C   UNL     1      35.014   5.940  13.447  1.00  0.00    -0.000 C 
BRANCH  12  13
ATOM     13  C   UNL     1      35.535   6.008  11.995  1.00  0.00    -0.000 C 
BRANCH  13  14
ATOM     14  C   UNL     1      35.447   7.427  11.407  1.00  0.00    -0.000 C 
BRANCH  14  15
ATOM     15  C   UNL     1      34.299   8.248  12.015  1.00  0.00    -0.000 C 
BRANCH  15  16
ATOM     16  C   UNL     1      32.962   8.008  11.293  1.00  0.00    -0.000 C 
BRANCH  16  17
ATOM     17  C   UNL     1      31.747   8.285  12.193  1.00  0.00    -0.003 C 
ATOM     18  C   UNL     1      31.381   9.768  12.258  1.00  0.00     0.004 C 
ENDBRANCH  16  17
ENDBRANCH  15  16
ENDBRANCH  14  15
ENDBRANCH  13  14
ENDBRANCH  12  13
ENDBRANCH  11  12
ENDBRANCH   1  11
TORSDOF 14
ENDMDL
MODEL 9
REMARK VINA RESULT:    -4.655      2.177      5.237
REMARK INTER + INTRA:         -10.432
REMARK INTER:                  -8.552
REMARK INTRA:                  -1.880
REMARK UNBOUND:                -1.966
REMARK SMILES CCCCCCCCCCCCCCCC(=O)[O-]
REMARK SMILES IDX 9 1 10 2 11 3 12 4 13 5 14 6 15 7 16 8 17 9 18 10 8 11 7 12
REMARK SMILES IDX 6 13 5 14 4 15 3 16 2 17 1 18
REMARK H PARENT
REMARK Flexibility Score: inf
ROOT
ATOM      1  C   UNL     1      33.228   2.582  12.483  1.00  0.00     0.000 C 
ENDROOT
BRANCH   1   2
ATOM      2  C   UNL     1      32.908   3.949  13.115  1.00  0.00     0.000 C 
BRANCH   2   3
ATOM      3  C   UNL     1      34.026   4.454  14.042  1.00  0.00     0.000 C 
BRANCH   3   4
ATOM      4  C   UNL     1      34.779   5.662  13.459  1.00  0.00     0.000 C 
BRANCH   4   5
ATOM      5  C   UNL     1      34.131   6.191  12.168  1.00  0.00     0.000 C 
BRANCH   5   6
ATOM      6  C   UNL     1      34.160   7.730  12.075  1.00  0.00     0.006 C 
BRANCH   6   7
ATOM      7  C   UNL     1      32.931   8.333  11.373  1.00  0.00     0.053 C 
BRANCH   7   8
ATOM      8  C   UNL     1      32.046   9.091  12.313  1.00  0.00     0.041 C 
ATOM      9  O   UNL     1      31.837   8.656  13.477  1.00  0.00    -0.550 OA
ATOM     10  O   UNL     1      31.453  10.278  11.905  1.00  0.00    -0.550 OA
ENDBRANCH   7   8
ENDBRANCH   6   7
ENDBRANCH   5   6
ENDBRANCH   4   5
ENDBRANCH   3   4
ENDBRANCH   2   3
ENDBRANCH   1   2
BRANCH   1  11
ATOM     11  C   UNL     1      33.608   2.632  10.991  1.00  0.00     0.000 C 
BRANCH  11  12
ATOM     12  C   UNL     1      32.522   3.208  10.062  1.00  0.00    -0.000 C 
BRANCH  12  13
ATOM     13  C   UNL     1      32.931   4.527   9.371  1.00  0.00    -0.000 C 
BRANCH  13  14
ATOM     14  C   UNL     1      34.151   4.352   8.450  1.00  0.00    -0.000 C 
BRANCH  14  15
ATOM     15  C   UNL     1      35.130   5.534   8.535  1.00  0.00    -0.000 C 
BRANCH  15  16
ATOM     16  C   UNL     1      36.196   5.334   9.626  1.00  0.00    -0.000 C 
BRANCH  16  17
ATOM     17  C   UNL     1      36.971   6.624   9.938  1.00  0.00    -0.003 C 
ATOM     18  C   UNL     1      38.055   6.425  10.998  1.00  0.00     0.004 C 
ENDBRANCH  16  17
ENDBRANCH  15  16
ENDBRANCH  14  15
ENDBRANCH  13  14
ENDBRANCH  12  13
ENDBRANCH  11  12
ENDBRANCH   1  11
TORSDOF 14
ENDMDL
