MODEL 1
REMARK VINA RESULT:    -7.282      0.000      0.000
REMARK INTER + INTRA:          -7.282
REMARK INTER:                  -7.282
REMARK INTRA:                   0.000
REMARK UNBOUND:                 0.000
REMARK SMILES C[NH+]1CCN(C2=[NH+]c3ccccc3Oc3ccc(Cl)cc32)CC1
REMARK SMILES IDX 7 1 6 2 21 3 5 4 8 5 9 6 13 7 10 8 12 9 14 10 11 11 15 12
REMARK SMILES IDX 16 13 17 14 18 15 20 16 19 17 4 18 22 19 3 20 23 21 2 22
REMARK SMILES IDX 1 23
REMARK H PARENT 7 24 2 25
REMARK Flexibility Score: inf
ROOT
ATOM      1  N   UNL     1     138.858 135.571 156.000  1.00  0.00    -0.237 N 
ATOM      2  C   UNL     1     139.763 134.688 155.671  1.00  0.00     0.286 C 
ATOM      3  C   UNL     1     140.651 134.823 154.485  1.00  0.00     0.108 A 
ATOM      4  N   UNL     1     139.888 133.506 156.484  1.00  0.00    -0.250 N 
ATOM      5  C   UNL     1     138.552 136.806 155.328  1.00  0.00     0.168 A 
ATOM      6  C   UNL     1     137.225 137.270 155.364  1.00  0.00     0.056 A 
ATOM      7  C   UNL     1     139.557 137.652 154.815  1.00  0.00     0.173 A 
ATOM      8  C   UNL     1     136.899 138.542 154.891  1.00  0.00     0.005 A 
ATOM      9  C   UNL     1     139.225 138.941 154.374  1.00  0.00     0.052 A 
ATOM     10  O   UNL     1     140.886 137.253 154.720  1.00  0.00    -0.452 OA
ATOM     11  C   UNL     1     137.901 139.381 154.402  1.00  0.00     0.004 A 
ATOM     12  C   UNL     1     141.255 136.046 154.132  1.00  0.00     0.143 A 
ATOM     13  C   UNL     1     142.251 136.077 153.147  1.00  0.00     0.049 A 
ATOM     14  C   UNL     1     142.609 134.915 152.465  1.00  0.00     0.024 A 
ATOM     15  C   UNL     1     141.981 133.708 152.769  1.00  0.00     0.042 A 
ATOM     16  C   UNL     1     141.012 133.661 153.777  1.00  0.00     0.041 A 
ATOM     17  Cl  UNL     1     142.424 132.245 151.909  1.00  0.00    -0.084 Cl
ATOM     18  C   UNL     1     138.776 132.560 156.590  1.00  0.00     0.298 C 
ATOM     19  C   UNL     1     141.198 133.090 156.990  1.00  0.00     0.298 C 
ATOM     20  C   UNL     1     138.698 132.011 158.018  1.00  0.00     0.308 C 
ATOM     21  C   UNL     1     141.049 132.523 158.406  1.00  0.00     0.308 C 
ATOM     22  N   UNL     1     140.008 131.473 158.448  1.00  0.00    -0.331 N 
ATOM     23  C   UNL     1     139.903 130.920 159.809  1.00  0.00     0.332 C 
ATOM     24  H   UNL     1     138.259 135.352 156.829  1.00  0.00     0.312 HD
ATOM     25  H   UNL     1     140.285 130.691 157.807  1.00  0.00     0.348 HD
ENDROOT
TORSDOF 0
ENDMDL
MODEL 2
REMARK VINA RESULT:    -7.246      4.285      7.997
REMARK INTER + INTRA:          -7.246
REMARK INTER:                  -7.246
REMARK INTRA:                   0.000
REMARK UNBOUND:                 0.000
REMARK SMILES C[NH+]1CCN(C2=[NH+]c3ccccc3Oc3ccc(Cl)cc32)CC1
REMARK SMILES IDX 7 1 6 2 21 3 5 4 8 5 9 6 13 7 10 8 12 9 14 10 11 11 15 12
REMARK SMILES IDX 16 13 17 14 18 15 20 16 19 17 4 18 22 19 3 20 23 21 2 22
REMARK SMILES IDX 1 23
REMARK H PARENT 7 24 2 25
REMARK Flexibility Score: inf
ROOT
ATOM      1  N   UNL     1     139.547 130.102 154.856  1.00  0.00    -0.237 N 
ATOM      2  C   UNL     1     139.372 131.001 155.789  1.00  0.00     0.286 C 
ATOM      3  C   UNL     1     139.112 130.666 157.215  1.00  0.00     0.108 A 
ATOM      4  N   UNL     1     139.404 132.391 155.410  1.00  0.00    -0.250 N 
ATOM      5  C   UNL     1     139.540 128.672 155.004  1.00  0.00     0.168 A 
ATOM      6  C   UNL     1     139.079 127.895 153.925  1.00  0.00     0.056 A 
ATOM      7  C   UNL     1     140.154 128.025 156.096  1.00  0.00     0.173 A 
ATOM      8  C   UNL     1     139.214 126.506 153.936  1.00  0.00     0.005 A 
ATOM      9  C   UNL     1     140.316 126.633 156.082  1.00  0.00     0.052 A 
ATOM     10  O   UNL     1     140.607 128.722 157.212  1.00  0.00    -0.452 OA
ATOM     11  C   UNL     1     139.840 125.875 155.011  1.00  0.00     0.004 A 
ATOM     12  C   UNL     1     139.807 129.640 157.886  1.00  0.00     0.143 A 
ATOM     13  C   UNL     1     139.690 129.508 159.276  1.00  0.00     0.049 A 
ATOM     14  C   UNL     1     138.842 130.347 159.998  1.00  0.00     0.024 A 
ATOM     15  C   UNL     1     138.109 131.332 159.338  1.00  0.00     0.042 A 
ATOM     16  C   UNL     1     138.248 131.495 157.956  1.00  0.00     0.041 A 
ATOM     17  Cl  UNL     1     137.037 132.385 160.242  1.00  0.00    -0.084 Cl
ATOM     18  C   UNL     1     138.405 132.927 154.485  1.00  0.00     0.298 C 
ATOM     19  C   UNL     1     140.248 133.338 156.142  1.00  0.00     0.298 C 
ATOM     20  C   UNL     1     139.061 133.956 153.557  1.00  0.00     0.308 C 
ATOM     21  C   UNL     1     140.848 134.356 155.165  1.00  0.00     0.308 C 
ATOM     22  N   UNL     1     139.792 134.979 154.337  1.00  0.00    -0.331 N 
ATOM     23  C   UNL     1     140.385 135.976 153.430  1.00  0.00     0.332 C 
ATOM     24  H   UNL     1     139.678 130.451 153.879  1.00  0.00     0.312 HD
ATOM     25  H   UNL     1     139.117 135.481 154.963  1.00  0.00     0.348 HD
ENDROOT
TORSDOF 0
ENDMDL
MODEL 3
REMARK VINA RESULT:    -7.079      5.677      7.837
REMARK INTER + INTRA:          -7.079
REMARK INTER:                  -7.079
REMARK INTRA:                   0.000
REMARK UNBOUND:                 0.000
REMARK SMILES C[NH+]1CCN(C2=[NH+]c3ccccc3Oc3ccc(Cl)cc32)CC1
REMARK SMILES IDX 7 1 6 2 21 3 5 4 8 5 9 6 13 7 10 8 12 9 14 10 11 11 15 12
REMARK SMILES IDX 16 13 17 14 18 15 20 16 19 17 4 18 22 19 3 20 23 21 2 22
REMARK SMILES IDX 1 23
REMARK H PARENT 7 24 2 25
REMARK Flexibility Score: inf
ROOT
ATOM      1  N   UNL     1     137.379 130.142 156.551  1.00  0.00    -0.237 N 
ATOM      2  C   UNL     1     137.410 129.179 155.668  1.00  0.00     0.286 C 
ATOM      3  C   UNL     1     138.618 128.357 155.390  1.00  0.00     0.108 A 
ATOM      4  N   UNL     1     136.218 128.921 154.900  1.00  0.00    -0.250 N 
ATOM      5  C   UNL     1     138.447 130.579 157.410  1.00  0.00     0.168 A 
ATOM      6  C   UNL     1     138.497 131.938 157.769  1.00  0.00     0.056 A 
ATOM      7  C   UNL     1     139.314 129.672 158.053  1.00  0.00     0.173 A 
ATOM      8  C   UNL     1     139.395 132.389 158.737  1.00  0.00     0.005 A 
ATOM      9  C   UNL     1     140.189 130.129 159.049  1.00  0.00     0.052 A 
ATOM     10  O   UNL     1     139.345 128.319 157.731  1.00  0.00    -0.452 OA
ATOM     11  C   UNL     1     140.236 131.484 159.383  1.00  0.00     0.004 A 
ATOM     12  C   UNL     1     139.453 127.874 156.417  1.00  0.00     0.143 A 
ATOM     13  C   UNL     1     140.443 126.926 156.127  1.00  0.00     0.049 A 
ATOM     14  C   UNL     1     140.654 126.500 154.817  1.00  0.00     0.024 A 
ATOM     15  C   UNL     1     139.869 127.010 153.784  1.00  0.00     0.042 A 
ATOM     16  C   UNL     1     138.853 127.928 154.069  1.00  0.00     0.041 A 
ATOM     17  Cl  UNL     1     140.135 126.481 152.133  1.00  0.00    -0.084 Cl
ATOM     18  C   UNL     1     135.682 129.944 154.001  1.00  0.00     0.298 C 
ATOM     19  C   UNL     1     135.687 127.560 154.794  1.00  0.00     0.298 C 
ATOM     20  C   UNL     1     134.151 129.915 154.041  1.00  0.00     0.308 C 
ATOM     21  C   UNL     1     134.155 127.602 154.809  1.00  0.00     0.308 C 
ATOM     22  N   UNL     1     133.642 128.548 153.794  1.00  0.00    -0.331 N 
ATOM     23  C   UNL     1     132.169 128.548 153.803  1.00  0.00     0.332 C 
ATOM     24  H   UNL     1     136.489 130.685 156.632  1.00  0.00     0.312 HD
ATOM     25  H   UNL     1     133.954 128.232 152.843  1.00  0.00     0.348 HD
ENDROOT
TORSDOF 0
ENDMDL
MODEL 4
REMARK VINA RESULT:    -6.881      3.903      6.204
REMARK INTER + INTRA:          -6.881
REMARK INTER:                  -6.881
REMARK INTRA:                   0.000
REMARK UNBOUND:                 0.000
REMARK SMILES C[NH+]1CCN(C2=[NH+]c3ccccc3Oc3ccc(Cl)cc32)CC1
REMARK SMILES IDX 7 1 6 2 21 3 5 4 8 5 9 6 13 7 10 8 12 9 14 10 11 11 15 12
REMARK SMILES IDX 16 13 17 14 18 15 20 16 19 17 4 18 22 19 3 20 23 21 2 22
REMARK SMILES IDX 1 23
REMARK H PARENT 7 24 2 25
REMARK Flexibility Score: inf
ROOT
ATOM      1  N   UNL     1     139.420 131.188 154.253  1.00  0.00    -0.237 N 
ATOM      2  C   UNL     1     138.949 130.757 155.394  1.00  0.00     0.286 C 
ATOM      3  C   UNL     1     139.514 131.143 156.715  1.00  0.00     0.108 A 
ATOM      4  N   UNL     1     137.843 129.834 155.370  1.00  0.00    -0.250 N 
ATOM      5  C   UNL     1     140.518 132.092 154.043  1.00  0.00     0.168 A 
ATOM      6  C   UNL     1     141.294 131.935 152.880  1.00  0.00     0.056 A 
ATOM      7  C   UNL     1     140.716 133.234 154.846  1.00  0.00     0.173 A 
ATOM      8  C   UNL     1     142.254 132.885 152.528  1.00  0.00     0.005 A 
ATOM      9  C   UNL     1     141.659 134.199 154.466  1.00  0.00     0.052 A 
ATOM     10  O   UNL     1     140.009 133.444 156.025  1.00  0.00    -0.452 OA
ATOM     11  C   UNL     1     142.432 134.021 153.317  1.00  0.00     0.004 A 
ATOM     12  C   UNL     1     139.904 132.465 157.009  1.00  0.00     0.143 A 
ATOM     13  C   UNL     1     140.219 132.825 158.326  1.00  0.00     0.049 A 
ATOM     14  C   UNL     1     140.211 131.872 159.343  1.00  0.00     0.024 A 
ATOM     15  C   UNL     1     139.877 130.549 159.054  1.00  0.00     0.042 A 
ATOM     16  C   UNL     1     139.525 130.188 157.750  1.00  0.00     0.041 A 
ATOM     17  Cl  UNL     1     139.871 129.345 160.330  1.00  0.00    -0.084 Cl
ATOM     18  C   UNL     1     137.994 128.516 154.752  1.00  0.00     0.298 C 
ATOM     19  C   UNL     1     136.654 130.082 156.189  1.00  0.00     0.298 C 
ATOM     20  C   UNL     1     136.699 128.134 154.027  1.00  0.00     0.308 C 
ATOM     21  C   UNL     1     135.400 129.652 155.421  1.00  0.00     0.308 C 
ATOM     22  N   UNL     1     135.532 128.264 154.926  1.00  0.00    -0.331 N 
ATOM     23  C   UNL     1     134.304 127.861 154.220  1.00  0.00     0.332 C 
ATOM     24  H   UNL     1     138.973 130.815 153.384  1.00  0.00     0.312 HD
ATOM     25  H   UNL     1     135.655 127.620 155.744  1.00  0.00     0.348 HD
ENDROOT
TORSDOF 0
ENDMDL
MODEL 5
REMARK VINA RESULT:    -6.848      4.139      6.791
REMARK INTER + INTRA:          -6.848
REMARK INTER:                  -6.848
REMARK INTRA:                   0.000
REMARK UNBOUND:                 0.000
REMARK SMILES C[NH+]1CCN(C2=[NH+]c3ccccc3Oc3ccc(Cl)cc32)CC1
REMARK SMILES IDX 7 1 6 2 21 3 5 4 8 5 9 6 13 7 10 8 12 9 14 10 11 11 15 12
REMARK SMILES IDX 16 13 17 14 18 15 20 16 19 17 4 18 22 19 3 20 23 21 2 22
REMARK SMILES IDX 1 23
REMARK H PARENT 7 24 2 25
REMARK Flexibility Score: inf
ROOT
ATOM      1  N   UNL     1     139.429 129.066 155.863  1.00  0.00    -0.237 N 
ATOM      2  C   UNL     1     139.464 130.371 155.804  1.00  0.00     0.286 C 
ATOM      3  C   UNL     1     139.880 131.128 154.594  1.00  0.00     0.108 A 
ATOM      4  N   UNL     1     139.108 131.116 156.985  1.00  0.00    -0.250 N 
ATOM      5  C   UNL     1     139.755 128.132 154.820  1.00  0.00     0.168 A 
ATOM      6  C   UNL     1     140.304 126.889 155.188  1.00  0.00     0.056 A 
ATOM      7  C   UNL     1     139.367 128.335 153.480  1.00  0.00     0.173 A 
ATOM      8  C   UNL     1     140.474 125.875 154.244  1.00  0.00     0.005 A 
ATOM      9  C   UNL     1     139.509 127.298 152.547  1.00  0.00     0.052 A 
ATOM     10  O   UNL     1     138.845 129.545 153.034  1.00  0.00    -0.452 OA
ATOM     11  C   UNL     1     140.069 126.077 152.924  1.00  0.00     0.004 A 
ATOM     12  C   UNL     1     139.468 130.761 153.297  1.00  0.00     0.143 A 
ATOM     13  C   UNL     1     139.699 131.624 152.219  1.00  0.00     0.049 A 
ATOM     14  C   UNL     1     140.390 132.821 152.404  1.00  0.00     0.024 A 
ATOM     15  C   UNL     1     140.848 133.171 153.674  1.00  0.00     0.042 A 
ATOM     16  C   UNL     1     140.590 132.333 154.763  1.00  0.00     0.041 A 
ATOM     17  Cl  UNL     1     141.723 134.673 153.910  1.00  0.00    -0.084 Cl
ATOM     18  C   UNL     1     139.906 130.991 158.206  1.00  0.00     0.298 C 
ATOM     19  C   UNL     1     138.127 132.200 156.908  1.00  0.00     0.298 C 
ATOM     20  C   UNL     1     138.986 131.029 159.430  1.00  0.00     0.308 C 
ATOM     21  C   UNL     1     137.261 132.203 158.173  1.00  0.00     0.308 C 
ATOM     22  N   UNL     1     138.101 132.214 159.390  1.00  0.00    -0.331 N 
ATOM     23  C   UNL     1     137.250 132.250 160.591  1.00  0.00     0.332 C 
ATOM     24  H   UNL     1     139.164 128.638 156.780  1.00  0.00     0.312 HD
ATOM     25  H   UNL     1     138.690 133.082 159.392  1.00  0.00     0.348 HD
ENDROOT
TORSDOF 0
ENDMDL
MODEL 6
REMARK VINA RESULT:    -6.598      6.444      8.505
REMARK INTER + INTRA:          -6.598
REMARK INTER:                  -6.598
REMARK INTRA:                   0.000
REMARK UNBOUND:                 0.000
REMARK SMILES C[NH+]1CCN(C2=[NH+]c3ccccc3Oc3ccc(Cl)cc32)CC1
REMARK SMILES IDX 7 1 6 2 21 3 5 4 8 5 9 6 13 7 10 8 12 9 14 10 11 11 15 12
REMARK SMILES IDX 16 13 17 14 18 15 20 16 19 17 4 18 22 19 3 20 23 21 2 22
REMARK SMILES IDX 1 23
REMARK H PARENT 7 24 2 25
REMARK Flexibility Score: inf
ROOT
ATOM      1  N   UNL     1     139.042 128.596 156.062  1.00  0.00    -0.237 N 
ATOM      2  C   UNL     1     138.059 128.417 155.219  1.00  0.00     0.286 C 
ATOM      3  C   UNL     1     136.687 128.951 155.430  1.00  0.00     0.108 A 
ATOM      4  N   UNL     1     138.312 127.634 154.036  1.00  0.00    -0.250 N 
ATOM      5  C   UNL     1     139.011 129.323 157.303  1.00  0.00     0.168 A 
ATOM      6  C   UNL     1     139.847 128.889 158.348  1.00  0.00     0.056 A 
ATOM      7  C   UNL     1     138.334 130.553 157.438  1.00  0.00     0.173 A 
ATOM      8  C   UNL     1     139.997 129.652 159.507  1.00  0.00     0.005 A 
ATOM      9  C   UNL     1     138.519 131.328 158.591  1.00  0.00     0.052 A 
ATOM     10  O   UNL     1     137.468 131.034 156.461  1.00  0.00    -0.452 OA
ATOM     11  C   UNL     1     139.339 130.876 159.625  1.00  0.00     0.004 A 
ATOM     12  C   UNL     1     136.452 130.250 155.922  1.00  0.00     0.143 A 
ATOM     13  C   UNL     1     135.158 130.786 155.894  1.00  0.00     0.049 A 
ATOM     14  C   UNL     1     134.084 130.022 155.440  1.00  0.00     0.024 A 
ATOM     15  C   UNL     1     134.296 128.716 155.000  1.00  0.00     0.042 A 
ATOM     16  C   UNL     1     135.590 128.186 154.989  1.00  0.00     0.041 A 
ATOM     17  Cl  UNL     1     132.947 127.749 154.433  1.00  0.00    -0.084 Cl
ATOM     18  C   UNL     1     138.683 126.223 154.149  1.00  0.00     0.298 C 
ATOM     19  C   UNL     1     137.940 128.147 152.716  1.00  0.00     0.298 C 
ATOM     20  C   UNL     1     139.722 125.875 153.078  1.00  0.00     0.308 C 
ATOM     21  C   UNL     1     139.000 127.741 151.687  1.00  0.00     0.308 C 
ATOM     22  N   UNL     1     139.253 126.284 151.735  1.00  0.00    -0.331 N 
ATOM     23  C   UNL     1     140.250 125.911 150.718  1.00  0.00     0.332 C 
ATOM     24  H   UNL     1     139.954 128.137 155.835  1.00  0.00     0.312 HD
ATOM     25  H   UNL     1     138.364 125.774 151.512  1.00  0.00     0.348 HD
ENDROOT
TORSDOF 0
ENDMDL
MODEL 7
REMARK VINA RESULT:    -6.485      3.006      6.174
REMARK INTER + INTRA:          -6.485
REMARK INTER:                  -6.485
REMARK INTRA:                   0.000
REMARK UNBOUND:                 0.000
REMARK SMILES C[NH+]1CCN(C2=[NH+]c3ccccc3Oc3ccc(Cl)cc32)CC1
REMARK SMILES IDX 7 1 6 2 21 3 5 4 8 5 9 6 13 7 10 8 12 9 14 10 11 11 15 12
REMARK SMILES IDX 16 13 17 14 18 15 20 16 19 17 4 18 22 19 3 20 23 21 2 22
REMARK SMILES IDX 1 23
REMARK H PARENT 7 24 2 25
REMARK Flexibility Score: inf
ROOT
ATOM      1  N   UNL     1     140.123 131.253 155.398  1.00  0.00    -0.237 N 
ATOM      2  C   UNL     1     140.016 132.232 154.539  1.00  0.00     0.286 C 
ATOM      3  C   UNL     1     139.647 133.622 154.919  1.00  0.00     0.108 A 
ATOM      4  N   UNL     1     140.239 131.942 153.145  1.00  0.00    -0.250 N 
ATOM      5  C   UNL     1     139.931 131.311 156.822  1.00  0.00     0.168 A 
ATOM      6  C   UNL     1     139.430 130.168 157.472  1.00  0.00     0.056 A 
ATOM      7  C   UNL     1     140.405 132.386 157.603  1.00  0.00     0.173 A 
ATOM      8  C   UNL     1     139.391 130.098 158.866  1.00  0.00     0.005 A 
ATOM      9  C   UNL     1     140.394 132.291 159.001  1.00  0.00     0.052 A 
ATOM     10  O   UNL     1     140.887 133.560 157.033  1.00  0.00    -0.452 OA
ATOM     11  C   UNL     1     139.880 131.157 159.631  1.00  0.00     0.004 A 
ATOM     12  C   UNL     1     140.175 134.256 156.061  1.00  0.00     0.143 A 
ATOM     13  C   UNL     1     139.975 135.629 156.255  1.00  0.00     0.049 A 
ATOM     14  C   UNL     1     139.203 136.367 155.358  1.00  0.00     0.024 A 
ATOM     15  C   UNL     1     138.632 135.739 154.251  1.00  0.00     0.042 A 
ATOM     16  C   UNL     1     138.858 134.377 154.029  1.00  0.00     0.041 A 
ATOM     17  Cl  UNL     1     137.656 136.662 153.124  1.00  0.00    -0.084 Cl
ATOM     18  C   UNL     1     139.361 131.011 152.435  1.00  0.00     0.298 C 
ATOM     19  C   UNL     1     141.158 132.766 152.356  1.00  0.00     0.298 C 
ATOM     20  C   UNL     1     140.184 130.178 151.447  1.00  0.00     0.308 C 
ATOM     21  C   UNL     1     141.926 131.880 151.369  1.00  0.00     0.308 C 
ATOM     22  N   UNL     1     140.998 131.049 150.571  1.00  0.00    -0.331 N 
ATOM     23  C   UNL     1     141.754 130.231 149.608  1.00  0.00     0.332 C 
ATOM     24  H   UNL     1     140.344 130.305 155.015  1.00  0.00     0.312 HD
ATOM     25  H   UNL     1     140.360 131.677 150.024  1.00  0.00     0.348 HD
ENDROOT
TORSDOF 0
ENDMDL
MODEL 8
REMARK VINA RESULT:    -6.362      5.303      7.714
REMARK INTER + INTRA:          -6.362
REMARK INTER:                  -6.362
REMARK INTRA:                   0.000
REMARK UNBOUND:                 0.000
REMARK SMILES C[NH+]1CCN(C2=[NH+]c3ccccc3Oc3ccc(Cl)cc32)CC1
REMARK SMILES IDX 7 1 6 2 21 3 5 4 8 5 9 6 13 7 10 8 12 9 14 10 11 11 15 12
REMARK SMILES IDX 16 13 17 14 18 15 20 16 19 17 4 18 22 19 3 20 23 21 2 22
REMARK SMILES IDX 1 23
REMARK H PARENT 7 24 2 25
REMARK Flexibility Score: inf
ROOT
ATOM      1  N   UNL     1     141.900 134.004 150.427  1.00  0.00    -0.237 N 
ATOM      2  C   UNL     1     142.530 134.453 149.374  1.00  0.00     0.286 C 
ATOM      3  C   UNL     1     142.863 135.887 149.164  1.00  0.00     0.108 A 
ATOM      4  N   UNL     1     142.896 133.511 148.347  1.00  0.00    -0.250 N 
ATOM      5  C   UNL     1     141.431 134.760 151.557  1.00  0.00     0.168 A 
ATOM      6  C   UNL     1     140.268 134.319 152.215  1.00  0.00     0.056 A 
ATOM      7  C   UNL     1     142.193 135.794 152.139  1.00  0.00     0.173 A 
ATOM      8  C   UNL     1     139.865 134.899 153.419  1.00  0.00     0.005 A 
ATOM      9  C   UNL     1     141.798 136.347 153.365  1.00  0.00     0.052 A 
ATOM     10  O   UNL     1     143.336 136.304 151.533  1.00  0.00    -0.452 OA
ATOM     11  C   UNL     1     140.634 135.908 153.998  1.00  0.00     0.004 A 
ATOM     12  C   UNL     1     143.351 136.706 150.201  1.00  0.00     0.143 A 
ATOM     13  C   UNL     1     143.857 137.979 149.908  1.00  0.00     0.049 A 
ATOM     14  C   UNL     1     143.827 138.471 148.604  1.00  0.00     0.024 A 
ATOM     15  C   UNL     1     143.298 137.690 147.577  1.00  0.00     0.042 A 
ATOM     16  C   UNL     1     142.824 136.404 147.854  1.00  0.00     0.041 A 
ATOM     17  Cl  UNL     1     143.251 138.308 145.937  1.00  0.00    -0.084 Cl
ATOM     18  C   UNL     1     141.863 132.779 147.613  1.00  0.00     0.298 C 
ATOM     19  C   UNL     1     144.268 133.471 147.834  1.00  0.00     0.298 C 
ATOM     20  C   UNL     1     142.338 131.348 147.340  1.00  0.00     0.308 C 
ATOM     21  C   UNL     1     144.671 132.019 147.553  1.00  0.00     0.308 C 
ATOM     22  N   UNL     1     143.670 131.348 146.695  1.00  0.00    -0.331 N 
ATOM     23  C   UNL     1     144.093 129.967 146.411  1.00  0.00     0.332 C 
ATOM     24  H   UNL     1     141.678 132.982 150.450  1.00  0.00     0.312 HD
ATOM     25  H   UNL     1     143.607 131.856 145.780  1.00  0.00     0.348 HD
ENDROOT
TORSDOF 0
ENDMDL
MODEL 9
REMARK VINA RESULT:    -6.339      4.612      7.567
REMARK INTER + INTRA:          -6.339
REMARK INTER:                  -6.339
REMARK INTRA:                   0.000
REMARK UNBOUND:                 0.000
REMARK SMILES C[NH+]1CCN(C2=[NH+]c3ccccc3Oc3ccc(Cl)cc32)CC1
REMARK SMILES IDX 7 1 6 2 21 3 5 4 8 5 9 6 13 7 10 8 12 9 14 10 11 11 15 12
REMARK SMILES IDX 16 13 17 14 18 15 20 16 19 17 4 18 22 19 3 20 23 21 2 22
REMARK SMILES IDX 1 23
REMARK H PARENT 7 24 2 25
REMARK Flexibility Score: inf
ROOT
ATOM      1  N   UNL     1     142.486 132.495 150.467  1.00  0.00    -0.237 N 
ATOM      2  C   UNL     1     142.375 133.780 150.680  1.00  0.00     0.286 C 
ATOM      3  C   UNL     1     142.757 134.815 149.683  1.00  0.00     0.108 A 
ATOM      4  N   UNL     1     141.883 134.217 151.962  1.00  0.00    -0.250 N 
ATOM      5  C   UNL     1     142.964 131.842 149.278  1.00  0.00     0.168 A 
ATOM      6  C   UNL     1     143.633 130.612 149.419  1.00  0.00     0.056 A 
ATOM      7  C   UNL     1     142.615 132.284 147.985  1.00  0.00     0.173 A 
ATOM      8  C   UNL     1     143.959 129.843 148.301  1.00  0.00     0.005 A 
ATOM      9  C   UNL     1     142.917 131.488 146.871  1.00  0.00     0.052 A 
ATOM     10  O   UNL     1     141.980 133.501 147.764  1.00  0.00    -0.452 OA
ATOM     11  C   UNL     1     143.594 130.278 147.026  1.00  0.00     0.004 A 
ATOM     12  C   UNL     1     142.449 134.691 148.314  1.00  0.00     0.143 A 
ATOM     13  C   UNL     1     142.629 135.782 147.454  1.00  0.00     0.049 A 
ATOM     14  C   UNL     1     143.169 136.976 147.928  1.00  0.00     0.024 A 
ATOM     15  C   UNL     1     143.527 137.094 149.271  1.00  0.00     0.042 A 
ATOM     16  C   UNL     1     143.317 136.022 150.144  1.00  0.00     0.041 A 
ATOM     17  Cl  UNL     1     144.214 138.592 149.870  1.00  0.00    -0.084 Cl
ATOM     18  C   UNL     1     142.635 133.918 153.183  1.00  0.00     0.298 C 
ATOM     19  C   UNL     1     140.790 135.188 152.044  1.00  0.00     0.298 C 
ATOM     20  C   UNL     1     141.662 133.602 154.323  1.00  0.00     0.308 C 
ATOM     21  C   UNL     1     139.873 134.835 153.220  1.00  0.00     0.308 C 
ATOM     22  N   UNL     1     140.651 134.673 154.467  1.00  0.00    -0.331 N 
ATOM     23  C   UNL     1     139.747 134.366 155.589  1.00  0.00     0.332 C 
ATOM     24  H   UNL     1     142.230 131.858 151.256  1.00  0.00     0.312 HD
ATOM     25  H   UNL     1     141.137 135.576 154.688  1.00  0.00     0.348 HD
ENDROOT
TORSDOF 0
ENDMDL
