MODEL 1
REMARK VINA RESULT:    -7.445      0.000      0.000
REMARK INTER + INTRA:          -9.531
REMARK INTER:                  -9.186
REMARK INTRA:                  -0.346
REMARK UNBOUND:                -0.346
REMARK SMILES O=c1c(O)c(-c2cc(O)c(O)c(O)c2)oc2cc(O)cc(O)c12
REMARK SMILES IDX 5 1 3 2 2 3 1 4 23 5 21 6 20 7 18 8 17 9 16 10 15 11 6 12
REMARK SMILES IDX 7 13 8 14 14 15 10 16 12 17 9 18 11 20 13 22 4 24 22 26
REMARK SMILES IDX 19 28
REMARK H PARENT 9 19 11 21 13 23 4 25 22 27 19 29
REMARK Flexibility Score: inf
ROOT
ATOM      1  C   UNL     1      14.306  17.483  32.544  1.00  0.00     0.180 A 
ATOM      2  C   UNL     1      14.639  18.459  33.498  1.00  0.00     0.208 A 
ATOM      3  C   UNL     1      14.244  19.789  33.279  1.00  0.00     0.238 A 
ATOM      4  O   UNL     1      14.498  20.648  34.164  1.00  0.00    -0.285 OA
ATOM      5  C   UNL     1      13.536  20.128  32.101  1.00  0.00     0.111 A 
ATOM      6  C   UNL     1      13.123  21.450  31.756  1.00  0.00     0.134 A 
ATOM      7  C   UNL     1      12.315  21.649  30.631  1.00  0.00     0.093 A 
ATOM      8  C   UNL     1      11.960  20.583  29.800  1.00  0.00     0.123 A 
ATOM      9  C   UNL     1      12.410  19.298  30.095  1.00  0.00     0.094 A 
ATOM     10  C   UNL     1      13.187  19.062  31.231  1.00  0.00     0.146 A 
ATOM     11  O   UNL     1      13.585  17.821  31.482  1.00  0.00    -0.452 OA
ENDROOT
BRANCH   1  12
ATOM     12  C   UNL     1      14.709  16.065  32.694  1.00  0.00     0.029 A 
ATOM     13  C   UNL     1      13.763  15.121  33.117  1.00  0.00     0.062 A 
ATOM     14  C   UNL     1      14.109  13.772  33.247  1.00  0.00     0.162 A 
ATOM     15  C   UNL     1      16.005  15.635  32.365  1.00  0.00     0.062 A 
ATOM     16  C   UNL     1      15.414  13.349  32.937  1.00  0.00     0.200 A 
ATOM     17  C   UNL     1      16.361  14.285  32.490  1.00  0.00     0.162 A 
BRANCH  14  18
ATOM     18  O   UNL     1      13.143  12.866  33.685  1.00  0.00    -0.504 OA
ATOM     19  H   UNL     1      12.221  12.819  33.269  1.00  0.00     0.293 HD
ENDBRANCH  14  18
BRANCH  16  20
ATOM     20  O   UNL     1      15.752  12.002  33.073  1.00  0.00    -0.502 OA
ATOM     21  H   UNL     1      15.513  11.312  32.371  1.00  0.00     0.293 HD
ENDBRANCH  16  20
BRANCH  17  22
ATOM     22  O   UNL     1      17.653  13.871  32.168  1.00  0.00    -0.504 OA
ATOM     23  H   UNL     1      18.288  14.467  31.651  1.00  0.00     0.293 HD
ENDBRANCH  17  22
ENDBRANCH   1  12
BRANCH   2  24
ATOM     24  O   UNL     1      15.320  18.098  34.665  1.00  0.00    -0.502 OA
ATOM     25  H   UNL     1      14.894  18.157  35.583  1.00  0.00     0.293 HD
ENDBRANCH   2  24
BRANCH   6  26
ATOM     26  O   UNL     1      13.498  22.595  32.466  1.00  0.00    -0.507 OA
ATOM     27  H   UNL     1      14.094  22.597  33.280  1.00  0.00     0.293 HD
ENDBRANCH   6  26
BRANCH   8  28
ATOM     28  O   UNL     1      11.170  20.793  28.672  1.00  0.00    -0.508 OA
ATOM     29  H   UNL     1      10.502  21.553  28.628  1.00  0.00     0.293 HD
ENDBRANCH   8  28
TORSDOF 7
ENDMDL
MODEL 2
REMARK VINA RESULT:    -7.199      3.212      4.446
REMARK INTER + INTRA:          -9.228
REMARK INTER:                  -8.889
REMARK INTRA:                  -0.340
REMARK UNBOUND:                -0.346
REMARK SMILES O=c1c(O)c(-c2cc(O)c(O)c(O)c2)oc2cc(O)cc(O)c12
REMARK SMILES IDX 5 1 3 2 2 3 1 4 23 5 21 6 20 7 18 8 17 9 16 10 15 11 6 12
REMARK SMILES IDX 7 13 8 14 14 15 10 16 12 17 9 18 11 20 13 22 4 24 22 26
REMARK SMILES IDX 19 28
REMARK H PARENT 9 19 11 21 13 23 4 25 22 27 19 29
REMARK Flexibility Score: inf
ROOT
ATOM      1  C   UNL     1      14.825  18.536  30.686  1.00  0.00     0.180 A 
ATOM      2  C   UNL     1      13.894  18.945  29.716  1.00  0.00     0.208 A 
ATOM      3  C   UNL     1      14.218  20.017  28.870  1.00  0.00     0.238 A 
ATOM      4  O   UNL     1      13.402  20.343  27.968  1.00  0.00    -0.285 OA
ATOM      5  C   UNL     1      15.462  20.678  29.014  1.00  0.00     0.111 A 
ATOM      6  C   UNL     1      15.878  21.801  28.240  1.00  0.00     0.134 A 
ATOM      7  C   UNL     1      17.182  22.292  28.380  1.00  0.00     0.093 A 
ATOM      8  C   UNL     1      18.062  21.742  29.314  1.00  0.00     0.123 A 
ATOM      9  C   UNL     1      17.645  20.683  30.118  1.00  0.00     0.094 A 
ATOM     10  C   UNL     1      16.363  20.148  29.975  1.00  0.00     0.146 A 
ATOM     11  O   UNL     1      16.009  19.133  30.753  1.00  0.00    -0.452 OA
ENDROOT
BRANCH   1  12
ATOM     12  C   UNL     1      14.544  17.429  31.630  1.00  0.00     0.029 A 
ATOM     13  C   UNL     1      14.780  16.106  31.230  1.00  0.00     0.062 A 
ATOM     14  C   UNL     1      14.544  15.042  32.108  1.00  0.00     0.162 A 
ATOM     15  C   UNL     1      14.101  17.680  32.939  1.00  0.00     0.062 A 
ATOM     16  C   UNL     1      14.081  15.296  33.411  1.00  0.00     0.200 A 
ATOM     17  C   UNL     1      13.864  16.621  33.826  1.00  0.00     0.162 A 
BRANCH  14  18
ATOM     18  O   UNL     1      14.778  13.739  31.668  1.00  0.00    -0.504 OA
ATOM     19  H   UNL     1      14.430  12.931  32.170  1.00  0.00     0.293 HD
ENDBRANCH  14  18
BRANCH  16  20
ATOM     20  O   UNL     1      13.844  14.229  34.278  1.00  0.00    -0.502 OA
ATOM     21  H   UNL     1      13.569  14.370  35.244  1.00  0.00     0.293 HD
ENDBRANCH  16  20
BRANCH  17  22
ATOM     22  O   UNL     1      13.417  16.882  35.121  1.00  0.00    -0.504 OA
ATOM     23  H   UNL     1      12.443  16.777  35.378  1.00  0.00     0.293 HD
ENDBRANCH  17  22
ENDBRANCH   1  12
BRANCH   2  24
ATOM     24  O   UNL     1      12.681  18.264  29.575  1.00  0.00    -0.502 OA
ATOM     25  H   UNL     1      12.395  17.526  30.208  1.00  0.00     0.293 HD
ENDBRANCH   2  24
BRANCH   6  26
ATOM     26  O   UNL     1      15.047  22.483  27.344  1.00  0.00    -0.507 OA
ATOM     27  H   UNL     1      15.357  23.204  26.710  1.00  0.00     0.293 HD
ENDBRANCH   6  26
BRANCH   8  28
ATOM     28  O   UNL     1      19.353  22.247  29.459  1.00  0.00    -0.508 OA
ATOM     29  H   UNL     1      19.561  23.224  29.287  1.00  0.00     0.293 HD
ENDBRANCH   8  28
TORSDOF 7
ENDMDL
MODEL 3
REMARK VINA RESULT:    -7.180      2.587      3.662
REMARK INTER + INTRA:          -9.205
REMARK INTER:                  -8.857
REMARK INTRA:                  -0.348
REMARK UNBOUND:                -0.346
REMARK SMILES O=c1c(O)c(-c2cc(O)c(O)c(O)c2)oc2cc(O)cc(O)c12
REMARK SMILES IDX 5 1 3 2 2 3 1 4 23 5 21 6 20 7 18 8 17 9 16 10 15 11 6 12
REMARK SMILES IDX 7 13 8 14 14 15 10 16 12 17 9 18 11 20 13 22 4 24 22 26
REMARK SMILES IDX 19 28
REMARK H PARENT 9 19 11 21 13 23 4 25 22 27 19 29
REMARK Flexibility Score: inf
ROOT
ATOM      1  C   UNL     1      15.321  17.142  30.531  1.00  0.00     0.180 A 
ATOM      2  C   UNL     1      14.439  17.460  29.485  1.00  0.00     0.208 A 
ATOM      3  C   UNL     1      14.352  18.792  29.048  1.00  0.00     0.238 A 
ATOM      4  O   UNL     1      13.600  19.060  28.075  1.00  0.00    -0.285 OA
ATOM      5  C   UNL     1      15.136  19.791  29.674  1.00  0.00     0.111 A 
ATOM      6  C   UNL     1      15.098  21.178  29.341  1.00  0.00     0.134 A 
ATOM      7  C   UNL     1      16.012  22.056  29.935  1.00  0.00     0.093 A 
ATOM      8  C   UNL     1      16.918  21.609  30.900  1.00  0.00     0.123 A 
ATOM      9  C   UNL     1      16.922  20.268  31.276  1.00  0.00     0.094 A 
ATOM     10  C   UNL     1      16.047  19.361  30.674  1.00  0.00     0.146 A 
ATOM     11  O   UNL     1      16.091  18.090  31.053  1.00  0.00    -0.452 OA
ENDROOT
BRANCH   1  12
ATOM     12  C   UNL     1      15.449  15.765  31.062  1.00  0.00     0.029 A 
ATOM     13  C   UNL     1      14.532  15.307  32.020  1.00  0.00     0.062 A 
ATOM     14  C   UNL     1      14.616  14.005  32.523  1.00  0.00     0.162 A 
ATOM     15  C   UNL     1      16.435  14.886  30.585  1.00  0.00     0.062 A 
ATOM     16  C   UNL     1      15.617  13.135  32.058  1.00  0.00     0.200 A 
ATOM     17  C   UNL     1      16.526  13.579  31.082  1.00  0.00     0.162 A 
BRANCH  14  18
ATOM     18  O   UNL     1      13.694  13.592  33.485  1.00  0.00    -0.504 OA
ATOM     19  H   UNL     1      13.927  12.912  34.199  1.00  0.00     0.293 HD
ENDBRANCH  14  18
BRANCH  16  20
ATOM     20  O   UNL     1      15.696  11.839  32.569  1.00  0.00    -0.502 OA
ATOM     21  H   UNL     1      15.005  11.130  32.350  1.00  0.00     0.293 HD
ENDBRANCH  16  20
BRANCH  17  22
ATOM     22  O   UNL     1      17.513  12.717  30.606  1.00  0.00    -0.504 OA
ATOM     23  H   UNL     1      18.480  13.009  30.526  1.00  0.00     0.293 HD
ENDBRANCH  17  22
ENDBRANCH   1  12
BRANCH   2  24
ATOM     24  O   UNL     1      13.690  16.454  28.866  1.00  0.00    -0.502 OA
ATOM     25  H   UNL     1      12.704  16.318  29.053  1.00  0.00     0.293 HD
ENDBRANCH   2  24
BRANCH   6  26
ATOM     26  O   UNL     1      14.172  21.744  28.458  1.00  0.00    -0.507 OA
ATOM     27  H   UNL     1      13.681  22.610  28.620  1.00  0.00     0.293 HD
ENDBRANCH   6  26
BRANCH   8  28
ATOM     28  O   UNL     1      17.813  22.493  31.499  1.00  0.00    -0.508 OA
ATOM     29  H   UNL     1      18.569  22.917  30.975  1.00  0.00     0.293 HD
ENDBRANCH   8  28
TORSDOF 7
ENDMDL
MODEL 4
REMARK VINA RESULT:    -7.123      2.076      2.136
REMARK INTER + INTRA:          -9.134
REMARK INTER:                  -8.765
REMARK INTRA:                  -0.369
REMARK UNBOUND:                -0.346
REMARK SMILES O=c1c(O)c(-c2cc(O)c(O)c(O)c2)oc2cc(O)cc(O)c12
REMARK SMILES IDX 5 1 3 2 2 3 1 4 23 5 21 6 20 7 18 8 17 9 16 10 15 11 6 12
REMARK SMILES IDX 7 13 8 14 14 15 10 16 12 17 9 18 11 20 13 22 4 24 22 26
REMARK SMILES IDX 19 28
REMARK H PARENT 9 19 11 21 13 23 4 25 22 27 19 29
REMARK Flexibility Score: inf
ROOT
ATOM      1  C   UNL     1      15.377  17.066  31.167  1.00  0.00     0.180 A 
ATOM      2  C   UNL     1      16.412  18.002  31.335  1.00  0.00     0.208 A 
ATOM      3  C   UNL     1      16.212  19.323  30.902  1.00  0.00     0.238 A 
ATOM      4  O   UNL     1      17.123  20.169  31.105  1.00  0.00    -0.285 OA
ATOM      5  C   UNL     1      14.988  19.687  30.292  1.00  0.00     0.111 A 
ATOM      6  C   UNL     1      14.693  20.985  29.779  1.00  0.00     0.134 A 
ATOM      7  C   UNL     1      13.402  21.267  29.315  1.00  0.00     0.093 A 
ATOM      8  C   UNL     1      12.416  20.279  29.284  1.00  0.00     0.123 A 
ATOM      9  C   UNL     1      12.712  18.992  29.726  1.00  0.00     0.094 A 
ATOM     10  C   UNL     1      13.979  18.690  30.229  1.00  0.00     0.146 A 
ATOM     11  O   UNL     1      14.217  17.454  30.651  1.00  0.00    -0.452 OA
ENDROOT
BRANCH   1  12
ATOM     12  C   UNL     1      15.523  15.650  31.575  1.00  0.00     0.029 A 
ATOM     13  C   UNL     1      15.069  15.247  32.840  1.00  0.00     0.062 A 
ATOM     14  C   UNL     1      15.174  13.912  33.244  1.00  0.00     0.162 A 
ATOM     15  C   UNL     1      16.053  14.687  30.700  1.00  0.00     0.062 A 
ATOM     16  C   UNL     1      15.725  12.956  32.374  1.00  0.00     0.200 A 
ATOM     17  C   UNL     1      16.160  13.347  31.096  1.00  0.00     0.162 A 
BRANCH  14  18
ATOM     18  O   UNL     1      14.724  13.554  34.515  1.00  0.00    -0.504 OA
ATOM     19  H   UNL     1      14.757  12.598  34.849  1.00  0.00     0.293 HD
ENDBRANCH  14  18
BRANCH  16  20
ATOM     20  O   UNL     1      15.829  11.627  32.786  1.00  0.00    -0.502 OA
ATOM     21  H   UNL     1      16.725  11.181  32.950  1.00  0.00     0.293 HD
ENDBRANCH  16  20
BRANCH  17  22
ATOM     22  O   UNL     1      16.695  12.402  30.222  1.00  0.00    -0.504 OA
ATOM     23  H   UNL     1      17.674  12.411  29.963  1.00  0.00     0.293 HD
ENDBRANCH  17  22
ENDBRANCH   1  12
BRANCH   2  24
ATOM     24  O   UNL     1      17.605  17.627  31.960  1.00  0.00    -0.502 OA
ATOM     25  H   UNL     1      17.632  16.965  32.727  1.00  0.00     0.293 HD
ENDBRANCH   2  24
BRANCH   6  26
ATOM     26  O   UNL     1      15.631  22.018  29.680  1.00  0.00    -0.507 OA
ATOM     27  H   UNL     1      16.620  21.912  29.847  1.00  0.00     0.293 HD
ENDBRANCH   6  26
BRANCH   8  28
ATOM     28  O   UNL     1      11.139  20.564  28.805  1.00  0.00    -0.508 OA
ATOM     29  H   UNL     1      10.323  20.500  29.402  1.00  0.00     0.293 HD
ENDBRANCH   8  28
TORSDOF 7
ENDMDL
MODEL 5
REMARK VINA RESULT:    -7.119     13.749     14.796
REMARK INTER + INTRA:          -9.130
REMARK INTER:                  -8.775
REMARK INTRA:                  -0.355
REMARK UNBOUND:                -0.346
REMARK SMILES O=c1c(O)c(-c2cc(O)c(O)c(O)c2)oc2cc(O)cc(O)c12
REMARK SMILES IDX 5 1 3 2 2 3 1 4 23 5 21 6 20 7 18 8 17 9 16 10 15 11 6 12
REMARK SMILES IDX 7 13 8 14 14 15 10 16 12 17 9 18 11 20 13 22 4 24 22 26
REMARK SMILES IDX 19 28
REMARK H PARENT 9 19 11 21 13 23 4 25 22 27 19 29
REMARK Flexibility Score: inf
ROOT
ATOM      1  C   UNL     1       9.325  16.599  18.735  1.00  0.00     0.180 A 
ATOM      2  C   UNL     1       9.753  17.924  18.927  1.00  0.00     0.208 A 
ATOM      3  C   UNL     1       8.839  18.871  19.415  1.00  0.00     0.238 A 
ATOM      4  O   UNL     1       9.243  20.043  19.636  1.00  0.00    -0.285 OA
ATOM      5  C   UNL     1       7.505  18.486  19.691  1.00  0.00     0.111 A 
ATOM      6  C   UNL     1       6.484  19.372  20.149  1.00  0.00     0.134 A 
ATOM      7  C   UNL     1       5.235  18.855  20.513  1.00  0.00     0.093 A 
ATOM      8  C   UNL     1       4.948  17.495  20.373  1.00  0.00     0.123 A 
ATOM      9  C   UNL     1       5.919  16.632  19.868  1.00  0.00     0.094 A 
ATOM     10  C   UNL     1       7.186  17.112  19.531  1.00  0.00     0.146 A 
ATOM     11  O   UNL     1       8.086  16.255  19.064  1.00  0.00    -0.452 OA
ENDROOT
BRANCH   1  12
ATOM     12  C   UNL     1      10.224  15.551  18.200  1.00  0.00     0.029 A 
ATOM     13  C   UNL     1      10.285  15.335  16.815  1.00  0.00     0.062 A 
ATOM     14  C   UNL     1      11.140  14.366  16.280  1.00  0.00     0.162 A 
ATOM     15  C   UNL     1      11.062  14.805  19.046  1.00  0.00     0.062 A 
ATOM     16  C   UNL     1      11.962  13.608  17.132  1.00  0.00     0.200 A 
ATOM     17  C   UNL     1      11.924  13.834  18.518  1.00  0.00     0.162 A 
BRANCH  14  18
ATOM     18  O   UNL     1      11.161  14.173  14.899  1.00  0.00    -0.504 OA
ATOM     19  H   UNL     1      11.091  13.252  14.483  1.00  0.00     0.293 HD
ENDBRANCH  14  18
BRANCH  16  20
ATOM     20  O   UNL     1      12.809  12.641  16.590  1.00  0.00    -0.502 OA
ATOM     21  H   UNL     1      13.759  12.853  16.306  1.00  0.00     0.293 HD
ENDBRANCH  16  20
BRANCH  17  22
ATOM     22  O   UNL     1      12.746  13.094  19.368  1.00  0.00    -0.504 OA
ATOM     23  H   UNL     1      13.009  12.140  19.155  1.00  0.00     0.293 HD
ENDBRANCH  17  22
ENDBRANCH   1  12
BRANCH   2  24
ATOM     24  O   UNL     1      11.081  18.278  18.670  1.00  0.00    -0.502 OA
ATOM     25  H   UNL     1      11.676  17.741  18.049  1.00  0.00     0.293 HD
ENDBRANCH   2  24
BRANCH   6  26
ATOM     26  O   UNL     1       6.636  20.759  20.240  1.00  0.00    -0.507 OA
ATOM     27  H   UNL     1       5.878  21.423  20.203  1.00  0.00     0.293 HD
ENDBRANCH   6  26
BRANCH   8  28
ATOM     28  O   UNL     1       3.697  16.992  20.722  1.00  0.00    -0.508 OA
ATOM     29  H   UNL     1       3.449  16.812  21.688  1.00  0.00     0.293 HD
ENDBRANCH   8  28
TORSDOF 7
ENDMDL
MODEL 6
REMARK VINA RESULT:    -7.089      2.111      2.525
REMARK INTER + INTRA:          -9.093
REMARK INTER:                  -8.735
REMARK INTRA:                  -0.357
REMARK UNBOUND:                -0.346
REMARK SMILES O=c1c(O)c(-c2cc(O)c(O)c(O)c2)oc2cc(O)cc(O)c12
REMARK SMILES IDX 5 1 3 2 2 3 1 4 23 5 21 6 20 7 18 8 17 9 16 10 15 11 6 12
REMARK SMILES IDX 7 13 8 14 14 15 10 16 12 17 9 18 11 20 13 22 4 24 22 26
REMARK SMILES IDX 19 28
REMARK H PARENT 9 19 11 21 13 23 4 25 22 27 19 29
REMARK Flexibility Score: inf
ROOT
ATOM      1  C   UNL     1      15.323  17.034  31.213  1.00  0.00     0.180 A 
ATOM      2  C   UNL     1      16.383  17.944  31.359  1.00  0.00     0.208 A 
ATOM      3  C   UNL     1      16.224  19.257  30.887  1.00  0.00     0.238 A 
ATOM      4  O   UNL     1      17.158  20.082  31.070  1.00  0.00    -0.285 OA
ATOM      5  C   UNL     1      15.013  19.639  30.261  1.00  0.00     0.111 A 
ATOM      6  C   UNL     1      14.758  20.929  29.709  1.00  0.00     0.134 A 
ATOM      7  C   UNL     1      13.478  21.235  29.231  1.00  0.00     0.093 A 
ATOM      8  C   UNL     1      12.463  20.276  29.224  1.00  0.00     0.123 A 
ATOM      9  C   UNL     1      12.720  18.993  29.705  1.00  0.00     0.094 A 
ATOM     10  C   UNL     1      13.976  18.670  30.222  1.00  0.00     0.146 A 
ATOM     11  O   UNL     1      14.176  17.440  30.680  1.00  0.00    -0.452 OA
ENDROOT
BRANCH   1  12
ATOM     12  C   UNL     1      15.425  15.626  31.662  1.00  0.00     0.029 A 
ATOM     13  C   UNL     1      15.928  14.656  30.783  1.00  0.00     0.062 A 
ATOM     14  C   UNL     1      16.055  13.323  31.187  1.00  0.00     0.162 A 
ATOM     15  C   UNL     1      15.084  15.251  32.972  1.00  0.00     0.062 A 
ATOM     16  C   UNL     1      15.693  12.947  32.492  1.00  0.00     0.200 A 
ATOM     17  C   UNL     1      15.211  13.918  33.387  1.00  0.00     0.162 A 
BRANCH  14  18
ATOM     18  O   UNL     1      16.546  12.386  30.278  1.00  0.00    -0.504 OA
ATOM     19  H   UNL     1      15.933  11.776  29.750  1.00  0.00     0.293 HD
ENDBRANCH  14  18
BRANCH  16  20
ATOM     20  O   UNL     1      15.820  11.615  32.886  1.00  0.00    -0.502 OA
ATOM     21  H   UNL     1      15.512  11.289  33.796  1.00  0.00     0.293 HD
ENDBRANCH  16  20
BRANCH  17  22
ATOM     22  O   UNL     1      14.863  13.556  34.688  1.00  0.00    -0.504 OA
ATOM     23  H   UNL     1      15.541  13.557  35.440  1.00  0.00     0.293 HD
ENDBRANCH  17  22
ENDBRANCH   1  12
BRANCH   2  24
ATOM     24  O   UNL     1      17.563  17.552  32.000  1.00  0.00    -0.502 OA
ATOM     25  H   UNL     1      17.562  16.987  32.841  1.00  0.00     0.293 HD
ENDBRANCH   2  24
BRANCH   6  26
ATOM     26  O   UNL     1      15.727  21.931  29.585  1.00  0.00    -0.507 OA
ATOM     27  H   UNL     1      16.722  21.770  29.586  1.00  0.00     0.293 HD
ENDBRANCH   6  26
BRANCH   8  28
ATOM     28  O   UNL     1      11.197  20.583  28.730  1.00  0.00    -0.508 OA
ATOM     29  H   UNL     1      10.848  21.534  28.725  1.00  0.00     0.293 HD
ENDBRANCH   8  28
TORSDOF 7
ENDMDL
MODEL 7
REMARK VINA RESULT:    -7.022      2.012      2.662
REMARK INTER + INTRA:          -9.009
REMARK INTER:                  -8.756
REMARK INTRA:                  -0.254
REMARK UNBOUND:                -0.346
REMARK SMILES O=c1c(O)c(-c2cc(O)c(O)c(O)c2)oc2cc(O)cc(O)c12
REMARK SMILES IDX 5 1 3 2 2 3 1 4 23 5 21 6 20 7 18 8 17 9 16 10 15 11 6 12
REMARK SMILES IDX 7 13 8 14 14 15 10 16 12 17 9 18 11 20 13 22 4 24 22 26
REMARK SMILES IDX 19 28
REMARK H PARENT 9 19 11 21 13 23 4 25 22 27 19 29
REMARK Flexibility Score: inf
ROOT
ATOM      1  C   UNL     1      14.595  17.421  31.935  1.00  0.00     0.180 A 
ATOM      2  C   UNL     1      14.358  18.664  32.546  1.00  0.00     0.208 A 
ATOM      3  C   UNL     1      14.178  19.798  31.737  1.00  0.00     0.238 A 
ATOM      4  O   UNL     1      13.913  20.898  32.289  1.00  0.00    -0.285 OA
ATOM      5  C   UNL     1      14.254  19.677  30.328  1.00  0.00     0.111 A 
ATOM      6  C   UNL     1      14.129  20.766  29.414  1.00  0.00     0.134 A 
ATOM      7  C   UNL     1      14.090  20.510  28.038  1.00  0.00     0.093 A 
ATOM      8  C   UNL     1      14.238  19.213  27.541  1.00  0.00     0.123 A 
ATOM      9  C   UNL     1      14.422  18.151  28.424  1.00  0.00     0.094 A 
ATOM     10  C   UNL     1      14.428  18.370  29.804  1.00  0.00     0.146 A 
ATOM     11  O   UNL     1      14.595  17.329  30.610  1.00  0.00    -0.452 OA
ENDROOT
BRANCH   1  12
ATOM     12  C   UNL     1      14.819  16.187  32.722  1.00  0.00     0.029 A 
ATOM     13  C   UNL     1      16.004  16.044  33.459  1.00  0.00     0.062 A 
ATOM     14  C   UNL     1      16.233  14.898  34.229  1.00  0.00     0.162 A 
ATOM     15  C   UNL     1      13.844  15.178  32.794  1.00  0.00     0.062 A 
ATOM     16  C   UNL     1      15.263  13.882  34.281  1.00  0.00     0.200 A 
ATOM     17  C   UNL     1      14.064  14.028  33.564  1.00  0.00     0.162 A 
BRANCH  14  18
ATOM     18  O   UNL     1      17.430  14.788  34.935  1.00  0.00    -0.504 OA
ATOM     19  H   UNL     1      18.307  14.565  34.479  1.00  0.00     0.293 HD
ENDBRANCH  14  18
BRANCH  16  20
ATOM     20  O   UNL     1      15.501  12.741  35.047  1.00  0.00    -0.502 OA
ATOM     21  H   UNL     1      15.055  11.853  34.847  1.00  0.00     0.293 HD
ENDBRANCH  16  20
BRANCH  17  22
ATOM     22  O   UNL     1      13.091  13.030  33.621  1.00  0.00    -0.504 OA
ATOM     23  H   UNL     1      12.881  12.446  32.821  1.00  0.00     0.293 HD
ENDBRANCH  17  22
ENDBRANCH   1  12
BRANCH   2  24
ATOM     24  O   UNL     1      14.265  18.757  33.938  1.00  0.00    -0.502 OA
ATOM     25  H   UNL     1      13.972  19.605  34.408  1.00  0.00     0.293 HD
ENDBRANCH   2  24
BRANCH   6  26
ATOM     26  O   UNL     1      14.066  22.108  29.802  1.00  0.00    -0.507 OA
ATOM     27  H   UNL     1      14.827  22.765  29.719  1.00  0.00     0.293 HD
ENDBRANCH   6  26
BRANCH   8  28
ATOM     28  O   UNL     1      14.215  18.970  26.170  1.00  0.00    -0.508 OA
ATOM     29  H   UNL     1      13.343  18.876  25.663  1.00  0.00     0.293 HD
ENDBRANCH   8  28
TORSDOF 7
ENDMDL
MODEL 8
REMARK VINA RESULT:    -7.021      1.795      7.036
REMARK INTER + INTRA:          -9.008
REMARK INTER:                  -8.660
REMARK INTRA:                  -0.348
REMARK UNBOUND:                -0.346
REMARK SMILES O=c1c(O)c(-c2cc(O)c(O)c(O)c2)oc2cc(O)cc(O)c12
REMARK SMILES IDX 5 1 3 2 2 3 1 4 23 5 21 6 20 7 18 8 17 9 16 10 15 11 6 12
REMARK SMILES IDX 7 13 8 14 14 15 10 16 12 17 9 18 11 20 13 22 4 24 22 26
REMARK SMILES IDX 19 28
REMARK H PARENT 9 19 11 21 13 23 4 25 22 27 19 29
REMARK Flexibility Score: inf
ROOT
ATOM      1  C   UNL     1      14.563  18.004  31.518  1.00  0.00     0.180 A 
ATOM      2  C   UNL     1      14.824  18.062  32.898  1.00  0.00     0.208 A 
ATOM      3  C   UNL     1      15.270  16.905  33.556  1.00  0.00     0.238 A 
ATOM      4  O   UNL     1      15.553  16.977  34.781  1.00  0.00    -0.285 OA
ATOM      5  C   UNL     1      15.434  15.701  32.830  1.00  0.00     0.111 A 
ATOM      6  C   UNL     1      15.841  14.459  33.402  1.00  0.00     0.134 A 
ATOM      7  C   UNL     1      16.097  13.364  32.567  1.00  0.00     0.093 A 
ATOM      8  C   UNL     1      15.897  13.449  31.187  1.00  0.00     0.123 A 
ATOM      9  C   UNL     1      15.442  14.640  30.626  1.00  0.00     0.094 A 
ATOM     10  C   UNL     1      15.213  15.759  31.429  1.00  0.00     0.146 A 
ATOM     11  O   UNL     1      14.790  16.878  30.853  1.00  0.00    -0.452 OA
ENDROOT
BRANCH   1  12
ATOM     12  C   UNL     1      14.067  19.176  30.761  1.00  0.00     0.029 A 
ATOM     13  C   UNL     1      14.985  20.103  30.244  1.00  0.00     0.062 A 
ATOM     14  C   UNL     1      14.546  21.208  29.507  1.00  0.00     0.162 A 
ATOM     15  C   UNL     1      12.698  19.351  30.498  1.00  0.00     0.062 A 
ATOM     16  C   UNL     1      13.173  21.390  29.264  1.00  0.00     0.200 A 
ATOM     17  C   UNL     1      12.249  20.454  29.759  1.00  0.00     0.162 A 
BRANCH  14  18
ATOM     18  O   UNL     1      15.490  22.114  29.022  1.00  0.00    -0.504 OA
ATOM     19  H   UNL     1      15.689  22.207  28.033  1.00  0.00     0.293 HD
ENDBRANCH  14  18
BRANCH  16  20
ATOM     20  O   UNL     1      12.744  22.497  28.531  1.00  0.00    -0.502 OA
ATOM     21  H   UNL     1      12.230  23.260  28.957  1.00  0.00     0.293 HD
ENDBRANCH  16  20
BRANCH  17  22
ATOM     22  O   UNL     1      10.887  20.620  29.511  1.00  0.00    -0.504 OA
ATOM     23  H   UNL     1      10.245  20.902  30.241  1.00  0.00     0.293 HD
ENDBRANCH  17  22
ENDBRANCH   1  12
BRANCH   2  24
ATOM     24  O   UNL     1      14.676  19.267  33.592  1.00  0.00    -0.502 OA
ATOM     25  H   UNL     1      13.840  19.836  33.521  1.00  0.00     0.293 HD
ENDBRANCH   2  24
BRANCH   6  26
ATOM     26  O   UNL     1      15.982  14.241  34.777  1.00  0.00    -0.507 OA
ATOM     27  H   UNL     1      16.003  14.969  35.474  1.00  0.00     0.293 HD
ENDBRANCH   6  26
BRANCH   8  28
ATOM     28  O   UNL     1      16.138  12.350  30.365  1.00  0.00    -0.508 OA
ATOM     29  H   UNL     1      16.841  11.658  30.598  1.00  0.00     0.293 HD
ENDBRANCH   8  28
TORSDOF 7
ENDMDL
MODEL 9
REMARK VINA RESULT:    -6.933      2.748      7.098
REMARK INTER + INTRA:          -8.900
REMARK INTER:                  -8.541
REMARK INTRA:                  -0.359
REMARK UNBOUND:                -0.346
REMARK SMILES O=c1c(O)c(-c2cc(O)c(O)c(O)c2)oc2cc(O)cc(O)c12
REMARK SMILES IDX 5 1 3 2 2 3 1 4 23 5 21 6 20 7 18 8 17 9 16 10 15 11 6 12
REMARK SMILES IDX 7 13 8 14 14 15 10 16 12 17 9 18 11 20 13 22 4 24 22 26
REMARK SMILES IDX 19 28
REMARK H PARENT 9 19 11 21 13 23 4 25 22 27 19 29
REMARK Flexibility Score: inf
ROOT
ATOM      1  C   UNL     1      15.297  18.223  31.157  1.00  0.00     0.180 A 
ATOM      2  C   UNL     1      14.604  18.191  32.379  1.00  0.00     0.208 A 
ATOM      3  C   UNL     1      14.353  16.951  32.988  1.00  0.00     0.238 A 
ATOM      4  O   UNL     1      13.779  16.933  34.109  1.00  0.00    -0.285 OA
ATOM      5  C   UNL     1      14.781  15.757  32.358  1.00  0.00     0.111 A 
ATOM      6  C   UNL     1      14.543  14.445  32.864  1.00  0.00     0.134 A 
ATOM      7  C   UNL     1      15.127  13.343  32.226  1.00  0.00     0.093 A 
ATOM      8  C   UNL     1      15.884  13.501  31.063  1.00  0.00     0.123 A 
ATOM      9  C   UNL     1      16.071  14.774  30.527  1.00  0.00     0.094 A 
ATOM     10  C   UNL     1      15.533  15.896  31.162  1.00  0.00     0.146 A 
ATOM     11  O   UNL     1      15.743  17.091  30.625  1.00  0.00    -0.452 OA
ENDROOT
BRANCH   1  12
ATOM     12  C   UNL     1      15.578  19.490  30.444  1.00  0.00     0.029 A 
ATOM     13  C   UNL     1      16.843  20.084  30.567  1.00  0.00     0.062 A 
ATOM     14  C   UNL     1      17.144  21.270  29.887  1.00  0.00     0.162 A 
ATOM     15  C   UNL     1      14.624  20.081  29.599  1.00  0.00     0.062 A 
ATOM     16  C   UNL     1      16.179  21.869  29.060  1.00  0.00     0.200 A 
ATOM     17  C   UNL     1      14.917  21.267  28.913  1.00  0.00     0.162 A 
BRANCH  14  18
ATOM     18  O   UNL     1      18.408  21.837  30.047  1.00  0.00    -0.504 OA
ATOM     19  H   UNL     1      18.780  22.517  29.395  1.00  0.00     0.293 HD
ENDBRANCH  14  18
BRANCH  16  20
ATOM     20  O   UNL     1      16.486  23.054  28.389  1.00  0.00    -0.502 OA
ATOM     21  H   UNL     1      16.570  23.941  28.872  1.00  0.00     0.293 HD
ENDBRANCH  16  20
BRANCH  17  22
ATOM     22  O   UNL     1      13.960  21.849  28.083  1.00  0.00    -0.504 OA
ATOM     23  H   UNL     1      12.968  21.756  28.269  1.00  0.00     0.293 HD
ENDBRANCH  17  22
ENDBRANCH   1  12
BRANCH   2  24
ATOM     24  O   UNL     1      14.209  19.383  32.994  1.00  0.00    -0.502 OA
ATOM     25  H   UNL     1      14.868  20.006  33.446  1.00  0.00     0.293 HD
ENDBRANCH   2  24
BRANCH   6  26
ATOM     26  O   UNL     1      13.727  14.167  33.965  1.00  0.00    -0.507 OA
ATOM     27  H   UNL     1      14.029  13.677  34.793  1.00  0.00     0.293 HD
ENDBRANCH   6  26
BRANCH   8  28
ATOM     28  O   UNL     1      16.447  12.398  30.425  1.00  0.00    -0.508 OA
ATOM     29  H   UNL     1      17.375  12.067  30.660  1.00  0.00     0.293 HD
ENDBRANCH   8  28
TORSDOF 7
ENDMDL
