MODEL 1
REMARK VINA RESULT:    -3.653      0.000      0.000
REMARK INTER + INTRA:          -4.478
REMARK INTER:                  -4.293
REMARK INTRA:                  -0.185
REMARK UNBOUND:                -0.185
REMARK SMILES O=C([O-])CCC(=O)[O-]
REMARK SMILES IDX 4 1 2 2 1 3 3 4 5 5 6 6 7 7 8 8
REMARK H PARENT
REMARK Flexibility Score: inf
ROOT
ATOM      1  C   UNL     1     218.403  -8.155  22.922  1.00  0.00     0.059 C 
ENDROOT
BRANCH   1   2
ATOM      2  C   UNL     1     218.771  -9.438  23.599  1.00  0.00     0.042 C 
ATOM      3  O   UNL     1     219.980  -9.772  23.710  1.00  0.00    -0.550 OA
ATOM      4  O   UNL     1     217.775 -10.288  24.063  1.00  0.00    -0.550 OA
ENDBRANCH   1   2
BRANCH   1   5
ATOM      5  C   UNL     1     217.512  -7.307  23.831  1.00  0.00     0.059 C 
BRANCH   5   6
ATOM      6  C   UNL     1     218.251  -6.916  25.072  1.00  0.00     0.042 C 
ATOM      7  O   UNL     1     219.234  -6.132  25.003  1.00  0.00    -0.550 OA
ATOM      8  O   UNL     1     217.823  -7.377  26.309  1.00  0.00    -0.550 OA
ENDBRANCH   5   6
ENDBRANCH   1   5
TORSDOF 3
ENDMDL
MODEL 2
REMARK VINA RESULT:    -3.630      0.102      3.335
REMARK INTER + INTRA:          -4.451
REMARK INTER:                  -4.265
REMARK INTRA:                  -0.187
REMARK UNBOUND:                -0.185
REMARK SMILES O=C([O-])CCC(=O)[O-]
REMARK SMILES IDX 4 1 2 2 1 3 3 4 5 5 6 6 7 7 8 8
REMARK H PARENT
REMARK Flexibility Score: inf
ROOT
ATOM      1  C   UNL     1     217.465  -7.352  23.928  1.00  0.00     0.059 C 
ENDROOT
BRANCH   1   2
ATOM      2  C   UNL     1     218.195  -7.006  25.187  1.00  0.00     0.042 C 
ATOM      3  O   UNL     1     217.764  -7.407  26.300  1.00  0.00    -0.550 OA
ATOM      4  O   UNL     1     219.324  -6.199  25.135  1.00  0.00    -0.550 OA
ENDBRANCH   1   2
BRANCH   1   5
ATOM      5  C   UNL     1     218.376  -8.131  22.978  1.00  0.00     0.059 C 
BRANCH   5   6
ATOM      6  C   UNL     1     218.758  -9.447  23.579  1.00  0.00     0.042 C 
ATOM      7  O   UNL     1     219.971  -9.745  23.733  1.00  0.00    -0.550 OA
ATOM      8  O   UNL     1     217.772 -10.322  24.017  1.00  0.00    -0.550 OA
ENDBRANCH   5   6
ENDBRANCH   1   5
TORSDOF 3
ENDMDL
MODEL 3
REMARK VINA RESULT:    -3.609      1.323      1.841
REMARK INTER + INTRA:          -4.427
REMARK INTER:                  -4.316
REMARK INTRA:                  -0.111
REMARK UNBOUND:                -0.185
REMARK SMILES O=C([O-])CCC(=O)[O-]
REMARK SMILES IDX 4 1 2 2 1 3 3 4 5 5 6 6 7 7 8 8
REMARK H PARENT
REMARK Flexibility Score: inf
ROOT
ATOM      1  C   UNL     1     217.366  -7.311  23.735  1.00  0.00     0.059 C 
ENDROOT
BRANCH   1   2
ATOM      2  C   UNL     1     217.900  -8.391  22.848  1.00  0.00     0.042 C 
ATOM      3  O   UNL     1     218.955  -8.204  22.187  1.00  0.00    -0.550 OA
ATOM      4  O   UNL     1     217.206  -9.586  22.715  1.00  0.00    -0.550 OA
ENDBRANCH   1   2
BRANCH   1   5
ATOM      5  C   UNL     1     217.555  -7.684  25.206  1.00  0.00     0.059 C 
BRANCH   5   6
ATOM      6  C   UNL     1     218.698  -6.919  25.797  1.00  0.00     0.042 C 
ATOM      7  O   UNL     1     219.026  -7.098  26.999  1.00  0.00    -0.550 OA
ATOM      8  O   UNL     1     219.431  -6.046  25.006  1.00  0.00    -0.550 OA
ENDBRANCH   5   6
ENDBRANCH   1   5
TORSDOF 3
ENDMDL
MODEL 4
REMARK VINA RESULT:    -3.560      1.771      3.818
REMARK INTER + INTRA:          -4.370
REMARK INTER:                  -4.205
REMARK INTRA:                  -0.164
REMARK UNBOUND:                -0.185
REMARK SMILES O=C([O-])CCC(=O)[O-]
REMARK SMILES IDX 4 1 2 2 1 3 3 4 5 5 6 6 7 7 8 8
REMARK H PARENT
REMARK Flexibility Score: inf
ROOT
ATOM      1  C   UNL     1     220.887  -6.931  23.758  1.00  0.00     0.059 C 
ENDROOT
BRANCH   1   2
ATOM      2  C   UNL     1     219.897  -6.694  24.855  1.00  0.00     0.042 C 
ATOM      3  O   UNL     1     218.692  -6.457  24.581  1.00  0.00    -0.550 OA
ATOM      4  O   UNL     1     220.318  -6.688  26.179  1.00  0.00    -0.550 OA
ENDBRANCH   1   2
BRANCH   1   5
ATOM      5  C   UNL     1     220.372  -8.002  22.795  1.00  0.00     0.059 C 
BRANCH   5   6
ATOM      6  C   UNL     1     220.455  -9.356  23.426  1.00  0.00     0.042 C 
ATOM      7  O   UNL     1     221.551  -9.780  23.876  1.00  0.00    -0.550 OA
ATOM      8  O   UNL     1     219.310 -10.129  23.562  1.00  0.00    -0.550 OA
ENDBRANCH   5   6
ENDBRANCH   1   5
TORSDOF 3
ENDMDL
MODEL 5
REMARK VINA RESULT:    -3.558      1.750      2.287
REMARK INTER + INTRA:          -4.367
REMARK INTER:                  -4.212
REMARK INTRA:                  -0.155
REMARK UNBOUND:                -0.185
REMARK SMILES O=C([O-])CCC(=O)[O-]
REMARK SMILES IDX 4 1 2 2 1 3 3 4 5 5 6 6 7 7 8 8
REMARK H PARENT
REMARK Flexibility Score: inf
ROOT
ATOM      1  C   UNL     1     220.189  -8.006  22.755  1.00  0.00     0.059 C 
ENDROOT
BRANCH   1   2
ATOM      2  C   UNL     1     220.237  -9.389  23.324  1.00  0.00     0.042 C 
ATOM      3  O   UNL     1     219.207 -10.114  23.315  1.00  0.00    -0.550 OA
ATOM      4  O   UNL     1     221.406  -9.860  23.908  1.00  0.00    -0.550 OA
ENDBRANCH   1   2
BRANCH   1   5
ATOM      5  C   UNL     1     220.867  -7.015  23.702  1.00  0.00     0.059 C 
BRANCH   5   6
ATOM      6  C   UNL     1     219.961  -6.680  24.845  1.00  0.00     0.042 C 
ATOM      7  O   UNL     1     218.753  -6.397  24.634  1.00  0.00    -0.550 OA
ATOM      8  O   UNL     1     220.439  -6.729  26.147  1.00  0.00    -0.550 OA
ENDBRANCH   5   6
ENDBRANCH   1   5
TORSDOF 3
ENDMDL
MODEL 6
REMARK VINA RESULT:    -3.527      1.522      1.870
REMARK INTER + INTRA:          -4.331
REMARK INTER:                  -4.191
REMARK INTRA:                  -0.140
REMARK UNBOUND:                -0.185
REMARK SMILES O=C([O-])CCC(=O)[O-]
REMARK SMILES IDX 4 1 2 2 1 3 3 4 5 5 6 6 7 7 8 8
REMARK H PARENT
REMARK Flexibility Score: inf
ROOT
ATOM      1  C   UNL     1     218.144  -9.824  24.175  1.00  0.00     0.059 C 
ENDROOT
BRANCH   1   2
ATOM      2  C   UNL     1     219.524 -10.028  23.634  1.00  0.00     0.042 C 
ATOM      3  O   UNL     1     220.390 -10.633  24.319  1.00  0.00    -0.550 OA
ATOM      4  O   UNL     1     219.868  -9.506  22.394  1.00  0.00    -0.550 OA
ENDBRANCH   1   2
BRANCH   1   5
ATOM      5  C   UNL     1     218.127  -8.666  25.174  1.00  0.00     0.059 C 
BRANCH   5   6
ATOM      6  C   UNL     1     218.007  -7.358  24.456  1.00  0.00     0.042 C 
ATOM      7  O   UNL     1     218.833  -6.435  24.678  1.00  0.00    -0.550 OA
ATOM      8  O   UNL     1     217.011  -7.177  23.506  1.00  0.00    -0.550 OA
ENDBRANCH   5   6
ENDBRANCH   1   5
TORSDOF 3
ENDMDL
MODEL 7
REMARK VINA RESULT:    -3.509      2.709      3.812
REMARK INTER + INTRA:          -4.309
REMARK INTER:                  -4.200
REMARK INTRA:                  -0.109
REMARK UNBOUND:                -0.185
REMARK SMILES O=C([O-])CCC(=O)[O-]
REMARK SMILES IDX 4 1 2 2 1 3 3 4 5 5 6 6 7 7 8 8
REMARK H PARENT
REMARK Flexibility Score: inf
ROOT
ATOM      1  C   UNL     1     220.577  -7.851  22.297  1.00  0.00     0.059 C 
ENDROOT
BRANCH   1   2
ATOM      2  C   UNL     1     221.773  -8.690  22.622  1.00  0.00     0.042 C 
ATOM      3  O   UNL     1     222.804  -8.628  21.903  1.00  0.00    -0.550 OA
ATOM      4  O   UNL     1     221.729  -9.577  23.690  1.00  0.00    -0.550 OA
ENDBRANCH   1   2
BRANCH   1   5
ATOM      5  C   UNL     1     219.685  -8.562  21.279  1.00  0.00     0.059 C 
BRANCH   5   6
ATOM      6  C   UNL     1     218.574  -9.287  21.971  1.00  0.00     0.042 C 
ATOM      7  O   UNL     1     218.263 -10.455  21.620  1.00  0.00    -0.550 OA
ATOM      8  O   UNL     1     217.915  -8.691  23.038  1.00  0.00    -0.550 OA
ENDBRANCH   5   6
ENDBRANCH   1   5
TORSDOF 3
ENDMDL
MODEL 8
REMARK VINA RESULT:    -3.490      1.511      3.576
REMARK INTER + INTRA:          -4.287
REMARK INTER:                  -4.143
REMARK INTRA:                  -0.145
REMARK UNBOUND:                -0.185
REMARK SMILES O=C([O-])CCC(=O)[O-]
REMARK SMILES IDX 4 1 2 2 1 3 3 4 5 5 6 6 7 7 8 8
REMARK H PARENT
REMARK Flexibility Score: inf
ROOT
ATOM      1  C   UNL     1     218.145  -8.790  25.188  1.00  0.00     0.059 C 
ENDROOT
BRANCH   1   2
ATOM      2  C   UNL     1     218.052  -7.455  24.520  1.00  0.00     0.042 C 
ATOM      3  O   UNL     1     218.775  -6.500  24.908  1.00  0.00    -0.550 OA
ATOM      4  O   UNL     1     217.131  -7.252  23.500  1.00  0.00    -0.550 OA
ENDBRANCH   1   2
BRANCH   1   5
ATOM      5  C   UNL     1     218.220  -9.906  24.146  1.00  0.00     0.059 C 
BRANCH   5   6
ATOM      6  C   UNL     1     219.608 -10.017  23.597  1.00  0.00     0.042 C 
ATOM      7  O   UNL     1     220.501 -10.621  24.247  1.00  0.00    -0.550 OA
ATOM      8  O   UNL     1     219.902  -9.497  22.344  1.00  0.00    -0.550 OA
ENDBRANCH   5   6
ENDBRANCH   1   5
TORSDOF 3
ENDMDL
MODEL 9
REMARK VINA RESULT:    -3.484      2.613      3.230
REMARK INTER + INTRA:          -4.280
REMARK INTER:                  -4.159
REMARK INTRA:                  -0.121
REMARK UNBOUND:                -0.185
REMARK SMILES O=C([O-])CCC(=O)[O-]
REMARK SMILES IDX 4 1 2 2 1 3 3 4 5 5 6 6 7 7 8 8
REMARK H PARENT
REMARK Flexibility Score: inf
ROOT
ATOM      1  C   UNL     1     217.565  -8.131  26.103  1.00  0.00     0.059 C 
ENDROOT
BRANCH   1   2
ATOM      2  C   UNL     1     218.526  -8.907  25.258  1.00  0.00     0.042 C 
ATOM      3  O   UNL     1     219.741  -8.581  25.219  1.00  0.00    -0.550 OA
ATOM      4  O   UNL     1     218.069  -9.959  24.475  1.00  0.00    -0.550 OA
ENDBRANCH   1   2
BRANCH   1   5
ATOM      5  C   UNL     1     217.201  -8.921  27.362  1.00  0.00     0.059 C 
BRANCH   5   6
ATOM      6  C   UNL     1     218.126  -8.570  28.485  1.00  0.00     0.042 C 
ATOM      7  O   UNL     1     218.518  -9.460  29.285  1.00  0.00    -0.550 OA
ATOM      8  O   UNL     1     218.595  -7.270  28.617  1.00  0.00    -0.550 OA
ENDBRANCH   5   6
ENDBRANCH   1   5
TORSDOF 3
ENDMDL
