MODEL 1
REMARK VINA RESULT:    -4.505      0.000      0.000
REMARK INTER + INTRA:          -4.413
REMARK INTER:                  -6.349
REMARK INTRA:                   1.937
REMARK UNBOUND:                 1.937
REMARK SMILES CC1=CCC(=C(C)C)C(=O)CC(C)=CCC1
REMARK SMILES IDX 12 1 14 2 13 3 15 4 16 5 2 6 1 7 3 8 11 10 9 11 10 12 5 13
REMARK SMILES IDX 6 14 7 15 8 16 4 17
REMARK H PARENT
REMARK Flexibility Score: 60.00
ROOT
ATOM      1  C   UNL     1      72.734  61.404  28.302  1.00  0.00    -0.070 C 
ATOM      2  C   UNL     1      71.621  60.927  28.901  1.00  0.00    -0.027 C 
ATOM      3  C   UNL     1      74.021  60.642  28.495  1.00  0.00     0.039 C 
ENDROOT
BRANCH   2   4
ATOM      4  C   UNL     1      70.225  61.491  28.749  1.00  0.00     0.032 C 
BRANCH   4   5
ATOM      5  C   UNL     1      69.113  60.434  28.588  1.00  0.00     0.034 C 
BRANCH   5   6
ATOM      6  C   UNL     1      68.412  60.504  27.244  1.00  0.00    -0.077 C 
ATOM      7  C   UNL     1      66.909  60.629  27.242  1.00  0.00     0.039 C 
ATOM      8  C   UNL     1      69.052  60.529  26.048  1.00  0.00    -0.023 CG0
ATOM      9  G   UNL     1      70.542  60.399  25.806  1.00  0.00     0.000 G0
ENDBRANCH   5   6
ENDBRANCH   4   5
ENDBRANCH   2   4
BRANCH   1  10
ATOM     10  C   UNL     1      72.732  62.606  27.378  1.00  0.00     0.111 C 
BRANCH  10  11
ATOM     11  C   UNL     1      71.462  62.685  26.573  1.00  0.00     0.163 C 
ATOM     12  O   UNL     1      70.650  63.613  26.835  1.00  0.00    -0.294 OA
BRANCH  11  13
ATOM     13  C   UNL     1      71.167  61.750  25.447  1.00  0.00    -0.002 C 
ATOM     14  C   UNL     1      71.528  62.062  24.166  1.00  0.00    -0.069 C 
ATOM     15  C   UNL     1      72.095  63.422  23.820  1.00  0.00     0.039 C 
ATOM     16  C   UNL     1      71.387  61.073  23.030  1.00  0.00     0.039 C 
BRANCH  13  17
ATOM     17  C   UNL     1      70.538  60.412  25.800  1.00  0.00     0.066 CG0
ATOM     18  G   UNL     1      69.047  60.522  26.047  1.00  0.00     0.000 G0
ENDBRANCH  13  17
ENDBRANCH  11  13
ENDBRANCH  10  11
ENDBRANCH   1  10
TORSDOF 0
ENDMDL
MODEL 2
REMARK VINA RESULT:    -4.267      1.545      3.720
REMARK INTER + INTRA:          -4.076
REMARK INTER:                  -6.992
REMARK INTRA:                   2.915
REMARK UNBOUND:                 1.937
REMARK SMILES CC1=CCC(=C(C)C)C(=O)CC(C)=CCC1
REMARK SMILES IDX 12 1 14 2 13 3 15 4 16 5 2 6 1 7 3 8 11 10 9 11 10 12 5 13
REMARK SMILES IDX 6 14 7 15 8 16 4 17
REMARK H PARENT
REMARK Flexibility Score: 60.00
ROOT
ATOM      1  C   UNL     1      68.904  60.541  27.352  1.00  0.00    -0.070 C 
ATOM      2  C   UNL     1      68.968  61.372  28.417  1.00  0.00    -0.027 C 
ATOM      3  C   UNL     1      67.588  60.425  26.626  1.00  0.00     0.039 C 
ENDROOT
BRANCH   2   4
ATOM      4  C   UNL     1      70.214  61.696  29.211  1.00  0.00     0.032 C 
BRANCH   4   5
ATOM      5  C   UNL     1      71.425  60.787  28.915  1.00  0.00     0.034 C 
BRANCH   5   6
ATOM      6  C   UNL     1      72.579  61.526  28.261  1.00  0.00    -0.077 C 
ATOM      7  C   UNL     1      73.948  61.377  28.879  1.00  0.00     0.039 C 
ATOM      8  C   UNL     1      72.474  62.253  27.121  1.00  0.00    -0.023 CG0
ATOM      9  G   UNL     1      71.210  62.554  26.342  1.00  0.00     0.000 G0
ENDBRANCH   5   6
ENDBRANCH   4   5
ENDBRANCH   2   4
BRANCH   1  10
ATOM     10  C   UNL     1      70.106  59.797  26.805  1.00  0.00     0.111 C 
BRANCH  10  11
ATOM     11  C   UNL     1      70.459  60.259  25.416  1.00  0.00     0.163 C 
ATOM     12  O   UNL     1      70.178  59.502  24.448  1.00  0.00    -0.294 OA
BRANCH  11  13
ATOM     13  C   UNL     1      71.067  61.597  25.146  1.00  0.00    -0.002 C 
ATOM     14  C   UNL     1      71.392  61.973  23.873  1.00  0.00    -0.069 C 
ATOM     15  C   UNL     1      71.295  60.999  22.719  1.00  0.00     0.039 C 
ATOM     16  C   UNL     1      71.859  63.374  23.547  1.00  0.00     0.039 C 
BRANCH  13  17
ATOM     17  C   UNL     1      71.217  62.543  26.326  1.00  0.00     0.066 CG0
ATOM     18  G   UNL     1      72.472  62.267  27.131  1.00  0.00     0.000 G0
ENDBRANCH  13  17
ENDBRANCH  11  13
ENDBRANCH  10  11
ENDBRANCH   1  10
TORSDOF 0
ENDMDL
MODEL 3
REMARK VINA RESULT:    -4.091     10.710     12.646
REMARK INTER + INTRA:          -3.828
REMARK INTER:                  -4.549
REMARK INTRA:                   0.720
REMARK UNBOUND:                 1.937
REMARK SMILES CC1=CCC(=C(C)C)C(=O)CC(C)=CCC1
REMARK SMILES IDX 12 1 14 2 13 3 15 4 16 5 2 6 1 7 3 8 11 10 9 11 10 12 5 13
REMARK SMILES IDX 6 14 7 15 8 16 4 17
REMARK H PARENT
REMARK Flexibility Score: 60.00
ROOT
ATOM      1  C   UNL     1      70.535  73.754  24.023  1.00  0.00    -0.070 C 
ATOM      2  C   UNL     1      70.739  72.791  24.949  1.00  0.00    -0.027 C 
ATOM      3  C   UNL     1      69.985  75.078  24.490  1.00  0.00     0.039 C 
ENDROOT
BRANCH   2   4
ATOM      4  C   UNL     1      71.370  71.439  24.694  1.00  0.00     0.032 C 
BRANCH   4   5
ATOM      5  C   UNL     1      72.574  71.106  25.598  1.00  0.00     0.034 C 
BRANCH   5   6
ATOM      6  C   UNL     1      73.768  72.012  25.360  1.00  0.00    -0.077 C 
ATOM      7  C   UNL     1      74.497  72.546  26.568  1.00  0.00     0.039 C 
ATOM      8  C   UNL     1      74.264  72.317  24.135  1.00  0.00    -0.023 CG0
ATOM      9  G   UNL     1      73.691  71.914  22.790  1.00  0.00     0.000 G0
ENDBRANCH   5   6
ENDBRANCH   4   5
ENDBRANCH   2   4
BRANCH   1  10
ATOM     10  C   UNL     1      70.917  73.599  22.564  1.00  0.00     0.111 C 
BRANCH  10  11
ATOM     11  C   UNL     1      72.326  74.062  22.306  1.00  0.00     0.163 C 
ATOM     12  O   UNL     1      72.599  75.276  22.508  1.00  0.00    -0.294 OA
BRANCH  11  13
ATOM     13  C   UNL     1      73.413  73.128  21.885  1.00  0.00    -0.002 C 
ATOM     14  C   UNL     1      74.184  73.400  20.791  1.00  0.00    -0.069 C 
ATOM     15  C   UNL     1      73.869  74.567  19.881  1.00  0.00     0.039 C 
ATOM     16  C   UNL     1      75.390  72.560  20.432  1.00  0.00     0.039 C 
BRANCH  13  17
ATOM     17  C   UNL     1      73.678  71.924  22.775  1.00  0.00     0.066 CG0
ATOM     18  G   UNL     1      74.254  72.317  24.121  1.00  0.00     0.000 G0
ENDBRANCH  13  17
ENDBRANCH  11  13
ENDBRANCH  10  11
ENDBRANCH   1  10
TORSDOF 0
ENDMDL
MODEL 4
REMARK VINA RESULT:    -4.048     11.363     14.043
REMARK INTER + INTRA:          -3.767
REMARK INTER:                  -4.169
REMARK INTRA:                   0.401
REMARK UNBOUND:                 1.937
REMARK SMILES CC1=CCC(=C(C)C)C(=O)CC(C)=CCC1
REMARK SMILES IDX 12 1 14 2 13 3 15 4 16 5 2 6 1 7 3 8 11 10 9 11 10 12 5 13
REMARK SMILES IDX 6 14 7 15 8 16 4 17
REMARK H PARENT
REMARK Flexibility Score: 60.00
ROOT
ATOM      1  C   UNL     1      73.979  75.132  20.550  1.00  0.00    -0.070 C 
ATOM      2  C   UNL     1      74.772  74.177  20.014  1.00  0.00    -0.027 C 
ATOM      3  C   UNL     1      74.308  76.573  20.251  1.00  0.00     0.039 C 
ENDROOT
BRANCH   2   4
ATOM      4  C   UNL     1      74.550  72.684  20.117  1.00  0.00     0.032 C 
BRANCH   4   5
ATOM      5  C   UNL     1      75.648  71.918  20.884  1.00  0.00     0.034 C 
BRANCH   5   6
ATOM      6  C   UNL     1      76.069  72.607  22.169  1.00  0.00    -0.077 C 
ATOM      7  C   UNL     1      77.467  73.171  22.238  1.00  0.00     0.039 C 
ATOM      8  C   UNL     1      75.252  72.809  23.232  1.00  0.00    -0.023 CG0
ATOM      9  G   UNL     1      73.827  72.319  23.395  1.00  0.00     0.000 G0
ENDBRANCH   5   6
ENDBRANCH   4   5
ENDBRANCH   2   4
BRANCH   1  10
ATOM     10  C   UNL     1      72.733  74.821  21.356  1.00  0.00     0.111 C 
BRANCH  10  11
ATOM     11  C   UNL     1      73.040  74.690  22.824  1.00  0.00     0.163 C 
ATOM     12  O   UNL     1      73.457  75.710  23.438  1.00  0.00    -0.294 OA
BRANCH  11  13
ATOM     13  C   UNL     1      72.809  73.424  23.582  1.00  0.00    -0.002 C 
ATOM     14  C   UNL     1      71.683  73.259  24.340  1.00  0.00    -0.069 C 
ATOM     15  C   UNL     1      70.714  74.398  24.564  1.00  0.00     0.039 C 
ATOM     16  C   UNL     1      71.343  71.935  24.990  1.00  0.00     0.039 C 
BRANCH  13  17
ATOM     17  C   UNL     1      73.824  72.308  23.398  1.00  0.00     0.066 CG0
ATOM     18  G   UNL     1      75.235  72.834  23.227  1.00  0.00     0.000 G0
ENDBRANCH  13  17
ENDBRANCH  11  13
ENDBRANCH  10  11
ENDBRANCH   1  10
TORSDOF 0
ENDMDL
MODEL 5
REMARK VINA RESULT:    -3.985     11.671     13.864
REMARK INTER + INTRA:          -3.680
REMARK INTER:                  -3.893
REMARK INTRA:                   0.214
REMARK UNBOUND:                 1.937
REMARK SMILES CC1=CCC(=C(C)C)C(=O)CC(C)=CCC1
REMARK SMILES IDX 12 1 14 2 13 3 15 4 16 5 2 6 1 7 3 8 11 10 9 11 10 12 5 13
REMARK SMILES IDX 6 14 7 15 8 16 4 17
REMARK H PARENT
REMARK Flexibility Score: 60.00
ROOT
ATOM      1  C   UNL     1      74.333  75.603  22.281  1.00  0.00    -0.070 C 
ATOM      2  C   UNL     1      75.008  75.164  21.196  1.00  0.00    -0.027 C 
ATOM      3  C   UNL     1      75.116  76.294  23.369  1.00  0.00     0.039 C 
ENDROOT
BRANCH   2   4
ATOM      4  C   UNL     1      74.391  74.538  19.964  1.00  0.00     0.032 C 
BRANCH   4   5
ATOM      5  C   UNL     1      73.848  73.109  20.168  1.00  0.00     0.034 C 
BRANCH   5   6
ATOM      6  C   UNL     1      74.682  72.285  21.131  1.00  0.00    -0.077 C 
ATOM      7  C   UNL     1      76.050  71.842  20.673  1.00  0.00     0.039 C 
ATOM      8  C   UNL     1      74.309  71.979  22.398  1.00  0.00    -0.023 CG0
ATOM      9  G   UNL     1      72.985  72.299  23.063  1.00  0.00     0.000 G0
ENDBRANCH   5   6
ENDBRANCH   4   5
ENDBRANCH   2   4
BRANCH   1  10
ATOM     10  C   UNL     1      72.825  75.515  22.414  1.00  0.00     0.111 C 
BRANCH  10  11
ATOM     11  C   UNL     1      72.420  74.745  23.643  1.00  0.00     0.163 C 
ATOM     12  O   UNL     1      71.440  75.169  24.313  1.00  0.00    -0.294 OA
BRANCH  11  13
ATOM     13  C   UNL     1      73.093  73.476  24.052  1.00  0.00    -0.002 C 
ATOM     14  C   UNL     1      73.698  73.368  25.273  1.00  0.00    -0.069 C 
ATOM     15  C   UNL     1      73.846  74.566  26.184  1.00  0.00     0.039 C 
ATOM     16  C   UNL     1      74.248  72.053  25.780  1.00  0.00     0.039 C 
BRANCH  13  17
ATOM     17  C   UNL     1      72.991  72.296  23.099  1.00  0.00     0.066 CG0
ATOM     18  G   UNL     1      74.311  71.989  22.418  1.00  0.00     0.000 G0
ENDBRANCH  13  17
ENDBRANCH  11  13
ENDBRANCH  10  11
ENDBRANCH   1  10
TORSDOF 0
ENDMDL
MODEL 6
REMARK VINA RESULT:    -3.904     10.677     12.422
REMARK INTER + INTRA:          -3.566
REMARK INTER:                  -3.787
REMARK INTRA:                   0.222
REMARK UNBOUND:                 1.937
REMARK SMILES CC1=CCC(=C(C)C)C(=O)CC(C)=CCC1
REMARK SMILES IDX 12 1 14 2 13 3 15 4 16 5 2 6 1 7 3 8 11 10 9 11 10 12 5 13
REMARK SMILES IDX 6 14 7 15 8 16 4 17
REMARK H PARENT
REMARK Flexibility Score: 60.00
ROOT
ATOM      1  C   UNL     1      74.017  71.570  26.065  1.00  0.00    -0.070 C 
ATOM      2  C   UNL     1      72.743  71.142  25.922  1.00  0.00    -0.027 C 
ATOM      3  C   UNL     1      74.953  70.733  26.899  1.00  0.00     0.039 C 
ENDROOT
BRANCH   2   4
ATOM      4  C   UNL     1      71.686  71.787  25.051  1.00  0.00     0.032 C 
BRANCH   4   5
ATOM      5  C   UNL     1      71.884  71.585  23.535  1.00  0.00     0.034 C 
BRANCH   5   6
ATOM      6  C   UNL     1      71.783  72.875  22.742  1.00  0.00    -0.077 C 
ATOM      7  C   UNL     1      70.484  73.639  22.809  1.00  0.00     0.039 C 
ATOM      8  C   UNL     1      72.803  73.420  22.034  1.00  0.00    -0.023 CG0
ATOM      9  G   UNL     1      74.180  72.828  21.812  1.00  0.00     0.000 G0
ENDBRANCH   5   6
ENDBRANCH   4   5
ENDBRANCH   2   4
BRANCH   1  10
ATOM     10  C   UNL     1      74.568  72.792  25.357  1.00  0.00     0.111 C 
BRANCH  10  11
ATOM     11  C   UNL     1      75.282  72.423  24.085  1.00  0.00     0.163 C 
ATOM     12  O   UNL     1      75.933  71.343  24.061  1.00  0.00    -0.294 OA
BRANCH  11  13
ATOM     13  C   UNL     1      75.194  73.251  22.845  1.00  0.00    -0.002 C 
ATOM     14  C   UNL     1      76.050  74.296  22.640  1.00  0.00    -0.069 C 
ATOM     15  C   UNL     1      77.009  74.748  23.719  1.00  0.00     0.039 C 
ATOM     16  C   UNL     1      76.091  75.053  21.330  1.00  0.00     0.039 C 
BRANCH  13  17
ATOM     17  C   UNL     1      74.181  72.825  21.794  1.00  0.00     0.066 CG0
ATOM     18  G   UNL     1      72.804  73.402  22.052  1.00  0.00     0.000 G0
ENDBRANCH  13  17
ENDBRANCH  11  13
ENDBRANCH  10  11
ENDBRANCH   1  10
TORSDOF 0
ENDMDL
MODEL 7
REMARK VINA RESULT:    -3.874     11.334     13.175
REMARK INTER + INTRA:          -3.522
REMARK INTER:                  -3.898
REMARK INTRA:                   0.376
REMARK UNBOUND:                 1.937
REMARK SMILES CC1=CCC(=C(C)C)C(=O)CC(C)=CCC1
REMARK SMILES IDX 12 1 14 2 13 3 15 4 16 5 2 6 1 7 3 8 11 10 9 11 10 12 5 13
REMARK SMILES IDX 6 14 7 15 8 16 4 17
REMARK H PARENT
REMARK Flexibility Score: 60.00
ROOT
ATOM      1  C   UNL     1      74.800  72.561  23.997  1.00  0.00    -0.070 C 
ATOM      2  C   UNL     1      73.797  72.454  24.897  1.00  0.00    -0.027 C 
ATOM      3  C   UNL     1      75.977  73.434  24.352  1.00  0.00     0.039 C 
ENDROOT
BRANCH   2   4
ATOM      4  C   UNL     1      72.585  71.557  24.767  1.00  0.00     0.032 C 
BRANCH   4   5
ATOM      5  C   UNL     1      71.712  71.824  23.523  1.00  0.00     0.034 C 
BRANCH   5   6
ATOM      6  C   UNL     1      71.296  73.277  23.388  1.00  0.00    -0.077 C 
ATOM      7  C   UNL     1      70.444  73.868  24.483  1.00  0.00     0.039 C 
ATOM      8  C   UNL     1      71.696  74.097  22.384  1.00  0.00    -0.023 CG0
ATOM      9  G   UNL     1      72.531  73.722  21.175  1.00  0.00     0.000 G0
ENDBRANCH   5   6
ENDBRANCH   4   5
ENDBRANCH   2   4
BRANCH   1  10
ATOM     10  C   UNL     1      74.839  71.780  22.698  1.00  0.00     0.111 C 
BRANCH  10  11
ATOM     11  C   UNL     1      74.857  72.693  21.501  1.00  0.00     0.163 C 
ATOM     12  O   UNL     1      75.563  72.361  20.511  1.00  0.00    -0.294 OA
BRANCH  11  13
ATOM     13  C   UNL     1      74.026  73.932  21.425  1.00  0.00    -0.002 C 
ATOM     14  C   UNL     1      74.606  75.168  21.492  1.00  0.00    -0.069 C 
ATOM     15  C   UNL     1      76.078  75.328  21.801  1.00  0.00     0.039 C 
ATOM     16  C   UNL     1      73.816  76.437  21.260  1.00  0.00     0.039 C 
BRANCH  13  17
ATOM     17  C   UNL     1      72.537  73.757  21.178  1.00  0.00     0.066 CG0
ATOM     18  G   UNL     1      71.704  74.110  22.394  1.00  0.00     0.000 G0
ENDBRANCH  13  17
ENDBRANCH  11  13
ENDBRANCH  10  11
ENDBRANCH   1  10
TORSDOF 0
ENDMDL
MODEL 8
REMARK VINA RESULT:    -3.813     10.904     12.968
REMARK INTER + INTRA:          -3.437
REMARK INTER:                  -3.607
REMARK INTRA:                   0.170
REMARK UNBOUND:                 1.937
REMARK SMILES CC1=CCC(=C(C)C)C(=O)CC(C)=CCC1
REMARK SMILES IDX 12 1 14 2 13 3 15 4 16 5 2 6 1 7 3 8 11 10 9 11 10 12 5 13
REMARK SMILES IDX 6 14 7 15 8 16 4 17
REMARK H PARENT
REMARK Flexibility Score: 60.00
ROOT
ATOM      1  C   UNL     1      71.493  72.888  23.986  1.00  0.00    -0.070 C 
ATOM      2  C   UNL     1      71.552  73.339  22.713  1.00  0.00    -0.027 C 
ATOM      3  C   UNL     1      70.269  73.229  24.799  1.00  0.00     0.039 C 
ENDROOT
BRANCH   2   4
ATOM      4  C   UNL     1      72.644  73.022  21.714  1.00  0.00     0.032 C 
BRANCH   4   5
ATOM      5  C   UNL     1      73.943  73.833  21.897  1.00  0.00     0.034 C 
BRANCH   5   6
ATOM      6  C   UNL     1      75.189  72.966  21.925  1.00  0.00    -0.077 C 
ATOM      7  C   UNL     1      75.579  72.256  20.652  1.00  0.00     0.039 C 
ATOM      8  C   UNL     1      76.010  72.842  22.997  1.00  0.00    -0.023 CG0
ATOM      9  G   UNL     1      75.812  73.442  24.375  1.00  0.00     0.000 G0
ENDBRANCH   5   6
ENDBRANCH   4   5
ENDBRANCH   2   4
BRANCH   1  10
ATOM     10  C   UNL     1      72.547  71.989  24.600  1.00  0.00     0.111 C 
BRANCH  10  11
ATOM     11  C   UNL     1      73.547  72.775  25.405  1.00  0.00     0.163 C 
ATOM     12  O   UNL     1      73.112  73.632  26.220  1.00  0.00    -0.294 OA
BRANCH  11  13
ATOM     13  C   UNL     1      75.018  72.530  25.316  1.00  0.00    -0.002 C 
ATOM     14  C   UNL     1      75.594  71.484  25.982  1.00  0.00    -0.069 C 
ATOM     15  C   UNL     1      74.798  70.636  26.949  1.00  0.00     0.039 C 
ATOM     16  C   UNL     1      77.048  71.115  25.788  1.00  0.00     0.039 C 
BRANCH  13  17
ATOM     17  C   UNL     1      75.819  73.430  24.389  1.00  0.00     0.066 CG0
ATOM     18  G   UNL     1      75.989  72.829  23.008  1.00  0.00     0.000 G0
ENDBRANCH  13  17
ENDBRANCH  11  13
ENDBRANCH  10  11
ENDBRANCH   1  10
TORSDOF 0
ENDMDL
MODEL 9
REMARK VINA RESULT:    -3.777     11.675     13.377
REMARK INTER + INTRA:          -3.386
REMARK INTER:                  -3.524
REMARK INTRA:                   0.138
REMARK UNBOUND:                 1.937
REMARK SMILES CC1=CCC(=C(C)C)C(=O)CC(C)=CCC1
REMARK SMILES IDX 12 1 14 2 13 3 15 4 16 5 2 6 1 7 3 8 11 10 9 11 10 12 5 13
REMARK SMILES IDX 6 14 7 15 8 16 4 17
REMARK H PARENT
REMARK Flexibility Score: 60.00
ROOT
ATOM      1  C   UNL     1      71.559  73.300  24.348  1.00  0.00    -0.070 C 
ATOM      2  C   UNL     1      71.215  73.431  23.047  1.00  0.00    -0.027 C 
ATOM      3  C   UNL     1      70.597  72.586  25.264  1.00  0.00     0.039 C 
ENDROOT
BRANCH   2   4
ATOM      4  C   UNL     1      72.082  74.027  21.960  1.00  0.00     0.032 C 
BRANCH   4   5
ATOM      5  C   UNL     1      73.115  73.056  21.351  1.00  0.00     0.034 C 
BRANCH   5   6
ATOM      6  C   UNL     1      74.502  73.661  21.227  1.00  0.00    -0.077 C 
ATOM      7  C   UNL     1      74.699  74.762  20.214  1.00  0.00     0.039 C 
ATOM      8  C   UNL     1      75.556  73.326  22.012  1.00  0.00    -0.023 CG0
ATOM      9  G   UNL     1      75.598  72.245  23.074  1.00  0.00     0.000 G0
ENDBRANCH   5   6
ENDBRANCH   4   5
ENDBRANCH   2   4
BRANCH   1  10
ATOM     10  C   UNL     1      72.894  73.753  24.905  1.00  0.00     0.111 C 
BRANCH  10  11
ATOM     11  C   UNL     1      73.889  72.625  24.947  1.00  0.00     0.163 C 
ATOM     12  O   UNL     1      73.495  71.500  25.357  1.00  0.00    -0.294 OA
BRANCH  11  13
ATOM     13  C   UNL     1      75.295  72.777  24.466  1.00  0.00    -0.002 C 
ATOM     14  C   UNL     1      76.261  73.299  25.280  1.00  0.00    -0.069 C 
ATOM     15  C   UNL     1      75.914  73.883  26.632  1.00  0.00     0.039 C 
ATOM     16  C   UNL     1      77.720  73.320  24.881  1.00  0.00     0.039 C 
BRANCH  13  17
ATOM     17  C   UNL     1      75.617  72.243  23.079  1.00  0.00     0.066 CG0
ATOM     18  G   UNL     1      75.552  73.321  22.016  1.00  0.00     0.000 G0
ENDBRANCH  13  17
ENDBRANCH  11  13
ENDBRANCH  10  11
ENDBRANCH   1  10
TORSDOF 0
ENDMDL
