MODEL 1
REMARK VINA RESULT:    -9.211      0.000      0.000
REMARK INTER + INTRA:         -16.786
REMARK INTER:                 -14.596
REMARK INTRA:                  -2.190
REMARK UNBOUND:                -2.190
REMARK SMILES C[C@H]1O[C@H](O[C@@H]2CC[C@@]3(C)[C@H](CC[C@@]4(C)[C@H]3C=C[C@@]35OC[C@]6(CCC(C)(C)C[C@H]63)[C@@H](O)C[C@@]45C)[C@@]2(C)CO)[C@@H](O)[C@@H](O[C@H]2O[C@H](CO)[C@@H](O)[C@@H](O)[C@H]2O)[C@H]1O
REMARK SMILES IDX 1 1 2 2 54 3 41 4 39 5 4 6 3 7 55 8 42 10 43 11 52 12 44 13
REMARK SMILES IDX 50 14 45 15 48 16 53 17 51 19 46 21 47 22 49 24 5 26 6 27
REMARK SMILES IDX 7 28 35 29 8 30 11 31 36 32 9 33 12 34 10 35 16 36 13 37
REMARK SMILES IDX 14 38 17 39 15 40 33 41 18 42 19 43 32 44 34 45 29 46 20 47
REMARK SMILES IDX 30 48 22 49 28 50 21 51 23 52 25 53 24 54 26 55 27 56 37 57
REMARK SMILES IDX 38 58 31 60 40 62
REMARK H PARENT 55 9 53 18 51 20 47 23 49 25 38 59 31 61 40 63
REMARK Flexibility Score: inf
ROOT
ATOM      1  C   UNL     1      -2.339  74.731  27.873  1.00  0.00     0.041 C 
ATOM      2  C   UNL     1      -2.345  73.203  27.823  1.00  0.00     0.150 C 
ATOM      3  C   UNL     1      -1.733  72.563  29.100  1.00  0.00     0.175 C 
ATOM      4  C   UNL     1      -1.924  71.048  28.976  1.00  0.00     0.186 C 
ATOM      5  C   UNL     1      -1.263  70.545  27.676  1.00  0.00     0.202 C 
ATOM      6  C   UNL     1      -1.782  71.355  26.455  1.00  0.00     0.282 C 
ATOM      7  O   UNL     1      -1.672  72.767  26.643  1.00  0.00    -0.344 OA
ENDROOT
BRANCH   3   8
ATOM      8  O   UNL     1      -0.364  72.860  29.257  1.00  0.00    -0.388 OA
ATOM      9  H   UNL     1       0.153  72.056  28.977  1.00  0.00     0.211 HD
ENDBRANCH   3   8
BRANCH   4  10
ATOM     10  O   UNL     1      -1.397  70.377  30.110  1.00  0.00    -0.341 OA
BRANCH  10  11
ATOM     11  C   UNL     1      -2.042  69.120  30.335  1.00  0.00     0.282 C 
ATOM     12  C   UNL     1      -2.593  69.032  31.773  1.00  0.00     0.202 C 
ATOM     13  O   UNL     1      -1.147  68.051  30.070  1.00  0.00    -0.341 OA
ATOM     14  C   UNL     1      -1.445  68.962  32.800  1.00  0.00     0.179 C 
ATOM     15  C   UNL     1      -0.004  68.100  30.900  1.00  0.00     0.178 C 
ATOM     16  C   UNL     1      -0.417  67.896  32.377  1.00  0.00     0.177 C 
BRANCH  12  17
ATOM     17  O   UNL     1      -3.407  70.150  32.036  1.00  0.00    -0.385 OA
ATOM     18  H   UNL     1      -4.348  69.827  32.104  1.00  0.00     0.211 HD
ENDBRANCH  12  17
BRANCH  14  19
ATOM     19  O   UNL     1      -0.810  70.213  32.907  1.00  0.00    -0.387 OA
ATOM     20  H   UNL     1      -0.640  70.375  33.873  1.00  0.00     0.211 HD
ENDBRANCH  14  19
BRANCH  15  21
ATOM     21  C   UNL     1       0.963  67.010  30.426  1.00  0.00     0.191 C 
BRANCH  21  22
ATOM     22  O   UNL     1       2.252  67.226  30.940  1.00  0.00    -0.394 OA
ATOM     23  H   UNL     1       2.301  68.186  31.201  1.00  0.00     0.210 HD
ENDBRANCH  21  22
ENDBRANCH  15  21
BRANCH  16  24
ATOM     24  O   UNL     1       0.707  67.973  33.224  1.00  0.00    -0.387 OA
ATOM     25  H   UNL     1       0.471  68.589  33.969  1.00  0.00     0.211 HD
ENDBRANCH  16  24
ENDBRANCH  10  11
ENDBRANCH   4  10
BRANCH   6  26
ATOM     26  O   UNL     1      -3.127  70.982  26.221  1.00  0.00    -0.346 OA
BRANCH  26  27
ATOM     27  C   UNL     1      -3.483  70.935  24.848  1.00  0.00     0.130 C 
ATOM     28  C   UNL     1      -4.670  71.869  24.650  1.00  0.00     0.033 C 
ATOM     29  C   UNL     1      -3.836  69.467  24.452  1.00  0.00     0.020 C 
ATOM     30  C   UNL     1      -5.866  71.468  25.524  1.00  0.00     0.010 C 
ATOM     31  C   UNL     1      -5.065  68.945  25.329  1.00  0.00     0.006 C 
ATOM     32  C   UNL     1      -2.554  68.601  24.657  1.00  0.00     0.017 C 
ATOM     33  C   UNL     1      -6.313  69.958  25.438  1.00  0.00    -0.022 C 
ATOM     34  C   UNL     1      -4.584  68.375  26.701  1.00  0.00     0.005 C 
ATOM     35  C   UNL     1      -7.179  69.844  24.134  1.00  0.00     0.012 C 
ATOM     36  C   UNL     1      -7.320  69.552  26.632  1.00  0.00     0.024 C 
ATOM     37  C   UNL     1      -5.711  67.862  27.574  1.00  0.00     0.008 C 
ATOM     38  C   UNL     1      -6.731  68.963  27.962  1.00  0.00    -0.017 C 
ATOM     39  C   UNL     1      -8.295  70.659  27.004  1.00  0.00    -0.024 C 
ATOM     40  C   UNL     1      -5.958  70.077  28.744  1.00  0.00     0.013 C 
ATOM     41  C   UNL     1      -7.941  68.356  28.890  1.00  0.00     0.009 C 
ATOM     42  C   UNL     1      -9.121  70.507  28.043  1.00  0.00     0.005 C 
ATOM     43  C   UNL     1      -9.330  69.157  28.685  1.00  0.00     0.096 C 
ATOM     44  C   UNL     1      -8.210  66.835  28.586  1.00  0.00     0.043 C 
ATOM     45  C   UNL     1      -7.510  68.385  30.397  1.00  0.00     0.015 C 
ATOM     46  C   UNL     1     -10.376  68.346  27.859  1.00  0.00     0.037 C 
ATOM     47  O   UNL     1      -9.946  69.354  29.947  1.00  0.00    -0.369 OA
ATOM     48  C   UNL     1      -9.562  66.300  29.126  1.00  0.00     0.124 C 
ATOM     49  C   UNL     1     -10.753  67.329  28.931  1.00  0.00     0.026 C 
ATOM     50  C   UNL     1     -11.580  69.206  27.371  1.00  0.00     0.014 C 
ATOM     51  C   UNL     1     -10.824  68.266  30.157  1.00  0.00     0.171 C 
ATOM     52  C   UNL     1     -12.115  66.598  28.682  1.00  0.00     0.013 C 
ATOM     53  C   UNL     1     -12.815  68.369  26.967  1.00  0.00    -0.035 C 
ATOM     54  C   UNL     1     -13.246  67.500  28.170  1.00  0.00     0.007 C 
ATOM     55  C   UNL     1     -12.510  67.500  25.723  1.00  0.00     0.011 C 
ATOM     56  C   UNL     1     -13.970  69.328  26.611  1.00  0.00     0.011 C 
BRANCH  29  57
ATOM     57  C   UNL     1      -4.127  69.366  22.917  1.00  0.00     0.165 C 
BRANCH  57  58
ATOM     58  O   UNL     1      -4.152  68.031  22.485  1.00  0.00    -0.396 OA
ATOM     59  H   UNL     1      -3.251  67.652  22.644  1.00  0.00     0.210 HD
ENDBRANCH  57  58
ENDBRANCH  29  57
BRANCH  48  60
ATOM     60  O   UNL     1      -9.835  65.080  28.481  1.00  0.00    -0.392 OA
ATOM     61  H   UNL     1      -8.997  64.787  28.035  1.00  0.00     0.210 HD
ENDBRANCH  48  60
ENDBRANCH  26  27
ENDBRANCH   6  26
BRANCH   5  62
ATOM     62  O   UNL     1       0.145  70.566  27.787  1.00  0.00    -0.385 OA
ATOM     63  H   UNL     1       0.542  70.179  26.960  1.00  0.00     0.211 HD
ENDBRANCH   5  62
TORSDOF 14
ENDMDL
MODEL 2
REMARK VINA RESULT:    -9.037      1.150      1.408
REMARK INTER + INTRA:         -16.511
REMARK INTER:                 -14.349
REMARK INTRA:                  -2.161
REMARK UNBOUND:                -2.190
REMARK SMILES C[C@H]1O[C@H](O[C@@H]2CC[C@@]3(C)[C@H](CC[C@@]4(C)[C@H]3C=C[C@@]35OC[C@]6(CCC(C)(C)C[C@H]63)[C@@H](O)C[C@@]45C)[C@@]2(C)CO)[C@@H](O)[C@@H](O[C@H]2O[C@H](CO)[C@@H](O)[C@@H](O)[C@H]2O)[C@H]1O
REMARK SMILES IDX 1 1 2 2 54 3 41 4 39 5 4 6 3 7 55 8 42 10 43 11 52 12 44 13
REMARK SMILES IDX 50 14 45 15 48 16 53 17 51 19 46 21 47 22 49 24 5 26 6 27
REMARK SMILES IDX 7 28 35 29 8 30 11 31 36 32 9 33 12 34 10 35 16 36 13 37
REMARK SMILES IDX 14 38 17 39 15 40 33 41 18 42 19 43 32 44 34 45 29 46 20 47
REMARK SMILES IDX 30 48 22 49 28 50 21 51 23 52 25 53 24 54 26 55 27 56 37 57
REMARK SMILES IDX 38 58 31 60 40 62
REMARK H PARENT 55 9 53 18 51 20 47 23 49 25 38 59 31 61 40 63
REMARK Flexibility Score: inf
ROOT
ATOM      1  C   UNL     1      -3.899  73.001  30.122  1.00  0.00     0.041 C 
ATOM      2  C   UNL     1      -3.050  71.906  29.476  1.00  0.00     0.150 C 
ATOM      3  C   UNL     1      -1.965  71.348  30.439  1.00  0.00     0.175 C 
ATOM      4  C   UNL     1      -1.285  70.181  29.717  1.00  0.00     0.186 C 
ATOM      5  C   UNL     1      -0.703  70.667  28.373  1.00  0.00     0.202 C 
ATOM      6  C   UNL     1      -1.798  71.384  27.536  1.00  0.00     0.282 C 
ATOM      7  O   UNL     1      -2.473  72.406  28.270  1.00  0.00    -0.344 OA
ENDROOT
BRANCH   3   8
ATOM      8  O   UNL     1      -1.002  72.314  30.795  1.00  0.00    -0.388 OA
ATOM      9  H   UNL     1      -0.109  71.963  30.529  1.00  0.00     0.211 HD
ENDBRANCH   3   8
BRANCH   4  10
ATOM     10  O   UNL     1      -0.276  69.601  30.530  1.00  0.00    -0.341 OA
BRANCH  10  11
ATOM     11  C   UNL     1      -0.606  68.265  30.920  1.00  0.00     0.282 C 
ATOM     12  C   UNL     1      -0.325  68.042  32.420  1.00  0.00     0.202 C 
ATOM     13  O   UNL     1       0.106  67.328  30.127  1.00  0.00    -0.341 OA
ATOM     14  C   UNL     1       1.189  68.066  32.707  1.00  0.00     0.179 C 
ATOM     15  C   UNL     1       1.505  67.479  30.260  1.00  0.00     0.178 C 
ATOM     16  C   UNL     1       1.934  67.156  31.711  1.00  0.00     0.177 C 
BRANCH  12  17
ATOM     17  O   UNL     1      -0.975  69.037  33.175  1.00  0.00    -0.385 OA
ATOM     18  H   UNL     1      -1.864  68.676  33.445  1.00  0.00     0.211 HD
ENDBRANCH  12  17
BRANCH  14  19
ATOM     19  O   UNL     1       1.683  69.380  32.605  1.00  0.00    -0.387 OA
ATOM     20  H   UNL     1       1.197  69.929  33.276  1.00  0.00     0.211 HD
ENDBRANCH  14  19
BRANCH  15  21
ATOM     21  C   UNL     1       2.174  66.540  29.250  1.00  0.00     0.191 C 
BRANCH  21  22
ATOM     22  O   UNL     1       2.500  65.312  29.847  1.00  0.00    -0.394 OA
ATOM     23  H   UNL     1       1.734  65.065  30.434  1.00  0.00     0.210 HD
ENDBRANCH  21  22
ENDBRANCH  15  21
BRANCH  16  24
ATOM     24  O   UNL     1       3.323  67.333  31.872  1.00  0.00    -0.387 OA
ATOM     25  H   UNL     1       3.456  67.902  32.678  1.00  0.00     0.211 HD
ENDBRANCH  16  24
ENDBRANCH  10  11
ENDBRANCH   4  10
BRANCH   6  26
ATOM     26  O   UNL     1      -2.712  70.405  27.079  1.00  0.00    -0.346 OA
BRANCH  26  27
ATOM     27  C   UNL     1      -2.943  70.437  25.680  1.00  0.00     0.130 C 
ATOM     28  C   UNL     1      -4.030  71.472  25.418  1.00  0.00     0.033 C 
ATOM     29  C   UNL     1      -3.373  69.018  25.192  1.00  0.00     0.020 C 
ATOM     30  C   UNL     1      -5.329  71.140  26.165  1.00  0.00     0.010 C 
ATOM     31  C   UNL     1      -4.715  68.568  25.933  1.00  0.00     0.006 C 
ATOM     32  C   UNL     1      -2.188  68.042  25.472  1.00  0.00     0.017 C 
ATOM     33  C   UNL     1      -5.884  69.675  25.975  1.00  0.00    -0.022 C 
ATOM     34  C   UNL     1      -4.408  67.911  27.316  1.00  0.00     0.005 C 
ATOM     35  C   UNL     1      -6.633  69.680  24.595  1.00  0.00     0.012 C 
ATOM     36  C   UNL     1      -7.025  69.311  27.056  1.00  0.00     0.024 C 
ATOM     37  C   UNL     1      -5.647  67.461  28.063  1.00  0.00     0.008 C 
ATOM     38  C   UNL     1      -6.609  68.629  28.407  1.00  0.00    -0.017 C 
ATOM     39  C   UNL     1      -7.940  70.481  27.388  1.00  0.00    -0.024 C 
ATOM     40  C   UNL     1      -5.826  69.647  29.301  1.00  0.00     0.013 C 
ATOM     41  C   UNL     1      -7.943  68.091  29.196  1.00  0.00     0.009 C 
ATOM     42  C   UNL     1      -8.866  70.360  28.342  1.00  0.00     0.005 C 
ATOM     43  C   UNL     1      -9.240  69.010  28.904  1.00  0.00     0.096 C 
ATOM     44  C   UNL     1      -8.301  66.608  28.804  1.00  0.00     0.043 C 
ATOM     45  C   UNL     1      -7.651  68.029  30.735  1.00  0.00     0.015 C 
ATOM     46  C   UNL     1     -10.266  68.318  27.954  1.00  0.00     0.037 C 
ATOM     47  O   UNL     1      -9.951  69.212  30.114  1.00  0.00    -0.369 OA
ATOM     48  C   UNL     1      -9.736  66.168  29.199  1.00  0.00     0.124 C 
ATOM     49  C   UNL     1     -10.819  67.297  28.944  1.00  0.00     0.026 C 
ATOM     50  C   UNL     1     -11.349  69.291  27.399  1.00  0.00     0.014 C 
ATOM     51  C   UNL     1     -10.928  68.192  30.199  1.00  0.00     0.171 C 
ATOM     52  C   UNL     1     -12.205  66.690  28.544  1.00  0.00     0.013 C 
ATOM     53  C   UNL     1     -12.604  68.573  26.852  1.00  0.00    -0.035 C 
ATOM     54  C   UNL     1     -13.210  67.700  27.974  1.00  0.00     0.007 C 
ATOM     55  C   UNL     1     -12.255  67.728  25.603  1.00  0.00     0.011 C 
ATOM     56  C   UNL     1     -13.642  69.637  26.437  1.00  0.00     0.011 C 
BRANCH  29  57
ATOM     57  C   UNL     1      -3.529  68.996  23.634  1.00  0.00     0.165 C 
BRANCH  57  58
ATOM     58  O   UNL     1      -3.086  67.781  23.089  1.00  0.00    -0.396 OA
ATOM     59  H   UNL     1      -3.391  67.751  22.147  1.00  0.00     0.210 HD
ENDBRANCH  57  58
ENDBRANCH  29  57
BRANCH  48  60
ATOM     60  O   UNL     1     -10.043  64.998  28.481  1.00  0.00    -0.392 OA
ATOM     61  H   UNL     1     -11.017  64.833  28.585  1.00  0.00     0.210 HD
ENDBRANCH  48  60
ENDBRANCH  26  27
ENDBRANCH   6  26
BRANCH   5  62
ATOM     62  O   UNL     1       0.440  71.473  28.582  1.00  0.00    -0.385 OA
ATOM     63  H   UNL     1       0.399  71.862  29.498  1.00  0.00     0.211 HD
ENDBRANCH   5  62
TORSDOF 14
ENDMDL
MODEL 3
REMARK VINA RESULT:    -8.766      1.389      2.133
REMARK INTER + INTRA:         -16.080
REMARK INTER:                 -13.995
REMARK INTRA:                  -2.085
REMARK UNBOUND:                -2.190
REMARK SMILES C[C@H]1O[C@H](O[C@@H]2CC[C@@]3(C)[C@H](CC[C@@]4(C)[C@H]3C=C[C@@]35OC[C@]6(CCC(C)(C)C[C@H]63)[C@@H](O)C[C@@]45C)[C@@]2(C)CO)[C@@H](O)[C@@H](O[C@H]2O[C@H](CO)[C@@H](O)[C@@H](O)[C@H]2O)[C@H]1O
REMARK SMILES IDX 1 1 2 2 54 3 41 4 39 5 4 6 3 7 55 8 42 10 43 11 52 12 44 13
REMARK SMILES IDX 50 14 45 15 48 16 53 17 51 19 46 21 47 22 49 24 5 26 6 27
REMARK SMILES IDX 7 28 35 29 8 30 11 31 36 32 9 33 12 34 10 35 16 36 13 37
REMARK SMILES IDX 14 38 17 39 15 40 33 41 18 42 19 43 32 44 34 45 29 46 20 47
REMARK SMILES IDX 30 48 22 49 28 50 21 51 23 52 25 53 24 54 26 55 27 56 37 57
REMARK SMILES IDX 38 58 31 60 40 62
REMARK H PARENT 55 9 53 18 51 20 47 23 49 25 38 59 31 61 40 63
REMARK Flexibility Score: inf
ROOT
ATOM      1  C   UNL     1      -3.638  73.588  29.376  1.00  0.00     0.041 C 
ATOM      2  C   UNL     1      -2.963  72.493  28.550  1.00  0.00     0.150 C 
ATOM      3  C   UNL     1      -1.714  71.898  29.258  1.00  0.00     0.175 C 
ATOM      4  C   UNL     1      -1.221  70.734  28.391  1.00  0.00     0.186 C 
ATOM      5  C   UNL     1      -0.921  71.238  26.964  1.00  0.00     0.202 C 
ATOM      6  C   UNL     1      -2.152  71.989  26.384  1.00  0.00     0.282 C 
ATOM      7  O   UNL     1      -2.639  73.007  27.259  1.00  0.00    -0.344 OA
ENDROOT
BRANCH   3   8
ATOM      8  O   UNL     1      -0.679  72.841  29.422  1.00  0.00    -0.388 OA
ATOM      9  H   UNL     1       0.114  72.511  28.918  1.00  0.00     0.211 HD
ENDBRANCH   3   8
BRANCH   4  10
ATOM     10  O   UNL     1      -0.078  70.122  28.968  1.00  0.00    -0.341 OA
BRANCH  10  11
ATOM     11  C   UNL     1       0.044  68.750  28.584  1.00  0.00     0.282 C 
ATOM     12  C   UNL     1       0.680  67.914  29.715  1.00  0.00     0.202 C 
ATOM     13  O   UNL     1       0.797  68.636  27.386  1.00  0.00    -0.341 OA
ATOM     14  C   UNL     1       2.160  68.297  29.916  1.00  0.00     0.179 C 
ATOM     15  C   UNL     1       2.103  69.158  27.532  1.00  0.00     0.178 C 
ATOM     16  C   UNL     1       2.894  68.317  28.562  1.00  0.00     0.177 C 
BRANCH  12  17
ATOM     17  O   UNL     1      -0.036  68.114  30.909  1.00  0.00    -0.385 OA
ATOM     18  H   UNL     1      -0.030  69.093  31.103  1.00  0.00     0.211 HD
ENDBRANCH  12  17
BRANCH  14  19
ATOM     19  O   UNL     1       2.258  69.562  30.525  1.00  0.00    -0.387 OA
ATOM     20  H   UNL     1       2.968  70.065  30.045  1.00  0.00     0.211 HD
ENDBRANCH  14  19
BRANCH  15  21
ATOM     21  C   UNL     1       2.769  69.138  26.152  1.00  0.00     0.191 C 
BRANCH  21  22
ATOM     22  O   UNL     1       2.173  70.076  25.294  1.00  0.00    -0.394 OA
ATOM     23  H   UNL     1       2.909  70.632  24.918  1.00  0.00     0.210 HD
ENDBRANCH  21  22
ENDBRANCH  15  21
BRANCH  16  24
ATOM     24  O   UNL     1       4.189  68.842  28.744  1.00  0.00    -0.387 OA
ATOM     25  H   UNL     1       4.355  68.880  29.724  1.00  0.00     0.211 HD
ENDBRANCH  16  24
ENDBRANCH  10  11
ENDBRANCH   4  10
BRANCH   6  26
ATOM     26  O   UNL     1      -3.159  71.034  26.111  1.00  0.00    -0.346 OA
BRANCH  26  27
ATOM     27  C   UNL     1      -3.525  70.954  24.743  1.00  0.00     0.130 C 
ATOM     28  C   UNL     1      -4.724  71.869  24.534  1.00  0.00     0.033 C 
ATOM     29  C   UNL     1      -3.864  69.473  24.382  1.00  0.00     0.020 C 
ATOM     30  C   UNL     1      -5.909  71.474  25.425  1.00  0.00     0.010 C 
ATOM     31  C   UNL     1      -5.081  68.957  25.279  1.00  0.00     0.006 C 
ATOM     32  C   UNL     1      -2.571  68.626  24.596  1.00  0.00     0.017 C 
ATOM     33  C   UNL     1      -6.339  69.957  25.376  1.00  0.00    -0.022 C 
ATOM     34  C   UNL     1      -4.583  68.422  26.659  1.00  0.00     0.005 C 
ATOM     35  C   UNL     1      -7.214  69.806  24.081  1.00  0.00     0.012 C 
ATOM     36  C   UNL     1      -7.333  69.566  26.585  1.00  0.00     0.024 C 
ATOM     37  C   UNL     1      -5.697  67.915  27.551  1.00  0.00     0.008 C 
ATOM     38  C   UNL     1      -6.727  69.013  27.924  1.00  0.00    -0.017 C 
ATOM     39  C   UNL     1      -8.318  70.670  26.941  1.00  0.00    -0.024 C 
ATOM     40  C   UNL     1      -5.962  70.152  28.675  1.00  0.00     0.013 C 
ATOM     41  C   UNL     1      -7.923  68.412  28.873  1.00  0.00     0.009 C 
ATOM     42  C   UNL     1      -9.134  70.531  27.989  1.00  0.00     0.005 C 
ATOM     43  C   UNL     1      -9.323  69.193  28.662  1.00  0.00     0.096 C 
ATOM     44  C   UNL     1      -8.177  66.882  28.604  1.00  0.00     0.043 C 
ATOM     45  C   UNL     1      -7.482  68.479  30.376  1.00  0.00     0.015 C 
ATOM     46  C   UNL     1     -10.366  68.352  27.861  1.00  0.00     0.037 C 
ATOM     47  O   UNL     1      -9.932  69.410  29.924  1.00  0.00    -0.369 OA
ATOM     48  C   UNL     1      -9.519  66.344  29.166  1.00  0.00     0.124 C 
ATOM     49  C   UNL     1     -10.723  67.354  28.959  1.00  0.00     0.026 C 
ATOM     50  C   UNL     1     -11.583  69.187  27.364  1.00  0.00     0.014 C 
ATOM     51  C   UNL     1     -10.796  68.316  30.165  1.00  0.00     0.171 C 
ATOM     52  C   UNL     1     -12.078  66.602  28.735  1.00  0.00     0.013 C 
ATOM     53  C   UNL     1     -12.811  68.328  26.988  1.00  0.00    -0.035 C 
ATOM     54  C   UNL     1     -13.223  67.480  28.213  1.00  0.00     0.007 C 
ATOM     55  C   UNL     1     -12.506  67.436  25.761  1.00  0.00     0.011 C 
ATOM     56  C   UNL     1     -13.980  69.266  26.620  1.00  0.00     0.011 C 
BRANCH  29  57
ATOM     57  C   UNL     1      -4.165  69.335  22.851  1.00  0.00     0.165 C 
BRANCH  57  58
ATOM     58  O   UNL     1      -3.028  68.928  22.137  1.00  0.00    -0.396 OA
ATOM     59  H   UNL     1      -2.247  69.045  22.735  1.00  0.00     0.210 HD
ENDBRANCH  57  58
ENDBRANCH  29  57
BRANCH  48  60
ATOM     60  O   UNL     1      -9.782  65.107  28.550  1.00  0.00    -0.392 OA
ATOM     61  H   UNL     1      -9.245  65.071  27.715  1.00  0.00     0.210 HD
ENDBRANCH  48  60
ENDBRANCH  26  27
ENDBRANCH   6  26
BRANCH   5  62
ATOM     62  O   UNL     1       0.256  72.021  26.945  1.00  0.00    -0.385 OA
ATOM     63  H   UNL     1       0.441  72.306  26.009  1.00  0.00     0.211 HD
ENDBRANCH   5  62
TORSDOF 14
ENDMDL
MODEL 4
REMARK VINA RESULT:    -8.686      2.606      9.200
REMARK INTER + INTRA:         -15.954
REMARK INTER:                 -13.565
REMARK INTRA:                  -2.389
REMARK UNBOUND:                -2.190
REMARK SMILES C[C@H]1O[C@H](O[C@@H]2CC[C@@]3(C)[C@H](CC[C@@]4(C)[C@H]3C=C[C@@]35OC[C@]6(CCC(C)(C)C[C@H]63)[C@@H](O)C[C@@]45C)[C@@]2(C)CO)[C@@H](O)[C@@H](O[C@H]2O[C@H](CO)[C@@H](O)[C@@H](O)[C@H]2O)[C@H]1O
REMARK SMILES IDX 1 1 2 2 54 3 41 4 39 5 4 6 3 7 55 8 42 10 43 11 52 12 44 13
REMARK SMILES IDX 50 14 45 15 48 16 53 17 51 19 46 21 47 22 49 24 5 26 6 27
REMARK SMILES IDX 7 28 35 29 8 30 11 31 36 32 9 33 12 34 10 35 16 36 13 37
REMARK SMILES IDX 14 38 17 39 15 40 33 41 18 42 19 43 32 44 34 45 29 46 20 47
REMARK SMILES IDX 30 48 22 49 28 50 21 51 23 52 25 53 24 54 26 55 27 56 37 57
REMARK SMILES IDX 38 58 31 60 40 62
REMARK H PARENT 55 9 53 18 51 20 47 23 49 25 38 59 31 61 40 63
REMARK Flexibility Score: inf
ROOT
ATOM      1  C   UNL     1     -11.867  68.254  22.721  1.00  0.00     0.041 C 
ATOM      2  C   UNL     1     -11.568  68.803  24.116  1.00  0.00     0.150 C 
ATOM      3  C   UNL     1     -12.091  67.873  25.247  1.00  0.00     0.175 C 
ATOM      4  C   UNL     1     -11.611  68.469  26.573  1.00  0.00     0.186 C 
ATOM      5  C   UNL     1     -12.118  69.921  26.706  1.00  0.00     0.202 C 
ATOM      6  C   UNL     1     -11.720  70.750  25.453  1.00  0.00     0.282 C 
ATOM      7  O   UNL     1     -12.104  70.120  24.230  1.00  0.00    -0.344 OA
ENDROOT
BRANCH   3   8
ATOM      8  O   UNL     1     -13.497  67.762  25.255  1.00  0.00    -0.388 OA
ATOM      9  H   UNL     1     -13.821  67.959  24.335  1.00  0.00     0.211 HD
ENDBRANCH   3   8
BRANCH   4  10
ATOM     10  O   UNL     1     -12.040  67.677  27.670  1.00  0.00    -0.341 OA
BRANCH  10  11
ATOM     11  C   UNL     1     -11.033  66.750  28.087  1.00  0.00     0.282 C 
ATOM     12  C   UNL     1     -11.623  65.681  29.029  1.00  0.00     0.202 C 
ATOM     13  O   UNL     1      -9.958  67.436  28.709  1.00  0.00    -0.341 OA
ATOM     14  C   UNL     1     -12.030  66.301  30.381  1.00  0.00     0.179 C 
ATOM     15  C   UNL     1     -10.380  68.153  29.852  1.00  0.00     0.178 C 
ATOM     16  C   UNL     1     -10.884  67.169  30.935  1.00  0.00     0.177 C 
BRANCH  12  17
ATOM     17  O   UNL     1     -12.740  65.079  28.420  1.00  0.00    -0.385 OA
ATOM     18  H   UNL     1     -12.402  64.478  27.699  1.00  0.00     0.211 HD
ENDBRANCH  12  17
BRANCH  14  19
ATOM     19  O   UNL     1     -13.186  67.089  30.227  1.00  0.00    -0.387 OA
ATOM     20  H   UNL     1     -12.910  68.038  30.331  1.00  0.00     0.211 HD
ENDBRANCH  14  19
BRANCH  15  21
ATOM     21  C   UNL     1      -9.189  68.980  30.349  1.00  0.00     0.191 C 
BRANCH  21  22
ATOM     22  O   UNL     1      -9.626  70.135  31.016  1.00  0.00    -0.394 OA
ATOM     23  H   UNL     1      -9.917  70.781  30.316  1.00  0.00     0.210 HD
ENDBRANCH  21  22
ENDBRANCH  15  21
BRANCH  16  24
ATOM     24  O   UNL     1     -11.338  67.868  32.071  1.00  0.00    -0.387 OA
ATOM     25  H   UNL     1     -10.621  67.808  32.759  1.00  0.00     0.211 HD
ENDBRANCH  16  24
ENDBRANCH  10  11
ENDBRANCH   4  10
BRANCH   6  26
ATOM     26  O   UNL     1     -10.322  70.962  25.493  1.00  0.00    -0.346 OA
BRANCH  26  27
ATOM     27  C   UNL     1      -9.898  72.146  24.838  1.00  0.00     0.130 C 
ATOM     28  C   UNL     1      -8.941  71.738  23.725  1.00  0.00     0.033 C 
ATOM     29  C   UNL     1      -9.206  73.092  25.870  1.00  0.00     0.020 C 
ATOM     30  C   UNL     1      -7.730  70.966  24.265  1.00  0.00     0.010 C 
ATOM     31  C   UNL     1      -7.935  72.366  26.510  1.00  0.00     0.006 C 
ATOM     32  C   UNL     1     -10.270  73.479  26.944  1.00  0.00     0.017 C 
ATOM     33  C   UNL     1      -6.953  71.642  25.460  1.00  0.00    -0.022 C 
ATOM     34  C   UNL     1      -8.343  71.471  27.724  1.00  0.00     0.005 C 
ATOM     35  C   UNL     1      -6.020  72.720  24.804  1.00  0.00     0.012 C 
ATOM     36  C   UNL     1      -5.940  70.616  26.185  1.00  0.00     0.024 C 
ATOM     37  C   UNL     1      -7.174  70.760  28.374  1.00  0.00     0.008 C 
ATOM     38  C   UNL     1      -6.447  69.782  27.415  1.00  0.00    -0.017 C 
ATOM     39  C   UNL     1      -5.257  69.656  25.222  1.00  0.00    -0.024 C 
ATOM     40  C   UNL     1      -7.487  68.712  26.943  1.00  0.00     0.013 C 
ATOM     41  C   UNL     1      -5.179  69.051  28.157  1.00  0.00     0.009 C 
ATOM     42  C   UNL     1      -4.470  68.682  25.688  1.00  0.00     0.005 C 
ATOM     43  C   UNL     1      -3.996  68.677  27.121  1.00  0.00     0.096 C 
ATOM     44  C   UNL     1      -4.562  69.951  29.292  1.00  0.00     0.043 C 
ATOM     45  C   UNL     1      -5.679  67.767  28.903  1.00  0.00     0.015 C 
ATOM     46  C   UNL     1      -2.756  69.614  27.260  1.00  0.00     0.037 C 
ATOM     47  O   UNL     1      -3.502  67.383  27.423  1.00  0.00    -0.369 OA
ATOM     48  C   UNL     1      -3.152  69.511  29.767  1.00  0.00     0.124 C 
ATOM     49  C   UNL     1      -2.214  69.057  28.573  1.00  0.00     0.026 C 
ATOM     50  C   UNL     1      -1.752  69.492  26.075  1.00  0.00     0.014 C 
ATOM     51  C   UNL     1      -2.414  67.548  28.311  1.00  0.00     0.171 C 
ATOM     52  C   UNL     1      -0.713  69.401  28.853  1.00  0.00     0.013 C 
ATOM     53  C   UNL     1      -0.343  70.038  26.398  1.00  0.00    -0.035 C 
ATOM     54  C   UNL     1       0.212  69.292  27.633  1.00  0.00     0.007 C 
ATOM     55  C   UNL     1      -0.384  71.568  26.634  1.00  0.00     0.011 C 
ATOM     56  C   UNL     1       0.584  69.763  25.196  1.00  0.00     0.011 C 
BRANCH  29  57
ATOM     57  C   UNL     1      -8.825  74.454  25.198  1.00  0.00     0.165 C 
BRANCH  57  58
ATOM     58  O   UNL     1      -8.125  75.287  26.085  1.00  0.00    -0.396 OA
ATOM     59  H   UNL     1      -8.118  74.838  26.968  1.00  0.00     0.210 HD
ENDBRANCH  57  58
ENDBRANCH  29  57
BRANCH  48  60
ATOM     60  O   UNL     1      -2.583  70.580  30.483  1.00  0.00    -0.392 OA
ATOM     61  H   UNL     1      -2.271  70.220  31.355  1.00  0.00     0.210 HD
ENDBRANCH  48  60
ENDBRANCH  26  27
ENDBRANCH   6  26
BRANCH   5  62
ATOM     62  O   UNL     1     -13.508  69.947  26.960  1.00  0.00    -0.385 OA
ATOM     63  H   UNL     1     -13.769  70.866  27.241  1.00  0.00     0.211 HD
ENDBRANCH   5  62
TORSDOF 14
ENDMDL
MODEL 5
REMARK VINA RESULT:    -8.542      2.691      9.147
REMARK INTER + INTRA:         -15.726
REMARK INTER:                 -13.267
REMARK INTRA:                  -2.459
REMARK UNBOUND:                -2.190
REMARK SMILES C[C@H]1O[C@H](O[C@@H]2CC[C@@]3(C)[C@H](CC[C@@]4(C)[C@H]3C=C[C@@]35OC[C@]6(CCC(C)(C)C[C@H]63)[C@@H](O)C[C@@]45C)[C@@]2(C)CO)[C@@H](O)[C@@H](O[C@H]2O[C@H](CO)[C@@H](O)[C@@H](O)[C@H]2O)[C@H]1O
REMARK SMILES IDX 1 1 2 2 54 3 41 4 39 5 4 6 3 7 55 8 42 10 43 11 52 12 44 13
REMARK SMILES IDX 50 14 45 15 48 16 53 17 51 19 46 21 47 22 49 24 5 26 6 27
REMARK SMILES IDX 7 28 35 29 8 30 11 31 36 32 9 33 12 34 10 35 16 36 13 37
REMARK SMILES IDX 14 38 17 39 15 40 33 41 18 42 19 43 32 44 34 45 29 46 20 47
REMARK SMILES IDX 30 48 22 49 28 50 21 51 23 52 25 53 24 54 26 55 27 56 37 57
REMARK SMILES IDX 38 58 31 60 40 62
REMARK H PARENT 55 9 53 18 51 20 47 23 49 25 38 59 31 61 40 63
REMARK Flexibility Score: inf
ROOT
ATOM      1  C   UNL     1      -8.803  69.775  23.970  1.00  0.00     0.041 C 
ATOM      2  C   UNL     1      -9.156  70.042  25.433  1.00  0.00     0.150 C 
ATOM      3  C   UNL     1     -10.206  69.038  25.985  1.00  0.00     0.175 C 
ATOM      4  C   UNL     1     -10.364  69.335  27.480  1.00  0.00     0.186 C 
ATOM      5  C   UNL     1     -10.778  70.809  27.677  1.00  0.00     0.202 C 
ATOM      6  C   UNL     1      -9.789  71.753  26.941  1.00  0.00     0.282 C 
ATOM      7  O   UNL     1      -9.596  71.392  25.573  1.00  0.00    -0.344 OA
ENDROOT
BRANCH   3   8
ATOM      8  O   UNL     1     -11.456  69.148  25.343  1.00  0.00    -0.388 OA
ATOM      9  H   UNL     1     -12.155  68.865  25.992  1.00  0.00     0.211 HD
ENDBRANCH   3   8
BRANCH   4  10
ATOM     10  O   UNL     1     -11.306  68.456  28.074  1.00  0.00    -0.341 OA
BRANCH  10  11
ATOM     11  C   UNL     1     -10.771  67.141  28.254  1.00  0.00     0.282 C 
ATOM     12  C   UNL     1     -11.892  66.127  28.565  1.00  0.00     0.202 C 
ATOM     13  O   UNL     1      -9.792  67.143  29.281  1.00  0.00    -0.341 OA
ATOM     14  C   UNL     1     -12.503  66.390  29.956  1.00  0.00     0.179 C 
ATOM     15  C   UNL     1     -10.326  67.562  30.521  1.00  0.00     0.178 C 
ATOM     16  C   UNL     1     -11.387  66.546  31.007  1.00  0.00     0.177 C 
BRANCH  12  17
ATOM     17  O   UNL     1     -12.890  66.210  27.577  1.00  0.00    -0.385 OA
ATOM     18  H   UNL     1     -13.748  66.434  28.034  1.00  0.00     0.211 HD
ENDBRANCH  12  17
BRANCH  14  19
ATOM     19  O   UNL     1     -13.292  67.555  29.929  1.00  0.00    -0.387 OA
ATOM     20  H   UNL     1     -12.854  68.220  30.524  1.00  0.00     0.211 HD
ENDBRANCH  14  19
BRANCH  15  21
ATOM     21  C   UNL     1      -9.163  67.685  31.512  1.00  0.00     0.191 C 
BRANCH  21  22
ATOM     22  O   UNL     1      -8.840  66.434  32.061  1.00  0.00    -0.394 OA
ATOM     23  H   UNL     1      -9.695  66.021  32.363  1.00  0.00     0.210 HD
ENDBRANCH  21  22
ENDBRANCH  15  21
BRANCH  16  24
ATOM     24  O   UNL     1     -11.954  66.963  32.227  1.00  0.00    -0.387 OA
ATOM     25  H   UNL     1     -12.057  67.952  32.181  1.00  0.00     0.211 HD
ENDBRANCH  16  24
ENDBRANCH  10  11
ENDBRANCH   4  10
BRANCH   6  26
ATOM     26  O   UNL     1      -8.561  71.736  27.644  1.00  0.00    -0.346 OA
BRANCH  26  27
ATOM     27  C   UNL     1      -7.944  73.008  27.762  1.00  0.00     0.130 C 
ATOM     28  C   UNL     1      -6.903  73.118  26.655  1.00  0.00     0.033 C 
ATOM     29  C   UNL     1      -7.294  73.141  29.175  1.00  0.00     0.020 C 
ATOM     30  C   UNL     1      -5.850  72.006  26.746  1.00  0.00     0.010 C 
ATOM     31  C   UNL     1      -6.190  72.005  29.378  1.00  0.00     0.006 C 
ATOM     32  C   UNL     1      -8.438  73.049  30.232  1.00  0.00     0.017 C 
ATOM     33  C   UNL     1      -5.163  71.815  28.153  1.00  0.00    -0.022 C 
ATOM     34  C   UNL     1      -6.830  70.674  29.886  1.00  0.00     0.005 C 
ATOM     35  C   UNL     1      -4.054  72.923  28.238  1.00  0.00     0.012 C 
ATOM     36  C   UNL     1      -4.353  70.422  28.250  1.00  0.00     0.024 C 
ATOM     37  C   UNL     1      -5.826  69.560  30.100  1.00  0.00     0.008 C 
ATOM     38  C   UNL     1      -5.087  69.148  28.800  1.00  0.00    -0.017 C 
ATOM     39  C   UNL     1      -3.655  70.035  26.955  1.00  0.00    -0.024 C 
ATOM     40  C   UNL     1      -6.162  68.664  27.770  1.00  0.00     0.013 C 
ATOM     41  C   UNL     1      -3.998  67.954  29.085  1.00  0.00     0.009 C 
ATOM     42  C   UNL     1      -3.032  68.858  26.852  1.00  0.00     0.005 C 
ATOM     43  C   UNL     1      -2.740  68.018  28.072  1.00  0.00     0.096 C 
ATOM     44  C   UNL     1      -3.439  68.005  30.556  1.00  0.00     0.043 C 
ATOM     45  C   UNL     1      -4.710  66.561  28.984  1.00  0.00     0.015 C 
ATOM     46  C   UNL     1      -1.439  68.538  28.761  1.00  0.00     0.037 C 
ATOM     47  O   UNL     1      -2.417  66.706  27.644  1.00  0.00    -0.369 OA
ATOM     48  C   UNL     1      -2.149  67.174  30.783  1.00  0.00     0.124 C 
ATOM     49  C   UNL     1      -1.121  67.293  29.582  1.00  0.00     0.026 C 
ATOM     50  C   UNL     1      -0.315  68.919  27.752  1.00  0.00     0.014 C 
ATOM     51  C   UNL     1      -1.436  66.206  28.531  1.00  0.00     0.171 C 
ATOM     52  C   UNL     1       0.362  67.205  30.079  1.00  0.00     0.013 C 
ATOM     53  C   UNL     1       1.091  68.990  28.390  1.00  0.00    -0.035 C 
ATOM     54  C   UNL     1       1.413  67.627  29.043  1.00  0.00     0.007 C 
ATOM     55  C   UNL     1       1.173  70.143  29.418  1.00  0.00     0.011 C 
ATOM     56  C   UNL     1       2.127  69.263  27.279  1.00  0.00     0.011 C 
BRANCH  29  57
ATOM     57  C   UNL     1      -6.700  74.577  29.375  1.00  0.00     0.165 C 
BRANCH  57  58
ATOM     58  O   UNL     1      -6.033  74.691  30.604  1.00  0.00    -0.396 OA
ATOM     59  H   UNL     1      -6.657  74.380  31.308  1.00  0.00     0.210 HD
ENDBRANCH  57  58
ENDBRANCH  29  57
BRANCH  48  60
ATOM     60  O   UNL     1      -1.568  67.597  31.993  1.00  0.00    -0.392 OA
ATOM     61  H   UNL     1      -1.205  68.510  31.845  1.00  0.00     0.210 HD
ENDBRANCH  48  60
ENDBRANCH  26  27
ENDBRANCH   6  26
BRANCH   5  62
ATOM     62  O   UNL     1     -12.121  71.010  27.285  1.00  0.00    -0.385 OA
ATOM     63  H   UNL     1     -12.336  70.393  26.534  1.00  0.00     0.211 HD
ENDBRANCH   5  62
TORSDOF 14
ENDMDL
MODEL 6
REMARK VINA RESULT:    -8.411      2.327      8.810
REMARK INTER + INTRA:         -15.518
REMARK INTER:                 -14.136
REMARK INTRA:                  -1.382
REMARK UNBOUND:                -2.190
REMARK SMILES C[C@H]1O[C@H](O[C@@H]2CC[C@@]3(C)[C@H](CC[C@@]4(C)[C@H]3C=C[C@@]35OC[C@]6(CCC(C)(C)C[C@H]63)[C@@H](O)C[C@@]45C)[C@@]2(C)CO)[C@@H](O)[C@@H](O[C@H]2O[C@H](CO)[C@@H](O)[C@@H](O)[C@H]2O)[C@H]1O
REMARK SMILES IDX 1 1 2 2 54 3 41 4 39 5 4 6 3 7 55 8 42 10 43 11 52 12 44 13
REMARK SMILES IDX 50 14 45 15 48 16 53 17 51 19 46 21 47 22 49 24 5 26 6 27
REMARK SMILES IDX 7 28 35 29 8 30 11 31 36 32 9 33 12 34 10 35 16 36 13 37
REMARK SMILES IDX 14 38 17 39 15 40 33 41 18 42 19 43 32 44 34 45 29 46 20 47
REMARK SMILES IDX 30 48 22 49 28 50 21 51 23 52 25 53 24 54 26 55 27 56 37 57
REMARK SMILES IDX 38 58 31 60 40 62
REMARK H PARENT 55 9 53 18 51 20 47 23 49 25 38 59 31 61 40 63
REMARK Flexibility Score: inf
ROOT
ATOM      1  C   UNL     1     -10.457  69.107  23.836  1.00  0.00     0.041 C 
ATOM      2  C   UNL     1      -9.988  69.426  25.256  1.00  0.00     0.150 C 
ATOM      3  C   UNL     1     -10.967  68.892  26.339  1.00  0.00     0.175 C 
ATOM      4  C   UNL     1     -10.316  69.160  27.699  1.00  0.00     0.186 C 
ATOM      5  C   UNL     1     -10.019  70.667  27.847  1.00  0.00     0.202 C 
ATOM      6  C   UNL     1      -9.194  71.178  26.634  1.00  0.00     0.282 C 
ATOM      7  O   UNL     1      -9.784  70.832  25.380  1.00  0.00    -0.344 OA
ENDROOT
BRANCH   3   8
ATOM      8  O   UNL     1     -12.232  69.514  26.286  1.00  0.00    -0.388 OA
ATOM      9  H   UNL     1     -12.528  69.516  25.335  1.00  0.00     0.211 HD
ENDBRANCH   3   8
BRANCH   4  10
ATOM     10  O   UNL     1     -11.142  68.697  28.756  1.00  0.00    -0.341 OA
BRANCH  10  11
ATOM     11  C   UNL     1     -11.320  67.278  28.714  1.00  0.00     0.282 C 
ATOM     12  C   UNL     1     -12.077  66.779  29.962  1.00  0.00     0.202 C 
ATOM     13  O   UNL     1     -10.066  66.626  28.589  1.00  0.00    -0.341 OA
ATOM     14  C   UNL     1     -11.212  66.929  31.228  1.00  0.00     0.179 C 
ATOM     15  C   UNL     1      -9.208  66.918  29.674  1.00  0.00     0.178 C 
ATOM     16  C   UNL     1      -9.805  66.350  30.984  1.00  0.00     0.177 C 
BRANCH  12  17
ATOM     17  O   UNL     1     -13.275  67.503  30.108  1.00  0.00    -0.385 OA
ATOM     18  H   UNL     1     -13.048  68.473  30.059  1.00  0.00     0.211 HD
ENDBRANCH  12  17
BRANCH  14  19
ATOM     19  O   UNL     1     -11.108  68.285  31.589  1.00  0.00    -0.387 OA
ATOM     20  H   UNL     1     -10.418  68.348  32.301  1.00  0.00     0.211 HD
ENDBRANCH  14  19
BRANCH  15  21
ATOM     21  C   UNL     1      -7.838  66.305  29.363  1.00  0.00     0.191 C 
BRANCH  21  22
ATOM     22  O   UNL     1      -7.722  65.026  29.930  1.00  0.00    -0.394 OA
ATOM     23  H   UNL     1      -6.791  64.717  29.756  1.00  0.00     0.210 HD
ENDBRANCH  21  22
ENDBRANCH  15  21
BRANCH  16  24
ATOM     24  O   UNL     1      -8.979  66.659  32.083  1.00  0.00    -0.387 OA
ATOM     25  H   UNL     1      -9.571  66.989  32.812  1.00  0.00     0.211 HD
ENDBRANCH  16  24
ENDBRANCH  10  11
ENDBRANCH   4  10
BRANCH   6  26
ATOM     26  O   UNL     1      -7.886  70.648  26.738  1.00  0.00    -0.346 OA
BRANCH  26  27
ATOM     27  C   UNL     1      -7.131  70.731  25.540  1.00  0.00     0.130 C 
ATOM     28  C   UNL     1      -6.568  69.345  25.254  1.00  0.00     0.033 C 
ATOM     29  C   UNL     1      -5.994  71.787  25.716  1.00  0.00     0.020 C 
ATOM     30  C   UNL     1      -5.688  68.836  26.404  1.00  0.00     0.010 C 
ATOM     31  C   UNL     1      -5.028  71.356  26.913  1.00  0.00     0.006 C 
ATOM     32  C   UNL     1      -6.668  73.171  25.970  1.00  0.00     0.017 C 
ATOM     33  C   UNL     1      -4.555  69.817  26.897  1.00  0.00    -0.022 C 
ATOM     34  C   UNL     1      -5.580  71.840  28.292  1.00  0.00     0.005 C 
ATOM     35  C   UNL     1      -3.376  69.654  25.873  1.00  0.00     0.012 C 
ATOM     36  C   UNL     1      -3.928  69.360  28.313  1.00  0.00     0.024 C 
ATOM     37  C   UNL     1      -4.700  71.460  29.465  1.00  0.00     0.008 C 
ATOM     38  C   UNL     1      -4.545  69.927  29.640  1.00  0.00    -0.017 C 
ATOM     39  C   UNL     1      -3.807  67.851  28.463  1.00  0.00    -0.024 C 
ATOM     40  C   UNL     1      -5.972  69.325  29.867  1.00  0.00     0.013 C 
ATOM     41  C   UNL     1      -3.570  69.567  30.910  1.00  0.00     0.009 C 
ATOM     42  C   UNL     1      -3.403  67.321  29.620  1.00  0.00     0.005 C 
ATOM     43  C   UNL     1      -2.776  68.175  30.696  1.00  0.00     0.096 C 
ATOM     44  C   UNL     1      -2.504  70.696  31.173  1.00  0.00     0.043 C 
ATOM     45  C   UNL     1      -4.420  69.515  32.225  1.00  0.00     0.015 C 
ATOM     46  C   UNL     1      -1.264  68.387  30.375  1.00  0.00     0.037 C 
ATOM     47  O   UNL     1      -2.785  67.441  31.909  1.00  0.00    -0.369 OA
ATOM     48  C   UNL     1      -1.324  70.266  32.083  1.00  0.00     0.124 C 
ATOM     49  C   UNL     1      -0.806  68.801  31.770  1.00  0.00     0.026 C 
ATOM     50  C   UNL     1      -0.557  67.103  29.847  1.00  0.00     0.014 C 
ATOM     51  C   UNL     1      -1.608  67.785  32.614  1.00  0.00     0.171 C 
ATOM     52  C   UNL     1       0.734  68.667  32.014  1.00  0.00     0.013 C 
ATOM     53  C   UNL     1       0.983  67.153  29.961  1.00  0.00    -0.035 C 
ATOM     54  C   UNL     1       1.369  67.394  31.437  1.00  0.00     0.007 C 
ATOM     55  C   UNL     1       1.568  68.250  29.038  1.00  0.00     0.011 C 
ATOM     56  C   UNL     1       1.558  65.793  29.514  1.00  0.00     0.011 C 
BRANCH  29  57
ATOM     57  C   UNL     1      -5.211  71.981  24.373  1.00  0.00     0.165 C 
BRANCH  57  58
ATOM     58  O   UNL     1      -5.057  73.340  24.059  1.00  0.00    -0.396 OA
ATOM     59  H   UNL     1      -5.039  73.414  23.071  1.00  0.00     0.210 HD
ENDBRANCH  57  58
ENDBRANCH  29  57
BRANCH  48  60
ATOM     60  O   UNL     1      -0.294  71.212  31.932  1.00  0.00    -0.392 OA
ATOM     61  H   UNL     1       0.447  70.944  32.538  1.00  0.00     0.210 HD
ENDBRANCH  48  60
ENDBRANCH  26  27
ENDBRANCH   6  26
BRANCH   5  62
ATOM     62  O   UNL     1     -11.212  71.398  28.044  1.00  0.00    -0.385 OA
ATOM     63  H   UNL     1     -11.374  71.976  27.249  1.00  0.00     0.211 HD
ENDBRANCH   5  62
TORSDOF 14
ENDMDL
MODEL 7
REMARK VINA RESULT:    -8.314      1.996      3.765
REMARK INTER + INTRA:         -15.364
REMARK INTER:                 -13.873
REMARK INTRA:                  -1.491
REMARK UNBOUND:                -2.190
REMARK SMILES C[C@H]1O[C@H](O[C@@H]2CC[C@@]3(C)[C@H](CC[C@@]4(C)[C@H]3C=C[C@@]35OC[C@]6(CCC(C)(C)C[C@H]63)[C@@H](O)C[C@@]45C)[C@@]2(C)CO)[C@@H](O)[C@@H](O[C@H]2O[C@H](CO)[C@@H](O)[C@@H](O)[C@H]2O)[C@H]1O
REMARK SMILES IDX 1 1 2 2 54 3 41 4 39 5 4 6 3 7 55 8 42 10 43 11 52 12 44 13
REMARK SMILES IDX 50 14 45 15 48 16 53 17 51 19 46 21 47 22 49 24 5 26 6 27
REMARK SMILES IDX 7 28 35 29 8 30 11 31 36 32 9 33 12 34 10 35 16 36 13 37
REMARK SMILES IDX 14 38 17 39 15 40 33 41 18 42 19 43 32 44 34 45 29 46 20 47
REMARK SMILES IDX 30 48 22 49 28 50 21 51 23 52 25 53 24 54 26 55 27 56 37 57
REMARK SMILES IDX 38 58 31 60 40 62
REMARK H PARENT 55 9 53 18 51 20 47 23 49 25 38 59 31 61 40 63
REMARK Flexibility Score: inf
ROOT
ATOM      1  C   UNL     1      -1.801  68.222  32.890  1.00  0.00     0.041 C 
ATOM      2  C   UNL     1      -1.430  68.342  31.412  1.00  0.00     0.150 C 
ATOM      3  C   UNL     1       0.030  67.893  31.126  1.00  0.00     0.175 C 
ATOM      4  C   UNL     1       0.222  67.938  29.607  1.00  0.00     0.186 C 
ATOM      5  C   UNL     1      -0.083  69.357  29.085  1.00  0.00     0.202 C 
ATOM      6  C   UNL     1      -1.487  69.821  29.565  1.00  0.00     0.282 C 
ATOM      7  O   UNL     1      -1.662  69.680  30.975  1.00  0.00    -0.344 OA
ENDROOT
BRANCH   3   8
ATOM      8  O   UNL     1       0.988  68.718  31.752  1.00  0.00    -0.388 OA
ATOM      9  H   UNL     1       1.702  68.129  32.117  1.00  0.00     0.211 HD
ENDBRANCH   3   8
BRANCH   4  10
ATOM     10  O   UNL     1       1.535  67.534  29.250  1.00  0.00    -0.341 OA
BRANCH  10  11
ATOM     11  C   UNL     1       2.117  66.675  30.236  1.00  0.00     0.282 C 
ATOM     12  C   UNL     1       3.618  66.983  30.419  1.00  0.00     0.202 C 
ATOM     13  O   UNL     1       1.918  65.315  29.885  1.00  0.00    -0.341 OA
ATOM     14  C   UNL     1       4.420  66.579  29.166  1.00  0.00     0.179 C 
ATOM     15  C   UNL     1       2.508  64.998  28.640  1.00  0.00     0.178 C 
ATOM     16  C   UNL     1       4.045  65.149  28.732  1.00  0.00     0.177 C 
BRANCH  12  17
ATOM     17  O   UNL     1       3.790  68.355  30.680  1.00  0.00    -0.385 OA
ATOM     18  H   UNL     1       4.751  68.500  30.903  1.00  0.00     0.211 HD
ENDBRANCH  12  17
BRANCH  14  19
ATOM     19  O   UNL     1       4.161  67.475  28.112  1.00  0.00    -0.387 OA
ATOM     20  H   UNL     1       3.275  67.234  27.733  1.00  0.00     0.211 HD
ENDBRANCH  14  19
BRANCH  15  21
ATOM     21  C   UNL     1       2.100  63.565  28.281  1.00  0.00     0.191 C 
BRANCH  21  22
ATOM     22  O   UNL     1       0.990  63.157  29.039  1.00  0.00    -0.394 OA
ATOM     23  H   UNL     1       0.345  63.916  29.038  1.00  0.00     0.210 HD
ENDBRANCH  21  22
ENDBRANCH  15  21
BRANCH  16  24
ATOM     24  O   UNL     1       4.649  64.868  27.490  1.00  0.00    -0.387 OA
ATOM     25  H   UNL     1       3.925  64.860  26.807  1.00  0.00     0.211 HD
ENDBRANCH  16  24
ENDBRANCH  10  11
ENDBRANCH   4  10
BRANCH   6  26
ATOM     26  O   UNL     1      -2.460  69.074  28.859  1.00  0.00    -0.346 OA
BRANCH  26  27
ATOM     27  C   UNL     1      -2.432  69.268  27.454  1.00  0.00     0.130 C 
ATOM     28  C   UNL     1      -3.294  70.484  27.142  1.00  0.00     0.033 C 
ATOM     29  C   UNL     1      -2.967  67.987  26.741  1.00  0.00     0.020 C 
ATOM     30  C   UNL     1      -4.739  70.301  27.625  1.00  0.00     0.010 C 
ATOM     31  C   UNL     1      -4.470  67.696  27.198  1.00  0.00     0.006 C 
ATOM     32  C   UNL     1      -2.004  66.811  27.094  1.00  0.00     0.017 C 
ATOM     33  C   UNL     1      -5.456  68.969  27.179  1.00  0.00    -0.022 C 
ATOM     34  C   UNL     1      -4.512  66.876  28.528  1.00  0.00     0.005 C 
ATOM     35  C   UNL     1      -5.940  69.219  25.707  1.00  0.00     0.012 C 
ATOM     36  C   UNL     1      -6.811  68.699  28.012  1.00  0.00     0.024 C 
ATOM     37  C   UNL     1      -5.916  66.568  29.007  1.00  0.00     0.008 C 
ATOM     38  C   UNL     1      -6.745  67.839  29.324  1.00  0.00    -0.017 C 
ATOM     39  C   UNL     1      -7.593  69.966  28.325  1.00  0.00    -0.024 C 
ATOM     40  C   UNL     1      -5.995  68.633  30.445  1.00  0.00     0.013 C 
ATOM     41  C   UNL     1      -8.261  67.455  29.820  1.00  0.00     0.009 C 
ATOM     42  C   UNL     1      -8.682  69.912  29.096  1.00  0.00     0.005 C 
ATOM     43  C   UNL     1      -9.340  68.595  29.430  1.00  0.00     0.096 C 
ATOM     44  C   UNL     1      -8.754  66.092  29.205  1.00  0.00     0.043 C 
ATOM     45  C   UNL     1      -8.259  67.210  31.368  1.00  0.00     0.015 C 
ATOM     46  C   UNL     1     -10.270  68.166  28.253  1.00  0.00     0.037 C 
ATOM     47  O   UNL     1     -10.218  68.800  30.524  1.00  0.00    -0.369 OA
ATOM     48  C   UNL     1     -10.284  65.856  29.309  1.00  0.00     0.124 C 
ATOM     49  C   UNL     1     -11.130  67.163  29.016  1.00  0.00     0.026 C 
ATOM     50  C   UNL     1     -11.085  69.347  27.647  1.00  0.00     0.014 C 
ATOM     51  C   UNL     1     -11.331  67.948  30.331  1.00  0.00     0.171 C 
ATOM     52  C   UNL     1     -12.496  66.827  28.329  1.00  0.00     0.013 C 
ATOM     53  C   UNL     1     -12.313  68.894  26.825  1.00  0.00    -0.035 C 
ATOM     54  C   UNL     1     -13.228  68.033  27.724  1.00  0.00     0.007 C 
ATOM     55  C   UNL     1     -11.873  68.118  25.559  1.00  0.00     0.011 C 
ATOM     56  C   UNL     1     -13.096  70.144  26.373  1.00  0.00     0.011 C 
BRANCH  29  57
ATOM     57  C   UNL     1      -2.846  68.130  25.187  1.00  0.00     0.165 C 
BRANCH  57  58
ATOM     58  O   UNL     1      -1.578  68.599  24.811  1.00  0.00    -0.396 OA
ATOM     59  H   UNL     1      -1.096  67.842  24.392  1.00  0.00     0.210 HD
ENDBRANCH  57  58
ENDBRANCH  29  57
BRANCH  48  60
ATOM     60  O   UNL     1     -10.624  64.820  28.420  1.00  0.00    -0.392 OA
ATOM     61  H   UNL     1      -9.840  64.668  27.828  1.00  0.00     0.210 HD
ENDBRANCH  48  60
ENDBRANCH  26  27
ENDBRANCH   6  26
BRANCH   5  62
ATOM     62  O   UNL     1       0.944  70.258  29.448  1.00  0.00    -0.385 OA
ATOM     63  H   UNL     1       0.922  71.041  28.833  1.00  0.00     0.211 HD
ENDBRANCH   5  62
TORSDOF 14
ENDMDL
MODEL 8
REMARK VINA RESULT:    -8.282      3.053      9.864
REMARK INTER + INTRA:         -15.314
REMARK INTER:                 -12.890
REMARK INTRA:                  -2.424
REMARK UNBOUND:                -2.190
REMARK SMILES C[C@H]1O[C@H](O[C@@H]2CC[C@@]3(C)[C@H](CC[C@@]4(C)[C@H]3C=C[C@@]35OC[C@]6(CCC(C)(C)C[C@H]63)[C@@H](O)C[C@@]45C)[C@@]2(C)CO)[C@@H](O)[C@@H](O[C@H]2O[C@H](CO)[C@@H](O)[C@@H](O)[C@H]2O)[C@H]1O
REMARK SMILES IDX 1 1 2 2 54 3 41 4 39 5 4 6 3 7 55 8 42 10 43 11 52 12 44 13
REMARK SMILES IDX 50 14 45 15 48 16 53 17 51 19 46 21 47 22 49 24 5 26 6 27
REMARK SMILES IDX 7 28 35 29 8 30 11 31 36 32 9 33 12 34 10 35 16 36 13 37
REMARK SMILES IDX 14 38 17 39 15 40 33 41 18 42 19 43 32 44 34 45 29 46 20 47
REMARK SMILES IDX 30 48 22 49 28 50 21 51 23 52 25 53 24 54 26 55 27 56 37 57
REMARK SMILES IDX 38 58 31 60 40 62
REMARK H PARENT 55 9 53 18 51 20 47 23 49 25 38 59 31 61 40 63
REMARK Flexibility Score: inf
ROOT
ATOM      1  C   UNL     1      -7.570  72.581  30.054  1.00  0.00     0.041 C 
ATOM      2  C   UNL     1      -7.086  71.242  29.497  1.00  0.00     0.150 C 
ATOM      3  C   UNL     1      -6.936  71.261  27.950  1.00  0.00     0.175 C 
ATOM      4  C   UNL     1      -6.324  69.916  27.545  1.00  0.00     0.186 C 
ATOM      5  C   UNL     1      -7.218  68.764  28.049  1.00  0.00     0.202 C 
ATOM      6  C   UNL     1      -7.484  68.910  29.574  1.00  0.00     0.282 C 
ATOM      7  O   UNL     1      -7.968  70.207  29.927  1.00  0.00    -0.344 OA
ENDROOT
BRANCH   3   8
ATOM      8  O   UNL     1      -8.166  71.444  27.285  1.00  0.00    -0.388 OA
ATOM      9  H   UNL     1      -8.726  72.046  27.846  1.00  0.00     0.211 HD
ENDBRANCH   3   8
BRANCH   4  10
ATOM     10  O   UNL     1      -6.144  69.845  26.140  1.00  0.00    -0.341 OA
BRANCH  10  11
ATOM     11  C   UNL     1      -5.105  70.719  25.689  1.00  0.00     0.282 C 
ATOM     12  C   UNL     1      -5.361  71.179  24.239  1.00  0.00     0.202 C 
ATOM     13  O   UNL     1      -3.841  70.084  25.802  1.00  0.00    -0.341 OA
ATOM     14  C   UNL     1      -5.206  70.005  23.252  1.00  0.00     0.179 C 
ATOM     15  C   UNL     1      -3.772  68.903  25.029  1.00  0.00     0.178 C 
ATOM     16  C   UNL     1      -3.892  69.249  23.526  1.00  0.00     0.177 C 
BRANCH  12  17
ATOM     17  O   UNL     1      -6.654  71.726  24.139  1.00  0.00    -0.385 OA
ATOM     18  H   UNL     1      -7.301  70.967  24.133  1.00  0.00     0.211 HD
ENDBRANCH  12  17
BRANCH  14  19
ATOM     19  O   UNL     1      -6.294  69.120  23.374  1.00  0.00    -0.387 OA
ATOM     20  H   UNL     1      -7.095  69.666  23.588  1.00  0.00     0.211 HD
ENDBRANCH  14  19
BRANCH  15  21
ATOM     21  C   UNL     1      -2.439  68.214  25.347  1.00  0.00     0.191 C 
BRANCH  21  22
ATOM     22  O   UNL     1      -1.449  68.592  24.426  1.00  0.00    -0.394 OA
ATOM     23  H   UNL     1      -0.644  68.041  24.626  1.00  0.00     0.210 HD
ENDBRANCH  21  22
ENDBRANCH  15  21
BRANCH  16  24
ATOM     24  O   UNL     1      -3.857  68.080  22.740  1.00  0.00    -0.387 OA
ATOM     25  H   UNL     1      -4.196  67.335  23.307  1.00  0.00     0.211 HD
ENDBRANCH  16  24
ENDBRANCH  10  11
ENDBRANCH   4  10
BRANCH   6  26
ATOM     26  O   UNL     1      -6.280  68.619  30.258  1.00  0.00    -0.346 OA
BRANCH  26  27
ATOM     27  C   UNL     1      -6.468  68.128  31.575  1.00  0.00     0.130 C 
ATOM     28  C   UNL     1      -5.777  69.093  32.529  1.00  0.00     0.033 C 
ATOM     29  C   UNL     1      -5.872  66.689  31.684  1.00  0.00     0.020 C 
ATOM     30  C   UNL     1      -4.280  69.229  32.221  1.00  0.00     0.010 C 
ATOM     31  C   UNL     1      -4.308  66.720  31.357  1.00  0.00     0.006 C 
ATOM     32  C   UNL     1      -6.663  65.773  30.699  1.00  0.00     0.017 C 
ATOM     33  C   UNL     1      -3.472  67.880  32.097  1.00  0.00    -0.022 C 
ATOM     34  C   UNL     1      -4.047  66.626  29.819  1.00  0.00     0.005 C 
ATOM     35  C   UNL     1      -3.166  67.431  33.569  1.00  0.00     0.012 C 
ATOM     36  C   UNL     1      -2.019  68.100  31.429  1.00  0.00     0.024 C 
ATOM     37  C   UNL     1      -2.577  66.648  29.451  1.00  0.00     0.008 C 
ATOM     38  C   UNL     1      -1.862  67.957  29.874  1.00  0.00    -0.017 C 
ATOM     39  C   UNL     1      -1.351  69.402  31.847  1.00  0.00    -0.024 C 
ATOM     40  C   UNL     1      -2.578  69.148  29.153  1.00  0.00     0.013 C 
ATOM     41  C   UNL     1      -0.272  67.926  29.472  1.00  0.00     0.009 C 
ATOM     42  C   UNL     1      -0.191  69.770  31.297  1.00  0.00     0.005 C 
ATOM     43  C   UNL     1       0.634  68.798  30.487  1.00  0.00     0.096 C 
ATOM     44  C   UNL     1       0.301  66.459  29.450  1.00  0.00     0.043 C 
ATOM     45  C   UNL     1      -0.093  68.439  28.002  1.00  0.00     0.015 C 
ATOM     46  C   UNL     1       1.483  67.911  31.450  1.00  0.00     0.037 C 
ATOM     47  O   UNL     1       1.590  69.536  29.745  1.00  0.00    -0.369 OA
ATOM     48  C   UNL     1       1.850  66.374  29.461  1.00  0.00     0.124 C 
ATOM     49  C   UNL     1       2.518  67.428  30.438  1.00  0.00     0.026 C 
ATOM     50  C   UNL     1       2.103  68.705  32.638  1.00  0.00     0.014 C 
ATOM     51  C   UNL     1       2.763  68.749  29.675  1.00  0.00     0.171 C 
ATOM     52  C   UNL     1       3.837  66.874  31.074  1.00  0.00     0.013 C 
ATOM     53  C   UNL     1       3.284  67.978  33.320  1.00  0.00    -0.035 C 
ATOM     54  C   UNL     1       4.371  67.688  32.261  1.00  0.00     0.007 C 
ATOM     55  C   UNL     1       2.807  66.678  34.011  1.00  0.00     0.011 C 
ATOM     56  C   UNL     1       3.880  68.905  34.400  1.00  0.00     0.011 C 
BRANCH  29  57
ATOM     57  C   UNL     1      -6.162  66.078  33.096  1.00  0.00     0.165 C 
BRANCH  57  58
ATOM     58  O   UNL     1      -7.487  66.309  33.494  1.00  0.00    -0.396 OA
ATOM     59  H   UNL     1      -7.874  66.969  32.865  1.00  0.00     0.210 HD
ENDBRANCH  57  58
ENDBRANCH  29  57
BRANCH  48  60
ATOM     60  O   UNL     1       2.209  65.059  29.810  1.00  0.00    -0.392 OA
ATOM     61  H   UNL     1       1.768  64.851  30.676  1.00  0.00     0.210 HD
ENDBRANCH  48  60
ENDBRANCH  26  27
ENDBRANCH   6  26
BRANCH   5  62
ATOM     62  O   UNL     1      -8.409  68.683  27.293  1.00  0.00    -0.385 OA
ATOM     63  H   UNL     1      -8.513  69.519  26.761  1.00  0.00     0.211 HD
ENDBRANCH   5  62
TORSDOF 14
ENDMDL
MODEL 9
REMARK VINA RESULT:    -8.157      2.712     10.690
REMARK INTER + INTRA:         -15.115
REMARK INTER:                 -13.157
REMARK INTRA:                  -1.958
REMARK UNBOUND:                -2.190
REMARK SMILES C[C@H]1O[C@H](O[C@@H]2CC[C@@]3(C)[C@H](CC[C@@]4(C)[C@H]3C=C[C@@]35OC[C@]6(CCC(C)(C)C[C@H]63)[C@@H](O)C[C@@]45C)[C@@]2(C)CO)[C@@H](O)[C@@H](O[C@H]2O[C@H](CO)[C@@H](O)[C@@H](O)[C@H]2O)[C@H]1O
REMARK SMILES IDX 1 1 2 2 54 3 41 4 39 5 4 6 3 7 55 8 42 10 43 11 52 12 44 13
REMARK SMILES IDX 50 14 45 15 48 16 53 17 51 19 46 21 47 22 49 24 5 26 6 27
REMARK SMILES IDX 7 28 35 29 8 30 11 31 36 32 9 33 12 34 10 35 16 36 13 37
REMARK SMILES IDX 14 38 17 39 15 40 33 41 18 42 19 43 32 44 34 45 29 46 20 47
REMARK SMILES IDX 30 48 22 49 28 50 21 51 23 52 25 53 24 54 26 55 27 56 37 57
REMARK SMILES IDX 38 58 31 60 40 62
REMARK H PARENT 55 9 53 18 51 20 47 23 49 25 38 59 31 61 40 63
REMARK Flexibility Score: inf
ROOT
ATOM      1  C   UNL     1      -4.903  70.851  26.703  1.00  0.00     0.041 C 
ATOM      2  C   UNL     1      -5.918  70.240  27.670  1.00  0.00     0.150 C 
ATOM      3  C   UNL     1      -7.384  70.418  27.185  1.00  0.00     0.175 C 
ATOM      4  C   UNL     1      -8.275  69.652  28.168  1.00  0.00     0.186 C 
ATOM      5  C   UNL     1      -8.046  70.182  29.599  1.00  0.00     0.202 C 
ATOM      6  C   UNL     1      -6.534  70.152  29.954  1.00  0.00     0.282 C 
ATOM      7  O   UNL     1      -5.724  70.796  28.970  1.00  0.00    -0.344 OA
ENDROOT
BRANCH   3   8
ATOM      8  O   UNL     1      -7.782  71.770  27.135  1.00  0.00    -0.388 OA
ATOM      9  H   UNL     1      -7.142  72.252  26.544  1.00  0.00     0.211 HD
ENDBRANCH   3   8
BRANCH   4  10
ATOM     10  O   UNL     1      -9.641  69.754  27.798  1.00  0.00    -0.341 OA
BRANCH  10  11
ATOM     11  C   UNL     1      -9.999  68.790  26.803  1.00  0.00     0.282 C 
ATOM     12  C   UNL     1     -10.808  69.446  25.665  1.00  0.00     0.202 C 
ATOM     13  O   UNL     1     -10.725  67.721  27.390  1.00  0.00    -0.341 OA
ATOM     14  C   UNL     1     -12.200  69.887  26.161  1.00  0.00     0.179 C 
ATOM     15  C   UNL     1     -11.918  68.167  28.003  1.00  0.00     0.178 C 
ATOM     16  C   UNL     1     -12.878  68.739  26.933  1.00  0.00     0.177 C 
BRANCH  12  17
ATOM     17  O   UNL     1     -10.102  70.554  25.162  1.00  0.00    -0.385 OA
ATOM     18  H   UNL     1      -9.613  70.254  24.347  1.00  0.00     0.211 HD
ENDBRANCH  12  17
BRANCH  14  19
ATOM     19  O   UNL     1     -12.084  71.014  26.997  1.00  0.00    -0.387 OA
ATOM     20  H   UNL     1     -12.141  71.817  26.416  1.00  0.00     0.211 HD
ENDBRANCH  14  19
BRANCH  15  21
ATOM     21  C   UNL     1     -12.537  66.973  28.740  1.00  0.00     0.191 C 
BRANCH  21  22
ATOM     22  O   UNL     1     -13.252  67.399  29.871  1.00  0.00    -0.394 OA
ATOM     23  H   UNL     1     -14.188  67.564  29.575  1.00  0.00     0.210 HD
ENDBRANCH  21  22
ENDBRANCH  15  21
BRANCH  16  24
ATOM     24  O   UNL     1     -14.062  69.218  27.531  1.00  0.00    -0.387 OA
ATOM     25  H   UNL     1     -14.787  68.577  27.299  1.00  0.00     0.211 HD
ENDBRANCH  16  24
ENDBRANCH  10  11
ENDBRANCH   4  10
BRANCH   6  26
ATOM     26  O   UNL     1      -6.148  68.800  30.116  1.00  0.00    -0.346 OA
BRANCH  26  27
ATOM     27  C   UNL     1      -6.388  68.282  31.415  1.00  0.00     0.130 C 
ATOM     28  C   UNL     1      -5.721  69.219  32.413  1.00  0.00     0.033 C 
ATOM     29  C   UNL     1      -5.810  66.835  31.512  1.00  0.00     0.020 C 
ATOM     30  C   UNL     1      -4.213  69.345  32.161  1.00  0.00     0.010 C 
ATOM     31  C   UNL     1      -4.236  66.856  31.241  1.00  0.00     0.006 C 
ATOM     32  C   UNL     1      -6.576  65.949  30.481  1.00  0.00     0.017 C 
ATOM     33  C   UNL     1      -3.414  67.990  32.035  1.00  0.00    -0.022 C 
ATOM     34  C   UNL     1      -3.921  66.792  29.712  1.00  0.00     0.005 C 
ATOM     35  C   UNL     1      -3.166  67.506  33.507  1.00  0.00     0.012 C 
ATOM     36  C   UNL     1      -1.937  68.208  31.424  1.00  0.00     0.024 C 
ATOM     37  C   UNL     1      -2.440  66.805  29.396  1.00  0.00     0.008 C 
ATOM     38  C   UNL     1      -1.727  68.098  29.873  1.00  0.00    -0.017 C 
ATOM     39  C   UNL     1      -1.271  69.493  31.894  1.00  0.00    -0.024 C 
ATOM     40  C   UNL     1      -2.404  69.312  29.153  1.00  0.00     0.013 C 
ATOM     41  C   UNL     1      -0.123  68.057  29.526  1.00  0.00     0.009 C 
ATOM     42  C   UNL     1      -0.089  69.860  31.392  1.00  0.00     0.005 C 
ATOM     43  C   UNL     1       0.755  68.897  30.591  1.00  0.00     0.096 C 
ATOM     44  C   UNL     1       0.435  66.585  29.491  1.00  0.00     0.043 C 
ATOM     45  C   UNL     1       0.112  68.600  28.074  1.00  0.00     0.015 C 
ATOM     46  C   UNL     1       1.560  67.980  31.563  1.00  0.00     0.037 C 
ATOM     47  O   UNL     1       1.744  69.641  29.899  1.00  0.00    -0.369 OA
ATOM     48  C   UNL     1       1.981  66.483  29.556  1.00  0.00     0.124 C 
ATOM     49  C   UNL     1       2.625  67.508  30.578  1.00  0.00     0.026 C 
ATOM     50  C   UNL     1       2.145  68.742  32.790  1.00  0.00     0.014 C 
ATOM     51  C   UNL     1       2.910  68.842  29.853  1.00  0.00     0.171 C 
ATOM     52  C   UNL     1       3.915  66.926  31.248  1.00  0.00     0.013 C 
ATOM     53  C   UNL     1       3.294  67.987  33.496  1.00  0.00    -0.035 C 
ATOM     54  C   UNL     1       4.415  67.708  32.470  1.00  0.00     0.007 C 
ATOM     55  C   UNL     1       2.780  66.678  34.142  1.00  0.00     0.011 C 
ATOM     56  C   UNL     1       3.862  68.884  34.617  1.00  0.00     0.011 C 
BRANCH  29  57
ATOM     57  C   UNL     1      -6.157  66.196  32.900  1.00  0.00     0.165 C 
BRANCH  57  58
ATOM     58  O   UNL     1      -7.513  66.361  33.218  1.00  0.00    -0.396 OA
ATOM     59  H   UNL     1      -7.933  65.465  33.192  1.00  0.00     0.210 HD
ENDBRANCH  57  58
ENDBRANCH  29  57
BRANCH  48  60
ATOM     60  O   UNL     1       2.314  65.157  29.888  1.00  0.00    -0.392 OA
ATOM     61  H   UNL     1       1.486  64.615  29.811  1.00  0.00     0.210 HD
ENDBRANCH  48  60
ENDBRANCH  26  27
ENDBRANCH   6  26
BRANCH   5  62
ATOM     62  O   UNL     1      -8.620  71.464  29.759  1.00  0.00    -0.385 OA
ATOM     63  H   UNL     1      -7.960  72.061  30.204  1.00  0.00     0.211 HD
ENDBRANCH   5  62
TORSDOF 14
ENDMDL
