MODEL 1
REMARK VINA RESULT:    -5.331      0.000      0.000
REMARK INTER + INTRA:          -7.554
REMARK INTER:                  -6.578
REMARK INTRA:                  -0.977
REMARK UNBOUND:                -0.977
REMARK SMILES C=C(CCC=C(C)C)[C@@H]1CC=C(C)CC1
REMARK SMILES IDX 3 1 2 2 1 3 9 4 13 5 12 6 11 7 14 8 10 9 15 10 4 11 5 12
REMARK SMILES IDX 6 13 7 14 8 15
REMARK H PARENT
REMARK Flexibility Score: inf
ROOT
ATOM      1  C   UNL     1      -1.364  -2.634  12.540  1.00  0.00     0.035 C 
ENDROOT
BRANCH   1   2
ATOM      2  C   UNL     1       0.143  -2.722  12.646  1.00  0.00    -0.074 C 
ATOM      3  C   UNL     1       0.888  -2.754  11.526  1.00  0.00     0.008 C 
BRANCH   2   4
ATOM      4  C   UNL     1       0.791  -2.840  14.018  1.00  0.00     0.018 C 
ATOM      5  C   UNL     1       3.384  -1.953  17.353  1.00  0.00     0.039 C 
ATOM      6  C   UNL     1       2.558  -1.879  16.099  1.00  0.00    -0.077 C 
ATOM      7  C   UNL     1       1.237  -1.648  16.171  1.00  0.00    -0.027 C 
ATOM      8  C   UNL     1       3.178  -2.106  14.739  1.00  0.00     0.031 C 
ATOM      9  C   UNL     1       0.421  -1.631  14.909  1.00  0.00     0.035 C 
ATOM     10  C   UNL     1       2.330  -3.094  13.914  1.00  0.00     0.013 C 
ENDBRANCH   2   4
ENDBRANCH   1   2
BRANCH   1  11
ATOM     11  C   UNL     1      -2.034  -3.978  12.861  1.00  0.00     0.032 C 
BRANCH  11  12
ATOM     12  C   UNL     1      -2.125  -4.868  11.643  1.00  0.00    -0.028 C 
ATOM     13  C   UNL     1      -1.339  -5.945  11.419  1.00  0.00    -0.080 C 
ATOM     14  C   UNL     1      -1.583  -6.763  10.178  1.00  0.00     0.039 C 
ATOM     15  C   UNL     1      -0.224  -6.332  12.360  1.00  0.00     0.039 C 
ENDBRANCH  11  12
ENDBRANCH   1  11
TORSDOF 4
ENDMDL
MODEL 2
REMARK VINA RESULT:    -5.315      3.497      7.270
REMARK INTER + INTRA:          -7.534
REMARK INTER:                  -6.723
REMARK INTRA:                  -0.811
REMARK UNBOUND:                -0.977
REMARK SMILES C=C(CCC=C(C)C)[C@@H]1CC=C(C)CC1
REMARK SMILES IDX 3 1 2 2 1 3 9 4 13 5 12 6 11 7 14 8 10 9 15 10 4 11 5 12
REMARK SMILES IDX 6 13 7 14 8 15
REMARK H PARENT
REMARK Flexibility Score: inf
ROOT
ATOM      1  C   UNL     1       4.554  -3.660  18.522  1.00  0.00     0.035 C 
ENDROOT
BRANCH   1   2
ATOM      2  C   UNL     1       3.062  -3.574  18.287  1.00  0.00    -0.074 C 
ATOM      3  C   UNL     1       2.245  -4.478  18.857  1.00  0.00     0.008 C 
BRANCH   2   4
ATOM      4  C   UNL     1       2.512  -2.505  17.354  1.00  0.00     0.018 C 
ATOM      5  C   UNL     1       0.072  -0.670  14.302  1.00  0.00     0.039 C 
ATOM      6  C   UNL     1       0.618  -1.571  15.374  1.00  0.00    -0.077 C 
ATOM      7  C   UNL     1       0.454  -1.258  16.670  1.00  0.00    -0.027 C 
ATOM      8  C   UNL     1       1.399  -2.818  15.026  1.00  0.00     0.031 C 
ATOM      9  C   UNL     1       1.053  -2.145  17.725  1.00  0.00     0.035 C 
ATOM     10  C   UNL     1       2.698  -2.893  15.851  1.00  0.00     0.013 C 
ENDBRANCH   2   4
ENDBRANCH   1   2
BRANCH   1  11
ATOM     11  C   UNL     1       5.231  -2.291  18.375  1.00  0.00     0.032 C 
BRANCH  11  12
ATOM     12  C   UNL     1       6.703  -2.419  18.057  1.00  0.00    -0.028 C 
ATOM     13  C   UNL     1       7.226  -2.368  16.812  1.00  0.00    -0.080 C 
ATOM     14  C   UNL     1       8.721  -2.464  16.659  1.00  0.00     0.039 C 
ATOM     15  C   UNL     1       6.359  -2.237  15.583  1.00  0.00     0.039 C 
ENDBRANCH  11  12
ENDBRANCH   1  11
TORSDOF 4
ENDMDL
MODEL 3
REMARK VINA RESULT:    -5.261      1.781      4.122
REMARK INTER + INTRA:          -7.468
REMARK INTER:                  -6.438
REMARK INTRA:                  -1.030
REMARK UNBOUND:                -0.977
REMARK SMILES C=C(CCC=C(C)C)[C@@H]1CC=C(C)CC1
REMARK SMILES IDX 3 1 2 2 1 3 9 4 13 5 12 6 11 7 14 8 10 9 15 10 4 11 5 12
REMARK SMILES IDX 6 13 7 14 8 15
REMARK H PARENT
REMARK Flexibility Score: inf
ROOT
ATOM      1  C   UNL     1       0.746  -0.913  16.004  1.00  0.00     0.035 C 
ENDROOT
BRANCH   1   2
ATOM      2  C   UNL     1       1.710  -1.951  16.537  1.00  0.00    -0.074 C 
ATOM      3  C   UNL     1       1.238  -3.118  17.010  1.00  0.00     0.008 C 
BRANCH   2   4
ATOM      4  C   UNL     1       3.197  -1.631  16.593  1.00  0.00     0.018 C 
ATOM      5  C   UNL     1       7.446  -2.235  17.062  1.00  0.00     0.039 C 
ATOM      6  C   UNL     1       5.971  -2.421  16.835  1.00  0.00    -0.077 C 
ATOM      7  C   UNL     1       5.438  -2.181  15.626  1.00  0.00    -0.027 C 
ATOM      8  C   UNL     1       5.051  -2.835  17.960  1.00  0.00     0.031 C 
ATOM      9  C   UNL     1       3.954  -2.322  15.433  1.00  0.00     0.035 C 
ATOM     10  C   UNL     1       3.805  -1.931  18.003  1.00  0.00     0.013 C 
ENDBRANCH   2   4
ENDBRANCH   1   2
BRANCH   1  11
ATOM     11  C   UNL     1       0.718  -0.901  14.470  1.00  0.00     0.032 C 
BRANCH  11  12
ATOM     12  C   UNL     1      -0.371  -1.793  13.918  1.00  0.00    -0.028 C 
ATOM     13  C   UNL     1      -0.160  -3.005  13.359  1.00  0.00    -0.080 C 
ATOM     14  C   UNL     1      -1.355  -3.798  12.897  1.00  0.00     0.039 C 
ATOM     15  C   UNL     1       1.227  -3.571  13.173  1.00  0.00     0.039 C 
ENDBRANCH  11  12
ENDBRANCH   1  11
TORSDOF 4
ENDMDL
MODEL 4
REMARK VINA RESULT:    -5.243      3.632      7.268
REMARK INTER + INTRA:          -7.446
REMARK INTER:                  -6.448
REMARK INTRA:                  -0.998
REMARK UNBOUND:                -0.977
REMARK SMILES C=C(CCC=C(C)C)[C@@H]1CC=C(C)CC1
REMARK SMILES IDX 3 1 2 2 1 3 9 4 13 5 12 6 11 7 14 8 10 9 15 10 4 11 5 12
REMARK SMILES IDX 6 13 7 14 8 15
REMARK H PARENT
REMARK Flexibility Score: inf
ROOT
ATOM      1  C   UNL     1       4.376  -1.839  18.119  1.00  0.00     0.035 C 
ENDROOT
BRANCH   1   2
ATOM      2  C   UNL     1       2.952  -2.238  17.795  1.00  0.00    -0.074 C 
ATOM      3  C   UNL     1       2.222  -2.900  18.711  1.00  0.00     0.008 C 
BRANCH   2   4
ATOM      4  C   UNL     1       2.389  -1.945  16.412  1.00  0.00     0.018 C 
ATOM      5  C   UNL     1       2.301  -0.958  12.210  1.00  0.00     0.039 C 
ATOM      6  C   UNL     1       2.710  -1.405  13.586  1.00  0.00    -0.077 C 
ATOM      7  C   UNL     1       2.414  -2.645  14.010  1.00  0.00    -0.027 C 
ATOM      8  C   UNL     1       3.417  -0.467  14.537  1.00  0.00     0.031 C 
ATOM      9  C   UNL     1       2.784  -3.055  15.408  1.00  0.00     0.035 C 
ATOM     10  C   UNL     1       2.756  -0.504  15.928  1.00  0.00     0.013 C 
ENDBRANCH   2   4
ENDBRANCH   1   2
BRANCH   1  11
ATOM     11  C   UNL     1       5.334  -3.035  18.032  1.00  0.00     0.032 C 
BRANCH  11  12
ATOM     12  C   UNL     1       6.769  -2.596  17.855  1.00  0.00    -0.028 C 
ATOM     13  C   UNL     1       7.318  -2.223  16.678  1.00  0.00    -0.080 C 
ATOM     14  C   UNL     1       8.753  -1.766  16.670  1.00  0.00     0.039 C 
ATOM     15  C   UNL     1       6.544  -2.270  15.382  1.00  0.00     0.039 C 
ENDBRANCH  11  12
ENDBRANCH   1  11
TORSDOF 4
ENDMDL
MODEL 5
REMARK VINA RESULT:    -5.201      3.337      5.747
REMARK INTER + INTRA:          -7.394
REMARK INTER:                  -6.209
REMARK INTRA:                  -1.185
REMARK UNBOUND:                -0.977
REMARK SMILES C=C(CCC=C(C)C)[C@@H]1CC=C(C)CC1
REMARK SMILES IDX 3 1 2 2 1 3 9 4 13 5 12 6 11 7 14 8 10 9 15 10 4 11 5 12
REMARK SMILES IDX 6 13 7 14 8 15
REMARK H PARENT
REMARK Flexibility Score: inf
ROOT
ATOM      1  C   UNL     1       1.946  -1.898  17.874  1.00  0.00     0.035 C 
ENDROOT
BRANCH   1   2
ATOM      2  C   UNL     1       3.173  -2.766  17.697  1.00  0.00    -0.074 C 
ATOM      3  C   UNL     1       3.080  -4.096  17.882  1.00  0.00     0.008 C 
BRANCH   2   4
ATOM      4  C   UNL     1       4.510  -2.115  17.376  1.00  0.00     0.018 C 
ATOM      5  C   UNL     1       8.736  -1.742  16.578  1.00  0.00     0.039 C 
ATOM      6  C   UNL     1       7.332  -2.252  16.747  1.00  0.00    -0.077 C 
ATOM      7  C   UNL     1       6.427  -2.079  15.770  1.00  0.00    -0.027 C 
ATOM      8  C   UNL     1       6.892  -2.926  18.026  1.00  0.00     0.031 C 
ATOM      9  C   UNL     1       5.015  -2.549  15.979  1.00  0.00     0.035 C 
ATOM     10  C   UNL     1       5.555  -2.340  18.517  1.00  0.00     0.013 C 
ENDBRANCH   2   4
ENDBRANCH   1   2
BRANCH   1  11
ATOM     11  C   UNL     1       0.992  -2.014  16.678  1.00  0.00     0.032 C 
BRANCH  11  12
ATOM     12  C   UNL     1       1.414  -1.126  15.531  1.00  0.00    -0.028 C 
ATOM     13  C   UNL     1       1.843  -1.575  14.330  1.00  0.00    -0.080 C 
ATOM     14  C   UNL     1       2.185  -0.564  13.268  1.00  0.00     0.039 C 
ATOM     15  C   UNL     1       2.004  -3.048  14.037  1.00  0.00     0.039 C 
ENDBRANCH  11  12
ENDBRANCH   1  11
TORSDOF 4
ENDMDL
MODEL 6
REMARK VINA RESULT:    -5.140      1.308      5.803
REMARK INTER + INTRA:          -7.318
REMARK INTER:                  -6.392
REMARK INTRA:                  -0.927
REMARK UNBOUND:                -0.977
REMARK SMILES C=C(CCC=C(C)C)[C@@H]1CC=C(C)CC1
REMARK SMILES IDX 3 1 2 2 1 3 9 4 13 5 12 6 11 7 14 8 10 9 15 10 4 11 5 12
REMARK SMILES IDX 6 13 7 14 8 15
REMARK H PARENT
REMARK Flexibility Score: inf
ROOT
ATOM      1  C   UNL     1       2.004  -1.023  14.275  1.00  0.00     0.035 C 
ENDROOT
BRANCH   1   2
ATOM      2  C   UNL     1       0.505  -1.172  14.132  1.00  0.00    -0.074 C 
ATOM      3  C   UNL     1      -0.314  -0.484  14.950  1.00  0.00     0.008 C 
BRANCH   2   4
ATOM      4  C   UNL     1      -0.056  -2.150  13.110  1.00  0.00     0.018 C 
ATOM      5  C   UNL     1      -2.018  -5.651  11.519  1.00  0.00     0.039 C 
ATOM      6  C   UNL     1      -1.543  -4.530  12.402  1.00  0.00    -0.077 C 
ATOM      7  C   UNL     1      -2.125  -3.321  12.330  1.00  0.00    -0.027 C 
ATOM      8  C   UNL     1      -0.382  -4.718  13.350  1.00  0.00     0.031 C 
ATOM      9  C   UNL     1      -1.601  -2.199  13.183  1.00  0.00     0.035 C 
ATOM     10  C   UNL     1       0.620  -3.556  13.218  1.00  0.00     0.013 C 
ENDBRANCH   2   4
ENDBRANCH   1   2
BRANCH   1  11
ATOM     11  C   UNL     1       2.412  -0.765  15.731  1.00  0.00     0.032 C 
BRANCH  11  12
ATOM     12  C   UNL     1       2.918  -2.019  16.407  1.00  0.00    -0.028 C 
ATOM     13  C   UNL     1       2.232  -2.720  17.336  1.00  0.00    -0.080 C 
ATOM     14  C   UNL     1       2.850  -3.979  17.884  1.00  0.00     0.039 C 
ATOM     15  C   UNL     1       0.884  -2.268  17.847  1.00  0.00     0.039 C 
ENDBRANCH  11  12
ENDBRANCH   1  11
TORSDOF 4
ENDMDL
MODEL 7
REMARK VINA RESULT:    -5.133      1.759      3.738
REMARK INTER + INTRA:          -7.310
REMARK INTER:                  -6.260
REMARK INTRA:                  -1.050
REMARK UNBOUND:                -0.977
REMARK SMILES C=C(CCC=C(C)C)[C@@H]1CC=C(C)CC1
REMARK SMILES IDX 3 1 2 2 1 3 9 4 13 5 12 6 11 7 14 8 10 9 15 10 4 11 5 12
REMARK SMILES IDX 6 13 7 14 8 15
REMARK H PARENT
REMARK Flexibility Score: inf
ROOT
ATOM      1  C   UNL     1       0.823  -1.117  15.604  1.00  0.00     0.035 C 
ENDROOT
BRANCH   1   2
ATOM      2  C   UNL     1       2.321  -1.330  15.573  1.00  0.00    -0.074 C 
ATOM      3  C   UNL     1       3.104  -0.463  14.905  1.00  0.00     0.008 C 
BRANCH   2   4
ATOM      4  C   UNL     1       2.916  -2.560  16.243  1.00  0.00     0.018 C 
ATOM      5  C   UNL     1       4.597  -5.066  19.330  1.00  0.00     0.039 C 
ATOM      6  C   UNL     1       3.874  -3.988  18.572  1.00  0.00    -0.077 C 
ATOM      7  C   UNL     1       2.632  -4.204  18.108  1.00  0.00    -0.027 C 
ATOM      8  C   UNL     1       4.536  -2.662  18.274  1.00  0.00     0.031 C 
ATOM      9  C   UNL     1       1.947  -3.132  17.306  1.00  0.00     0.035 C 
ATOM     10  C   UNL     1       4.355  -2.287  16.791  1.00  0.00     0.013 C 
ENDBRANCH   2   4
ENDBRANCH   1   2
BRANCH   1  11
ATOM     11  C   UNL     1       0.214  -1.173  14.196  1.00  0.00     0.032 C 
BRANCH  11  12
ATOM     12  C   UNL     1      -0.219  -2.572  13.824  1.00  0.00    -0.028 C 
ATOM     13  C   UNL     1       0.506  -3.425  13.068  1.00  0.00    -0.080 C 
ATOM     14  C   UNL     1      -0.040  -4.806  12.822  1.00  0.00     0.039 C 
ATOM     15  C   UNL     1       1.828  -3.026  12.455  1.00  0.00     0.039 C 
ENDBRANCH  11  12
ENDBRANCH   1  11
TORSDOF 4
ENDMDL
MODEL 8
REMARK VINA RESULT:    -5.117      4.463      6.857
REMARK INTER + INTRA:          -7.290
REMARK INTER:                  -6.431
REMARK INTRA:                  -0.859
REMARK UNBOUND:                -0.977
REMARK SMILES C=C(CCC=C(C)C)[C@@H]1CC=C(C)CC1
REMARK SMILES IDX 3 1 2 2 1 3 9 4 13 5 12 6 11 7 14 8 10 9 15 10 4 11 5 12
REMARK SMILES IDX 6 13 7 14 8 15
REMARK H PARENT
REMARK Flexibility Score: inf
ROOT
ATOM      1  C   UNL     1       1.156  -2.996  20.370  1.00  0.00     0.035 C 
ENDROOT
BRANCH   1   2
ATOM      2  C   UNL     1       1.173  -4.036  19.270  1.00  0.00    -0.074 C 
ATOM      3  C   UNL     1       0.430  -5.150  19.396  1.00  0.00     0.008 C 
BRANCH   2   4
ATOM      4  C   UNL     1       2.084  -3.837  18.067  1.00  0.00     0.018 C 
ATOM      5  C   UNL     1       4.237  -1.818  14.917  1.00  0.00     0.039 C 
ATOM      6  C   UNL     1       3.486  -2.154  16.175  1.00  0.00    -0.077 C 
ATOM      7  C   UNL     1       4.134  -2.671  17.232  1.00  0.00    -0.027 C 
ATOM      8  C   UNL     1       1.990  -1.963  16.269  1.00  0.00     0.031 C 
ATOM      9  C   UNL     1       3.356  -3.049  18.462  1.00  0.00     0.035 C 
ATOM     10  C   UNL     1       1.317  -3.220  16.852  1.00  0.00     0.013 C 
ENDBRANCH   2   4
ENDBRANCH   1   2
BRANCH   1  11
ATOM     11  C   UNL     1      -0.255  -2.438  20.599  1.00  0.00     0.032 C 
BRANCH  11  12
ATOM     12  C   UNL     1      -0.801  -1.757  19.366  1.00  0.00    -0.028 C 
ATOM     13  C   UNL     1      -1.501  -0.601  19.373  1.00  0.00    -0.080 C 
ATOM     14  C   UNL     1      -1.939  -0.020  18.054  1.00  0.00     0.039 C 
ATOM     15  C   UNL     1      -1.866   0.106  20.657  1.00  0.00     0.039 C 
ENDBRANCH  11  12
ENDBRANCH   1  11
TORSDOF 4
ENDMDL
MODEL 9
REMARK VINA RESULT:    -5.052      3.386      6.836
REMARK INTER + INTRA:          -7.210
REMARK INTER:                  -6.062
REMARK INTRA:                  -1.148
REMARK UNBOUND:                -0.977
REMARK SMILES C=C(CCC=C(C)C)[C@@H]1CC=C(C)CC1
REMARK SMILES IDX 3 1 2 2 1 3 9 4 13 5 12 6 11 7 14 8 10 9 15 10 4 11 5 12
REMARK SMILES IDX 6 13 7 14 8 15
REMARK H PARENT
REMARK Flexibility Score: inf
ROOT
ATOM      1  C   UNL     1       1.974  -4.057  18.348  1.00  0.00     0.035 C 
ENDROOT
BRANCH   1   2
ATOM      2  C   UNL     1       1.465  -2.842  17.604  1.00  0.00    -0.074 C 
ATOM      3  C   UNL     1       0.504  -2.078  18.154  1.00  0.00     0.008 C 
BRANCH   2   4
ATOM      4  C   UNL     1       2.000  -2.539  16.212  1.00  0.00     0.018 C 
ATOM      5  C   UNL     1       2.425  -0.599  12.379  1.00  0.00     0.039 C 
ATOM      6  C   UNL     1       2.103  -0.926  13.810  1.00  0.00    -0.077 C 
ATOM      7  C   UNL     1       3.039  -0.783  14.764  1.00  0.00    -0.027 C 
ATOM      8  C   UNL     1       0.747  -1.463  14.205  1.00  0.00     0.031 C 
ATOM      9  C   UNL     1       2.713  -1.166  16.180  1.00  0.00     0.035 C 
ATOM     10  C   UNL     1       0.895  -2.696  15.116  1.00  0.00     0.013 C 
ENDBRANCH   2   4
ENDBRANCH   1   2
BRANCH   1  11
ATOM     11  C   UNL     1       3.502  -4.178  18.259  1.00  0.00     0.032 C 
BRANCH  11  12
ATOM     12  C   UNL     1       4.201  -3.159  19.129  1.00  0.00    -0.028 C 
ATOM     13  C   UNL     1       5.260  -2.416  18.741  1.00  0.00    -0.080 C 
ATOM     14  C   UNL     1       5.820  -1.406  19.708  1.00  0.00     0.039 C 
ATOM     15  C   UNL     1       5.902  -2.582  17.384  1.00  0.00     0.039 C 
ENDBRANCH  11  12
ENDBRANCH   1  11
TORSDOF 4
ENDMDL
