MODEL 1
REMARK VINA RESULT:    -6.676      0.000      0.000
REMARK INTER + INTRA:          -7.505
REMARK INTER:                  -7.262
REMARK INTRA:                  -0.243
REMARK UNBOUND:                -0.243
REMARK SMILES CC(C)c1cc2c(cc1O)[C@]1(C)CCCC(C)(C)[C@@H]1CC2=O
REMARK SMILES IDX 4 1 9 2 8 3 7 4 6 5 5 6 21 7 22 8 20 9 19 10 11 11 13 12
REMARK SMILES IDX 14 13 15 14 16 15 17 16 18 17 12 18 2 19 1 20 3 21 10 22
REMARK H PARENT 10 23
REMARK Flexibility Score: inf
ROOT
ATOM      1  C   UNL     1       4.617  11.656  47.913  1.00  0.00    -0.003 A 
ATOM      2  C   UNL     1       5.292  11.170  49.049  1.00  0.00     0.119 A 
ATOM      3  C   UNL     1       6.566  10.603  48.918  1.00  0.00     0.051 A 
ATOM      4  C   UNL     1       7.192  10.466  47.659  1.00  0.00    -0.027 A 
ATOM      5  C   UNL     1       6.548  11.038  46.540  1.00  0.00     0.022 A 
ATOM      6  C   UNL     1       5.266  11.598  46.669  1.00  0.00     0.020 A 
ATOM      7  C   UNL     1       7.248  11.111  45.252  1.00  0.00     0.163 C 
ATOM      8  O   UNL     1       6.641  11.464  44.203  1.00  0.00    -0.294 OA
ATOM      9  C   UNL     1       8.709  10.830  45.199  1.00  0.00     0.086 C 
ATOM     10  C   UNL     1       9.049   9.577  46.044  1.00  0.00     0.013 C 
ATOM     11  C   UNL     1       8.580   9.780  47.552  1.00  0.00    -0.003 C 
ATOM     12  C   UNL     1       9.600  10.655  48.355  1.00  0.00     0.012 C 
ATOM     13  C   UNL     1      11.027  10.703  47.790  1.00  0.00     0.001 C 
ATOM     14  C   UNL     1      11.430   9.388  47.138  1.00  0.00     0.007 C 
ATOM     15  C   UNL     1      10.566   9.077  45.877  1.00  0.00    -0.031 C 
ATOM     16  C   UNL     1      10.589   7.546  45.629  1.00  0.00     0.011 C 
ATOM     17  C   UNL     1      11.290   9.704  44.650  1.00  0.00     0.011 C 
ATOM     18  C   UNL     1       8.438   8.375  48.213  1.00  0.00     0.017 C 
ENDROOT
BRANCH   1  19
ATOM     19  C   UNL     1       3.227  12.277  47.991  1.00  0.00     0.017 C 
ATOM     20  C   UNL     1       3.269  13.796  47.780  1.00  0.00     0.012 C 
ATOM     21  C   UNL     1       2.245  11.600  47.026  1.00  0.00     0.012 C 
ENDBRANCH   1  19
BRANCH   2  22
ATOM     22  O   UNL     1       4.706  11.248  50.313  1.00  0.00    -0.508 OA
ATOM     23  H   UNL     1       4.660  12.119  50.827  1.00  0.00     0.293 HD
ENDBRANCH   2  22
TORSDOF 2
ENDMDL
MODEL 2
REMARK VINA RESULT:    -6.399      2.650      4.591
REMARK INTER + INTRA:          -7.203
REMARK INTER:                  -6.960
REMARK INTRA:                  -0.243
REMARK UNBOUND:                -0.243
REMARK SMILES CC(C)c1cc2c(cc1O)[C@]1(C)CCCC(C)(C)[C@@H]1CC2=O
REMARK SMILES IDX 4 1 9 2 8 3 7 4 6 5 5 6 21 7 22 8 20 9 19 10 11 11 13 12
REMARK SMILES IDX 14 13 15 14 16 15 17 16 18 17 12 18 2 19 1 20 3 21 10 22
REMARK H PARENT 10 23
REMARK Flexibility Score: inf
ROOT
ATOM      1  C   UNL     1       6.762  10.779  48.079  1.00  0.00    -0.003 A 
ATOM      2  C   UNL     1       6.860   9.994  46.914  1.00  0.00     0.119 A 
ATOM      3  C   UNL     1       7.717   8.887  46.886  1.00  0.00     0.051 A 
ATOM      4  C   UNL     1       8.528   8.546  47.992  1.00  0.00    -0.027 A 
ATOM      5  C   UNL     1       8.356   9.283  49.183  1.00  0.00     0.022 A 
ATOM      6  C   UNL     1       7.504  10.400  49.209  1.00  0.00     0.020 A 
ATOM      7  C   UNL     1       9.013   8.841  50.418  1.00  0.00     0.163 C 
ATOM      8  O   UNL     1       9.010   9.566  51.451  1.00  0.00    -0.294 OA
ATOM      9  C   UNL     1       9.633   7.488  50.469  1.00  0.00     0.086 C 
ATOM     10  C   UNL     1      10.444   7.215  49.177  1.00  0.00     0.013 C 
ATOM     11  C   UNL     1       9.506   7.345  47.897  1.00  0.00    -0.003 C 
ATOM     12  C   UNL     1       8.645   6.053  47.686  1.00  0.00     0.012 C 
ATOM     13  C   UNL     1       9.191   4.775  48.337  1.00  0.00     0.001 C 
ATOM     14  C   UNL     1      10.713   4.739  48.344  1.00  0.00     0.007 C 
ATOM     15  C   UNL     1      11.317   5.868  49.234  1.00  0.00    -0.031 C 
ATOM     16  C   UNL     1      12.760   6.159  48.749  1.00  0.00     0.011 C 
ATOM     17  C   UNL     1      11.472   5.295  50.673  1.00  0.00     0.011 C 
ATOM     18  C   UNL     1      10.410   7.599  46.653  1.00  0.00     0.017 C 
ENDROOT
BRANCH   1  19
ATOM     19  C   UNL     1       5.852  11.999  48.168  1.00  0.00     0.017 C 
ATOM     20  C   UNL     1       4.882  11.901  49.352  1.00  0.00     0.012 C 
ATOM     21  C   UNL     1       6.655  13.306  48.202  1.00  0.00     0.012 C 
ENDBRANCH   1  19
BRANCH   2  22
ATOM     22  O   UNL     1       6.108  10.304  45.781  1.00  0.00    -0.508 OA
ATOM     23  H   UNL     1       5.727  11.230  45.630  1.00  0.00     0.293 HD
ENDBRANCH   2  22
TORSDOF 2
ENDMDL
MODEL 3
REMARK VINA RESULT:    -6.377      1.606      3.075
REMARK INTER + INTRA:          -7.179
REMARK INTER:                  -7.344
REMARK INTRA:                   0.165
REMARK UNBOUND:                -0.243
REMARK SMILES CC(C)c1cc2c(cc1O)[C@]1(C)CCCC(C)(C)[C@@H]1CC2=O
REMARK SMILES IDX 4 1 9 2 8 3 7 4 6 5 5 6 21 7 22 8 20 9 19 10 11 11 13 12
REMARK SMILES IDX 14 13 15 14 16 15 17 16 18 17 12 18 2 19 1 20 3 21 10 22
REMARK H PARENT 10 23
REMARK Flexibility Score: inf
ROOT
ATOM      1  C   UNL     1       4.961  11.213  48.547  1.00  0.00    -0.003 A 
ATOM      2  C   UNL     1       4.926  11.091  47.144  1.00  0.00     0.119 A 
ATOM      3  C   UNL     1       6.052  10.628  46.453  1.00  0.00     0.051 A 
ATOM      4  C   UNL     1       7.256  10.309  47.122  1.00  0.00    -0.027 A 
ATOM      5  C   UNL     1       7.252  10.348  48.533  1.00  0.00     0.022 A 
ATOM      6  C   UNL     1       6.125  10.821  49.227  1.00  0.00     0.020 A 
ATOM      7  C   UNL     1       8.401   9.825  49.282  1.00  0.00     0.163 C 
ATOM      8  O   UNL     1       8.495   9.997  50.528  1.00  0.00    -0.294 OA
ATOM      9  C   UNL     1       9.434   9.025  48.567  1.00  0.00     0.086 C 
ATOM     10  C   UNL     1       9.797   9.693  47.217  1.00  0.00     0.013 C 
ATOM     11  C   UNL     1       8.498   9.854  46.310  1.00  0.00    -0.003 C 
ATOM     12  C   UNL     1       8.128   8.509  45.599  1.00  0.00     0.012 C 
ATOM     13  C   UNL     1       9.274   7.499  45.445  1.00  0.00     0.001 C 
ATOM     14  C   UNL     1      10.616   8.183  45.231  1.00  0.00     0.007 C 
ATOM     15  C   UNL     1      11.050   9.015  46.476  1.00  0.00    -0.031 C 
ATOM     16  C   UNL     1      12.043  10.113  46.015  1.00  0.00     0.011 C 
ATOM     17  C   UNL     1      11.876   8.074  47.401  1.00  0.00     0.011 C 
ATOM     18  C   UNL     1       8.775  10.965  45.253  1.00  0.00     0.017 C 
ENDROOT
BRANCH   1  19
ATOM     19  C   UNL     1       3.770  11.717  49.353  1.00  0.00     0.017 C 
ATOM     20  C   UNL     1       3.391  13.154  48.974  1.00  0.00     0.012 C 
ATOM     21  C   UNL     1       2.567  10.769  49.246  1.00  0.00     0.012 C 
ENDBRANCH   1  19
BRANCH   2  22
ATOM     22  O   UNL     1       3.775  11.425  46.429  1.00  0.00    -0.508 OA
ATOM     23  H   UNL     1       2.865  11.062  46.684  1.00  0.00     0.293 HD
ENDBRANCH   2  22
TORSDOF 2
ENDMDL
MODEL 4
REMARK VINA RESULT:    -6.242      6.827      9.552
REMARK INTER + INTRA:          -7.033
REMARK INTER:                  -6.788
REMARK INTRA:                  -0.245
REMARK UNBOUND:                -0.243
REMARK SMILES CC(C)c1cc2c(cc1O)[C@]1(C)CCCC(C)(C)[C@@H]1CC2=O
REMARK SMILES IDX 4 1 9 2 8 3 7 4 6 5 5 6 21 7 22 8 20 9 19 10 11 11 13 12
REMARK SMILES IDX 14 13 15 14 16 15 17 16 18 17 12 18 2 19 1 20 3 21 10 22
REMARK H PARENT 10 23
REMARK Flexibility Score: inf
ROOT
ATOM      1  C   UNL     1       9.301   2.442  54.104  1.00  0.00    -0.003 A 
ATOM      2  C   UNL     1      10.612   2.687  53.653  1.00  0.00     0.119 A 
ATOM      3  C   UNL     1      10.913   3.886  52.996  1.00  0.00     0.051 A 
ATOM      4  C   UNL     1       9.923   4.859  52.733  1.00  0.00    -0.027 A 
ATOM      5  C   UNL     1       8.634   4.645  53.268  1.00  0.00     0.022 A 
ATOM      6  C   UNL     1       8.328   3.437  53.919  1.00  0.00     0.020 A 
ATOM      7  C   UNL     1       7.630   5.713  53.208  1.00  0.00     0.163 C 
ATOM      8  O   UNL     1       6.429   5.494  53.528  1.00  0.00    -0.294 OA
ATOM      9  C   UNL     1       8.053   7.090  52.828  1.00  0.00     0.086 C 
ATOM     10  C   UNL     1       9.016   7.044  51.615  1.00  0.00     0.013 C 
ATOM     11  C   UNL     1      10.289   6.149  51.950  1.00  0.00    -0.003 C 
ATOM     12  C   UNL     1      11.333   6.939  52.810  1.00  0.00     0.012 C 
ATOM     13  C   UNL     1      11.244   8.469  52.724  1.00  0.00     0.001 C 
ATOM     14  C   UNL     1      10.810   8.943  51.345  1.00  0.00     0.007 C 
ATOM     15  C   UNL     1       9.357   8.491  51.006  1.00  0.00    -0.031 C 
ATOM     16  C   UNL     1       9.196   8.461  49.464  1.00  0.00     0.011 C 
ATOM     17  C   UNL     1       8.394   9.609  51.500  1.00  0.00     0.011 C 
ATOM     18  C   UNL     1      10.932   5.691  50.607  1.00  0.00     0.017 C 
ENDROOT
BRANCH   1  19
ATOM     19  C   UNL     1       8.911   1.154  54.820  1.00  0.00     0.017 C 
ATOM     20  C   UNL     1       8.155   1.433  56.125  1.00  0.00     0.012 C 
ATOM     21  C   UNL     1       8.123   0.209  53.902  1.00  0.00     0.012 C 
ENDBRANCH   1  19
BRANCH   2  22
ATOM     22  O   UNL     1      11.623   1.747  53.855  1.00  0.00    -0.508 OA
ATOM     23  H   UNL     1      12.372   1.902  54.518  1.00  0.00     0.293 HD
ENDBRANCH   2  22
TORSDOF 2
ENDMDL
MODEL 5
REMARK VINA RESULT:    -6.190      2.249      6.293
REMARK INTER + INTRA:          -6.976
REMARK INTER:                  -6.733
REMARK INTRA:                  -0.243
REMARK UNBOUND:                -0.243
REMARK SMILES CC(C)c1cc2c(cc1O)[C@]1(C)CCCC(C)(C)[C@@H]1CC2=O
REMARK SMILES IDX 4 1 9 2 8 3 7 4 6 5 5 6 21 7 22 8 20 9 19 10 11 11 13 12
REMARK SMILES IDX 14 13 15 14 16 15 17 16 18 17 12 18 2 19 1 20 3 21 10 22
REMARK H PARENT 10 23
REMARK Flexibility Score: inf
ROOT
ATOM      1  C   UNL     1       9.433   7.276  47.273  1.00  0.00    -0.003 A 
ATOM      2  C   UNL     1       9.344   7.683  45.928  1.00  0.00     0.119 A 
ATOM      3  C   UNL     1       8.660   8.859  45.596  1.00  0.00     0.051 A 
ATOM      4  C   UNL     1       8.014   9.645  46.576  1.00  0.00    -0.027 A 
ATOM      5  C   UNL     1       8.186   9.279  47.928  1.00  0.00     0.022 A 
ATOM      6  C   UNL     1       8.864   8.094  48.262  1.00  0.00     0.020 A 
ATOM      7  C   UNL     1       7.718  10.174  48.993  1.00  0.00     0.163 C 
ATOM      8  O   UNL     1       7.711   9.800  50.198  1.00  0.00    -0.294 OA
ATOM      9  C   UNL     1       7.311  11.565  48.650  1.00  0.00     0.086 C 
ATOM     10  C   UNL     1       6.434  11.572  47.373  1.00  0.00     0.013 C 
ATOM     11  C   UNL     1       7.218  10.910  46.156  1.00  0.00    -0.003 C 
ATOM     12  C   UNL     1       8.237  11.915  45.518  1.00  0.00     0.012 C 
ATOM     13  C   UNL     1       7.948  13.402  45.765  1.00  0.00     0.001 C 
ATOM     14  C   UNL     1       6.455  13.695  45.827  1.00  0.00     0.007 C 
ATOM     15  C   UNL     1       5.777  13.001  47.047  1.00  0.00    -0.031 C 
ATOM     16  C   UNL     1       4.268  12.827  46.740  1.00  0.00     0.011 C 
ATOM     17  C   UNL     1       5.842  13.995  48.244  1.00  0.00     0.011 C 
ATOM     18  C   UNL     1       6.175  10.452  45.093  1.00  0.00     0.017 C 
ENDROOT
BRANCH   1  19
ATOM     19  C   UNL     1      10.158   6.004  47.696  1.00  0.00     0.017 C 
ATOM     20  C   UNL     1      11.486   6.311  48.399  1.00  0.00     0.012 C 
ATOM     21  C   UNL     1       9.263   5.096  48.552  1.00  0.00     0.012 C 
ENDBRANCH   1  19
BRANCH   2  22
ATOM     22  O   UNL     1       9.933   6.926  44.915  1.00  0.00    -0.508 OA
ATOM     23  H   UNL     1       9.379   6.413  44.240  1.00  0.00     0.293 HD
ENDBRANCH   2  22
TORSDOF 2
ENDMDL
MODEL 6
REMARK VINA RESULT:    -6.188      6.268      9.093
REMARK INTER + INTRA:          -6.974
REMARK INTER:                  -6.727
REMARK INTRA:                  -0.247
REMARK UNBOUND:                -0.243
REMARK SMILES CC(C)c1cc2c(cc1O)[C@]1(C)CCCC(C)(C)[C@@H]1CC2=O
REMARK SMILES IDX 4 1 9 2 8 3 7 4 6 5 5 6 21 7 22 8 20 9 19 10 11 11 13 12
REMARK SMILES IDX 14 13 15 14 16 15 17 16 18 17 12 18 2 19 1 20 3 21 10 22
REMARK H PARENT 10 23
REMARK Flexibility Score: inf
ROOT
ATOM      1  C   UNL     1      10.760   3.105  53.621  1.00  0.00    -0.003 A 
ATOM      2  C   UNL     1      11.732   2.843  52.636  1.00  0.00     0.119 A 
ATOM      3  C   UNL     1      11.759   3.601  51.459  1.00  0.00     0.051 A 
ATOM      4  C   UNL     1      10.805   4.612  51.204  1.00  0.00    -0.027 A 
ATOM      5  C   UNL     1       9.892   4.927  52.234  1.00  0.00     0.022 A 
ATOM      6  C   UNL     1       9.858   4.161  53.411  1.00  0.00     0.020 A 
ATOM      7  C   UNL     1       9.023   6.102  52.106  1.00  0.00     0.163 C 
ATOM      8  O   UNL     1       8.090   6.312  52.929  1.00  0.00    -0.294 OA
ATOM      9  C   UNL     1       9.291   7.094  51.027  1.00  0.00     0.086 C 
ATOM     10  C   UNL     1       9.594   6.370  49.691  1.00  0.00     0.013 C 
ATOM     11  C   UNL     1      10.836   5.388  49.861  1.00  0.00    -0.003 C 
ATOM     12  C   UNL     1      12.193   6.168  49.800  1.00  0.00     0.012 C 
ATOM     13  C   UNL     1      12.149   7.529  49.092  1.00  0.00     0.001 C 
ATOM     14  C   UNL     1      11.158   7.542  47.937  1.00  0.00     0.007 C 
ATOM     15  C   UNL     1       9.690   7.358  48.428  1.00  0.00    -0.031 C 
ATOM     16  C   UNL     1       8.844   6.795  47.257  1.00  0.00     0.011 C 
ATOM     17  C   UNL     1       9.111   8.775  48.711  1.00  0.00     0.011 C 
ATOM     18  C   UNL     1      10.775   4.323  48.725  1.00  0.00     0.017 C 
ENDROOT
BRANCH   1  19
ATOM     19  C   UNL     1      10.676   2.310  54.919  1.00  0.00     0.017 C 
ATOM     20  C   UNL     1      10.396   3.216  56.125  1.00  0.00     0.012 C 
ATOM     21  C   UNL     1       9.656   1.168  54.823  1.00  0.00     0.012 C 
ENDBRANCH   1  19
BRANCH   2  22
ATOM     22  O   UNL     1      12.678   1.834  52.820  1.00  0.00    -0.508 OA
ATOM     23  H   UNL     1      13.552   1.823  52.310  1.00  0.00     0.293 HD
ENDBRANCH   2  22
TORSDOF 2
ENDMDL
MODEL 7
REMARK VINA RESULT:    -6.144      4.126      6.566
REMARK INTER + INTRA:          -6.926
REMARK INTER:                  -6.679
REMARK INTRA:                  -0.246
REMARK UNBOUND:                -0.243
REMARK SMILES CC(C)c1cc2c(cc1O)[C@]1(C)CCCC(C)(C)[C@@H]1CC2=O
REMARK SMILES IDX 4 1 9 2 8 3 7 4 6 5 5 6 21 7 22 8 20 9 19 10 11 11 13 12
REMARK SMILES IDX 14 13 15 14 16 15 17 16 18 17 12 18 2 19 1 20 3 21 10 22
REMARK H PARENT 10 23
REMARK Flexibility Score: inf
ROOT
ATOM      1  C   UNL     1       9.044   5.550  52.123  1.00  0.00    -0.003 A 
ATOM      2  C   UNL     1       8.872   6.938  52.287  1.00  0.00     0.119 A 
ATOM      3  C   UNL     1       9.090   7.803  51.207  1.00  0.00     0.051 A 
ATOM      4  C   UNL     1       9.521   7.326  49.948  1.00  0.00    -0.027 A 
ATOM      5  C   UNL     1       9.603   5.928  49.769  1.00  0.00     0.022 A 
ATOM      6  C   UNL     1       9.393   5.060  50.855  1.00  0.00     0.020 A 
ATOM      7  C   UNL     1       9.838   5.375  48.431  1.00  0.00     0.163 C 
ATOM      8  O   UNL     1      10.077   4.147  48.269  1.00  0.00    -0.294 OA
ATOM      9  C   UNL     1       9.724   6.267  47.243  1.00  0.00     0.086 C 
ATOM     10  C   UNL     1      10.431   7.619  47.513  1.00  0.00     0.013 C 
ATOM     11  C   UNL     1       9.807   8.325  48.796  1.00  0.00    -0.003 C 
ATOM     12  C   UNL     1       8.459   9.045  48.453  1.00  0.00     0.012 C 
ATOM     13  C   UNL     1       8.255   9.408  46.976  1.00  0.00     0.001 C 
ATOM     14  C   UNL     1       9.563   9.774  46.288  1.00  0.00     0.007 C 
ATOM     15  C   UNL     1      10.540   8.561  46.216  1.00  0.00    -0.031 C 
ATOM     16  C   UNL     1      11.987   9.101  46.081  1.00  0.00     0.011 C 
ATOM     17  C   UNL     1      10.253   7.810  44.884  1.00  0.00     0.011 C 
ATOM     18  C   UNL     1      10.844   9.354  49.340  1.00  0.00     0.017 C 
ENDROOT
BRANCH   1  19
ATOM     19  C   UNL     1       8.827   4.560  53.262  1.00  0.00     0.017 C 
ATOM     20  C   UNL     1       7.379   4.058  53.313  1.00  0.00     0.012 C 
ATOM     21  C   UNL     1       9.826   3.396  53.203  1.00  0.00     0.012 C 
ENDBRANCH   1  19
BRANCH   2  22
ATOM     22  O   UNL     1       8.481   7.467  53.517  1.00  0.00    -0.508 OA
ATOM     23  H   UNL     1       7.666   7.124  54.011  1.00  0.00     0.293 HD
ENDBRANCH   2  22
TORSDOF 2
ENDMDL
MODEL 8
REMARK VINA RESULT:    -6.097      6.785      9.475
REMARK INTER + INTRA:          -6.875
REMARK INTER:                  -6.642
REMARK INTRA:                  -0.233
REMARK UNBOUND:                -0.243
REMARK SMILES CC(C)c1cc2c(cc1O)[C@]1(C)CCCC(C)(C)[C@@H]1CC2=O
REMARK SMILES IDX 4 1 9 2 8 3 7 4 6 5 5 6 21 7 22 8 20 9 19 10 11 11 13 12
REMARK SMILES IDX 14 13 15 14 16 15 17 16 18 17 12 18 2 19 1 20 3 21 10 22
REMARK H PARENT 10 23
REMARK Flexibility Score: inf
ROOT
ATOM      1  C   UNL     1       9.421   2.779  54.186  1.00  0.00    -0.003 A 
ATOM      2  C   UNL     1       8.300   3.496  53.725  1.00  0.00     0.119 A 
ATOM      3  C   UNL     1       8.428   4.381  52.648  1.00  0.00     0.051 A 
ATOM      4  C   UNL     1       9.673   4.614  52.022  1.00  0.00    -0.027 A 
ATOM      5  C   UNL     1      10.771   3.826  52.431  1.00  0.00     0.022 A 
ATOM      6  C   UNL     1      10.645   2.944  53.517  1.00  0.00     0.020 A 
ATOM      7  C   UNL     1      12.028   3.875  51.675  1.00  0.00     0.163 C 
ATOM      8  O   UNL     1      13.069   3.310  52.111  1.00  0.00    -0.294 OA
ATOM      9  C   UNL     1      12.053   4.543  50.345  1.00  0.00     0.086 C 
ATOM     10  C   UNL     1      11.284   5.887  50.400  1.00  0.00     0.013 C 
ATOM     11  C   UNL     1       9.782   5.648  50.869  1.00  0.00    -0.003 C 
ATOM     12  C   UNL     1       8.889   5.132  49.690  1.00  0.00     0.012 C 
ATOM     13  C   UNL     1       9.404   5.446  48.279  1.00  0.00     0.001 C 
ATOM     14  C   UNL     1      10.131   6.782  48.217  1.00  0.00     0.007 C 
ATOM     15  C   UNL     1      11.436   6.774  49.069  1.00  0.00    -0.031 C 
ATOM     16  C   UNL     1      11.786   8.235  49.451  1.00  0.00     0.011 C 
ATOM     17  C   UNL     1      12.595   6.300  48.143  1.00  0.00     0.011 C 
ATOM     18  C   UNL     1       9.222   6.994  51.420  1.00  0.00     0.017 C 
ENDROOT
BRANCH   1  19
ATOM     19  C   UNL     1       9.345   1.807  55.357  1.00  0.00     0.017 C 
ATOM     20  C   UNL     1       8.874   0.416  54.912  1.00  0.00     0.012 C 
ATOM     21  C   UNL     1      10.672   1.734  56.125  1.00  0.00     0.012 C 
ENDBRANCH   1  19
BRANCH   2  22
ATOM     22  O   UNL     1       7.053   3.331  54.329  1.00  0.00    -0.508 OA
ATOM     23  H   UNL     1       6.458   4.120  54.550  1.00  0.00     0.293 HD
ENDBRANCH   2  22
TORSDOF 2
ENDMDL
MODEL 9
REMARK VINA RESULT:    -6.034      1.802      6.605
REMARK INTER + INTRA:          -6.806
REMARK INTER:                  -6.562
REMARK INTRA:                  -0.244
REMARK UNBOUND:                -0.243
REMARK SMILES CC(C)c1cc2c(cc1O)[C@]1(C)CCCC(C)(C)[C@@H]1CC2=O
REMARK SMILES IDX 4 1 9 2 8 3 7 4 6 5 5 6 21 7 22 8 20 9 19 10 11 11 13 12
REMARK SMILES IDX 14 13 15 14 16 15 17 16 18 17 12 18 2 19 1 20 3 21 10 22
REMARK H PARENT 10 23
REMARK Flexibility Score: inf
ROOT
ATOM      1  C   UNL     1      10.431   8.914  46.789  1.00  0.00    -0.003 A 
ATOM      2  C   UNL     1       9.992   9.567  45.621  1.00  0.00     0.119 A 
ATOM      3  C   UNL     1       8.791  10.287  45.630  1.00  0.00     0.051 A 
ATOM      4  C   UNL     1       7.971  10.350  46.779  1.00  0.00    -0.027 A 
ATOM      5  C   UNL     1       8.462   9.769  47.968  1.00  0.00     0.022 A 
ATOM      6  C   UNL     1       9.663   9.039  47.958  1.00  0.00     0.020 A 
ATOM      7  C   UNL     1       7.755   9.987  49.235  1.00  0.00     0.163 C 
ATOM      8  O   UNL     1       8.077   9.350  50.276  1.00  0.00    -0.294 OA
ATOM      9  C   UNL     1       6.689  11.024  49.305  1.00  0.00     0.086 C 
ATOM     10  C   UNL     1       5.768  10.938  48.062  1.00  0.00     0.013 C 
ATOM     11  C   UNL     1       6.619  11.111  46.728  1.00  0.00    -0.003 C 
ATOM     12  C   UNL     1       6.939  12.618  46.445  1.00  0.00     0.012 C 
ATOM     13  C   UNL     1       6.000  13.634  47.111  1.00  0.00     0.001 C 
ATOM     14  C   UNL     1       4.572  13.116  47.212  1.00  0.00     0.007 C 
ATOM     15  C   UNL     1       4.469  11.878  48.153  1.00  0.00    -0.031 C 
ATOM     16  C   UNL     1       3.206  11.066  47.764  1.00  0.00     0.011 C 
ATOM     17  C   UNL     1       4.192  12.408  49.591  1.00  0.00     0.011 C 
ATOM     18  C   UNL     1       5.805  10.501  45.547  1.00  0.00     0.017 C 
ENDROOT
BRANCH   1  19
ATOM     19  C   UNL     1      11.725   8.111  46.839  1.00  0.00     0.017 C 
ATOM     20  C   UNL     1      12.928   8.991  47.203  1.00  0.00     0.012 C 
ATOM     21  C   UNL     1      11.609   6.900  47.775  1.00  0.00     0.012 C 
ENDBRANCH   1  19
BRANCH   2  22
ATOM     22  O   UNL     1      10.745   9.510  44.448  1.00  0.00    -0.508 OA
ATOM     23  H   UNL     1      10.719   8.703  43.836  1.00  0.00     0.293 HD
ENDBRANCH   2  22
TORSDOF 2
ENDMDL
