MODEL 1
REMARK VINA RESULT:    -8.382      0.000      0.000
REMARK INTER + INTRA:         -13.469
REMARK INTER:                 -12.303
REMARK INTRA:                  -1.166
REMARK UNBOUND:                -1.166
REMARK SMILES Cc1cc2c(C(C)C)c(O)c(O)c(C=O)c2c(O)c1-c1c(C)cc2c(C(C)C)c(O)c(O)c(C=O)c2c1O
REMARK SMILES IDX 1 1 2 2 3 3 4 4 16 5 13 6 11 7 9 8 5 9 17 10 19 11 20 12
REMARK SMILES IDX 37 13 21 14 36 15 23 16 22 17 24 18 33 19 25 20 31 21 29 22
REMARK SMILES IDX 38 23 34 25 35 26 26 27 27 28 28 29 32 30 30 32 18 34 6 36
REMARK SMILES IDX 7 37 8 38 14 39 15 40 10 41 12 43
REMARK H PARENT 38 24 32 31 30 33 18 35 10 42 12 44
REMARK Flexibility Score: inf
ROOT
ATOM      1  C   UNL     1     -20.274  -3.197 -19.546  1.00  0.00     0.045 C 
ATOM      2  C   UNL     1     -21.542  -3.341 -18.739  1.00  0.00    -0.039 A 
ATOM      3  C   UNL     1     -21.562  -4.207 -17.645  1.00  0.00     0.013 A 
ATOM      4  C   UNL     1     -22.706  -4.358 -16.832  1.00  0.00    -0.006 A 
ATOM      5  C   UNL     1     -23.902  -3.663 -17.193  1.00  0.00     0.039 A 
ATOM      6  C   UNL     1     -25.076  -3.859 -16.406  1.00  0.00     0.072 A 
ATOM      7  C   UNL     1     -25.093  -4.856 -15.411  1.00  0.00     0.169 A 
ATOM      8  C   UNL     1     -23.924  -5.550 -15.085  1.00  0.00     0.162 A 
ATOM      9  C   UNL     1     -22.694  -5.218 -15.690  1.00  0.00     0.008 A 
ATOM     10  C   UNL     1     -23.899  -2.841 -18.360  1.00  0.00     0.132 A 
ATOM     11  C   UNL     1     -22.714  -2.662 -19.106  1.00  0.00     0.031 A 
ENDROOT
BRANCH  11  12
ATOM     12  C   UNL     1     -22.711  -1.784 -20.306  1.00  0.00     0.031 A 
ATOM     13  C   UNL     1     -22.529  -0.392 -20.164  1.00  0.00     0.132 A 
ATOM     14  C   UNL     1     -22.904  -2.342 -21.580  1.00  0.00    -0.039 A 
ATOM     15  C   UNL     1     -22.562   0.458 -21.309  1.00  0.00     0.039 A 
ATOM     16  C   UNL     1     -22.823  -1.522 -22.709  1.00  0.00     0.013 A 
ATOM     17  C   UNL     1     -23.201  -3.812 -21.752  1.00  0.00     0.045 C 
ATOM     18  C   UNL     1     -22.569  -0.138 -22.604  1.00  0.00    -0.006 A 
ATOM     19  C   UNL     1     -22.568   1.880 -21.203  1.00  0.00     0.072 A 
ATOM     20  C   UNL     1     -22.351   0.667 -23.764  1.00  0.00     0.008 A 
ATOM     21  C   UNL     1     -22.496   2.670 -22.369  1.00  0.00     0.169 A 
ATOM     22  C   UNL     1     -22.390   2.071 -23.629  1.00  0.00     0.162 A 
BRANCH  13  23
ATOM     23  O   UNL     1     -22.272   0.143 -18.897  1.00  0.00    -0.507 OA
ATOM     24  H   UNL     1     -21.643   0.919 -18.729  1.00  0.00     0.293 HD
ENDBRANCH  13  23
BRANCH  19  25
ATOM     25  C   UNL     1     -22.770   2.575 -19.915  1.00  0.00     0.264 C 
ATOM     26  O   UNL     1     -21.814   3.176 -19.355  1.00  0.00    -0.298 OA
ENDBRANCH  19  25
BRANCH  20  27
ATOM     27  C   UNL     1     -22.078   0.037 -25.142  1.00  0.00     0.017 C 
ATOM     28  C   UNL     1     -23.068   0.563 -26.187  1.00  0.00     0.012 C 
ATOM     29  C   UNL     1     -20.623   0.196 -25.618  1.00  0.00     0.012 C 
ENDBRANCH  20  27
BRANCH  21  30
ATOM     30  O   UNL     1     -22.548   4.068 -22.308  1.00  0.00    -0.504 OA
ATOM     31  H   UNL     1     -22.139   4.619 -21.565  1.00  0.00     0.293 HD
ENDBRANCH  21  30
BRANCH  22  32
ATOM     32  O   UNL     1     -22.349   2.881 -24.767  1.00  0.00    -0.504 OA
ATOM     33  H   UNL     1     -23.094   3.519 -25.019  1.00  0.00     0.293 HD
ENDBRANCH  22  32
ENDBRANCH  11  12
BRANCH  10  34
ATOM     34  O   UNL     1     -25.080  -2.235 -18.801  1.00  0.00    -0.507 OA
ATOM     35  H   UNL     1     -25.517  -1.445 -18.344  1.00  0.00     0.293 HD
ENDBRANCH  10  34
BRANCH   9  36
ATOM     36  C   UNL     1     -21.386  -5.811 -15.135  1.00  0.00     0.017 C 
ATOM     37  C   UNL     1     -20.654  -4.791 -14.257  1.00  0.00     0.012 C 
ATOM     38  C   UNL     1     -20.453  -6.387 -16.217  1.00  0.00     0.012 C 
ENDBRANCH   9  36
BRANCH   6  39
ATOM     39  C   UNL     1     -26.284  -3.024 -16.563  1.00  0.00     0.264 C 
ATOM     40  O   UNL     1     -27.315  -3.494 -17.114  1.00  0.00    -0.298 OA
ENDBRANCH   6  39
BRANCH   8  41
ATOM     41  O   UNL     1     -23.982  -6.579 -14.141  1.00  0.00    -0.504 OA
ATOM     42  H   UNL     1     -23.619  -6.486 -13.200  1.00  0.00     0.293 HD
ENDBRANCH   8  41
BRANCH   7  43
ATOM     43  O   UNL     1     -26.259  -5.160 -14.698  1.00  0.00    -0.504 OA
ATOM     44  H   UNL     1     -26.684  -6.077 -14.670  1.00  0.00     0.293 HD
ENDBRANCH   7  43
TORSDOF 11
ENDMDL
MODEL 2
REMARK VINA RESULT:    -7.985      4.960      8.629
REMARK INTER + INTRA:         -12.886
REMARK INTER:                 -11.430
REMARK INTRA:                  -1.456
REMARK UNBOUND:                -1.166
REMARK SMILES Cc1cc2c(C(C)C)c(O)c(O)c(C=O)c2c(O)c1-c1c(C)cc2c(C(C)C)c(O)c(O)c(C=O)c2c1O
REMARK SMILES IDX 1 1 2 2 3 3 4 4 16 5 13 6 11 7 9 8 5 9 17 10 19 11 20 12
REMARK SMILES IDX 37 13 21 14 36 15 23 16 22 17 24 18 33 19 25 20 31 21 29 22
REMARK SMILES IDX 38 23 34 25 35 26 26 27 27 28 28 29 32 30 30 32 18 34 6 36
REMARK SMILES IDX 7 37 8 38 14 39 15 40 10 41 12 43
REMARK H PARENT 38 24 32 31 30 33 18 35 10 42 12 44
REMARK Flexibility Score: inf
ROOT
ATOM      1  C   UNL     1     -19.660   5.003 -21.499  1.00  0.00     0.045 C 
ATOM      2  C   UNL     1     -20.465   3.868 -20.911  1.00  0.00    -0.039 A 
ATOM      3  C   UNL     1     -20.405   2.608 -21.507  1.00  0.00     0.013 A 
ATOM      4  C   UNL     1     -21.107   1.499 -20.983  1.00  0.00    -0.006 A 
ATOM      5  C   UNL     1     -21.965   1.700 -19.857  1.00  0.00     0.039 A 
ATOM      6  C   UNL     1     -22.718   0.594 -19.361  1.00  0.00     0.072 A 
ATOM      7  C   UNL     1     -22.747  -0.613 -20.085  1.00  0.00     0.169 A 
ATOM      8  C   UNL     1     -21.925  -0.789 -21.202  1.00  0.00     0.162 A 
ATOM      9  C   UNL     1     -21.000   0.206 -21.583  1.00  0.00     0.008 A 
ATOM     10  C   UNL     1     -22.083   3.009 -19.301  1.00  0.00     0.132 A 
ATOM     11  C   UNL     1     -21.311   4.075 -19.811  1.00  0.00     0.031 A 
ENDROOT
BRANCH  11  12
ATOM     12  C   UNL     1     -21.420   5.431 -19.211  1.00  0.00     0.031 A 
ATOM     13  C   UNL     1     -20.524   5.831 -18.196  1.00  0.00     0.132 A 
ATOM     14  C   UNL     1     -22.425   6.310 -19.647  1.00  0.00    -0.039 A 
ATOM     15  C   UNL     1     -20.648   7.117 -17.593  1.00  0.00     0.039 A 
ATOM     16  C   UNL     1     -22.472   7.609 -19.134  1.00  0.00     0.013 A 
ATOM     17  C   UNL     1     -23.458   5.873 -20.658  1.00  0.00     0.045 C 
ATOM     18  C   UNL     1     -21.546   8.061 -18.171  1.00  0.00    -0.006 A 
ATOM     19  C   UNL     1     -19.892   7.496 -16.444  1.00  0.00     0.072 A 
ATOM     20  C   UNL     1     -21.514   9.427 -17.755  1.00  0.00     0.008 A 
ATOM     21  C   UNL     1     -19.978   8.815 -15.953  1.00  0.00     0.169 A 
ATOM     22  C   UNL     1     -20.778   9.765 -16.599  1.00  0.00     0.162 A 
BRANCH  13  23
ATOM     23  O   UNL     1     -19.486   4.972 -17.817  1.00  0.00    -0.507 OA
ATOM     24  H   UNL     1     -19.105   4.250 -18.415  1.00  0.00     0.293 HD
ENDBRANCH  13  23
BRANCH  19  25
ATOM     25  C   UNL     1     -19.102   6.523 -15.663  1.00  0.00     0.264 C 
ATOM     26  O   UNL     1     -17.842   6.539 -15.707  1.00  0.00    -0.298 OA
ENDBRANCH  19  25
BRANCH  20  27
ATOM     27  C   UNL     1     -22.261  10.524 -18.534  1.00  0.00     0.017 C 
ATOM     28  C   UNL     1     -23.484  11.013 -17.751  1.00  0.00     0.012 C 
ATOM     29  C   UNL     1     -21.364  11.700 -18.963  1.00  0.00     0.012 C 
ENDBRANCH  20  27
BRANCH  21  30
ATOM     30  O   UNL     1     -19.289   9.212 -14.801  1.00  0.00    -0.504 OA
ATOM     31  H   UNL     1     -19.459   8.832 -13.879  1.00  0.00     0.293 HD
ENDBRANCH  21  30
BRANCH  22  32
ATOM     32  O   UNL     1     -20.864  11.055 -16.071  1.00  0.00    -0.504 OA
ATOM     33  H   UNL     1     -20.761  11.257 -15.084  1.00  0.00     0.293 HD
ENDBRANCH  22  32
ENDBRANCH  11  12
BRANCH  10  34
ATOM     34  O   UNL     1     -22.995   3.260 -18.270  1.00  0.00    -0.507 OA
ATOM     35  H   UNL     1     -22.861   3.962 -17.553  1.00  0.00     0.293 HD
ENDBRANCH  10  34
BRANCH   9  36
ATOM     36  C   UNL     1     -19.934  -0.109 -22.647  1.00  0.00     0.017 C 
ATOM     37  C   UNL     1     -20.583  -0.356 -24.013  1.00  0.00     0.012 C 
ATOM     38  C   UNL     1     -18.990  -1.265 -22.261  1.00  0.00     0.012 C 
ENDBRANCH   9  36
BRANCH   6  39
ATOM     39  C   UNL     1     -23.452   0.646 -18.080  1.00  0.00     0.264 C 
ATOM     40  O   UNL     1     -24.710   0.719 -18.070  1.00  0.00    -0.298 OA
ENDBRANCH   6  39
BRANCH   8  41
ATOM     41  O   UNL     1     -22.021  -1.971 -21.942  1.00  0.00    -0.504 OA
ATOM     42  H   UNL     1     -21.577  -2.836 -21.659  1.00  0.00     0.293 HD
ENDBRANCH   8  41
BRANCH   7  43
ATOM     43  O   UNL     1     -23.566  -1.681 -19.697  1.00  0.00    -0.504 OA
ATOM     44  H   UNL     1     -23.458  -2.192 -18.830  1.00  0.00     0.293 HD
ENDBRANCH   7  43
TORSDOF 11
ENDMDL
MODEL 3
REMARK VINA RESULT:    -7.967      2.057      9.164
REMARK INTER + INTRA:         -12.859
REMARK INTER:                 -11.628
REMARK INTRA:                  -1.231
REMARK UNBOUND:                -1.166
REMARK SMILES Cc1cc2c(C(C)C)c(O)c(O)c(C=O)c2c(O)c1-c1c(C)cc2c(C(C)C)c(O)c(O)c(C=O)c2c1O
REMARK SMILES IDX 1 1 2 2 3 3 4 4 16 5 13 6 11 7 9 8 5 9 17 10 19 11 20 12
REMARK SMILES IDX 37 13 21 14 36 15 23 16 22 17 24 18 33 19 25 20 31 21 29 22
REMARK SMILES IDX 38 23 34 25 35 26 26 27 27 28 28 29 32 30 30 32 18 34 6 36
REMARK SMILES IDX 7 37 8 38 14 39 15 40 10 41 12 43
REMARK H PARENT 38 24 32 31 30 33 18 35 10 42 12 44
REMARK Flexibility Score: inf
ROOT
ATOM      1  C   UNL     1     -22.762   1.983 -17.900  1.00  0.00     0.045 C 
ATOM      2  C   UNL     1     -22.754   1.847 -19.404  1.00  0.00    -0.039 A 
ATOM      3  C   UNL     1     -22.356   2.932 -20.186  1.00  0.00     0.013 A 
ATOM      4  C   UNL     1     -22.294   2.855 -21.595  1.00  0.00    -0.006 A 
ATOM      5  C   UNL     1     -22.728   1.654 -22.237  1.00  0.00     0.039 A 
ATOM      6  C   UNL     1     -22.719   1.594 -23.662  1.00  0.00     0.072 A 
ATOM      7  C   UNL     1     -22.461   2.760 -24.410  1.00  0.00     0.169 A 
ATOM      8  C   UNL     1     -22.065   3.938 -23.770  1.00  0.00     0.162 A 
ATOM      9  C   UNL     1     -21.844   3.964 -22.377  1.00  0.00     0.008 A 
ATOM     10  C   UNL     1     -23.208   0.576 -21.435  1.00  0.00     0.132 A 
ATOM     11  C   UNL     1     -23.189   0.667 -20.026  1.00  0.00     0.031 A 
ENDROOT
BRANCH  11  12
ATOM     12  C   UNL     1     -23.668  -0.470 -19.197  1.00  0.00     0.031 A 
ATOM     13  C   UNL     1     -22.776  -1.496 -18.820  1.00  0.00     0.132 A 
ATOM     14  C   UNL     1     -25.014  -0.527 -18.798  1.00  0.00    -0.039 A 
ATOM     15  C   UNL     1     -23.239  -2.606 -18.054  1.00  0.00     0.039 A 
ATOM     16  C   UNL     1     -25.438  -1.556 -17.955  1.00  0.00     0.013 A 
ATOM     17  C   UNL     1     -26.011   0.504 -19.271  1.00  0.00     0.045 C 
ATOM     18  C   UNL     1     -24.552  -2.558 -17.502  1.00  0.00    -0.006 A 
ATOM     19  C   UNL     1     -22.428  -3.753 -17.807  1.00  0.00     0.072 A 
ATOM     20  C   UNL     1     -24.958  -3.525 -16.532  1.00  0.00     0.008 A 
ATOM     21  C   UNL     1     -22.900  -4.775 -16.957  1.00  0.00     0.169 A 
ATOM     22  C   UNL     1     -24.146  -4.661 -16.331  1.00  0.00     0.162 A 
BRANCH  13  23
ATOM     23  O   UNL     1     -21.424  -1.394 -19.166  1.00  0.00    -0.507 OA
ATOM     24  H   UNL     1     -21.057  -0.704 -19.810  1.00  0.00     0.293 HD
ENDBRANCH  13  23
BRANCH  19  25
ATOM     25  C   UNL     1     -21.146  -3.979 -18.506  1.00  0.00     0.264 C 
ATOM     26  O   UNL     1     -20.052  -3.830 -17.898  1.00  0.00    -0.298 OA
ENDBRANCH  19  25
BRANCH  20  27
ATOM     27  C   UNL     1     -26.251  -3.352 -15.715  1.00  0.00     0.017 C 
ATOM     28  C   UNL     1     -26.267  -1.998 -14.998  1.00  0.00     0.012 C 
ATOM     29  C   UNL     1     -27.536  -3.567 -16.535  1.00  0.00     0.012 C 
ENDBRANCH  20  27
BRANCH  21  30
ATOM     30  O   UNL     1     -22.153  -5.937 -16.729  1.00  0.00    -0.504 OA
ATOM     31  H   UNL     1     -21.292  -5.964 -16.199  1.00  0.00     0.293 HD
ENDBRANCH  21  30
BRANCH  22  32
ATOM     32  O   UNL     1     -24.598  -5.704 -15.517  1.00  0.00    -0.504 OA
ATOM     33  H   UNL     1     -24.409  -5.751 -14.523  1.00  0.00     0.293 HD
ENDBRANCH  22  32
ENDBRANCH  11  12
BRANCH  10  34
ATOM     34  O   UNL     1     -23.742  -0.570 -22.036  1.00  0.00    -0.507 OA
ATOM     35  H   UNL     1     -24.732  -0.776 -22.084  1.00  0.00     0.293 HD
ENDBRANCH  10  34
BRANCH   9  36
ATOM     36  C   UNL     1     -21.164   5.187 -21.735  1.00  0.00     0.017 C 
ATOM     37  C   UNL     1     -19.882   4.778 -21.002  1.00  0.00     0.012 C 
ATOM     38  C   UNL     1     -22.093   6.008 -20.819  1.00  0.00     0.012 C 
ENDBRANCH   9  36
BRANCH   6  39
ATOM     39  C   UNL     1     -22.934   0.335 -24.404  1.00  0.00     0.264 C 
ATOM     40  O   UNL     1     -21.995  -0.494 -24.534  1.00  0.00    -0.298 OA
ENDBRANCH   6  39
BRANCH   8  41
ATOM     41  O   UNL     1     -21.879   5.097 -24.527  1.00  0.00    -0.504 OA
ATOM     42  H   UNL     1     -22.367   5.964 -24.338  1.00  0.00     0.293 HD
ENDBRANCH   8  41
BRANCH   7  43
ATOM     43  O   UNL     1     -22.559   2.771 -25.807  1.00  0.00    -0.504 OA
ATOM     44  H   UNL     1     -23.325   3.189 -26.318  1.00  0.00     0.293 HD
ENDBRANCH   7  43
TORSDOF 11
ENDMDL
MODEL 4
REMARK VINA RESULT:    -7.959      4.642      7.427
REMARK INTER + INTRA:         -12.847
REMARK INTER:                 -11.631
REMARK INTRA:                  -1.216
REMARK UNBOUND:                -1.166
REMARK SMILES Cc1cc2c(C(C)C)c(O)c(O)c(C=O)c2c(O)c1-c1c(C)cc2c(C(C)C)c(O)c(O)c(C=O)c2c1O
REMARK SMILES IDX 1 1 2 2 3 3 4 4 16 5 13 6 11 7 9 8 5 9 17 10 19 11 20 12
REMARK SMILES IDX 37 13 21 14 36 15 23 16 22 17 24 18 33 19 25 20 31 21 29 22
REMARK SMILES IDX 38 23 34 25 35 26 26 27 27 28 28 29 32 30 30 32 18 34 6 36
REMARK SMILES IDX 7 37 8 38 14 39 15 40 10 41 12 43
REMARK H PARENT 38 24 32 31 30 33 18 35 10 42 12 44
REMARK Flexibility Score: inf
ROOT
ATOM      1  C   UNL     1     -22.558  -0.184 -19.159  1.00  0.00     0.045 C 
ATOM      2  C   UNL     1     -21.985  -0.345 -20.547  1.00  0.00    -0.039 A 
ATOM      3  C   UNL     1     -21.716  -1.625 -21.032  1.00  0.00     0.013 A 
ATOM      4  C   UNL     1     -21.213  -1.841 -22.334  1.00  0.00    -0.006 A 
ATOM      5  C   UNL     1     -20.897  -0.707 -23.145  1.00  0.00     0.039 A 
ATOM      6  C   UNL     1     -20.336  -0.922 -24.439  1.00  0.00     0.072 A 
ATOM      7  C   UNL     1     -19.938  -2.217 -24.823  1.00  0.00     0.169 A 
ATOM      8  C   UNL     1     -20.226  -3.317 -24.009  1.00  0.00     0.162 A 
ATOM      9  C   UNL     1     -20.983  -3.163 -22.828  1.00  0.00     0.008 A 
ATOM     10  C   UNL     1     -21.101   0.602 -22.614  1.00  0.00     0.132 A 
ATOM     11  C   UNL     1     -21.670   0.774 -21.334  1.00  0.00     0.031 A 
ENDROOT
BRANCH  11  12
ATOM     12  C   UNL     1     -21.902   2.141 -20.796  1.00  0.00     0.031 A 
ATOM     13  C   UNL     1     -20.884   2.802 -20.078  1.00  0.00     0.132 A 
ATOM     14  C   UNL     1     -23.143   2.769 -20.995  1.00  0.00    -0.039 A 
ATOM     15  C   UNL     1     -21.114   4.097 -19.530  1.00  0.00     0.039 A 
ATOM     16  C   UNL     1     -23.327   4.082 -20.555  1.00  0.00     0.013 A 
ATOM     17  C   UNL     1     -24.283   2.047 -21.672  1.00  0.00     0.045 C 
ATOM     18  C   UNL     1     -22.302   4.795 -19.897  1.00  0.00    -0.006 A 
ATOM     19  C   UNL     1     -20.190   4.727 -18.644  1.00  0.00     0.072 A 
ATOM     20  C   UNL     1     -22.449   6.179 -19.575  1.00  0.00     0.008 A 
ATOM     21  C   UNL     1     -20.420   6.051 -18.216  1.00  0.00     0.169 A 
ATOM     22  C   UNL     1     -21.533   6.764 -18.674  1.00  0.00     0.162 A 
BRANCH  13  23
ATOM     23  O   UNL     1     -19.630   2.193 -19.944  1.00  0.00    -0.507 OA
ATOM     24  H   UNL     1     -18.890   2.269 -20.630  1.00  0.00     0.293 HD
ENDBRANCH  13  23
BRANCH  19  25
ATOM     25  C   UNL     1     -19.047   4.002 -18.051  1.00  0.00     0.264 C 
ATOM     26  O   UNL     1     -17.872   4.228 -18.447  1.00  0.00    -0.298 OA
ENDBRANCH  19  25
BRANCH  20  27
ATOM     27  C   UNL     1     -23.576   7.032 -20.183  1.00  0.00     0.017 C 
ATOM     28  C   UNL     1     -24.527   7.538 -19.092  1.00  0.00     0.012 C 
ATOM     29  C   UNL     1     -23.071   8.188 -21.065  1.00  0.00     0.012 C 
ENDBRANCH  20  27
BRANCH  21  30
ATOM     30  O   UNL     1     -19.561   6.684 -17.309  1.00  0.00    -0.504 OA
ATOM     31  H   UNL     1     -18.916   7.421 -17.559  1.00  0.00     0.293 HD
ENDBRANCH  21  30
BRANCH  22  32
ATOM     32  O   UNL     1     -21.748   8.063 -18.209  1.00  0.00    -0.504 OA
ATOM     33  H   UNL     1     -21.788   8.870 -18.820  1.00  0.00     0.293 HD
ENDBRANCH  22  32
ENDBRANCH  11  12
BRANCH  10  34
ATOM     34  O   UNL     1     -20.700   1.730 -23.339  1.00  0.00    -0.507 OA
ATOM     35  H   UNL     1     -21.064   2.661 -23.184  1.00  0.00     0.293 HD
ENDBRANCH  10  34
BRANCH   9  36
ATOM     36  C   UNL     1     -21.506  -4.408 -22.090  1.00  0.00     0.017 C 
ATOM     37  C   UNL     1     -23.012  -4.296 -21.831  1.00  0.00     0.012 C 
ATOM     38  C   UNL     1     -20.740  -4.732 -20.793  1.00  0.00     0.012 C 
ENDBRANCH   9  36
BRANCH   6  39
ATOM     39  C   UNL     1     -20.186   0.165 -25.428  1.00  0.00     0.264 C 
ATOM     40  O   UNL     1     -20.726   0.071 -26.563  1.00  0.00    -0.298 OA
ENDBRANCH   6  39
BRANCH   8  41
ATOM     41  O   UNL     1     -19.763  -4.581 -24.380  1.00  0.00    -0.504 OA
ATOM     42  H   UNL     1     -19.015  -4.721 -25.048  1.00  0.00     0.293 HD
ENDBRANCH   8  41
BRANCH   7  43
ATOM     43  O   UNL     1     -19.277  -2.452 -26.035  1.00  0.00    -0.504 OA
ATOM     44  H   UNL     1     -19.005  -3.369 -26.364  1.00  0.00     0.293 HD
ENDBRANCH   7  43
TORSDOF 11
ENDMDL
MODEL 5
REMARK VINA RESULT:    -7.953      3.696      5.518
REMARK INTER + INTRA:         -12.839
REMARK INTER:                 -11.417
REMARK INTRA:                  -1.422
REMARK UNBOUND:                -1.166
REMARK SMILES Cc1cc2c(C(C)C)c(O)c(O)c(C=O)c2c(O)c1-c1c(C)cc2c(C(C)C)c(O)c(O)c(C=O)c2c1O
REMARK SMILES IDX 1 1 2 2 3 3 4 4 16 5 13 6 11 7 9 8 5 9 17 10 19 11 20 12
REMARK SMILES IDX 37 13 21 14 36 15 23 16 22 17 24 18 33 19 25 20 31 21 29 22
REMARK SMILES IDX 38 23 34 25 35 26 26 27 27 28 28 29 32 30 30 32 18 34 6 36
REMARK SMILES IDX 7 37 8 38 14 39 15 40 10 41 12 43
REMARK H PARENT 38 24 32 31 30 33 18 35 10 42 12 44
REMARK Flexibility Score: inf
ROOT
ATOM      1  C   UNL     1     -22.916  -0.908 -18.779  1.00  0.00     0.045 C 
ATOM      2  C   UNL     1     -21.964  -1.630 -19.702  1.00  0.00    -0.039 A 
ATOM      3  C   UNL     1     -21.618  -2.954 -19.429  1.00  0.00     0.013 A 
ATOM      4  C   UNL     1     -20.760  -3.693 -20.274  1.00  0.00    -0.006 A 
ATOM      5  C   UNL     1     -20.169  -3.034 -21.397  1.00  0.00     0.039 A 
ATOM      6  C   UNL     1     -19.258  -3.762 -22.219  1.00  0.00     0.072 A 
ATOM      7  C   UNL     1     -18.820  -5.039 -21.818  1.00  0.00     0.169 A 
ATOM      8  C   UNL     1     -19.384  -5.663 -20.701  1.00  0.00     0.162 A 
ATOM      9  C   UNL     1     -20.451  -5.061 -20.000  1.00  0.00     0.008 A 
ATOM     10  C   UNL     1     -20.465  -1.657 -21.626  1.00  0.00     0.132 A 
ATOM     11  C   UNL     1     -21.382  -0.974 -20.798  1.00  0.00     0.031 A 
ENDROOT
BRANCH  11  12
ATOM     12  C   UNL     1     -21.704   0.454 -21.057  1.00  0.00     0.031 A 
ATOM     13  C   UNL     1     -20.977   1.473 -20.407  1.00  0.00     0.132 A 
ATOM     14  C   UNL     1     -22.742   0.786 -21.942  1.00  0.00    -0.039 A 
ATOM     15  C   UNL     1     -21.306   2.843 -20.625  1.00  0.00     0.039 A 
ATOM     16  C   UNL     1     -22.988   2.129 -22.240  1.00  0.00     0.013 A 
ATOM     17  C   UNL     1     -23.602  -0.283 -22.574  1.00  0.00     0.045 C 
ATOM     18  C   UNL     1     -22.230   3.169 -21.661  1.00  0.00    -0.006 A 
ATOM     19  C   UNL     1     -20.730   3.898 -19.857  1.00  0.00     0.072 A 
ATOM     20  C   UNL     1     -22.394   4.526 -22.075  1.00  0.00     0.008 A 
ATOM     21  C   UNL     1     -21.013   5.240 -20.186  1.00  0.00     0.169 A 
ATOM     22  C   UNL     1     -21.834   5.547 -21.278  1.00  0.00     0.162 A 
BRANCH  13  23
ATOM     23  O   UNL     1     -19.902   1.131 -19.579  1.00  0.00    -0.507 OA
ATOM     24  H   UNL     1     -19.813   0.238 -19.110  1.00  0.00     0.293 HD
ENDBRANCH  13  23
BRANCH  19  25
ATOM     25  C   UNL     1     -19.933   3.643 -18.640  1.00  0.00     0.264 C 
ATOM     26  O   UNL     1     -18.690   3.855 -18.634  1.00  0.00    -0.298 OA
ENDBRANCH  19  25
BRANCH  20  27
ATOM     27  C   UNL     1     -23.163   4.890 -23.357  1.00  0.00     0.017 C 
ATOM     28  C   UNL     1     -24.450   5.652 -23.024  1.00  0.00     0.012 C 
ATOM     29  C   UNL     1     -22.314   5.651 -24.393  1.00  0.00     0.012 C 
ENDBRANCH  20  27
BRANCH  21  30
ATOM     30  O   UNL     1     -20.506   6.301 -19.426  1.00  0.00    -0.504 OA
ATOM     31  H   UNL     1     -20.787   7.265 -19.539  1.00  0.00     0.293 HD
ENDBRANCH  21  30
BRANCH  22  32
ATOM     32  O   UNL     1     -22.118   6.886 -21.560  1.00  0.00    -0.504 OA
ATOM     33  H   UNL     1     -22.372   7.214 -22.484  1.00  0.00     0.293 HD
ENDBRANCH  22  32
ENDBRANCH  11  12
BRANCH  10  34
ATOM     34  O   UNL     1     -19.818  -0.956 -22.650  1.00  0.00    -0.507 OA
ATOM     35  H   UNL     1     -20.299  -0.484 -23.405  1.00  0.00     0.293 HD
ENDBRANCH  10  34
BRANCH   9  36
ATOM     36  C   UNL     1     -21.223  -5.872 -18.944  1.00  0.00     0.017 C 
ATOM     37  C   UNL     1     -22.696  -6.020 -19.339  1.00  0.00     0.012 C 
ATOM     38  C   UNL     1     -21.083  -5.324 -17.510  1.00  0.00     0.012 C 
ENDBRANCH   9  36
BRANCH   6  39
ATOM     39  C   UNL     1     -18.774  -3.245 -23.515  1.00  0.00     0.264 C 
ATOM     40  O   UNL     1     -17.581  -2.859 -23.640  1.00  0.00    -0.298 OA
ENDBRANCH   6  39
BRANCH   8  41
ATOM     41  O   UNL     1     -18.887  -6.900 -20.285  1.00  0.00    -0.504 OA
ATOM     42  H   UNL     1     -19.079  -7.293 -19.371  1.00  0.00     0.293 HD
ENDBRANCH   8  41
BRANCH   7  43
ATOM     43  O   UNL     1     -17.839  -5.736 -22.534  1.00  0.00    -0.504 OA
ATOM     44  H   UNL     1     -17.890  -5.928 -23.525  1.00  0.00     0.293 HD
ENDBRANCH   7  43
TORSDOF 11
ENDMDL
MODEL 6
REMARK VINA RESULT:    -7.941      3.714      9.013
REMARK INTER + INTRA:         -12.821
REMARK INTER:                 -11.416
REMARK INTRA:                  -1.405
REMARK UNBOUND:                -1.166
REMARK SMILES Cc1cc2c(C(C)C)c(O)c(O)c(C=O)c2c(O)c1-c1c(C)cc2c(C(C)C)c(O)c(O)c(C=O)c2c1O
REMARK SMILES IDX 1 1 2 2 3 3 4 4 16 5 13 6 11 7 9 8 5 9 17 10 19 11 20 12
REMARK SMILES IDX 37 13 21 14 36 15 23 16 22 17 24 18 33 19 25 20 31 21 29 22
REMARK SMILES IDX 38 23 34 25 35 26 26 27 27 28 28 29 32 30 30 32 18 34 6 36
REMARK SMILES IDX 7 37 8 38 14 39 15 40 10 41 12 43
REMARK H PARENT 38 24 32 31 30 33 18 35 10 42 12 44
REMARK Flexibility Score: inf
ROOT
ATOM      1  C   UNL     1     -23.566  -0.421 -22.361  1.00  0.00     0.045 C 
ATOM      2  C   UNL     1     -22.824   0.677 -21.637  1.00  0.00    -0.039 A 
ATOM      3  C   UNL     1     -23.161   2.009 -21.885  1.00  0.00     0.013 A 
ATOM      4  C   UNL     1     -22.527   3.077 -21.213  1.00  0.00    -0.006 A 
ATOM      5  C   UNL     1     -21.456   2.784 -20.313  1.00  0.00     0.039 A 
ATOM      6  C   UNL     1     -20.777   3.866 -19.677  1.00  0.00     0.072 A 
ATOM      7  C   UNL     1     -21.044   5.190 -20.074  1.00  0.00     0.169 A 
ATOM      8  C   UNL     1     -22.076   5.464 -20.977  1.00  0.00     0.162 A 
ATOM      9  C   UNL     1     -22.915   4.433 -21.450  1.00  0.00     0.008 A 
ATOM     10  C   UNL     1     -21.063   1.425 -20.124  1.00  0.00     0.132 A 
ATOM     11  C   UNL     1     -21.768   0.381 -20.761  1.00  0.00     0.031 A 
ENDROOT
BRANCH  11  12
ATOM     12  C   UNL     1     -21.369  -1.034 -20.540  1.00  0.00     0.031 A 
ATOM     13  C   UNL     1     -20.459  -1.659 -21.418  1.00  0.00     0.132 A 
ATOM     14  C   UNL     1     -21.910  -1.752 -19.461  1.00  0.00    -0.039 A 
ATOM     15  C   UNL     1     -20.102  -3.026 -21.231  1.00  0.00     0.039 A 
ATOM     16  C   UNL     1     -21.472  -3.055 -19.214  1.00  0.00     0.013 A 
ATOM     17  C   UNL     1     -22.961  -1.141 -18.566  1.00  0.00     0.045 C 
ATOM     18  C   UNL     1     -20.509  -3.682 -20.033  1.00  0.00    -0.006 A 
ATOM     19  C   UNL     1     -19.336  -3.753 -22.190  1.00  0.00     0.072 A 
ATOM     20  C   UNL     1     -19.965  -4.959 -19.695  1.00  0.00     0.008 A 
ATOM     21  C   UNL     1     -18.923  -5.071 -21.905  1.00  0.00     0.169 A 
ATOM     22  C   UNL     1     -19.235  -5.664 -20.676  1.00  0.00     0.162 A 
BRANCH  13  23
ATOM     23  O   UNL     1     -19.876  -0.913 -22.450  1.00  0.00    -0.507 OA
ATOM     24  H   UNL     1     -19.576   0.048 -22.351  1.00  0.00     0.293 HD
ENDBRANCH  13  23
BRANCH  19  25
ATOM     25  C   UNL     1     -19.052  -3.222 -23.539  1.00  0.00     0.264 C 
ATOM     26  O   UNL     1     -17.885  -2.867 -23.855  1.00  0.00    -0.298 OA
ENDBRANCH  19  25
BRANCH  20  27
ATOM     27  C   UNL     1     -20.160  -5.574 -18.297  1.00  0.00     0.017 C 
ATOM     28  C   UNL     1     -19.581  -4.659 -17.213  1.00  0.00     0.012 C 
ATOM     29  C   UNL     1     -21.620  -5.956 -17.987  1.00  0.00     0.012 C 
ENDBRANCH  20  27
BRANCH  21  30
ATOM     30  O   UNL     1     -18.213  -5.832 -22.840  1.00  0.00    -0.504 OA
ATOM     31  H   UNL     1     -17.204  -5.839 -22.918  1.00  0.00     0.293 HD
ENDBRANCH  21  30
BRANCH  22  32
ATOM     32  O   UNL     1     -18.836  -6.981 -20.435  1.00  0.00    -0.504 OA
ATOM     33  H   UNL     1     -17.915  -7.226 -20.091  1.00  0.00     0.293 HD
ENDBRANCH  22  32
ENDBRANCH  11  12
BRANCH  10  34
ATOM     34  O   UNL     1     -19.949   1.114 -19.336  1.00  0.00    -0.507 OA
ATOM     35  H   UNL     1     -19.525   1.754 -18.677  1.00  0.00     0.293 HD
ENDBRANCH  10  34
BRANCH   9  36
ATOM     36  C   UNL     1     -24.194   4.787 -22.231  1.00  0.00     0.017 C 
ATOM     37  C   UNL     1     -23.853   5.525 -23.529  1.00  0.00     0.012 C 
ATOM     38  C   UNL     1     -25.235   5.564 -21.403  1.00  0.00     0.012 C 
ENDBRANCH   9  36
BRANCH   6  39
ATOM     39  C   UNL     1     -19.817   3.660 -18.574  1.00  0.00     0.264 C 
ATOM     40  O   UNL     1     -18.588   3.875 -18.752  1.00  0.00    -0.298 OA
ENDBRANCH   6  39
BRANCH   8  41
ATOM     41  O   UNL     1     -22.279   6.778 -21.405  1.00  0.00    -0.504 OA
ATOM     42  H   UNL     1     -22.892   7.427 -20.927  1.00  0.00     0.293 HD
ENDBRANCH   8  41
BRANCH   7  43
ATOM     43  O   UNL     1     -20.317   6.271 -19.560  1.00  0.00    -0.504 OA
ATOM     44  H   UNL     1     -20.212   6.465 -18.573  1.00  0.00     0.293 HD
ENDBRANCH   7  43
TORSDOF 11
ENDMDL
MODEL 7
REMARK VINA RESULT:    -7.930      4.755      8.383
REMARK INTER + INTRA:         -12.804
REMARK INTER:                 -11.363
REMARK INTRA:                  -1.442
REMARK UNBOUND:                -1.166
REMARK SMILES Cc1cc2c(C(C)C)c(O)c(O)c(C=O)c2c(O)c1-c1c(C)cc2c(C(C)C)c(O)c(O)c(C=O)c2c1O
REMARK SMILES IDX 1 1 2 2 3 3 4 4 16 5 13 6 11 7 9 8 5 9 17 10 19 11 20 12
REMARK SMILES IDX 37 13 21 14 36 15 23 16 22 17 24 18 33 19 25 20 31 21 29 22
REMARK SMILES IDX 38 23 34 25 35 26 26 27 27 28 28 29 32 30 30 32 18 34 6 36
REMARK SMILES IDX 7 37 8 38 14 39 15 40 10 41 12 43
REMARK H PARENT 38 24 32 31 30 33 18 35 10 42 12 44
REMARK Flexibility Score: inf
ROOT
ATOM      1  C   UNL     1     -21.323   5.085 -22.588  1.00  0.00     0.045 C 
ATOM      2  C   UNL     1     -22.019   3.975 -21.836  1.00  0.00    -0.039 A 
ATOM      3  C   UNL     1     -21.617   2.654 -22.041  1.00  0.00     0.013 A 
ATOM      4  C   UNL     1     -22.205   1.577 -21.342  1.00  0.00    -0.006 A 
ATOM      5  C   UNL     1     -23.298   1.846 -20.460  1.00  0.00     0.039 A 
ATOM      6  C   UNL     1     -23.931   0.753 -19.796  1.00  0.00     0.072 A 
ATOM      7  C   UNL     1     -23.597  -0.569 -20.151  1.00  0.00     0.169 A 
ATOM      8  C   UNL     1     -22.544  -0.820 -21.036  1.00  0.00     0.162 A 
ATOM      9  C   UNL     1     -21.751   0.235 -21.534  1.00  0.00     0.008 A 
ATOM     10  C   UNL     1     -23.756   3.190 -20.316  1.00  0.00     0.132 A 
ATOM     11  C   UNL     1     -23.096   4.247 -20.979  1.00  0.00     0.031 A 
ENDROOT
BRANCH  11  12
ATOM     12  C   UNL     1     -23.564   5.647 -20.805  1.00  0.00     0.031 A 
ATOM     13  C   UNL     1     -24.529   6.186 -21.682  1.00  0.00     0.132 A 
ATOM     14  C   UNL     1     -23.034   6.437 -19.771  1.00  0.00    -0.039 A 
ATOM     15  C   UNL     1     -24.953   7.540 -21.540  1.00  0.00     0.039 A 
ATOM     16  C   UNL     1     -23.534   7.725 -19.566  1.00  0.00     0.013 A 
ATOM     17  C   UNL     1     -21.929   5.920 -18.882  1.00  0.00     0.045 C 
ATOM     18  C   UNL     1     -24.550   8.266 -20.382  1.00  0.00    -0.006 A 
ATOM     19  C   UNL     1     -25.781   8.184 -22.506  1.00  0.00     0.072 A 
ATOM     20  C   UNL     1     -25.153   9.526 -20.081  1.00  0.00     0.008 A 
ATOM     21  C   UNL     1     -26.256   9.490 -22.263  1.00  0.00     0.169 A 
ATOM     22  C   UNL     1     -25.944  10.150 -21.069  1.00  0.00     0.162 A 
BRANCH  13  23
ATOM     23  O   UNL     1     -25.097   5.368 -22.665  1.00  0.00    -0.507 OA
ATOM     24  H   UNL     1     -24.590   5.012 -23.466  1.00  0.00     0.293 HD
ENDBRANCH  13  23
BRANCH  19  25
ATOM     25  C   UNL     1     -26.071   7.583 -23.824  1.00  0.00     0.264 C 
ATOM     26  O   UNL     1     -27.213   7.112 -24.075  1.00  0.00    -0.298 OA
ENDBRANCH  19  25
BRANCH  20  27
ATOM     27  C   UNL     1     -24.954  10.208 -18.716  1.00  0.00     0.017 C 
ATOM     28  C   UNL     1     -25.489   9.327 -17.582  1.00  0.00     0.012 C 
ATOM     29  C   UNL     1     -23.502  10.646 -18.448  1.00  0.00     0.012 C 
ENDBRANCH  20  27
BRANCH  21  30
ATOM     30  O   UNL     1     -27.030  10.173 -23.209  1.00  0.00    -0.504 OA
ATOM     31  H   UNL     1     -27.977   9.919 -23.457  1.00  0.00     0.293 HD
ENDBRANCH  21  30
BRANCH  22  32
ATOM     32  O   UNL     1     -26.406  11.453 -20.871  1.00  0.00    -0.504 OA
ATOM     33  H   UNL     1     -27.250  11.668 -20.354  1.00  0.00     0.293 HD
ENDBRANCH  22  32
ENDBRANCH  11  12
BRANCH  10  34
ATOM     34  O   UNL     1     -24.892   3.471 -19.547  1.00  0.00    -0.507 OA
ATOM     35  H   UNL     1     -25.168   2.942 -18.730  1.00  0.00     0.293 HD
ENDBRANCH  10  34
BRANCH   9  36
ATOM     36  C   UNL     1     -20.450  -0.080 -22.293  1.00  0.00     0.017 C 
ATOM     37  C   UNL     1     -20.753  -0.649 -23.683  1.00  0.00     0.012 C 
ATOM     38  C   UNL     1     -19.480  -0.993 -21.517  1.00  0.00     0.012 C 
ENDBRANCH   9  36
BRANCH   6  39
ATOM     39  C   UNL     1     -24.910   0.946 -18.708  1.00  0.00     0.264 C 
ATOM     40  O   UNL     1     -26.139   0.763 -18.918  1.00  0.00    -0.298 OA
ENDBRANCH   6  39
BRANCH   8  41
ATOM     41  O   UNL     1     -22.276  -2.135 -21.422  1.00  0.00    -0.504 OA
ATOM     42  H   UNL     1     -21.456  -2.398 -21.956  1.00  0.00     0.293 HD
ENDBRANCH   8  41
BRANCH   7  43
ATOM     43  O   UNL     1     -24.277  -1.667 -19.609  1.00  0.00    -0.504 OA
ATOM     44  H   UNL     1     -23.868  -2.319 -18.953  1.00  0.00     0.293 HD
ENDBRANCH   7  43
TORSDOF 11
ENDMDL
MODEL 8
REMARK VINA RESULT:    -7.900      4.427      8.964
REMARK INTER + INTRA:         -12.761
REMARK INTER:                 -11.318
REMARK INTRA:                  -1.443
REMARK UNBOUND:                -1.166
REMARK SMILES Cc1cc2c(C(C)C)c(O)c(O)c(C=O)c2c(O)c1-c1c(C)cc2c(C(C)C)c(O)c(O)c(C=O)c2c1O
REMARK SMILES IDX 1 1 2 2 3 3 4 4 16 5 13 6 11 7 9 8 5 9 17 10 19 11 20 12
REMARK SMILES IDX 37 13 21 14 36 15 23 16 22 17 24 18 33 19 25 20 31 21 29 22
REMARK SMILES IDX 38 23 34 25 35 26 26 27 27 28 28 29 32 30 30 32 18 34 6 36
REMARK SMILES IDX 7 37 8 38 14 39 15 40 10 41 12 43
REMARK H PARENT 38 24 32 31 30 33 18 35 10 42 12 44
REMARK Flexibility Score: inf
ROOT
ATOM      1  C   UNL     1     -22.077   5.664 -23.418  1.00  0.00     0.045 C 
ATOM      2  C   UNL     1     -22.311   4.252 -22.935  1.00  0.00    -0.039 A 
ATOM      3  C   UNL     1     -22.291   3.203 -23.854  1.00  0.00     0.013 A 
ATOM      4  C   UNL     1     -22.468   1.859 -23.458  1.00  0.00    -0.006 A 
ATOM      5  C   UNL     1     -22.758   1.580 -22.086  1.00  0.00     0.039 A 
ATOM      6  C   UNL     1     -22.994   0.228 -21.694  1.00  0.00     0.072 A 
ATOM      7  C   UNL     1     -23.117  -0.774 -22.676  1.00  0.00     0.169 A 
ATOM      8  C   UNL     1     -22.860  -0.484 -24.020  1.00  0.00     0.162 A 
ATOM      9  C   UNL     1     -22.402   0.793 -24.409  1.00  0.00     0.008 A 
ATOM     10  C   UNL     1     -22.856   2.665 -21.165  1.00  0.00     0.132 A 
ATOM     11  C   UNL     1     -22.602   3.988 -21.588  1.00  0.00     0.031 A 
ENDROOT
BRANCH  11  12
ATOM     12  C   UNL     1     -22.682   5.112 -20.617  1.00  0.00     0.031 A 
ATOM     13  C   UNL     1     -21.527   5.534 -19.927  1.00  0.00     0.132 A 
ATOM     14  C   UNL     1     -23.914   5.744 -20.380  1.00  0.00    -0.039 A 
ATOM     15  C   UNL     1     -21.606   6.587 -18.969  1.00  0.00     0.039 A 
ATOM     16  C   UNL     1     -23.966   6.848 -19.526  1.00  0.00     0.013 A 
ATOM     17  C   UNL     1     -25.184   5.248 -21.029  1.00  0.00     0.045 C 
ATOM     18  C   UNL     1     -22.813   7.339 -18.876  1.00  0.00    -0.006 A 
ATOM     19  C   UNL     1     -20.514   6.926 -18.115  1.00  0.00     0.072 A 
ATOM     20  C   UNL     1     -22.847   8.549 -18.117  1.00  0.00     0.008 A 
ATOM     21  C   UNL     1     -20.613   8.043 -17.260  1.00  0.00     0.169 A 
ATOM     22  C   UNL     1     -21.763   8.840 -17.261  1.00  0.00     0.162 A 
BRANCH  13  23
ATOM     23  O   UNL     1     -20.294   4.941 -20.221  1.00  0.00    -0.507 OA
ATOM     24  H   UNL     1     -19.600   4.706 -19.522  1.00  0.00     0.293 HD
ENDBRANCH  13  23
BRANCH  19  25
ATOM     25  C   UNL     1     -19.312   6.075 -17.997  1.00  0.00     0.264 C 
ATOM     26  O   UNL     1     -18.217   6.443 -18.502  1.00  0.00    -0.298 OA
ENDBRANCH  19  25
BRANCH  20  27
ATOM     27  C   UNL     1     -24.032   9.526 -18.211  1.00  0.00     0.017 C 
ATOM     28  C   UNL     1     -24.286   9.937 -19.665  1.00  0.00     0.012 C 
ATOM     29  C   UNL     1     -25.319   9.006 -17.543  1.00  0.00     0.012 C 
ENDBRANCH  20  27
BRANCH  21  30
ATOM     30  O   UNL     1     -19.582   8.377 -16.374  1.00  0.00    -0.504 OA
ATOM     31  H   UNL     1     -18.745   8.877 -16.640  1.00  0.00     0.293 HD
ENDBRANCH  21  30
BRANCH  22  32
ATOM     32  O   UNL     1     -21.842   9.923 -16.382  1.00  0.00    -0.504 OA
ATOM     33  H   UNL     1     -21.053  10.523 -16.171  1.00  0.00     0.293 HD
ENDBRANCH  22  32
ENDBRANCH  11  12
BRANCH  10  34
ATOM     34  O   UNL     1     -23.245   2.436 -19.841  1.00  0.00    -0.507 OA
ATOM     35  H   UNL     1     -23.772   3.096 -19.282  1.00  0.00     0.293 HD
ENDBRANCH  10  34
BRANCH   9  36
ATOM     36  C   UNL     1     -21.881   1.014 -25.840  1.00  0.00     0.017 C 
ATOM     37  C   UNL     1     -23.037   1.017 -26.847  1.00  0.00     0.012 C 
ATOM     38  C   UNL     1     -20.777   0.025 -26.262  1.00  0.00     0.012 C 
ENDBRANCH   9  36
BRANCH   6  39
ATOM     39  C   UNL     1     -23.078  -0.183 -20.279  1.00  0.00     0.264 C 
ATOM     40  O   UNL     1     -24.189  -0.488 -19.770  1.00  0.00    -0.298 OA
ENDBRANCH   6  39
BRANCH   8  41
ATOM     41  O   UNL     1     -23.053  -1.477 -24.983  1.00  0.00    -0.504 OA
ATOM     42  H   UNL     1     -23.174  -1.276 -25.968  1.00  0.00     0.293 HD
ENDBRANCH   8  41
BRANCH   7  43
ATOM     43  O   UNL     1     -23.465  -2.088 -22.343  1.00  0.00    -0.504 OA
ATOM     44  H   UNL     1     -23.907  -2.354 -21.473  1.00  0.00     0.293 HD
ENDBRANCH   7  43
TORSDOF 11
ENDMDL
MODEL 9
REMARK VINA RESULT:    -7.777      4.912     10.404
REMARK INTER + INTRA:         -12.581
REMARK INTER:                 -11.148
REMARK INTRA:                  -1.433
REMARK UNBOUND:                -1.166
REMARK SMILES Cc1cc2c(C(C)C)c(O)c(O)c(C=O)c2c(O)c1-c1c(C)cc2c(C(C)C)c(O)c(O)c(C=O)c2c1O
REMARK SMILES IDX 1 1 2 2 3 3 4 4 16 5 13 6 11 7 9 8 5 9 17 10 19 11 20 12
REMARK SMILES IDX 37 13 21 14 36 15 23 16 22 17 24 18 33 19 25 20 31 21 29 22
REMARK SMILES IDX 38 23 34 25 35 26 26 27 27 28 28 29 32 30 30 32 18 34 6 36
REMARK SMILES IDX 7 37 8 38 14 39 15 40 10 41 12 43
REMARK H PARENT 38 24 32 31 30 33 18 35 10 42 12 44
REMARK Flexibility Score: inf
ROOT
ATOM      1  C   UNL     1     -21.877   5.692 -18.837  1.00  0.00     0.045 C 
ATOM      2  C   UNL     1     -22.899   6.454 -19.647  1.00  0.00    -0.039 A 
ATOM      3  C   UNL     1     -23.260   7.743 -19.253  1.00  0.00     0.013 A 
ATOM      4  C   UNL     1     -24.183   8.518 -19.989  1.00  0.00    -0.006 A 
ATOM      5  C   UNL     1     -24.824   7.929 -21.124  1.00  0.00     0.039 A 
ATOM      6  C   UNL     1     -25.799   8.690 -21.835  1.00  0.00     0.072 A 
ATOM      7  C   UNL     1     -26.243   9.920 -21.313  1.00  0.00     0.169 A 
ATOM      8  C   UNL     1     -25.629  10.474 -20.185  1.00  0.00     0.162 A 
ATOM      9  C   UNL     1     -24.509   9.853 -19.594  1.00  0.00     0.008 A 
ATOM     10  C   UNL     1     -24.509   6.582 -21.474  1.00  0.00     0.132 A 
ATOM     11  C   UNL     1     -23.529   5.865 -20.754  1.00  0.00     0.031 A 
ENDROOT
BRANCH  11  12
ATOM     12  C   UNL     1     -23.188   4.470 -21.140  1.00  0.00     0.031 A 
ATOM     13  C   UNL     1     -23.845   3.384 -20.523  1.00  0.00     0.132 A 
ATOM     14  C   UNL     1     -22.202   4.235 -22.112  1.00  0.00    -0.039 A 
ATOM     15  C   UNL     1     -23.496   2.045 -20.864  1.00  0.00     0.039 A 
ATOM     16  C   UNL     1     -21.943   2.926 -22.524  1.00  0.00     0.013 A 
ATOM     17  C   UNL     1     -21.414   5.373 -22.715  1.00  0.00     0.045 C 
ATOM     18  C   UNL     1     -22.634   1.824 -21.978  1.00  0.00    -0.006 A 
ATOM     19  C   UNL     1     -23.994   0.919 -20.142  1.00  0.00     0.072 A 
ATOM     20  C   UNL     1     -22.464   0.506 -22.501  1.00  0.00     0.008 A 
ATOM     21  C   UNL     1     -23.698  -0.386 -20.587  1.00  0.00     0.169 A 
ATOM     22  C   UNL     1     -22.944  -0.587 -21.749  1.00  0.00     0.162 A 
BRANCH  13  23
ATOM     23  O   UNL     1     -24.872   3.633 -19.604  1.00  0.00    -0.507 OA
ATOM     24  H   UNL     1     -25.783   3.193 -19.644  1.00  0.00     0.293 HD
ENDBRANCH  13  23
BRANCH  19  25
ATOM     25  C   UNL     1     -24.715   1.060 -18.860  1.00  0.00     0.264 C 
ATOM     26  O   UNL     1     -25.957   0.851 -18.799  1.00  0.00    -0.298 OA
ENDBRANCH  19  25
BRANCH  20  27
ATOM     27  C   UNL     1     -21.772   0.260 -23.854  1.00  0.00     0.017 C 
ATOM     28  C   UNL     1     -20.373  -0.332 -23.652  1.00  0.00     0.012 C 
ATOM     29  C   UNL     1     -22.605  -0.592 -24.830  1.00  0.00     0.012 C 
ENDBRANCH  20  27
BRANCH  21  30
ATOM     30  O   UNL     1     -24.128  -1.514 -19.878  1.00  0.00    -0.504 OA
ATOM     31  H   UNL     1     -25.084  -1.843 -19.861  1.00  0.00     0.293 HD
ENDBRANCH  21  30
BRANCH  22  32
ATOM     32  O   UNL     1     -22.645  -1.892 -22.149  1.00  0.00    -0.504 OA
ATOM     33  H   UNL     1     -22.252  -2.117 -23.055  1.00  0.00     0.293 HD
ENDBRANCH  22  32
ENDBRANCH  11  12
BRANCH  10  34
ATOM     34  O   UNL     1     -25.198   5.941 -22.510  1.00  0.00    -0.507 OA
ATOM     35  H   UNL     1     -25.472   4.967 -22.490  1.00  0.00     0.293 HD
ENDBRANCH  10  34
BRANCH   9  36
ATOM     36  C   UNL     1     -23.695  10.604 -18.525  1.00  0.00     0.017 C 
ATOM     37  C   UNL     1     -22.230  10.742 -18.951  1.00  0.00     0.012 C 
ATOM     38  C   UNL     1     -23.811   9.998 -17.113  1.00  0.00     0.012 C 
ENDBRANCH   9  36
BRANCH   6  39
ATOM     39  C   UNL     1     -26.346   8.258 -23.137  1.00  0.00     0.264 C 
ATOM     40  O   UNL     1     -27.528   7.829 -23.219  1.00  0.00    -0.298 OA
ENDBRANCH   6  39
BRANCH   8  41
ATOM     41  O   UNL     1     -26.131  11.662 -19.648  1.00  0.00    -0.504 OA
ATOM     42  H   UNL     1     -26.989  12.094 -19.969  1.00  0.00     0.293 HD
ENDBRANCH   8  41
BRANCH   7  43
ATOM     43  O   UNL     1     -27.281  10.641 -21.916  1.00  0.00    -0.504 OA
ATOM     44  H   UNL     1     -27.178  11.573 -22.295  1.00  0.00     0.293 HD
ENDBRANCH   7  43
TORSDOF 11
ENDMDL
