MODEL 1
REMARK VINA RESULT:     2.190      0.000      0.000
REMARK INTER + INTRA:           2.980
REMARK INTER:                   2.958
REMARK INTRA:                   0.022
REMARK UNBOUND:                 0.022
REMARK SMILES C[C@@H](O)[C@@H](O)[C@@H](O)[C@H](O)C=O
REMARK SMILES IDX 4 1 2 2 1 3 3 4 6 6 8 7 10 8 11 9 9 10 7 12 5 14
REMARK H PARENT 3 5 9 11 7 13 5 15
REMARK Flexibility Score: inf
ROOT
ATOM      1  C   UNL     1     -15.931  25.945  16.916  1.00  0.00     0.174 C 
ENDROOT
BRANCH   1   2
ATOM      2  C   UNL     1     -14.452  25.649  16.534  1.00  0.00     0.142 C 
ATOM      3  C   UNL     1     -14.047  24.189  16.753  1.00  0.00     0.041 C 
BRANCH   2   4
ATOM      4  O   UNL     1     -14.192  26.008  15.200  1.00  0.00    -0.391 OA
ATOM      5  H   UNL     1     -13.367  26.561  15.206  1.00  0.00     0.211 HD
ENDBRANCH   2   4
ENDBRANCH   1   2
BRANCH   1   6
ATOM      6  C   UNL     1     -16.880  26.063  15.688  1.00  0.00     0.181 C 
BRANCH   6   7
ATOM      7  C   UNL     1     -18.373  25.907  16.082  1.00  0.00     0.209 C 
BRANCH   7   8
ATOM      8  C   UNL     1     -18.521  25.310  17.456  1.00  0.00     0.258 C 
ATOM      9  O   UNL     1     -18.776  24.124  17.590  1.00  0.00    -0.300 OA
ENDBRANCH   7   8
BRANCH   7  10
ATOM     10  O   UNL     1     -18.990  27.168  16.077  1.00  0.00    -0.383 OA
ATOM     11  H   UNL     1     -18.396  27.783  16.583  1.00  0.00     0.211 HD
ENDBRANCH   7  10
ENDBRANCH   6   7
BRANCH   6  12
ATOM     12  O   UNL     1     -16.558  25.053  14.765  1.00  0.00    -0.387 OA
ATOM     13  H   UNL     1     -16.176  24.294  15.279  1.00  0.00     0.211 HD
ENDBRANCH   6  12
ENDBRANCH   1   6
BRANCH   1  14
ATOM     14  O   UNL     1     -15.965  27.142  17.653  1.00  0.00    -0.388 OA
ATOM     15  H   UNL     1     -15.297  27.054  18.383  1.00  0.00     0.211 HD
ENDBRANCH   1  14
TORSDOF 8
ENDMDL
MODEL 2
REMARK VINA RESULT:     3.037      9.109     10.208
REMARK INTER + INTRA:           4.125
REMARK INTER:                   4.297
REMARK INTRA:                  -0.172
REMARK UNBOUND:                 0.022
REMARK SMILES C[C@@H](O)[C@@H](O)[C@@H](O)[C@H](O)C=O
REMARK SMILES IDX 4 1 2 2 1 3 3 4 6 6 8 7 10 8 11 9 9 10 7 12 5 14
REMARK H PARENT 3 5 9 11 7 13 5 15
REMARK Flexibility Score: inf
ROOT
ATOM      1  C   UNL     1     -18.270  16.691  13.433  1.00  0.00     0.174 C 
ENDROOT
BRANCH   1   2
ATOM      2  C   UNL     1     -18.101  17.748  14.562  1.00  0.00     0.142 C 
ATOM      3  C   UNL     1     -18.964  17.464  15.795  1.00  0.00     0.041 C 
BRANCH   2   4
ATOM      4  O   UNL     1     -16.756  17.861  14.952  1.00  0.00    -0.391 OA
ATOM      5  H   UNL     1     -16.430  16.940  15.130  1.00  0.00     0.211 HD
ENDBRANCH   2   4
ENDBRANCH   1   2
BRANCH   1   6
ATOM      6  C   UNL     1     -18.837  17.279  12.107  1.00  0.00     0.181 C 
BRANCH   6   7
ATOM      7  C   UNL     1     -17.833  17.153  10.931  1.00  0.00     0.209 C 
BRANCH   7   8
ATOM      8  C   UNL     1     -17.324  15.743  10.791  1.00  0.00     0.258 C 
ATOM      9  O   UNL     1     -16.887  15.348   9.721  1.00  0.00    -0.300 OA
ENDBRANCH   7   8
BRANCH   7  10
ATOM     10  O   UNL     1     -18.470  17.516   9.733  1.00  0.00    -0.383 OA
ATOM     11  H   UNL     1     -19.444  17.378   9.871  1.00  0.00     0.211 HD
ENDBRANCH   7  10
ENDBRANCH   6   7
BRANCH   6  12
ATOM     12  O   UNL     1     -19.125  18.641  12.300  1.00  0.00    -0.387 OA
ATOM     13  H   UNL     1     -19.595  18.961  11.485  1.00  0.00     0.211 HD
ENDBRANCH   6  12
ENDBRANCH   1   6
BRANCH   1  14
ATOM     14  O   UNL     1     -19.125  15.678  13.900  1.00  0.00    -0.388 OA
ATOM     15  H   UNL     1     -18.968  15.592  14.878  1.00  0.00     0.211 HD
ENDBRANCH   1  14
TORSDOF 8
ENDMDL
MODEL 3
REMARK VINA RESULT:     3.095      9.015      9.906
REMARK INTER + INTRA:           4.203
REMARK INTER:                   4.666
REMARK INTRA:                  -0.464
REMARK UNBOUND:                 0.022
REMARK SMILES C[C@@H](O)[C@@H](O)[C@@H](O)[C@H](O)C=O
REMARK SMILES IDX 4 1 2 2 1 3 3 4 6 6 8 7 10 8 11 9 9 10 7 12 5 14
REMARK H PARENT 3 5 9 11 7 13 5 15
REMARK Flexibility Score: inf
ROOT
ATOM      1  C   UNL     1     -17.624  17.048  11.988  1.00  0.00     0.174 C 
ENDROOT
BRANCH   1   2
ATOM      2  C   UNL     1     -18.067  16.479  10.609  1.00  0.00     0.142 C 
ATOM      3  C   UNL     1     -17.977  17.501   9.472  1.00  0.00     0.041 C 
BRANCH   2   4
ATOM      4  O   UNL     1     -17.319  15.340  10.269  1.00  0.00    -0.391 OA
ATOM      5  H   UNL     1     -16.444  15.660   9.926  1.00  0.00     0.211 HD
ENDBRANCH   2   4
ENDBRANCH   1   2
BRANCH   1   6
ATOM      6  C   UNL     1     -18.779  17.129  13.030  1.00  0.00     0.181 C 
BRANCH   6   7
ATOM      7  C   UNL     1     -18.403  17.997  14.259  1.00  0.00     0.209 C 
BRANCH   7   8
ATOM      8  C   UNL     1     -19.118  17.533  15.500  1.00  0.00     0.258 C 
ATOM      9  O   UNL     1     -18.765  16.514  16.072  1.00  0.00    -0.300 OA
ENDBRANCH   7   8
BRANCH   7  10
ATOM     10  O   UNL     1     -17.020  17.910  14.486  1.00  0.00    -0.383 OA
ATOM     11  H   UNL     1     -16.795  16.944  14.535  1.00  0.00     0.211 HD
ENDBRANCH   7  10
ENDBRANCH   6   7
BRANCH   6  12
ATOM     12  O   UNL     1     -19.079  15.831  13.478  1.00  0.00    -0.387 OA
ATOM     13  H   UNL     1     -19.732  15.441  12.838  1.00  0.00     0.211 HD
ENDBRANCH   6  12
ENDBRANCH   1   6
BRANCH   1  14
ATOM     14  O   UNL     1     -17.085  18.331  11.784  1.00  0.00    -0.388 OA
ATOM     15  H   UNL     1     -16.417  18.253  11.053  1.00  0.00     0.211 HD
ENDBRANCH   1  14
TORSDOF 8
ENDMDL
MODEL 4
REMARK VINA RESULT:     3.190      1.120      4.409
REMARK INTER + INTRA:           4.330
REMARK INTER:                   4.540
REMARK INTRA:                  -0.210
REMARK UNBOUND:                 0.022
REMARK SMILES C[C@@H](O)[C@@H](O)[C@@H](O)[C@H](O)C=O
REMARK SMILES IDX 4 1 2 2 1 3 3 4 6 6 8 7 10 8 11 9 9 10 7 12 5 14
REMARK H PARENT 3 5 9 11 7 13 5 15
REMARK Flexibility Score: inf
ROOT
ATOM      1  C   UNL     1     -16.868  25.560  16.114  1.00  0.00     0.174 C 
ENDROOT
BRANCH   1   2
ATOM      2  C   UNL     1     -18.172  26.051  16.807  1.00  0.00     0.142 C 
ATOM      3  C   UNL     1     -19.125  26.787  15.861  1.00  0.00     0.041 C 
BRANCH   2   4
ATOM      4  O   UNL     1     -18.855  24.983  17.414  1.00  0.00    -0.391 OA
ATOM      5  H   UNL     1     -19.056  24.325  16.698  1.00  0.00     0.211 HD
ENDBRANCH   2   4
ENDBRANCH   1   2
BRANCH   1   6
ATOM      6  C   UNL     1     -15.572  26.184  16.709  1.00  0.00     0.181 C 
BRANCH   6   7
ATOM      7  C   UNL     1     -14.655  25.120  17.366  1.00  0.00     0.209 C 
BRANCH   7   8
ATOM      8  C   UNL     1     -13.662  24.564  16.380  1.00  0.00     0.258 C 
ATOM      9  O   UNL     1     -13.350  25.206  15.389  1.00  0.00    -0.300 OA
ENDBRANCH   7   8
BRANCH   7  10
ATOM     10  O   UNL     1     -13.946  25.706  18.427  1.00  0.00    -0.383 OA
ATOM     11  H   UNL     1     -13.341  26.386  18.029  1.00  0.00     0.211 HD
ENDBRANCH   7  10
ENDBRANCH   6   7
BRANCH   6  12
ATOM     12  O   UNL     1     -15.929  27.127  17.688  1.00  0.00    -0.387 OA
ATOM     13  H   UNL     1     -15.289  27.028  18.441  1.00  0.00     0.211 HD
ENDBRANCH   6  12
ENDBRANCH   1   6
BRANCH   1  14
ATOM     14  O   UNL     1     -16.953  25.869  14.745  1.00  0.00    -0.388 OA
ATOM     15  H   UNL     1     -16.024  25.885  14.392  1.00  0.00     0.211 HD
ENDBRANCH   1  14
TORSDOF 8
ENDMDL
MODEL 5
REMARK VINA RESULT:     3.818      8.477      9.635
REMARK INTER + INTRA:           5.179
REMARK INTER:                   5.478
REMARK INTRA:                  -0.299
REMARK UNBOUND:                 0.022
REMARK SMILES C[C@@H](O)[C@@H](O)[C@@H](O)[C@H](O)C=O
REMARK SMILES IDX 4 1 2 2 1 3 3 4 6 6 8 7 10 8 11 9 9 10 7 12 5 14
REMARK H PARENT 3 5 9 11 7 13 5 15
REMARK Flexibility Score: inf
ROOT
ATOM      1  C   UNL     1     -18.451  16.529  15.874  1.00  0.00     0.174 C 
ENDROOT
BRANCH   1   2
ATOM      2  C   UNL     1     -19.125  16.741  17.260  1.00  0.00     0.142 C 
ATOM      3  C   UNL     1     -19.111  15.489  18.142  1.00  0.00     0.041 C 
BRANCH   2   4
ATOM      4  O   UNL     1     -18.526  17.805  17.957  1.00  0.00    -0.391 OA
ATOM      5  H   UNL     1     -18.614  17.601  18.925  1.00  0.00     0.211 HD
ENDBRANCH   2   4
ENDBRANCH   1   2
BRANCH   1   6
ATOM      6  C   UNL     1     -19.054  17.415  14.745  1.00  0.00     0.181 C 
BRANCH   6   7
ATOM      7  C   UNL     1     -18.251  17.309  13.422  1.00  0.00     0.209 C 
BRANCH   7   8
ATOM      8  C   UNL     1     -19.106  17.651  12.230  1.00  0.00     0.258 C 
ATOM      9  O   UNL     1     -18.723  17.390  11.101  1.00  0.00    -0.300 OA
ENDBRANCH   7   8
BRANCH   7  10
ATOM     10  O   UNL     1     -17.167  18.200  13.461  1.00  0.00    -0.383 OA
ATOM     11  H   UNL     1     -17.365  18.864  14.173  1.00  0.00     0.211 HD
ENDBRANCH   7  10
ENDBRANCH   6   7
BRANCH   6  12
ATOM     12  O   UNL     1     -19.044  18.756  15.164  1.00  0.00    -0.387 OA
ATOM     13  H   UNL     1     -19.018  18.755  16.157  1.00  0.00     0.211 HD
ENDBRANCH   6  12
ENDBRANCH   1   6
BRANCH   1  14
ATOM     14  O   UNL     1     -18.575  15.173  15.525  1.00  0.00    -0.388 OA
ATOM     15  H   UNL     1     -17.785  14.702  15.901  1.00  0.00     0.211 HD
ENDBRANCH   1  14
TORSDOF 8
ENDMDL
MODEL 6
REMARK VINA RESULT:     4.046      1.235      3.807
REMARK INTER + INTRA:           5.487
REMARK INTER:                   5.715
REMARK INTRA:                  -0.228
REMARK UNBOUND:                 0.022
REMARK SMILES C[C@@H](O)[C@@H](O)[C@@H](O)[C@H](O)C=O
REMARK SMILES IDX 4 1 2 2 1 3 3 4 6 6 8 7 10 8 11 9 9 10 7 12 5 14
REMARK H PARENT 3 5 9 11 7 13 5 15
REMARK Flexibility Score: inf
ROOT
ATOM      1  C   UNL     1     -16.797  26.522  16.343  1.00  0.00     0.174 C 
ENDROOT
BRANCH   1   2
ATOM      2  C   UNL     1     -18.286  26.106  16.171  1.00  0.00     0.142 C 
ATOM      3  C   UNL     1     -18.778  25.144  17.256  1.00  0.00     0.041 C 
BRANCH   2   4
ATOM      4  O   UNL     1     -19.125  27.232  16.134  1.00  0.00    -0.391 OA
ATOM      5  H   UNL     1     -18.539  28.025  16.015  1.00  0.00     0.211 HD
ENDBRANCH   2   4
ENDBRANCH   1   2
BRANCH   1   6
ATOM      6  C   UNL     1     -15.804  25.645  15.526  1.00  0.00     0.181 C 
BRANCH   6   7
ATOM      7  C   UNL     1     -14.369  25.677  16.113  1.00  0.00     0.209 C 
BRANCH   7   8
ATOM      8  C   UNL     1     -14.074  24.438  16.915  1.00  0.00     0.258 C 
ATOM      9  O   UNL     1     -14.587  24.275  18.011  1.00  0.00    -0.300 OA
ENDBRANCH   7   8
BRANCH   7  10
ATOM     10  O   UNL     1     -13.438  25.759  15.065  1.00  0.00    -0.383 OA
ATOM     11  H   UNL     1     -13.719  25.100  14.377  1.00  0.00     0.211 HD
ENDBRANCH   7  10
ENDBRANCH   6   7
BRANCH   6  12
ATOM     12  O   UNL     1     -15.755  26.124  14.206  1.00  0.00    -0.387 OA
ATOM     13  H   UNL     1     -14.890  25.828  13.816  1.00  0.00     0.211 HD
ENDBRANCH   6  12
ENDBRANCH   1   6
BRANCH   1  14
ATOM     14  O   UNL     1     -16.473  26.449  17.709  1.00  0.00    -0.388 OA
ATOM     15  H   UNL     1     -16.442  27.381  18.052  1.00  0.00     0.211 HD
ENDBRANCH   1  14
TORSDOF 8
ENDMDL
MODEL 7
REMARK VINA RESULT:     4.328      8.766      9.990
REMARK INTER + INTRA:           5.868
REMARK INTER:                   6.188
REMARK INTRA:                  -0.319
REMARK UNBOUND:                 0.022
REMARK SMILES C[C@@H](O)[C@@H](O)[C@@H](O)[C@H](O)C=O
REMARK SMILES IDX 4 1 2 2 1 3 3 4 6 6 8 7 10 8 11 9 9 10 7 12 5 14
REMARK H PARENT 3 5 9 11 7 13 5 15
REMARK Flexibility Score: inf
ROOT
ATOM      1  C   UNL     1     -18.457  16.566  14.737  1.00  0.00     0.174 C 
ENDROOT
BRANCH   1   2
ATOM      2  C   UNL     1     -19.124  17.127  16.026  1.00  0.00     0.142 C 
ATOM      3  C   UNL     1     -18.973  16.206  17.240  1.00  0.00     0.041 C 
BRANCH   2   4
ATOM      4  O   UNL     1     -18.620  18.400  16.344  1.00  0.00    -0.391 OA
ATOM      5  H   UNL     1     -18.387  18.385  17.309  1.00  0.00     0.211 HD
ENDBRANCH   2   4
ENDBRANCH   1   2
BRANCH   1   6
ATOM      6  C   UNL     1     -18.475  17.562  13.541  1.00  0.00     0.181 C 
BRANCH   6   7
ATOM      7  C   UNL     1     -18.585  16.838  12.174  1.00  0.00     0.209 C 
BRANCH   7   8
ATOM      8  C   UNL     1     -18.141  17.726  11.042  1.00  0.00     0.258 C 
ATOM      9  O   UNL     1     -18.018  17.275   9.915  1.00  0.00    -0.300 OA
ENDBRANCH   7   8
BRANCH   7  10
ATOM     10  O   UNL     1     -17.772  15.693  12.185  1.00  0.00    -0.383 OA
ATOM     11  H   UNL     1     -18.220  15.015  11.614  1.00  0.00     0.211 HD
ENDBRANCH   7  10
ENDBRANCH   6   7
BRANCH   6  12
ATOM     12  O   UNL     1     -17.284  18.308  13.553  1.00  0.00    -0.387 OA
ATOM     13  H   UNL     1     -17.502  19.218  13.218  1.00  0.00     0.211 HD
ENDBRANCH   6  12
ENDBRANCH   1   6
BRANCH   1  14
ATOM     14  O   UNL     1     -19.125  15.384  14.373  1.00  0.00    -0.388 OA
ATOM     15  H   UNL     1     -20.099  15.571  14.426  1.00  0.00     0.211 HD
ENDBRANCH   1  14
TORSDOF 8
ENDMDL
