MODEL 1
REMARK VINA RESULT:    -3.302      0.000      0.000
REMARK INTER + INTRA:          -7.990
REMARK INTER:                  -6.004
REMARK INTRA:                  -1.985
REMARK UNBOUND:                -1.985
REMARK SMILES CCCCCCCCCCCCCCCC(=O)[O-]
REMARK SMILES IDX 9 1 10 2 11 3 12 4 13 5 14 6 15 7 16 8 17 9 18 10 8 11 7 12
REMARK SMILES IDX 6 13 5 14 4 15 3 16 2 17 1 18
REMARK H PARENT
REMARK Flexibility Score: inf
ROOT
ATOM      1  C   UNL     1      31.728  12.982  21.794  1.00  0.00     0.000 C 
ENDROOT
BRANCH   1   2
ATOM      2  C   UNL     1      32.860  14.011  21.973  1.00  0.00     0.000 C 
BRANCH   2   3
ATOM      3  C   UNL     1      32.849  15.177  20.967  1.00  0.00     0.000 C 
BRANCH   3   4
ATOM      4  C   UNL     1      31.611  16.080  21.111  1.00  0.00     0.000 C 
BRANCH   4   5
ATOM      5  C   UNL     1      31.007  16.470  19.752  1.00  0.00     0.000 C 
BRANCH   5   6
ATOM      6  C   UNL     1      31.379  15.483  18.631  1.00  0.00     0.006 C 
BRANCH   6   7
ATOM      7  C   UNL     1      30.274  15.367  17.571  1.00  0.00     0.053 C 
BRANCH   7   8
ATOM      8  C   UNL     1      30.643  14.401  16.487  1.00  0.00     0.041 C 
ATOM      9  O   UNL     1      30.310  13.190  16.578  1.00  0.00    -0.550 OA
ATOM     10  O   UNL     1      31.324  14.846  15.360  1.00  0.00    -0.550 OA
ENDBRANCH   7   8
ENDBRANCH   6   7
ENDBRANCH   5   6
ENDBRANCH   4   5
ENDBRANCH   3   4
ENDBRANCH   2   3
ENDBRANCH   1   2
BRANCH   1  11
ATOM     11  C   UNL     1      31.514  12.103  23.035  1.00  0.00     0.000 C 
BRANCH  11  12
ATOM     12  C   UNL     1      30.070  11.591  23.102  1.00  0.00    -0.000 C 
BRANCH  12  13
ATOM     13  C   UNL     1      29.934  10.232  22.406  1.00  0.00    -0.000 C 
BRANCH  13  14
ATOM     14  C   UNL     1      28.489   9.994  21.941  1.00  0.00    -0.000 C 
BRANCH  14  15
ATOM     15  C   UNL     1      27.717  11.301  21.685  1.00  0.00    -0.000 C 
BRANCH  15  16
ATOM     16  C   UNL     1      27.653  11.740  20.212  1.00  0.00    -0.000 C 
BRANCH  16  17
ATOM     17  C   UNL     1      28.617  12.890  19.887  1.00  0.00    -0.003 C 
ATOM     18  C   UNL     1      28.308  14.123  20.734  1.00  0.00     0.004 C 
ENDBRANCH  16  17
ENDBRANCH  15  16
ENDBRANCH  14  15
ENDBRANCH  13  14
ENDBRANCH  12  13
ENDBRANCH  11  12
ENDBRANCH   1  11
TORSDOF 14
ENDMDL
MODEL 2
REMARK VINA RESULT:    -3.216      1.286      2.724
REMARK INTER + INTRA:          -7.834
REMARK INTER:                  -5.706
REMARK INTRA:                  -2.129
REMARK UNBOUND:                -1.985
REMARK SMILES CCCCCCCCCCCCCCCC(=O)[O-]
REMARK SMILES IDX 9 1 10 2 11 3 12 4 13 5 14 6 15 7 16 8 17 9 18 10 8 11 7 12
REMARK SMILES IDX 6 13 5 14 4 15 3 16 2 17 1 18
REMARK H PARENT
REMARK Flexibility Score: inf
ROOT
ATOM      1  C   UNL     1      31.488  13.175  20.230  1.00  0.00     0.000 C 
ENDROOT
BRANCH   1   2
ATOM      2  C   UNL     1      32.286  14.390  20.738  1.00  0.00     0.000 C 
BRANCH   2   3
ATOM      3  C   UNL     1      31.480  15.394  21.584  1.00  0.00     0.000 C 
BRANCH   3   4
ATOM      4  C   UNL     1      31.110  16.669  20.807  1.00  0.00     0.000 C 
BRANCH   4   5
ATOM      5  C   UNL     1      31.936  16.835  19.521  1.00  0.00     0.000 C 
BRANCH   5   6
ATOM      6  C   UNL     1      31.058  16.950  18.262  1.00  0.00     0.006 C 
BRANCH   6   7
ATOM      7  C   UNL     1      31.797  16.491  16.997  1.00  0.00     0.053 C 
BRANCH   7   8
ATOM      8  C   UNL     1      30.878  15.799  16.037  1.00  0.00     0.041 C 
ATOM      9  O   UNL     1      29.663  15.638  16.327  1.00  0.00    -0.550 OA
ATOM     10  O   UNL     1      31.355  15.366  14.806  1.00  0.00    -0.550 OA
ENDBRANCH   7   8
ENDBRANCH   6   7
ENDBRANCH   5   6
ENDBRANCH   4   5
ENDBRANCH   3   4
ENDBRANCH   2   3
ENDBRANCH   1   2
BRANCH   1  11
ATOM     11  C   UNL     1      30.809  13.425  18.876  1.00  0.00     0.000 C 
BRANCH  11  12
ATOM     12  C   UNL     1      29.319  13.070  18.934  1.00  0.00    -0.000 C 
BRANCH  12  13
ATOM     13  C   UNL     1      28.579  13.962  19.938  1.00  0.00    -0.000 C 
BRANCH  13  14
ATOM     14  C   UNL     1      27.860  13.118  21.000  1.00  0.00    -0.000 C 
BRANCH  14  15
ATOM     15  C   UNL     1      27.770  11.627  20.624  1.00  0.00    -0.000 C 
BRANCH  15  16
ATOM     16  C   UNL     1      27.902  10.650  21.805  1.00  0.00    -0.000 C 
BRANCH  16  17
ATOM     17  C   UNL     1      29.299  10.021  21.909  1.00  0.00    -0.003 C 
ATOM     18  C   UNL     1      30.188  10.810  22.867  1.00  0.00     0.004 C 
ENDBRANCH  16  17
ENDBRANCH  15  16
ENDBRANCH  14  15
ENDBRANCH  13  14
ENDBRANCH  12  13
ENDBRANCH  11  12
ENDBRANCH   1  11
TORSDOF 14
ENDMDL
MODEL 3
REMARK VINA RESULT:    -3.072      1.227      3.247
REMARK INTER + INTRA:          -7.572
REMARK INTER:                  -5.405
REMARK INTRA:                  -2.167
REMARK UNBOUND:                -1.985
REMARK SMILES CCCCCCCCCCCCCCCC(=O)[O-]
REMARK SMILES IDX 9 1 10 2 11 3 12 4 13 5 14 6 15 7 16 8 17 9 18 10 8 11 7 12
REMARK SMILES IDX 6 13 5 14 4 15 3 16 2 17 1 18
REMARK H PARENT
REMARK Flexibility Score: inf
ROOT
ATOM      1  C   UNL     1      31.789  16.746  21.146  1.00  0.00     0.000 C 
ENDROOT
BRANCH   1   2
ATOM      2  C   UNL     1      30.859  16.360  22.311  1.00  0.00     0.000 C 
BRANCH   2   3
ATOM      3  C   UNL     1      29.492  15.784  21.895  1.00  0.00     0.000 C 
BRANCH   3   4
ATOM      4  C   UNL     1      29.351  15.621  20.372  1.00  0.00     0.000 C 
BRANCH   4   5
ATOM      5  C   UNL     1      28.487  14.409  19.988  1.00  0.00     0.000 C 
BRANCH   5   6
ATOM      6  C   UNL     1      29.156  13.515  18.928  1.00  0.00     0.006 C 
BRANCH   6   7
ATOM      7  C   UNL     1      30.377  14.190  18.289  1.00  0.00     0.053 C 
BRANCH   7   8
ATOM      8  C   UNL     1      30.092  14.644  16.890  1.00  0.00     0.041 C 
ATOM      9  O   UNL     1      30.947  14.473  15.981  1.00  0.00    -0.550 OA
ATOM     10  O   UNL     1      28.867  15.225  16.582  1.00  0.00    -0.550 OA
ENDBRANCH   7   8
ENDBRANCH   6   7
ENDBRANCH   5   6
ENDBRANCH   4   5
ENDBRANCH   3   4
ENDBRANCH   2   3
ENDBRANCH   1   2
BRANCH   1  11
ATOM     11  C   UNL     1      32.915  15.729  20.913  1.00  0.00     0.000 C 
BRANCH  11  12
ATOM     12  C   UNL     1      32.922  14.657  22.009  1.00  0.00    -0.000 C 
BRANCH  12  13
ATOM     13  C   UNL     1      32.450  13.305  21.462  1.00  0.00    -0.000 C 
BRANCH  13  14
ATOM     14  C   UNL     1      31.534  12.593  22.468  1.00  0.00    -0.000 C 
BRANCH  14  15
ATOM     15  C   UNL     1      30.400  11.801  21.791  1.00  0.00    -0.000 C 
BRANCH  15  16
ATOM     16  C   UNL     1      30.035  10.473  22.478  1.00  0.00    -0.000 C 
BRANCH  16  17
ATOM     17  C   UNL     1      28.698   9.895  21.993  1.00  0.00    -0.003 C 
ATOM     18  C   UNL     1      27.846  10.970  21.322  1.00  0.00     0.004 C 
ENDBRANCH  16  17
ENDBRANCH  15  16
ENDBRANCH  14  15
ENDBRANCH  13  14
ENDBRANCH  12  13
ENDBRANCH  11  12
ENDBRANCH   1  11
TORSDOF 14
ENDMDL
MODEL 4
REMARK VINA RESULT:    -3.026      1.380      2.764
REMARK INTER + INTRA:          -7.488
REMARK INTER:                  -5.735
REMARK INTRA:                  -1.753
REMARK UNBOUND:                -1.985
REMARK SMILES CCCCCCCCCCCCCCCC(=O)[O-]
REMARK SMILES IDX 9 1 10 2 11 3 12 4 13 5 14 6 15 7 16 8 17 9 18 10 8 11 7 12
REMARK SMILES IDX 6 13 5 14 4 15 3 16 2 17 1 18
REMARK H PARENT
REMARK Flexibility Score: inf
ROOT
ATOM      1  C   UNL     1      31.408  14.416  19.370  1.00  0.00     0.000 C 
ENDROOT
BRANCH   1   2
ATOM      2  C   UNL     1      31.076  15.661  20.213  1.00  0.00     0.000 C 
BRANCH   2   3
ATOM      3  C   UNL     1      29.971  16.565  19.636  1.00  0.00     0.000 C 
BRANCH   3   4
ATOM      4  C   UNL     1      28.681  15.796  19.304  1.00  0.00     0.000 C 
BRANCH   4   5
ATOM      5  C   UNL     1      28.142  16.128  17.903  1.00  0.00     0.000 C 
BRANCH   5   6
ATOM      6  C   UNL     1      28.909  15.401  16.784  1.00  0.00     0.006 C 
BRANCH   6   7
ATOM      7  C   UNL     1      29.783  16.361  15.964  1.00  0.00     0.053 C 
BRANCH   7   8
ATOM      8  C   UNL     1      31.193  15.869  15.852  1.00  0.00     0.041 C 
ATOM      9  O   UNL     1      32.122  16.460  16.462  1.00  0.00    -0.550 OA
ATOM     10  O   UNL     1      31.476  14.734  15.100  1.00  0.00    -0.550 OA
ENDBRANCH   7   8
ENDBRANCH   6   7
ENDBRANCH   5   6
ENDBRANCH   4   5
ENDBRANCH   3   4
ENDBRANCH   2   3
ENDBRANCH   1   2
BRANCH   1  11
ATOM     11  C   UNL     1      30.994  13.103  20.049  1.00  0.00     0.000 C 
BRANCH  11  12
ATOM     12  C   UNL     1      30.647  13.333  21.525  1.00  0.00    -0.000 C 
BRANCH  12  13
ATOM     13  C   UNL     1      31.266  12.248  22.413  1.00  0.00    -0.000 C 
BRANCH  13  14
ATOM     14  C   UNL     1      30.179  11.363  23.041  1.00  0.00    -0.000 C 
BRANCH  14  15
ATOM     15  C   UNL     1      29.849  10.122  22.192  1.00  0.00    -0.000 C 
BRANCH  15  16
ATOM     16  C   UNL     1      28.353   9.921  21.890  1.00  0.00    -0.000 C 
BRANCH  16  17
ATOM     17  C   UNL     1      27.579  11.242  21.790  1.00  0.00    -0.003 C 
ATOM     18  C   UNL     1      27.511  11.732  20.345  1.00  0.00     0.004 C 
ENDBRANCH  16  17
ENDBRANCH  15  16
ENDBRANCH  14  15
ENDBRANCH  13  14
ENDBRANCH  12  13
ENDBRANCH  11  12
ENDBRANCH   1  11
TORSDOF 14
ENDMDL
MODEL 5
REMARK VINA RESULT:    -2.989      1.574      3.578
REMARK INTER + INTRA:          -7.420
REMARK INTER:                  -5.786
REMARK INTRA:                  -1.634
REMARK UNBOUND:                -1.985
REMARK SMILES CCCCCCCCCCCCCCCC(=O)[O-]
REMARK SMILES IDX 9 1 10 2 11 3 12 4 13 5 14 6 15 7 16 8 17 9 18 10 8 11 7 12
REMARK SMILES IDX 6 13 5 14 4 15 3 16 2 17 1 18
REMARK H PARENT
REMARK Flexibility Score: inf
ROOT
ATOM      1  C   UNL     1      30.635  13.628  18.618  1.00  0.00     0.000 C 
ENDROOT
BRANCH   1   2
ATOM      2  C   UNL     1      29.164  13.495  19.052  1.00  0.00     0.000 C 
BRANCH   2   3
ATOM      3  C   UNL     1      28.460  14.822  19.393  1.00  0.00     0.000 C 
BRANCH   3   4
ATOM      4  C   UNL     1      28.905  15.985  18.489  1.00  0.00     0.000 C 
BRANCH   4   5
ATOM      5  C   UNL     1      28.093  16.060  17.185  1.00  0.00     0.000 C 
BRANCH   5   6
ATOM      6  C   UNL     1      28.901  16.649  16.015  1.00  0.00     0.006 C 
BRANCH   6   7
ATOM      7  C   UNL     1      30.415  16.502  16.226  1.00  0.00     0.053 C 
BRANCH   7   8
ATOM      8  C   UNL     1      31.075  15.831  15.060  1.00  0.00     0.041 C 
ATOM      9  O   UNL     1      31.566  14.678  15.188  1.00  0.00    -0.550 OA
ATOM     10  O   UNL     1      31.116  16.464  13.824  1.00  0.00    -0.550 OA
ENDBRANCH   7   8
ENDBRANCH   6   7
ENDBRANCH   5   6
ENDBRANCH   4   5
ENDBRANCH   3   4
ENDBRANCH   2   3
ENDBRANCH   1   2
BRANCH   1  11
ATOM     11  C   UNL     1      31.626  13.293  19.742  1.00  0.00     0.000 C 
BRANCH  11  12
ATOM     12  C   UNL     1      31.917  14.527  20.604  1.00  0.00    -0.000 C 
BRANCH  12  13
ATOM     13  C   UNL     1      31.456  14.311  22.050  1.00  0.00    -0.000 C 
BRANCH  13  14
ATOM     14  C   UNL     1      31.497  12.822  22.424  1.00  0.00    -0.000 C 
BRANCH  14  15
ATOM     15  C   UNL     1      30.097  12.216  22.632  1.00  0.00    -0.000 C 
BRANCH  15  16
ATOM     16  C   UNL     1      30.075  10.694  22.861  1.00  0.00    -0.000 C 
BRANCH  16  17
ATOM     17  C   UNL     1      29.144   9.956  21.888  1.00  0.00    -0.003 C 
ATOM     18  C   UNL     1      27.989  10.850  21.446  1.00  0.00     0.004 C 
ENDBRANCH  16  17
ENDBRANCH  15  16
ENDBRANCH  14  15
ENDBRANCH  13  14
ENDBRANCH  12  13
ENDBRANCH  11  12
ENDBRANCH   1  11
TORSDOF 14
ENDMDL
MODEL 6
REMARK VINA RESULT:    -2.897      2.840      6.576
REMARK INTER + INTRA:          -7.253
REMARK INTER:                  -5.813
REMARK INTRA:                  -1.440
REMARK UNBOUND:                -1.985
REMARK SMILES CCCCCCCCCCCCCCCC(=O)[O-]
REMARK SMILES IDX 9 1 10 2 11 3 12 4 13 5 14 6 15 7 16 8 17 9 18 10 8 11 7 12
REMARK SMILES IDX 6 13 5 14 4 15 3 16 2 17 1 18
REMARK H PARENT
REMARK Flexibility Score: inf
ROOT
ATOM      1  C   UNL     1      30.106  13.457  18.530  1.00  0.00     0.000 C 
ENDROOT
BRANCH   1   2
ATOM      2  C   UNL     1      31.356  14.060  19.197  1.00  0.00     0.000 C 
BRANCH   2   3
ATOM      3  C   UNL     1      31.808  13.361  20.493  1.00  0.00     0.000 C 
BRANCH   3   4
ATOM      4  C   UNL     1      31.427  14.145  21.760  1.00  0.00     0.000 C 
BRANCH   4   5
ATOM      5  C   UNL     1      30.765  13.255  22.825  1.00  0.00     0.000 C 
BRANCH   5   6
ATOM      6  C   UNL     1      29.471  12.591  22.324  1.00  0.00     0.006 C 
BRANCH   6   7
ATOM      7  C   UNL     1      29.609  11.067  22.209  1.00  0.00     0.053 C 
BRANCH   7   8
ATOM      8  C   UNL     1      28.376  10.438  21.636  1.00  0.00     0.041 C 
ATOM      9  O   UNL     1      27.684  11.059  20.787  1.00  0.00    -0.550 OA
ATOM     10  O   UNL     1      28.010   9.152  22.016  1.00  0.00    -0.550 OA
ENDBRANCH   7   8
ENDBRANCH   6   7
ENDBRANCH   5   6
ENDBRANCH   4   5
ENDBRANCH   3   4
ENDBRANCH   2   3
ENDBRANCH   1   2
BRANCH   1  11
ATOM     11  C   UNL     1      29.116  14.521  18.035  1.00  0.00     0.000 C 
BRANCH  11  12
ATOM     12  C   UNL     1      29.604  15.931  18.388  1.00  0.00    -0.000 C 
BRANCH  12  13
ATOM     13  C   UNL     1      29.739  16.798  17.131  1.00  0.00    -0.000 C 
BRANCH  13  14
ATOM     14  C   UNL     1      31.212  17.125  16.843  1.00  0.00    -0.000 C 
BRANCH  14  15
ATOM     15  C   UNL     1      31.937  16.005  16.075  1.00  0.00    -0.000 C 
BRANCH  15  16
ATOM     16  C   UNL     1      31.156  15.424  14.882  1.00  0.00    -0.000 C 
BRANCH  16  17
ATOM     17  C   UNL     1      31.087  16.385  13.686  1.00  0.00    -0.003 C 
ATOM     18  C   UNL     1      31.149  15.623  12.365  1.00  0.00     0.004 C 
ENDBRANCH  16  17
ENDBRANCH  15  16
ENDBRANCH  14  15
ENDBRANCH  13  14
ENDBRANCH  12  13
ENDBRANCH  11  12
ENDBRANCH   1  11
TORSDOF 14
ENDMDL
MODEL 7
REMARK VINA RESULT:    -2.673      2.736      5.990
REMARK INTER + INTRA:          -6.846
REMARK INTER:                  -5.339
REMARK INTRA:                  -1.507
REMARK UNBOUND:                -1.985
REMARK SMILES CCCCCCCCCCCCCCCC(=O)[O-]
REMARK SMILES IDX 9 1 10 2 11 3 12 4 13 5 14 6 15 7 16 8 17 9 18 10 8 11 7 12
REMARK SMILES IDX 6 13 5 14 4 15 3 16 2 17 1 18
REMARK H PARENT
REMARK Flexibility Score: inf
ROOT
ATOM      1  C   UNL     1      30.912  15.350  19.916  1.00  0.00     0.000 C 
ENDROOT
BRANCH   1   2
ATOM      2  C   UNL     1      32.159  14.811  20.641  1.00  0.00     0.000 C 
BRANCH   2   3
ATOM      3  C   UNL     1      32.127  13.307  20.968  1.00  0.00     0.000 C 
BRANCH   3   4
ATOM      4  C   UNL     1      32.166  13.023  22.479  1.00  0.00     0.000 C 
BRANCH   4   5
ATOM      5  C   UNL     1      31.053  12.061  22.925  1.00  0.00     0.000 C 
BRANCH   5   6
ATOM      6  C   UNL     1      30.259  11.481  21.741  1.00  0.00     0.006 C 
BRANCH   6   7
ATOM      7  C   UNL     1      29.788  10.044  22.009  1.00  0.00     0.053 C 
BRANCH   7   8
ATOM      8  C   UNL     1      28.293   9.940  22.006  1.00  0.00     0.041 C 
ATOM      9  O   UNL     1      27.606  10.709  21.283  1.00  0.00    -0.550 OA
ATOM     10  O   UNL     1      27.661   8.970  22.776  1.00  0.00    -0.550 OA
ENDBRANCH   7   8
ENDBRANCH   6   7
ENDBRANCH   5   6
ENDBRANCH   4   5
ENDBRANCH   3   4
ENDBRANCH   2   3
ENDBRANCH   1   2
BRANCH   1  11
ATOM     11  C   UNL     1      29.598  14.806  20.497  1.00  0.00     0.000 C 
BRANCH  11  12
ATOM     12  C   UNL     1      28.394  15.300  19.688  1.00  0.00    -0.000 C 
BRANCH  12  13
ATOM     13  C   UNL     1      28.804  16.404  18.706  1.00  0.00    -0.000 C 
BRANCH  13  14
ATOM     14  C   UNL     1      28.004  16.303  17.399  1.00  0.00    -0.000 C 
BRANCH  14  15
ATOM     15  C   UNL     1      28.896  16.082  16.164  1.00  0.00    -0.000 C 
BRANCH  15  16
ATOM     16  C   UNL     1      30.150  15.224  16.413  1.00  0.00    -0.000 C 
BRANCH  16  17
ATOM     17  C   UNL     1      31.413  15.808  15.765  1.00  0.00    -0.003 C 
ATOM     18  C   UNL     1      32.038  16.884  16.649  1.00  0.00     0.004 C 
ENDBRANCH  16  17
ENDBRANCH  15  16
ENDBRANCH  14  15
ENDBRANCH  13  14
ENDBRANCH  12  13
ENDBRANCH  11  12
ENDBRANCH   1  11
TORSDOF 14
ENDMDL
MODEL 8
REMARK VINA RESULT:    -2.576      2.698      6.124
REMARK INTER + INTRA:          -6.670
REMARK INTER:                  -4.512
REMARK INTRA:                  -2.158
REMARK UNBOUND:                -1.985
REMARK SMILES CCCCCCCCCCCCCCCC(=O)[O-]
REMARK SMILES IDX 9 1 10 2 11 3 12 4 13 5 14 6 15 7 16 8 17 9 18 10 8 11 7 12
REMARK SMILES IDX 6 13 5 14 4 15 3 16 2 17 1 18
REMARK H PARENT
REMARK Flexibility Score: inf
ROOT
ATOM      1  C   UNL     1      28.615  16.182  18.155  1.00  0.00     0.000 C 
ENDROOT
BRANCH   1   2
ATOM      2  C   UNL     1      27.437  16.014  19.133  1.00  0.00     0.000 C 
BRANCH   2   3
ATOM      3  C   UNL     1      27.822  16.010  20.625  1.00  0.00     0.000 C 
BRANCH   3   4
ATOM      4  C   UNL     1      28.380  14.656  21.095  1.00  0.00     0.000 C 
BRANCH   4   5
ATOM      5  C   UNL     1      27.457  13.481  20.734  1.00  0.00     0.000 C 
BRANCH   5   6
ATOM      6  C   UNL     1      28.203  12.137  20.669  1.00  0.00     0.006 C 
BRANCH   6   7
ATOM      7  C   UNL     1      28.412  11.523  22.060  1.00  0.00     0.053 C 
BRANCH   7   8
ATOM      8  C   UNL     1      28.778  10.073  21.979  1.00  0.00     0.041 C 
ATOM      9  O   UNL     1      29.987   9.727  21.912  1.00  0.00    -0.550 OA
ATOM     10  O   UNL     1      27.784   9.101  22.011  1.00  0.00    -0.550 OA
ENDBRANCH   7   8
ENDBRANCH   6   7
ENDBRANCH   5   6
ENDBRANCH   4   5
ENDBRANCH   3   4
ENDBRANCH   2   3
ENDBRANCH   1   2
BRANCH   1  11
ATOM     11  C   UNL     1      29.128  14.847  17.598  1.00  0.00     0.000 C 
BRANCH  11  12
ATOM     12  C   UNL     1      30.597  14.623  17.974  1.00  0.00    -0.000 C 
BRANCH  12  13
ATOM     13  C   UNL     1      31.380  15.942  17.951  1.00  0.00    -0.000 C 
BRANCH  13  14
ATOM     14  C   UNL     1      31.932  16.279  19.344  1.00  0.00    -0.000 C 
BRANCH  14  15
ATOM     15  C   UNL     1      32.014  15.053  20.271  1.00  0.00    -0.000 C 
BRANCH  15  16
ATOM     16  C   UNL     1      31.885  15.364  21.773  1.00  0.00    -0.000 C 
BRANCH  16  17
ATOM     17  C   UNL     1      31.731  14.103  22.634  1.00  0.00    -0.003 C 
ATOM     18  C   UNL     1      31.794  12.841  21.778  1.00  0.00     0.004 C 
ENDBRANCH  16  17
ENDBRANCH  15  16
ENDBRANCH  14  15
ENDBRANCH  13  14
ENDBRANCH  12  13
ENDBRANCH  11  12
ENDBRANCH   1  11
TORSDOF 14
ENDMDL
MODEL 9
REMARK VINA RESULT:    -2.299      1.745      2.794
REMARK INTER + INTRA:          -6.166
REMARK INTER:                  -4.097
REMARK INTRA:                  -2.069
REMARK UNBOUND:                -1.985
REMARK SMILES CCCCCCCCCCCCCCCC(=O)[O-]
REMARK SMILES IDX 9 1 10 2 11 3 12 4 13 5 14 6 15 7 16 8 17 9 18 10 8 11 7 12
REMARK SMILES IDX 6 13 5 14 4 15 3 16 2 17 1 18
REMARK H PARENT
REMARK Flexibility Score: inf
ROOT
ATOM      1  C   UNL     1      31.166  13.122  21.790  1.00  0.00     0.000 C 
ENDROOT
BRANCH   1   2
ATOM      2  C   UNL     1      31.980  13.884  20.727  1.00  0.00     0.000 C 
BRANCH   2   3
ATOM      3  C   UNL     1      31.190  14.939  19.931  1.00  0.00     0.000 C 
BRANCH   3   4
ATOM      4  C   UNL     1      31.047  14.583  18.442  1.00  0.00     0.000 C 
BRANCH   4   5
ATOM      5  C   UNL     1      29.625  14.122  18.081  1.00  0.00     0.000 C 
BRANCH   5   6
ATOM      6  C   UNL     1      28.805  15.219  17.381  1.00  0.00     0.006 C 
BRANCH   6   7
ATOM      7  C   UNL     1      29.669  16.425  16.986  1.00  0.00     0.053 C 
BRANCH   7   8
ATOM      8  C   UNL     1      29.961  16.441  15.516  1.00  0.00     0.041 C 
ATOM      9  O   UNL     1      29.184  17.034  14.723  1.00  0.00    -0.550 OA
ATOM     10  O   UNL     1      31.110  15.831  15.028  1.00  0.00    -0.550 OA
ENDBRANCH   7   8
ENDBRANCH   6   7
ENDBRANCH   5   6
ENDBRANCH   4   5
ENDBRANCH   3   4
ENDBRANCH   2   3
ENDBRANCH   1   2
BRANCH   1  11
ATOM     11  C   UNL     1      30.482  11.864  21.235  1.00  0.00     0.000 C 
BRANCH  11  12
ATOM     12  C   UNL     1      29.046  11.744  21.758  1.00  0.00    -0.000 C 
BRANCH  12  13
ATOM     13  C   UNL     1      28.030  11.880  20.618  1.00  0.00    -0.000 C 
BRANCH  13  14
ATOM     14  C   UNL     1      26.877  12.812  21.016  1.00  0.00    -0.000 C 
BRANCH  14  15
ATOM     15  C   UNL     1      27.337  14.005  21.875  1.00  0.00    -0.000 C 
BRANCH  15  16
ATOM     16  C   UNL     1      27.790  15.242  21.080  1.00  0.00    -0.000 C 
BRANCH  16  17
ATOM     17  C   UNL     1      27.813  16.523  21.926  1.00  0.00    -0.003 C 
ATOM     18  C   UNL     1      29.242  16.910  22.298  1.00  0.00     0.004 C 
ENDBRANCH  16  17
ENDBRANCH  15  16
ENDBRANCH  14  15
ENDBRANCH  13  14
ENDBRANCH  12  13
ENDBRANCH  11  12
ENDBRANCH   1  11
TORSDOF 14
ENDMDL
