MODEL 1
REMARK VINA RESULT:    -2.901      0.000      0.000
REMARK INTER + INTRA:          -8.200
REMARK INTER:                  -5.615
REMARK INTRA:                  -2.585
REMARK UNBOUND:                -2.585
REMARK SMILES CCCCCCCCCCCCCCCCCC(=O)[O-]
REMARK SMILES IDX 10 1 11 2 12 3 13 4 14 5 15 6 16 7 17 8 18 9 19 10 20 11
REMARK SMILES IDX 9 12 8 13 7 14 6 15 5 16 4 17 3 18 2 19 1 20
REMARK H PARENT
REMARK Flexibility Score: inf
ROOT
ATOM      1  C   UNL     1      -0.410   2.354   7.482  1.00  0.00     0.000 C 
ENDROOT
BRANCH   1   2
ATOM      2  C   UNL     1      -1.945   2.465   7.574  1.00  0.00     0.000 C 
BRANCH   2   3
ATOM      3  C   UNL     1      -2.671   1.180   8.018  1.00  0.00     0.000 C 
BRANCH   3   4
ATOM      4  C   UNL     1      -3.295   0.361   6.873  1.00  0.00     0.000 C 
BRANCH   4   5
ATOM      5  C   UNL     1      -2.874  -1.118   6.903  1.00  0.00     0.000 C 
BRANCH   5   6
ATOM      6  C   UNL     1      -3.949  -2.026   7.519  1.00  0.00     0.000 C 
BRANCH   6   7
ATOM      7  C   UNL     1      -4.399  -3.143   6.560  1.00  0.00     0.006 C 
BRANCH   7   8
ATOM      8  C   UNL     1      -3.825  -2.960   5.149  1.00  0.00     0.053 C 
BRANCH   8   9
ATOM      9  C   UNL     1      -4.873  -2.511   4.177  1.00  0.00     0.041 C 
ATOM     10  O   UNL     1      -5.431  -1.392   4.319  1.00  0.00    -0.550 OA
ATOM     11  O   UNL     1      -5.251  -3.342   3.130  1.00  0.00    -0.550 OA
ENDBRANCH   8   9
ENDBRANCH   7   8
ENDBRANCH   6   7
ENDBRANCH   5   6
ENDBRANCH   4   5
ENDBRANCH   3   4
ENDBRANCH   2   3
ENDBRANCH   1   2
BRANCH   1  12
ATOM     12  C   UNL     1       0.115   1.456   6.345  1.00  0.00     0.000 C 
BRANCH  12  13
ATOM     13  C   UNL     1       1.096   0.381   6.839  1.00  0.00    -0.000 C 
BRANCH  13  14
ATOM     14  C   UNL     1       1.042   0.176   8.364  1.00  0.00    -0.000 C 
BRANCH  14  15
ATOM     15  C   UNL     1       0.376  -1.136   8.830  1.00  0.00    -0.000 C 
BRANCH  15  16
ATOM     16  C   UNL     1       1.351  -2.264   9.210  1.00  0.00    -0.000 C 
BRANCH  16  17
ATOM     17  C   UNL     1       1.113  -3.554   8.409  1.00  0.00    -0.000 C 
BRANCH  17  18
ATOM     18  C   UNL     1       0.134  -3.310   7.254  1.00  0.00    -0.000 C 
BRANCH  18  19
ATOM     19  C   UNL     1      -0.972  -4.370   7.237  1.00  0.00    -0.003 C 
ATOM     20  C   UNL     1      -1.403  -4.740   8.653  1.00  0.00     0.004 C 
ENDBRANCH  18  19
ENDBRANCH  17  18
ENDBRANCH  16  17
ENDBRANCH  15  16
ENDBRANCH  14  15
ENDBRANCH  13  14
ENDBRANCH  12  13
ENDBRANCH   1  12
TORSDOF 16
ENDMDL
MODEL 2
REMARK VINA RESULT:    -2.893      1.179      4.448
REMARK INTER + INTRA:          -8.183
REMARK INTER:                  -5.672
REMARK INTRA:                  -2.512
REMARK UNBOUND:                -2.585
REMARK SMILES CCCCCCCCCCCCCCCCCC(=O)[O-]
REMARK SMILES IDX 10 1 11 2 12 3 13 4 14 5 15 6 16 7 17 8 18 9 19 10 20 11
REMARK SMILES IDX 9 12 8 13 7 14 6 15 5 16 4 17 3 18 2 19 1 20
REMARK H PARENT
REMARK Flexibility Score: inf
ROOT
ATOM      1  C   UNL     1       0.916  -2.892   8.452  1.00  0.00     0.000 C 
ENDROOT
BRANCH   1   2
ATOM      2  C   UNL     1       0.261  -3.682   7.302  1.00  0.00     0.000 C 
BRANCH   2   3
ATOM      3  C   UNL     1      -0.948  -4.549   7.705  1.00  0.00     0.000 C 
BRANCH   3   4
ATOM      4  C   UNL     1      -2.315  -4.000   7.260  1.00  0.00     0.000 C 
BRANCH   4   5
ATOM      5  C   UNL     1      -3.005  -3.167   8.354  1.00  0.00     0.000 C 
BRANCH   5   6
ATOM      6  C   UNL     1      -3.175  -1.693   7.955  1.00  0.00     0.000 C 
BRANCH   6   7
ATOM      7  C   UNL     1      -3.178  -1.491   6.429  1.00  0.00     0.006 C 
BRANCH   7   8
ATOM      8  C   UNL     1      -4.585  -1.216   5.884  1.00  0.00     0.053 C 
BRANCH   8   9
ATOM      9  C   UNL     1      -4.923  -2.120   4.737  1.00  0.00     0.041 C 
ATOM     10  O   UNL     1      -6.055  -2.054   4.190  1.00  0.00    -0.550 OA
ATOM     11  O   UNL     1      -3.996  -3.054   4.293  1.00  0.00    -0.550 OA
ENDBRANCH   8   9
ENDBRANCH   7   8
ENDBRANCH   6   7
ENDBRANCH   5   6
ENDBRANCH   4   5
ENDBRANCH   3   4
ENDBRANCH   2   3
ENDBRANCH   1   2
BRANCH   1  12
ATOM     12  C   UNL     1       0.712  -1.367   8.398  1.00  0.00     0.000 C 
BRANCH  12  13
ATOM     13  C   UNL     1       0.278  -0.872   7.009  1.00  0.00    -0.000 C 
BRANCH  13  14
ATOM     14  C   UNL     1       1.034   0.391   6.560  1.00  0.00    -0.000 C 
BRANCH  14  15
ATOM     15  C   UNL     1       0.237   1.709   6.661  1.00  0.00    -0.000 C 
BRANCH  15  16
ATOM     16  C   UNL     1       0.183   2.333   8.067  1.00  0.00    -0.000 C 
BRANCH  16  17
ATOM     17  C   UNL     1      -1.166   2.107   8.768  1.00  0.00    -0.000 C 
BRANCH  17  18
ATOM     18  C   UNL     1      -2.266   2.963   8.131  1.00  0.00    -0.000 C 
BRANCH  18  19
ATOM     19  C   UNL     1      -3.319   2.085   7.447  1.00  0.00    -0.003 C 
ATOM     20  C   UNL     1      -3.372   2.355   5.946  1.00  0.00     0.004 C 
ENDBRANCH  18  19
ENDBRANCH  17  18
ENDBRANCH  16  17
ENDBRANCH  15  16
ENDBRANCH  14  15
ENDBRANCH  13  14
ENDBRANCH  12  13
ENDBRANCH   1  12
TORSDOF 16
ENDMDL
MODEL 3
REMARK VINA RESULT:    -2.832      1.809      2.513
REMARK INTER + INTRA:          -8.066
REMARK INTER:                  -5.837
REMARK INTRA:                  -2.229
REMARK UNBOUND:                -2.585
REMARK SMILES CCCCCCCCCCCCCCCCCC(=O)[O-]
REMARK SMILES IDX 10 1 11 2 12 3 13 4 14 5 15 6 16 7 17 8 18 9 19 10 20 11
REMARK SMILES IDX 9 12 8 13 7 14 6 15 5 16 4 17 3 18 2 19 1 20
REMARK H PARENT
REMARK Flexibility Score: inf
ROOT
ATOM      1  C   UNL     1      -0.077   1.584   6.370  1.00  0.00     0.000 C 
ENDROOT
BRANCH   1   2
ATOM      2  C   UNL     1      -0.340   2.389   7.659  1.00  0.00     0.000 C 
BRANCH   2   3
ATOM      3  C   UNL     1      -1.758   2.246   8.245  1.00  0.00     0.000 C 
BRANCH   3   4
ATOM      4  C   UNL     1      -2.888   2.204   7.201  1.00  0.00     0.000 C 
BRANCH   4   5
ATOM      5  C   UNL     1      -3.718   0.911   7.275  1.00  0.00     0.000 C 
BRANCH   5   6
ATOM      6  C   UNL     1      -3.183  -0.076   8.324  1.00  0.00     0.000 C 
BRANCH   6   7
ATOM      7  C   UNL     1      -3.195  -1.532   7.826  1.00  0.00     0.006 C 
BRANCH   7   8
ATOM      8  C   UNL     1      -3.139  -1.620   6.295  1.00  0.00     0.053 C 
BRANCH   8   9
ATOM      9  C   UNL     1      -3.572  -2.966   5.800  1.00  0.00     0.041 C 
ATOM     10  O   UNL     1      -3.549  -3.962   6.569  1.00  0.00    -0.550 OA
ATOM     11  O   UNL     1      -3.976  -3.124   4.481  1.00  0.00    -0.550 OA
ENDBRANCH   8   9
ENDBRANCH   7   8
ENDBRANCH   6   7
ENDBRANCH   5   6
ENDBRANCH   4   5
ENDBRANCH   3   4
ENDBRANCH   2   3
ENDBRANCH   1   2
BRANCH   1  12
ATOM     12  C   UNL     1       0.987   0.477   6.495  1.00  0.00     0.000 C 
BRANCH  12  13
ATOM     13  C   UNL     1       0.389  -0.882   6.894  1.00  0.00    -0.000 C 
BRANCH  13  14
ATOM     14  C   UNL     1       0.677  -1.256   8.359  1.00  0.00    -0.000 C 
BRANCH  14  15
ATOM     15  C   UNL     1       0.418  -2.732   8.727  1.00  0.00    -0.000 C 
BRANCH  15  16
ATOM     16  C   UNL     1      -0.184  -3.590   7.600  1.00  0.00    -0.000 C 
BRANCH  16  17
ATOM     17  C   UNL     1       0.341  -5.034   7.605  1.00  0.00    -0.000 C 
BRANCH  17  18
ATOM     18  C   UNL     1       1.873  -5.062   7.536  1.00  0.00    -0.000 C 
BRANCH  18  19
ATOM     19  C   UNL     1       2.379  -6.442   7.104  1.00  0.00    -0.003 C 
ATOM     20  C   UNL     1       3.506  -6.322   6.083  1.00  0.00     0.004 C 
ENDBRANCH  18  19
ENDBRANCH  17  18
ENDBRANCH  16  17
ENDBRANCH  15  16
ENDBRANCH  14  15
ENDBRANCH  13  14
ENDBRANCH  12  13
ENDBRANCH   1  12
TORSDOF 16
ENDMDL
MODEL 4
REMARK VINA RESULT:    -2.830      1.551      4.116
REMARK INTER + INTRA:          -8.062
REMARK INTER:                  -5.449
REMARK INTRA:                  -2.613
REMARK UNBOUND:                -2.585
REMARK SMILES CCCCCCCCCCCCCCCCCC(=O)[O-]
REMARK SMILES IDX 10 1 11 2 12 3 13 4 14 5 15 6 16 7 17 8 18 9 19 10 20 11
REMARK SMILES IDX 9 12 8 13 7 14 6 15 5 16 4 17 3 18 2 19 1 20
REMARK H PARENT
REMARK Flexibility Score: inf
ROOT
ATOM      1  C   UNL     1       0.246  -0.811   9.957  1.00  0.00     0.000 C 
ENDROOT
BRANCH   1   2
ATOM      2  C   UNL     1      -1.259  -0.476   9.974  1.00  0.00     0.000 C 
BRANCH   2   3
ATOM      3  C   UNL     1      -2.160  -1.462   9.204  1.00  0.00     0.000 C 
BRANCH   3   4
ATOM      4  C   UNL     1      -2.998  -0.827   8.079  1.00  0.00     0.000 C 
BRANCH   4   5
ATOM      5  C   UNL     1      -2.630  -1.368   6.687  1.00  0.00     0.000 C 
BRANCH   5   6
ATOM      6  C   UNL     1      -2.755  -2.896   6.594  1.00  0.00     0.000 C 
BRANCH   6   7
ATOM      7  C   UNL     1      -3.900  -3.340   5.666  1.00  0.00     0.006 C 
BRANCH   7   8
ATOM      8  C   UNL     1      -4.584  -2.149   4.981  1.00  0.00     0.053 C 
BRANCH   8   9
ATOM      9  C   UNL     1      -5.182  -2.535   3.663  1.00  0.00     0.041 C 
ATOM     10  O   UNL     1      -5.417  -3.745   3.404  1.00  0.00    -0.550 OA
ATOM     11  O   UNL     1      -5.453  -1.561   2.711  1.00  0.00    -0.550 OA
ENDBRANCH   8   9
ENDBRANCH   7   8
ENDBRANCH   6   7
ENDBRANCH   5   6
ENDBRANCH   4   5
ENDBRANCH   3   4
ENDBRANCH   2   3
ENDBRANCH   1   2
BRANCH   1  12
ATOM     12  C   UNL     1       0.869  -0.955   8.556  1.00  0.00     0.000 C 
BRANCH  12  13
ATOM     13  C   UNL     1       1.195   0.400   7.906  1.00  0.00    -0.000 C 
BRANCH  13  14
ATOM     14  C   UNL     1       0.732   0.487   6.441  1.00  0.00    -0.000 C 
BRANCH  14  15
ATOM     15  C   UNL     1      -0.409   1.490   6.167  1.00  0.00    -0.000 C 
BRANCH  15  16
ATOM     16  C   UNL     1      -0.922   2.249   7.404  1.00  0.00    -0.000 C 
BRANCH  16  17
ATOM     17  C   UNL     1      -2.339   2.811   7.214  1.00  0.00    -0.000 C 
BRANCH  17  18
ATOM     18  C   UNL     1      -2.919   2.390   5.858  1.00  0.00    -0.000 C 
BRANCH  18  19
ATOM     19  C   UNL     1      -4.328   1.810   6.019  1.00  0.00    -0.003 C 
ATOM     20  C   UNL     1      -5.072   1.793   4.687  1.00  0.00     0.004 C 
ENDBRANCH  18  19
ENDBRANCH  17  18
ENDBRANCH  16  17
ENDBRANCH  15  16
ENDBRANCH  14  15
ENDBRANCH  13  14
ENDBRANCH  12  13
ENDBRANCH   1  12
TORSDOF 16
ENDMDL
MODEL 5
REMARK VINA RESULT:    -2.807      2.056      3.801
REMARK INTER + INTRA:          -8.018
REMARK INTER:                  -5.406
REMARK INTRA:                  -2.612
REMARK UNBOUND:                -2.585
REMARK SMILES CCCCCCCCCCCCCCCCCC(=O)[O-]
REMARK SMILES IDX 10 1 11 2 12 3 13 4 14 5 15 6 16 7 17 8 18 9 19 10 20 11
REMARK SMILES IDX 9 12 8 13 7 14 6 15 5 16 4 17 3 18 2 19 1 20
REMARK H PARENT
REMARK Flexibility Score: inf
ROOT
ATOM      1  C   UNL     1       1.049  -0.506   8.817  1.00  0.00     0.000 C 
ENDROOT
BRANCH   1   2
ATOM      2  C   UNL     1       1.368   0.692   7.899  1.00  0.00     0.000 C 
BRANCH   2   3
ATOM      3  C   UNL     1       0.953   0.519   6.425  1.00  0.00     0.000 C 
BRANCH   3   4
ATOM      4  C   UNL     1      -0.374   1.201   6.044  1.00  0.00     0.000 C 
BRANCH   4   5
ATOM      5  C   UNL     1      -0.775   2.312   7.029  1.00  0.00     0.000 C 
BRANCH   5   6
ATOM      6  C   UNL     1      -2.252   2.228   7.445  1.00  0.00     0.000 C 
BRANCH   6   7
ATOM      7  C   UNL     1      -3.098   1.407   6.456  1.00  0.00     0.006 C 
BRANCH   7   8
ATOM      8  C   UNL     1      -4.084   2.283   5.672  1.00  0.00     0.053 C 
BRANCH   8   9
ATOM      9  C   UNL     1      -5.145   1.464   5.004  1.00  0.00     0.041 C 
ATOM     10  O   UNL     1      -5.255   1.470   3.749  1.00  0.00    -0.550 OA
ATOM     11  O   UNL     1      -6.030   0.715   5.769  1.00  0.00    -0.550 OA
ENDBRANCH   8   9
ENDBRANCH   7   8
ENDBRANCH   6   7
ENDBRANCH   5   6
ENDBRANCH   4   5
ENDBRANCH   3   4
ENDBRANCH   2   3
ENDBRANCH   1   2
BRANCH   1  12
ATOM     12  C   UNL     1      -0.265  -0.390   9.611  1.00  0.00     0.000 C 
BRANCH  12  13
ATOM     13  C   UNL     1      -1.207  -1.584   9.384  1.00  0.00    -0.000 C 
BRANCH  13  14
ATOM     14  C   UNL     1      -1.899  -1.547   8.010  1.00  0.00    -0.000 C 
BRANCH  14  15
ATOM     15  C   UNL     1      -1.770  -2.836   7.171  1.00  0.00    -0.000 C 
BRANCH  15  16
ATOM     16  C   UNL     1      -0.328  -3.307   6.915  1.00  0.00    -0.000 C 
BRANCH  16  17
ATOM     17  C   UNL     1      -0.073  -4.741   7.405  1.00  0.00    -0.000 C 
BRANCH  17  18
ATOM     18  C   UNL     1       0.736  -4.739   8.708  1.00  0.00    -0.000 C 
BRANCH  18  19
ATOM     19  C   UNL     1       2.123  -4.123   8.494  1.00  0.00    -0.003 C 
ATOM     20  C   UNL     1       2.700  -3.597   9.804  1.00  0.00     0.004 C 
ENDBRANCH  18  19
ENDBRANCH  17  18
ENDBRANCH  16  17
ENDBRANCH  15  16
ENDBRANCH  14  15
ENDBRANCH  13  14
ENDBRANCH  12  13
ENDBRANCH   1  12
TORSDOF 16
ENDMDL
MODEL 6
REMARK VINA RESULT:    -2.799     11.201     12.203
REMARK INTER + INTRA:          -8.002
REMARK INTER:                  -5.740
REMARK INTRA:                  -2.262
REMARK UNBOUND:                -2.585
REMARK SMILES CCCCCCCCCCCCCCCCCC(=O)[O-]
REMARK SMILES IDX 10 1 11 2 12 3 13 4 14 5 15 6 16 7 17 8 18 9 19 10 20 11
REMARK SMILES IDX 9 12 8 13 7 14 6 15 5 16 4 17 3 18 2 19 1 20
REMARK H PARENT
REMARK Flexibility Score: inf
ROOT
ATOM      1  C   UNL     1       3.295   8.679   1.842  1.00  0.00     0.000 C 
ENDROOT
BRANCH   1   2
ATOM      2  C   UNL     1       4.716   8.908   1.290  1.00  0.00     0.000 C 
BRANCH   2   3
ATOM      3  C   UNL     1       5.180   7.890   0.230  1.00  0.00     0.000 C 
BRANCH   3   4
ATOM      4  C   UNL     1       4.676   6.453   0.449  1.00  0.00     0.000 C 
BRANCH   4   5
ATOM      5  C   UNL     1       4.125   5.814  -0.838  1.00  0.00     0.000 C 
BRANCH   5   6
ATOM      6  C   UNL     1       2.688   5.296  -0.672  1.00  0.00     0.000 C 
BRANCH   6   7
ATOM      7  C   UNL     1       1.686   6.424  -0.368  1.00  0.00     0.006 C 
BRANCH   7   8
ATOM      8  C   UNL     1       1.764   7.561  -1.395  1.00  0.00     0.053 C 
BRANCH   8   9
ATOM      9  C   UNL     1       1.237   7.138  -2.732  1.00  0.00     0.041 C 
ATOM     10  O   UNL     1       2.024   6.968  -3.700  1.00  0.00    -0.550 OA
ATOM     11  O   UNL     1      -0.128   6.959  -2.916  1.00  0.00    -0.550 OA
ENDBRANCH   8   9
ENDBRANCH   7   8
ENDBRANCH   6   7
ENDBRANCH   5   6
ENDBRANCH   4   5
ENDBRANCH   3   4
ENDBRANCH   2   3
ENDBRANCH   1   2
BRANCH   1  12
ATOM     12  C   UNL     1       3.205   8.515   3.371  1.00  0.00     0.000 C 
BRANCH  12  13
ATOM     13  C   UNL     1       4.526   8.846   4.085  1.00  0.00    -0.000 C 
BRANCH  13  14
ATOM     14  C   UNL     1       5.088   7.658   4.885  1.00  0.00    -0.000 C 
BRANCH  14  15
ATOM     15  C   UNL     1       5.911   6.641   4.066  1.00  0.00    -0.000 C 
BRANCH  15  16
ATOM     16  C   UNL     1       7.341   7.089   3.716  1.00  0.00    -0.000 C 
BRANCH  16  17
ATOM     17  C   UNL     1       7.820   6.552   2.358  1.00  0.00    -0.000 C 
BRANCH  17  18
ATOM     18  C   UNL     1       8.569   5.225   2.525  1.00  0.00    -0.000 C 
BRANCH  18  19
ATOM     19  C   UNL     1       8.017   4.158   1.575  1.00  0.00    -0.003 C 
ATOM     20  C   UNL     1       8.224   2.756   2.140  1.00  0.00     0.004 C 
ENDBRANCH  18  19
ENDBRANCH  17  18
ENDBRANCH  16  17
ENDBRANCH  15  16
ENDBRANCH  14  15
ENDBRANCH  13  14
ENDBRANCH  12  13
ENDBRANCH   1  12
TORSDOF 16
ENDMDL
MODEL 7
REMARK VINA RESULT:    -2.770      1.168      4.224
REMARK INTER + INTRA:          -7.945
REMARK INTER:                  -5.813
REMARK INTRA:                  -2.132
REMARK UNBOUND:                -2.585
REMARK SMILES CCCCCCCCCCCCCCCCCC(=O)[O-]
REMARK SMILES IDX 10 1 11 2 12 3 13 4 14 5 15 6 16 7 17 8 18 9 19 10 20 11
REMARK SMILES IDX 9 12 8 13 7 14 6 15 5 16 4 17 3 18 2 19 1 20
REMARK H PARENT
REMARK Flexibility Score: inf
ROOT
ATOM      1  C   UNL     1       0.173  -1.725   8.439  1.00  0.00     0.000 C 
ENDROOT
BRANCH   1   2
ATOM      2  C   UNL     1       0.035  -2.692   7.246  1.00  0.00     0.000 C 
BRANCH   2   3
ATOM      3  C   UNL     1       0.478  -4.142   7.521  1.00  0.00     0.000 C 
BRANCH   3   4
ATOM      4  C   UNL     1      -0.670  -5.164   7.609  1.00  0.00     0.000 C 
BRANCH   4   5
ATOM      5  C   UNL     1      -2.057  -4.498   7.626  1.00  0.00     0.000 C 
BRANCH   5   6
ATOM      6  C   UNL     1      -3.173  -5.447   7.164  1.00  0.00     0.000 C 
BRANCH   6   7
ATOM      7  C   UNL     1      -4.475  -4.703   6.815  1.00  0.00     0.006 C 
BRANCH   7   8
ATOM      8  C   UNL     1      -4.834  -4.831   5.328  1.00  0.00     0.053 C 
BRANCH   8   9
ATOM      9  C   UNL     1      -5.120  -3.497   4.709  1.00  0.00     0.041 C 
ATOM     10  O   UNL     1      -6.145  -2.848   5.047  1.00  0.00    -0.550 OA
ATOM     11  O   UNL     1      -4.268  -2.984   3.740  1.00  0.00    -0.550 OA
ENDBRANCH   8   9
ENDBRANCH   7   8
ENDBRANCH   6   7
ENDBRANCH   5   6
ENDBRANCH   4   5
ENDBRANCH   3   4
ENDBRANCH   2   3
ENDBRANCH   1   2
BRANCH   1  12
ATOM     12  C   UNL     1       0.828  -0.370   8.110  1.00  0.00     0.000 C 
BRANCH  12  13
ATOM     13  C   UNL     1       0.711   0.004   6.623  1.00  0.00    -0.000 C 
BRANCH  13  14
ATOM     14  C   UNL     1       0.364   1.487   6.405  1.00  0.00    -0.000 C 
BRANCH  14  15
ATOM     15  C   UNL     1      -0.091   2.251   7.666  1.00  0.00    -0.000 C 
BRANCH  15  16
ATOM     16  C   UNL     1      -1.601   2.539   7.746  1.00  0.00    -0.000 C 
BRANCH  16  17
ATOM     17  C   UNL     1      -2.296   2.462   6.378  1.00  0.00    -0.000 C 
BRANCH  17  18
ATOM     18  C   UNL     1      -3.396   1.394   6.381  1.00  0.00    -0.000 C 
BRANCH  18  19
ATOM     19  C   UNL     1      -3.073   0.274   7.376  1.00  0.00    -0.003 C 
ATOM     20  C   UNL     1      -3.184  -1.097   6.717  1.00  0.00     0.004 C 
ENDBRANCH  18  19
ENDBRANCH  17  18
ENDBRANCH  16  17
ENDBRANCH  15  16
ENDBRANCH  14  15
ENDBRANCH  13  14
ENDBRANCH  12  13
ENDBRANCH   1  12
TORSDOF 16
ENDMDL
MODEL 8
REMARK VINA RESULT:    -2.758      2.745      4.437
REMARK INTER + INTRA:          -7.923
REMARK INTER:                  -5.514
REMARK INTRA:                  -2.409
REMARK UNBOUND:                -2.585
REMARK SMILES CCCCCCCCCCCCCCCCCC(=O)[O-]
REMARK SMILES IDX 10 1 11 2 12 3 13 4 14 5 15 6 16 7 17 8 18 9 19 10 20 11
REMARK SMILES IDX 9 12 8 13 7 14 6 15 5 16 4 17 3 18 2 19 1 20
REMARK H PARENT
REMARK Flexibility Score: inf
ROOT
ATOM      1  C   UNL     1       0.086  -1.842   7.133  1.00  0.00     0.000 C 
ENDROOT
BRANCH   1   2
ATOM      2  C   UNL     1      -0.887  -2.947   6.676  1.00  0.00     0.000 C 
BRANCH   2   3
ATOM      3  C   UNL     1      -2.247  -2.967   7.400  1.00  0.00     0.000 C 
BRANCH   3   4
ATOM      4  C   UNL     1      -3.259  -1.919   6.903  1.00  0.00     0.000 C 
BRANCH   4   5
ATOM      5  C   UNL     1      -3.711  -0.956   8.015  1.00  0.00     0.000 C 
BRANCH   5   6
ATOM      6  C   UNL     1      -2.860   0.322   8.071  1.00  0.00     0.000 C 
BRANCH   6   7
ATOM      7  C   UNL     1      -2.535   0.878   6.673  1.00  0.00     0.006 C 
BRANCH   7   8
ATOM      8  C   UNL     1      -1.660   2.136   6.739  1.00  0.00     0.053 C 
BRANCH   8   9
ATOM      9  C   UNL     1      -0.200   1.797   6.744  1.00  0.00     0.041 C 
ATOM     10  O   UNL     1       0.465   1.873   7.811  1.00  0.00    -0.550 OA
ATOM     11  O   UNL     1       0.430   1.425   5.564  1.00  0.00    -0.550 OA
ENDBRANCH   8   9
ENDBRANCH   7   8
ENDBRANCH   6   7
ENDBRANCH   5   6
ENDBRANCH   4   5
ENDBRANCH   3   4
ENDBRANCH   2   3
ENDBRANCH   1   2
BRANCH   1  12
ATOM     12  C   UNL     1       0.122  -1.590   8.652  1.00  0.00     0.000 C 
BRANCH  12  13
ATOM     13  C   UNL     1       1.497  -1.885   9.274  1.00  0.00    -0.000 C 
BRANCH  13  14
ATOM     14  C   UNL     1       1.640  -3.342   9.745  1.00  0.00    -0.000 C 
BRANCH  14  15
ATOM     15  C   UNL     1       3.030  -3.975   9.520  1.00  0.00    -0.000 C 
BRANCH  15  16
ATOM     16  C   UNL     1       3.050  -5.187   8.572  1.00  0.00    -0.000 C 
BRANCH  16  17
ATOM     17  C   UNL     1       1.960  -5.117   7.491  1.00  0.00    -0.000 C 
BRANCH  17  18
ATOM     18  C   UNL     1       1.113  -6.395   7.480  1.00  0.00    -0.000 C 
BRANCH  18  19
ATOM     19  C   UNL     1      -0.220  -6.178   8.204  1.00  0.00    -0.003 C 
ATOM     20  C   UNL     1      -1.219  -7.278   7.860  1.00  0.00     0.004 C 
ENDBRANCH  18  19
ENDBRANCH  17  18
ENDBRANCH  16  17
ENDBRANCH  15  16
ENDBRANCH  14  15
ENDBRANCH  13  14
ENDBRANCH  12  13
ENDBRANCH   1  12
TORSDOF 16
ENDMDL
MODEL 9
REMARK VINA RESULT:    -2.677      1.398      2.946
REMARK INTER + INTRA:          -7.766
REMARK INTER:                  -4.775
REMARK INTRA:                  -2.991
REMARK UNBOUND:                -2.585
REMARK SMILES CCCCCCCCCCCCCCCCCC(=O)[O-]
REMARK SMILES IDX 10 1 11 2 12 3 13 4 14 5 15 6 16 7 17 8 18 9 19 10 20 11
REMARK SMILES IDX 9 12 8 13 7 14 6 15 5 16 4 17 3 18 2 19 1 20
REMARK H PARENT
REMARK Flexibility Score: inf
ROOT
ATOM      1  C   UNL     1       0.589  -0.279   7.141  1.00  0.00     0.000 C 
ENDROOT
BRANCH   1   2
ATOM      2  C   UNL     1       0.297   1.031   6.382  1.00  0.00     0.000 C 
BRANCH   2   3
ATOM      3  C   UNL     1      -0.016   2.250   7.271  1.00  0.00     0.000 C 
BRANCH   3   4
ATOM      4  C   UNL     1      -1.493   2.387   7.684  1.00  0.00     0.000 C 
BRANCH   4   5
ATOM      5  C   UNL     1      -2.400   2.804   6.513  1.00  0.00     0.000 C 
BRANCH   5   6
ATOM      6  C   UNL     1      -3.394   1.703   6.114  1.00  0.00     0.000 C 
BRANCH   6   7
ATOM      7  C   UNL     1      -3.404   0.528   7.108  1.00  0.00     0.006 C 
BRANCH   7   8
ATOM      8  C   UNL     1      -3.034  -0.801   6.437  1.00  0.00     0.053 C 
BRANCH   8   9
ATOM      9  C   UNL     1      -4.237  -1.666   6.216  1.00  0.00     0.041 C 
ATOM     10  O   UNL     1      -4.105  -2.907   6.054  1.00  0.00    -0.550 OA
ATOM     11  O   UNL     1      -5.502  -1.095   6.161  1.00  0.00    -0.550 OA
ENDBRANCH   8   9
ENDBRANCH   7   8
ENDBRANCH   6   7
ENDBRANCH   5   6
ENDBRANCH   4   5
ENDBRANCH   3   4
ENDBRANCH   2   3
ENDBRANCH   1   2
BRANCH   1  12
ATOM     12  C   UNL     1       1.137  -0.100   8.569  1.00  0.00     0.000 C 
BRANCH  12  13
ATOM     13  C   UNL     1       0.422  -0.990   9.599  1.00  0.00    -0.000 C 
BRANCH  13  14
ATOM     14  C   UNL     1      -1.084  -0.694   9.702  1.00  0.00    -0.000 C 
BRANCH  14  15
ATOM     15  C   UNL     1      -2.003  -1.934   9.690  1.00  0.00    -0.000 C 
BRANCH  15  16
ATOM     16  C   UNL     1      -1.277  -3.283   9.546  1.00  0.00    -0.000 C 
BRANCH  16  17
ATOM     17  C   UNL     1      -1.644  -4.023   8.250  1.00  0.00    -0.000 C 
BRANCH  17  18
ATOM     18  C   UNL     1      -0.671  -3.667   7.121  1.00  0.00    -0.000 C 
BRANCH  18  19
ATOM     19  C   UNL     1       0.768  -4.033   7.499  1.00  0.00    -0.003 C 
ATOM     20  C   UNL     1       0.971  -5.546   7.496  1.00  0.00     0.004 C 
ENDBRANCH  18  19
ENDBRANCH  17  18
ENDBRANCH  16  17
ENDBRANCH  15  16
ENDBRANCH  14  15
ENDBRANCH  13  14
ENDBRANCH  12  13
ENDBRANCH   1  12
TORSDOF 16
ENDMDL
