MODEL 1
REMARK VINA RESULT:    -4.555      0.000      0.000
REMARK INTER + INTRA:          -4.980
REMARK INTER:                  -4.955
REMARK INTRA:                  -0.025
REMARK UNBOUND:                -0.025
REMARK SMILES COc1ccccc1O
REMARK SMILES IDX 3 1 4 2 5 3 6 4 7 5 8 6 2 7 1 8 9 9
REMARK H PARENT 9 10
REMARK Flexibility Score: inf
ROOT
ATOM      1  C   UNL     1     -16.630  -6.371  40.264  1.00  0.00     0.160 A 
ATOM      2  C   UNL     1     -15.441  -5.649  40.493  1.00  0.00     0.050 A 
ATOM      3  C   UNL     1     -14.598  -5.321  39.429  1.00  0.00     0.004 A 
ATOM      4  C   UNL     1     -14.928  -5.707  38.129  1.00  0.00     0.004 A 
ATOM      5  C   UNL     1     -16.102  -6.423  37.890  1.00  0.00     0.050 A 
ATOM      6  C   UNL     1     -16.955  -6.757  38.949  1.00  0.00     0.157 A 
ENDROOT
BRANCH   1   7
ATOM      7  O   UNL     1     -17.502  -6.719  41.308  1.00  0.00    -0.493 OA
ATOM      8  C   UNL     1     -17.255  -6.461  42.686  1.00  0.00     0.278 C 
ENDBRANCH   1   7
BRANCH   6   9
ATOM      9  O   UNL     1     -18.121  -7.473  38.675  1.00  0.00    -0.504 OA
ATOM     10  H   UNL     1     -18.288  -8.397  39.054  1.00  0.00     0.293 HD
ENDBRANCH   6   9
TORSDOF 2
ENDMDL
MODEL 2
REMARK VINA RESULT:    -4.471      3.162      4.003
REMARK INTER + INTRA:          -4.888
REMARK INTER:                  -4.843
REMARK INTRA:                  -0.045
REMARK UNBOUND:                -0.025
REMARK SMILES COc1ccccc1O
REMARK SMILES IDX 3 1 4 2 5 3 6 4 7 5 8 6 2 7 1 8 9 9
REMARK H PARENT 9 10
REMARK Flexibility Score: inf
ROOT
ATOM      1  C   UNL     1     -13.930  -6.506  38.125  1.00  0.00     0.160 A 
ATOM      2  C   UNL     1     -13.315  -6.600  39.390  1.00  0.00     0.050 A 
ATOM      3  C   UNL     1     -12.147  -7.348  39.554  1.00  0.00     0.004 A 
ATOM      4  C   UNL     1     -11.581  -8.011  38.464  1.00  0.00     0.004 A 
ATOM      5  C   UNL     1     -12.182  -7.926  37.207  1.00  0.00     0.050 A 
ATOM      6  C   UNL     1     -13.352  -7.179  37.031  1.00  0.00     0.157 A 
ENDROOT
BRANCH   1   7
ATOM      7  O   UNL     1     -15.104  -5.763  37.923  1.00  0.00    -0.493 OA
ATOM      8  C   UNL     1     -16.402  -6.174  38.342  1.00  0.00     0.278 C 
ENDBRANCH   1   7
BRANCH   6   9
ATOM      9  O   UNL     1     -13.927  -7.115  35.761  1.00  0.00    -0.504 OA
ATOM     10  H   UNL     1     -14.742  -7.661  35.510  1.00  0.00     0.293 HD
ENDBRANCH   6   9
TORSDOF 2
ENDMDL
MODEL 3
REMARK VINA RESULT:    -4.457      3.532      4.680
REMARK INTER + INTRA:          -4.874
REMARK INTER:                  -4.847
REMARK INTRA:                  -0.026
REMARK UNBOUND:                -0.025
REMARK SMILES COc1ccccc1O
REMARK SMILES IDX 3 1 4 2 5 3 6 4 7 5 8 6 2 7 1 8 9 9
REMARK H PARENT 9 10
REMARK Flexibility Score: inf
ROOT
ATOM      1  C   UNL     1     -12.883  -7.280  37.670  1.00  0.00     0.160 A 
ATOM      2  C   UNL     1     -12.789  -7.036  39.055  1.00  0.00     0.050 A 
ATOM      3  C   UNL     1     -13.697  -6.181  39.685  1.00  0.00     0.004 A 
ATOM      4  C   UNL     1     -14.705  -5.561  38.944  1.00  0.00     0.004 A 
ATOM      5  C   UNL     1     -14.807  -5.795  37.572  1.00  0.00     0.050 A 
ATOM      6  C   UNL     1     -13.903  -6.650  36.931  1.00  0.00     0.157 A 
ENDROOT
BRANCH   1   7
ATOM      7  O   UNL     1     -11.989  -8.133  37.003  1.00  0.00    -0.493 OA
ATOM      8  C   UNL     1     -11.272  -9.196  37.623  1.00  0.00     0.278 C 
ENDBRANCH   1   7
BRANCH   6   9
ATOM      9  O   UNL     1     -14.034  -6.862  35.558  1.00  0.00    -0.504 OA
ATOM     10  H   UNL     1     -14.925  -6.790  35.084  1.00  0.00     0.293 HD
ENDBRANCH   6   9
TORSDOF 2
ENDMDL
MODEL 4
REMARK VINA RESULT:    -4.217      2.547      3.662
REMARK INTER + INTRA:          -4.612
REMARK INTER:                  -4.568
REMARK INTRA:                  -0.044
REMARK UNBOUND:                -0.025
REMARK SMILES COc1ccccc1O
REMARK SMILES IDX 3 1 4 2 5 3 6 4 7 5 8 6 2 7 1 8 9 9
REMARK H PARENT 9 10
REMARK Flexibility Score: inf
ROOT
ATOM      1  C   UNL     1     -14.526  -5.942  38.538  1.00  0.00     0.160 A 
ATOM      2  C   UNL     1     -14.489  -6.309  37.178  1.00  0.00     0.050 A 
ATOM      3  C   UNL     1     -13.468  -7.132  36.696  1.00  0.00     0.004 A 
ATOM      4  C   UNL     1     -12.475  -7.595  37.560  1.00  0.00     0.004 A 
ATOM      5  C   UNL     1     -12.501  -7.238  38.909  1.00  0.00     0.050 A 
ATOM      6  C   UNL     1     -13.520  -6.414  39.403  1.00  0.00     0.157 A 
ENDROOT
BRANCH   1   7
ATOM      7  O   UNL     1     -15.537  -5.117  39.058  1.00  0.00    -0.493 OA
ATOM      8  C   UNL     1     -16.896  -5.509  39.218  1.00  0.00     0.278 C 
ENDBRANCH   1   7
BRANCH   6   9
ATOM      9  O   UNL     1     -13.516  -6.076  40.757  1.00  0.00    -0.504 OA
ATOM     10  H   UNL     1     -12.988  -5.290  41.115  1.00  0.00     0.293 HD
ENDBRANCH   6   9
TORSDOF 2
ENDMDL
MODEL 5
REMARK VINA RESULT:    -4.188      3.909      5.873
REMARK INTER + INTRA:          -4.581
REMARK INTER:                  -4.541
REMARK INTRA:                  -0.040
REMARK UNBOUND:                -0.025
REMARK SMILES COc1ccccc1O
REMARK SMILES IDX 3 1 4 2 5 3 6 4 7 5 8 6 2 7 1 8 9 9
REMARK H PARENT 9 10
REMARK Flexibility Score: inf
ROOT
ATOM      1  C   UNL     1     -16.783  -8.483  44.284  1.00  0.00     0.160 A 
ATOM      2  C   UNL     1     -15.737  -8.258  45.201  1.00  0.00     0.050 A 
ATOM      3  C   UNL     1     -15.009  -9.331  45.721  1.00  0.00     0.004 A 
ATOM      4  C   UNL     1     -15.315 -10.637  45.335  1.00  0.00     0.004 A 
ATOM      5  C   UNL     1     -16.350 -10.873  44.428  1.00  0.00     0.050 A 
ATOM      6  C   UNL     1     -17.086  -9.805  43.901  1.00  0.00     0.157 A 
ENDROOT
BRANCH   1   7
ATOM      7  O   UNL     1     -17.536  -7.430  43.742  1.00  0.00    -0.493 OA
ATOM      8  C   UNL     1     -17.001  -6.387  42.934  1.00  0.00     0.278 C 
ENDBRANCH   1   7
BRANCH   6   9
ATOM      9  O   UNL     1     -18.114 -10.075  42.997  1.00  0.00    -0.504 OA
ATOM     10  H   UNL     1     -19.086  -9.900  43.218  1.00  0.00     0.293 HD
ENDBRANCH   6   9
TORSDOF 2
ENDMDL
MODEL 6
REMARK VINA RESULT:    -4.156      6.582      7.872
REMARK INTER + INTRA:          -4.546
REMARK INTER:                  -4.520
REMARK INTRA:                  -0.026
REMARK UNBOUND:                -0.025
REMARK SMILES COc1ccccc1O
REMARK SMILES IDX 3 1 4 2 5 3 6 4 7 5 8 6 2 7 1 8 9 9
REMARK H PARENT 9 10
REMARK Flexibility Score: inf
ROOT
ATOM      1  C   UNL     1     -16.352  -9.976  47.013  1.00  0.00     0.160 A 
ATOM      2  C   UNL     1     -15.638 -10.928  46.257  1.00  0.00     0.050 A 
ATOM      3  C   UNL     1     -15.818 -11.012  44.874  1.00  0.00     0.004 A 
ATOM      4  C   UNL     1     -16.710 -10.152  44.231  1.00  0.00     0.004 A 
ATOM      5  C   UNL     1     -17.423  -9.206  44.969  1.00  0.00     0.050 A 
ATOM      6  C   UNL     1     -17.250  -9.113  46.355  1.00  0.00     0.157 A 
ENDROOT
BRANCH   1   7
ATOM      7  O   UNL     1     -16.197  -9.863  48.403  1.00  0.00    -0.493 OA
ATOM      8  C   UNL     1     -15.073 -10.346  49.132  1.00  0.00     0.278 C 
ENDBRANCH   1   7
BRANCH   6   9
ATOM      9  O   UNL     1     -17.979  -8.156  47.062  1.00  0.00    -0.504 OA
ATOM     10  H   UNL     1     -17.547  -7.545  47.744  1.00  0.00     0.293 HD
ENDBRANCH   6   9
TORSDOF 2
ENDMDL
MODEL 7
REMARK VINA RESULT:    -4.119      1.161      2.350
REMARK INTER + INTRA:          -4.506
REMARK INTER:                  -4.483
REMARK INTRA:                  -0.022
REMARK UNBOUND:                -0.025
REMARK SMILES COc1ccccc1O
REMARK SMILES IDX 3 1 4 2 5 3 6 4 7 5 8 6 2 7 1 8 9 9
REMARK H PARENT 9 10
REMARK Flexibility Score: inf
ROOT
ATOM      1  C   UNL     1     -16.620  -6.127  39.995  1.00  0.00     0.160 A 
ATOM      2  C   UNL     1     -16.753  -6.249  38.596  1.00  0.00     0.050 A 
ATOM      3  C   UNL     1     -15.635  -6.123  37.767  1.00  0.00     0.004 A 
ATOM      4  C   UNL     1     -14.378  -5.874  38.319  1.00  0.00     0.004 A 
ATOM      5  C   UNL     1     -14.234  -5.751  39.702  1.00  0.00     0.050 A 
ATOM      6  C   UNL     1     -15.347  -5.875  40.542  1.00  0.00     0.157 A 
ENDROOT
BRANCH   1   7
ATOM      7  O   UNL     1     -17.719  -6.247  40.859  1.00  0.00    -0.493 OA
ATOM      8  C   UNL     1     -18.124  -7.459  41.487  1.00  0.00     0.278 C 
ENDBRANCH   1   7
BRANCH   6   9
ATOM      9  O   UNL     1     -15.168  -5.746  41.920  1.00  0.00    -0.504 OA
ATOM     10  H   UNL     1     -14.326  -5.351  42.320  1.00  0.00     0.293 HD
ENDBRANCH   6   9
TORSDOF 2
ENDMDL
MODEL 8
REMARK VINA RESULT:    -4.096      5.106      7.602
REMARK INTER + INTRA:          -4.480
REMARK INTER:                  -4.436
REMARK INTRA:                  -0.045
REMARK UNBOUND:                -0.025
REMARK SMILES COc1ccccc1O
REMARK SMILES IDX 3 1 4 2 5 3 6 4 7 5 8 6 2 7 1 8 9 9
REMARK H PARENT 9 10
REMARK Flexibility Score: inf
ROOT
ATOM      1  C   UNL     1     -16.581  -9.362  45.182  1.00  0.00     0.160 A 
ATOM      2  C   UNL     1     -15.676 -10.442  45.235  1.00  0.00     0.050 A 
ATOM      3  C   UNL     1     -15.404 -11.075  46.450  1.00  0.00     0.004 A 
ATOM      4  C   UNL     1     -16.026 -10.641  47.622  1.00  0.00     0.004 A 
ATOM      5  C   UNL     1     -16.923  -9.572  47.581  1.00  0.00     0.050 A 
ATOM      6  C   UNL     1     -17.203  -8.930  46.369  1.00  0.00     0.157 A 
ENDROOT
BRANCH   1   7
ATOM      7  O   UNL     1     -16.879  -8.701  43.979  1.00  0.00    -0.493 OA
ATOM      8  C   UNL     1     -17.865  -9.129  43.046  1.00  0.00     0.278 C 
ENDBRANCH   1   7
BRANCH   6   9
ATOM      9  O   UNL     1     -18.104  -7.864  46.363  1.00  0.00    -0.504 OA
ATOM     10  H   UNL     1     -18.990  -7.911  45.877  1.00  0.00     0.293 HD
ENDBRANCH   6   9
TORSDOF 2
ENDMDL
MODEL 9
REMARK VINA RESULT:    -4.020      3.532      4.828
REMARK INTER + INTRA:          -4.398
REMARK INTER:                  -4.372
REMARK INTRA:                  -0.026
REMARK UNBOUND:                -0.025
REMARK SMILES COc1ccccc1O
REMARK SMILES IDX 3 1 4 2 5 3 6 4 7 5 8 6 2 7 1 8 9 9
REMARK H PARENT 9 10
REMARK Flexibility Score: inf
ROOT
ATOM      1  C   UNL     1     -12.709  -7.317  38.330  1.00  0.00     0.160 A 
ATOM      2  C   UNL     1     -13.203  -7.268  37.011  1.00  0.00     0.050 A 
ATOM      3  C   UNL     1     -14.305  -6.468  36.699  1.00  0.00     0.004 A 
ATOM      4  C   UNL     1     -14.924  -5.710  37.694  1.00  0.00     0.004 A 
ATOM      5  C   UNL     1     -14.444  -5.751  39.004  1.00  0.00     0.050 A 
ATOM      6  C   UNL     1     -13.341  -6.550  39.328  1.00  0.00     0.157 A 
ENDROOT
BRANCH   1   7
ATOM      7  O   UNL     1     -11.605  -8.111  38.681  1.00  0.00    -0.493 OA
ATOM      8  C   UNL     1     -11.150  -9.236  37.936  1.00  0.00     0.278 C 
ENDBRANCH   1   7
BRANCH   6   9
ATOM      9  O   UNL     1     -12.887  -6.568  40.647  1.00  0.00    -0.504 OA
ATOM     10  H   UNL     1     -13.518  -6.654  41.434  1.00  0.00     0.293 HD
ENDBRANCH   6   9
TORSDOF 2
ENDMDL
