MODEL 1
REMARK VINA RESULT:    -3.903      0.000      0.000
REMARK INTER + INTRA:          -4.189
REMARK INTER:                  -4.816
REMARK INTRA:                   0.627
REMARK UNBOUND:                 0.627
REMARK SMILES C=C1[C@H]2CC[C@@H]3[C@H]2C(C)(C)CCC[C@]13C
REMARK SMILES IDX 14 1 6 2 7 3 3 4 2 5 1 6 4 7 5 8 15 9 8 10 9 11 10 12 11 13
REMARK SMILES IDX 13 15 12 16
REMARK H PARENT
REMARK Flexibility Score: 80.00
ROOT
ATOM      1  C   UNL     1       3.229  -2.020  14.920  1.00  0.00    -0.008 C 
ATOM      2  C   UNL     1       2.215  -3.229  14.863  1.00  0.00     0.003 C 
ATOM      3  C   UNL     1       1.222  -2.961  16.015  1.00  0.00     0.006 C 
ATOM      4  C   UNL     1       0.921  -1.535  15.554  1.00  0.00     0.019 C 
ATOM      5  C   UNL     1       2.299  -0.946  15.426  1.00  0.00    -0.068 C 
ATOM      6  C   UNL     1       2.610   0.337  15.642  1.00  0.00     0.009 C 
ATOM      7  C   UNL     1       0.417  -1.791  14.113  1.00  0.00     0.008 C 
ATOM      8  C   UNL     1       1.237  -3.030  13.672  1.00  0.00     0.005 C 
ATOM      9  C   UNL     1       3.809  -1.632  13.533  1.00  0.00     0.016 C 
ENDROOT
BRANCH   3  10
ATOM     10  C   UNL     1       1.662  -3.230  17.518  1.00  0.00    -0.032 C 
ATOM     11  C   UNL     1       0.966  -4.536  17.991  1.00  0.00     0.011 C 
ATOM     12  C   UNL     1       1.164  -2.109  18.466  1.00  0.00     0.011 C 
BRANCH  10  13
ATOM     13  C   UNL     1       3.184  -3.480  17.722  1.00  0.00     0.007 CG0
ATOM     14  G   UNL     1       4.104  -2.319  17.357  1.00  0.00     0.000 G0
ENDBRANCH  10  13
ENDBRANCH   3  10
BRANCH   1  15
ATOM     15  C   UNL     1       4.429  -2.288  15.866  1.00  0.00     0.011 C 
BRANCH  15  16
ATOM     16  C   UNL     1       4.110  -2.327  17.358  1.00  0.00     0.001 CG0
ATOM     17  G   UNL     1       3.179  -3.480  17.724  1.00  0.00     0.000 G0
ENDBRANCH  15  16
ENDBRANCH   1  15
TORSDOF 0
ENDMDL
MODEL 2
REMARK VINA RESULT:    -3.854      1.368      3.163
REMARK INTER + INTRA:          -4.128
REMARK INTER:                  -4.760
REMARK INTRA:                   0.633
REMARK UNBOUND:                 0.627
REMARK SMILES C=C1[C@H]2CC[C@@H]3[C@H]2C(C)(C)CCC[C@]13C
REMARK SMILES IDX 14 1 6 2 7 3 3 4 2 5 1 6 4 7 5 8 15 9 8 10 9 11 10 12 11 13
REMARK SMILES IDX 13 15 12 16
REMARK H PARENT
REMARK Flexibility Score: 80.00
ROOT
ATOM      1  C   UNL     1       1.008  -1.315  15.836  1.00  0.00    -0.008 C 
ATOM      2  C   UNL     1       2.456  -0.768  16.149  1.00  0.00     0.003 C 
ATOM      3  C   UNL     1       3.279  -2.025  16.503  1.00  0.00     0.006 C 
ATOM      4  C   UNL     1       2.873  -2.769  15.231  1.00  0.00     0.019 C 
ATOM      5  C   UNL     1       1.374  -2.662  15.267  1.00  0.00    -0.068 C 
ATOM      6  C   UNL     1       0.526  -3.579  14.787  1.00  0.00     0.009 C 
ATOM      7  C   UNL     1       3.359  -1.781  14.144  1.00  0.00     0.008 C 
ATOM      8  C   UNL     1       3.169  -0.399  14.819  1.00  0.00     0.005 C 
ATOM      9  C   UNL     1       0.239  -0.468  14.786  1.00  0.00     0.016 C 
ENDROOT
BRANCH   3  10
ATOM     10  C   UNL     1       3.093  -2.721  17.920  1.00  0.00    -0.032 C 
ATOM     11  C   UNL     1       4.333  -2.371  18.788  1.00  0.00     0.011 C 
ATOM     12  C   UNL     1       3.075  -4.266  17.797  1.00  0.00     0.011 C 
BRANCH  10  13
ATOM     13  C   UNL     1       1.867  -2.224  18.739  1.00  0.00     0.007 CG0
ATOM     14  G   UNL     1       0.499  -2.485  18.115  1.00  0.00     0.000 G0
ENDBRANCH  10  13
ENDBRANCH   3  10
BRANCH   1  15
ATOM     15  C   UNL     1       0.114  -1.406  17.102  1.00  0.00     0.011 C 
BRANCH  15  16
ATOM     16  C   UNL     1       0.501  -2.476  18.118  1.00  0.00     0.001 CG0
ATOM     17  G   UNL     1       1.867  -2.216  18.747  1.00  0.00     0.000 G0
ENDBRANCH  15  16
ENDBRANCH   1  15
TORSDOF 0
ENDMDL
MODEL 3
REMARK VINA RESULT:    -3.744      2.909      5.074
REMARK INTER + INTRA:          -3.992
REMARK INTER:                  -4.622
REMARK INTRA:                   0.630
REMARK UNBOUND:                 0.627
REMARK SMILES C=C1[C@H]2CC[C@@H]3[C@H]2C(C)(C)CCC[C@]13C
REMARK SMILES IDX 14 1 6 2 7 3 3 4 2 5 1 6 4 7 5 8 15 9 8 10 9 11 10 12 11 13
REMARK SMILES IDX 13 15 12 16
REMARK H PARENT
REMARK Flexibility Score: 80.00
ROOT
ATOM      1  C   UNL     1       0.997  -3.160  20.068  1.00  0.00    -0.008 C 
ATOM      2  C   UNL     1       1.977  -2.381  19.105  1.00  0.00     0.003 C 
ATOM      3  C   UNL     1       3.055  -3.417  18.723  1.00  0.00     0.006 C 
ATOM      4  C   UNL     1       2.033  -4.465  18.282  1.00  0.00     0.019 C 
ATOM      5  C   UNL     1       1.124  -4.542  19.477  1.00  0.00    -0.068 C 
ATOM      6  C   UNL     1       0.474  -5.641  19.880  1.00  0.00     0.009 C 
ATOM      7  C   UNL     1       1.261  -3.682  17.193  1.00  0.00     0.008 C 
ATOM      8  C   UNL     1       1.313  -2.222  17.709  1.00  0.00     0.005 C 
ATOM      9  C   UNL     1      -0.473  -2.665  19.991  1.00  0.00     0.016 C 
ENDROOT
BRANCH   3  10
ATOM     10  C   UNL     1       4.185  -3.807  19.771  1.00  0.00    -0.032 C 
ATOM     11  C   UNL     1       5.505  -3.122  19.323  1.00  0.00     0.011 C 
ATOM     12  C   UNL     1       4.466  -5.331  19.764  1.00  0.00     0.011 C 
BRANCH  10  13
ATOM     13  C   UNL     1       3.935  -3.305  21.222  1.00  0.00     0.007 CG0
ATOM     14  G   UNL     1       2.705  -3.875  21.922  1.00  0.00     0.000 G0
ENDBRANCH  10  13
ENDBRANCH   3  10
BRANCH   1  15
ATOM     15  C   UNL     1       1.433  -3.087  21.555  1.00  0.00     0.011 C 
BRANCH  15  16
ATOM     16  C   UNL     1       2.699  -3.857  21.920  1.00  0.00     0.001 CG0
ATOM     17  G   UNL     1       3.940  -3.301  21.228  1.00  0.00     0.000 G0
ENDBRANCH  15  16
ENDBRANCH   1  15
TORSDOF 0
ENDMDL
MODEL 4
REMARK VINA RESULT:    -3.728      2.245      4.563
REMARK INTER + INTRA:          -3.973
REMARK INTER:                  -4.612
REMARK INTRA:                   0.638
REMARK UNBOUND:                 0.627
REMARK SMILES C=C1[C@H]2CC[C@@H]3[C@H]2C(C)(C)CCC[C@]13C
REMARK SMILES IDX 14 1 6 2 7 3 3 4 2 5 1 6 4 7 5 8 15 9 8 10 9 11 10 12 11 13
REMARK SMILES IDX 13 15 12 16
REMARK H PARENT
REMARK Flexibility Score: 80.00
ROOT
ATOM      1  C   UNL     1       1.359  -2.633  15.316  1.00  0.00    -0.008 C 
ATOM      2  C   UNL     1       2.922  -2.742  15.113  1.00  0.00     0.003 C 
ATOM      3  C   UNL     1       3.278  -1.559  14.188  1.00  0.00     0.006 C 
ATOM      4  C   UNL     1       2.572  -0.529  15.070  1.00  0.00     0.019 C 
ATOM      5  C   UNL     1       1.206  -1.136  15.233  1.00  0.00    -0.068 C 
ATOM      6  C   UNL     1       0.069  -0.445  15.372  1.00  0.00     0.009 C 
ATOM      7  C   UNL     1       3.310  -0.737  16.414  1.00  0.00     0.008 C 
ATOM      8  C   UNL     1       3.645  -2.250  16.397  1.00  0.00     0.005 C 
ATOM      9  C   UNL     1       0.875  -3.158  16.695  1.00  0.00     0.016 C 
ENDROOT
BRANCH   3  10
ATOM     10  C   UNL     1       2.940  -1.636  12.637  1.00  0.00    -0.032 C 
ATOM     11  C   UNL     1       4.270  -1.875  11.872  1.00  0.00     0.011 C 
ATOM     12  C   UNL     1       2.375  -0.292  12.110  1.00  0.00     0.011 C 
BRANCH  10  13
ATOM     13  C   UNL     1       2.013  -2.816  12.226  1.00  0.00     0.007 CG0
ATOM     14  G   UNL     1       0.605  -2.794  12.814  1.00  0.00     0.000 G0
ENDBRANCH  10  13
ENDBRANCH   3  10
BRANCH   1  15
ATOM     15  C   UNL     1       0.559  -3.393  14.224  1.00  0.00     0.011 C 
BRANCH  15  16
ATOM     16  C   UNL     1       0.607  -2.794  12.821  1.00  0.00     0.001 CG0
ATOM     17  G   UNL     1       2.012  -2.818  12.226  1.00  0.00     0.000 G0
ENDBRANCH  15  16
ENDBRANCH   1  15
TORSDOF 0
ENDMDL
MODEL 5
REMARK VINA RESULT:    -3.709      1.712      3.162
REMARK INTER + INTRA:          -3.949
REMARK INTER:                  -4.579
REMARK INTRA:                   0.629
REMARK UNBOUND:                 0.627
REMARK SMILES C=C1[C@H]2CC[C@@H]3[C@H]2C(C)(C)CCC[C@]13C
REMARK SMILES IDX 14 1 6 2 7 3 3 4 2 5 1 6 4 7 5 8 15 9 8 10 9 11 10 12 11 13
REMARK SMILES IDX 13 15 12 16
REMARK H PARENT
REMARK Flexibility Score: 80.00
ROOT
ATOM      1  C   UNL     1       3.283  -2.099  14.634  1.00  0.00    -0.008 C 
ATOM      2  C   UNL     1       2.824  -2.716  13.255  1.00  0.00     0.003 C 
ATOM      3  C   UNL     1       1.458  -2.059  12.969  1.00  0.00     0.006 C 
ATOM      4  C   UNL     1       1.989  -0.639  13.166  1.00  0.00     0.019 C 
ATOM      5  C   UNL     1       2.653  -0.734  14.512  1.00  0.00    -0.068 C 
ATOM      6  C   UNL     1       2.739   0.263  15.399  1.00  0.00     0.009 C 
ATOM      7  C   UNL     1       3.125  -0.601  12.116  1.00  0.00     0.008 C 
ATOM      8  C   UNL     1       3.635  -2.065  12.101  1.00  0.00     0.005 C 
ATOM      9  C   UNL     1       4.825  -1.979  14.778  1.00  0.00     0.016 C 
ENDROOT
BRANCH   3  10
ATOM     10  C   UNL     1       0.166  -2.537  13.762  1.00  0.00    -0.032 C 
ATOM     11  C   UNL     1      -0.693  -3.398  12.796  1.00  0.00     0.011 C 
ATOM     12  C   UNL     1      -0.723  -1.338  14.177  1.00  0.00     0.011 C 
BRANCH  10  13
ATOM     13  C   UNL     1       0.451  -3.455  14.986  1.00  0.00     0.007 CG0
ATOM     14  G   UNL     1       1.261  -2.826  16.116  1.00  0.00     0.000 G0
ENDBRANCH  10  13
ENDBRANCH   3  10
BRANCH   1  15
ATOM     15  C   UNL     1       2.766  -2.906  15.855  1.00  0.00     0.011 C 
BRANCH  15  16
ATOM     16  C   UNL     1       1.264  -2.834  16.117  1.00  0.00     0.001 CG0
ATOM     17  G   UNL     1       0.446  -3.456  14.990  1.00  0.00     0.000 G0
ENDBRANCH  15  16
ENDBRANCH   1  15
TORSDOF 0
ENDMDL
MODEL 6
REMARK VINA RESULT:    -3.623      2.456      4.259
REMARK INTER + INTRA:          -3.843
REMARK INTER:                  -4.473
REMARK INTRA:                   0.629
REMARK UNBOUND:                 0.627
REMARK SMILES C=C1[C@H]2CC[C@@H]3[C@H]2C(C)(C)CCC[C@]13C
REMARK SMILES IDX 14 1 6 2 7 3 3 4 2 5 1 6 4 7 5 8 15 9 8 10 9 11 10 12 11 13
REMARK SMILES IDX 13 15 12 16
REMARK H PARENT
REMARK Flexibility Score: 80.00
ROOT
ATOM      1  C   UNL     1       2.232  -0.976  14.412  1.00  0.00    -0.008 C 
ATOM      2  C   UNL     1       0.671  -0.735  14.409  1.00  0.00     0.003 C 
ATOM      3  C   UNL     1       0.059  -2.149  14.322  1.00  0.00     0.006 C 
ATOM      4  C   UNL     1       0.867  -2.679  15.507  1.00  0.00     0.019 C 
ATOM      5  C   UNL     1       2.272  -2.305  15.122  1.00  0.00    -0.068 C 
ATOM      6  C   UNL     1       3.368  -3.000  15.445  1.00  0.00     0.009 C 
ATOM      7  C   UNL     1       0.438  -1.693  16.620  1.00  0.00     0.008 C 
ATOM      8  C   UNL     1       0.200  -0.373  15.844  1.00  0.00     0.005 C 
ATOM      9  C   UNL     1       3.023   0.096  15.210  1.00  0.00     0.016 C 
ENDROOT
BRANCH   3  10
ATOM     10  C   UNL     1       0.072  -2.936  12.941  1.00  0.00    -0.032 C 
ATOM     11  C   UNL     1      -1.370  -2.908  12.364  1.00  0.00     0.011 C 
ATOM     12  C   UNL     1       0.428  -4.431  13.141  1.00  0.00     0.011 C 
BRANCH  10  13
ATOM     13  C   UNL     1       0.967  -2.305  11.836  1.00  0.00     0.007 CG0
ATOM     14  G   UNL     1       2.462  -2.255  12.137  1.00  0.00     0.000 G0
ENDBRANCH  10  13
ENDBRANCH   3  10
BRANCH   1  15
ATOM     15  C   UNL     1       2.834  -1.026  12.982  1.00  0.00     0.011 C 
BRANCH  15  16
ATOM     16  C   UNL     1       2.458  -2.243  12.140  1.00  0.00     0.001 CG0
ATOM     17  G   UNL     1       0.963  -2.304  11.841  1.00  0.00     0.000 G0
ENDBRANCH  15  16
ENDBRANCH   1  15
TORSDOF 0
ENDMDL
MODEL 7
REMARK VINA RESULT:    -3.612      3.958      6.342
REMARK INTER + INTRA:          -3.830
REMARK INTER:                  -4.458
REMARK INTRA:                   0.627
REMARK UNBOUND:                 0.627
REMARK SMILES C=C1[C@H]2CC[C@@H]3[C@H]2C(C)(C)CCC[C@]13C
REMARK SMILES IDX 14 1 6 2 7 3 3 4 2 5 1 6 4 7 5 8 15 9 8 10 9 11 10 12 11 13
REMARK SMILES IDX 13 15 12 16
REMARK H PARENT
REMARK Flexibility Score: 80.00
ROOT
ATOM      1  C   UNL     1       1.847  -4.018  22.301  1.00  0.00    -0.008 C 
ATOM      2  C   UNL     1       1.564  -3.069  21.071  1.00  0.00     0.003 C 
ATOM      3  C   UNL     1       2.329  -3.716  19.896  1.00  0.00     0.006 C 
ATOM      4  C   UNL     1       1.697  -5.091  20.114  1.00  0.00     0.019 C 
ATOM      5  C   UNL     1       1.962  -5.333  21.574  1.00  0.00    -0.068 C 
ATOM      6  C   UNL     1       2.172  -6.533  22.129  1.00  0.00     0.009 C 
ATOM      7  C   UNL     1       0.193  -4.747  19.991  1.00  0.00     0.008 C 
ATOM      8  C   UNL     1       0.118  -3.306  20.556  1.00  0.00     0.005 C 
ATOM      9  C   UNL     1       0.685  -4.061  23.331  1.00  0.00     0.016 C 
ENDROOT
BRANCH   3  10
ATOM     10  C   UNL     1       3.910  -3.577  19.807  1.00  0.00    -0.032 C 
ATOM     11  C   UNL     1       4.234  -2.547  18.691  1.00  0.00     0.011 C 
ATOM     12  C   UNL     1       4.574  -4.908  19.373  1.00  0.00     0.011 C 
BRANCH  10  13
ATOM     13  C   UNL     1       4.592  -3.020  21.090  1.00  0.00     0.007 CG0
ATOM     14  G   UNL     1       4.453  -3.877  22.345  1.00  0.00     0.000 G0
ENDBRANCH  10  13
ENDBRANCH   3  10
BRANCH   1  15
ATOM     15  C   UNL     1       3.136  -3.630  23.075  1.00  0.00     0.011 C 
BRANCH  15  16
ATOM     16  C   UNL     1       4.454  -3.880  22.347  1.00  0.00     0.001 CG0
ATOM     17  G   UNL     1       4.599  -3.021  21.094  1.00  0.00     0.000 G0
ENDBRANCH  15  16
ENDBRANCH   1  15
TORSDOF 0
ENDMDL
MODEL 8
REMARK VINA RESULT:    -3.599      2.939      4.893
REMARK INTER + INTRA:          -3.814
REMARK INTER:                  -4.451
REMARK INTRA:                   0.637
REMARK UNBOUND:                 0.627
REMARK SMILES C=C1[C@H]2CC[C@@H]3[C@H]2C(C)(C)CCC[C@]13C
REMARK SMILES IDX 14 1 6 2 7 3 3 4 2 5 1 6 4 7 5 8 15 9 8 10 9 11 10 12 11 13
REMARK SMILES IDX 13 15 12 16
REMARK H PARENT
REMARK Flexibility Score: 80.00
ROOT
ATOM      1  C   UNL     1       0.455  -1.436  14.543  1.00  0.00    -0.008 C 
ATOM      2  C   UNL     1       0.763  -2.922  14.979  1.00  0.00     0.003 C 
ATOM      3  C   UNL     1       1.148  -3.641  13.669  1.00  0.00     0.006 C 
ATOM      4  C   UNL     1       2.199  -2.597  13.290  1.00  0.00     0.019 C 
ATOM      5  C   UNL     1       1.421  -1.315  13.392  1.00  0.00    -0.068 C 
ATOM      6  C   UNL     1       1.627  -0.228  12.639  1.00  0.00     0.009 C 
ATOM      7  C   UNL     1       3.126  -2.649  14.527  1.00  0.00     0.008 C 
ATOM      8  C   UNL     1       2.147  -2.979  15.683  1.00  0.00     0.005 C 
ATOM      9  C   UNL     1       0.778  -0.388  15.642  1.00  0.00     0.016 C 
ENDROOT
BRANCH   3  10
ATOM     10  C   UNL     1       0.020  -4.044  12.624  1.00  0.00    -0.032 C 
ATOM     11  C   UNL     1      -0.195  -5.579  12.725  1.00  0.00     0.011 C 
ATOM     12  C   UNL     1       0.468  -3.765  11.167  1.00  0.00     0.011 C 
BRANCH  10  13
ATOM     13  C   UNL     1      -1.378  -3.416  12.895  1.00  0.00     0.007 CG0
ATOM     14  G   UNL     1      -1.447  -1.892  12.836  1.00  0.00     0.000 G0
ENDBRANCH  10  13
ENDBRANCH   3  10
BRANCH   1  15
ATOM     15  C   UNL     1      -1.026  -1.228  14.126  1.00  0.00     0.011 C 
BRANCH  15  16
ATOM     16  C   UNL     1      -1.455  -1.898  12.824  1.00  0.00     0.001 CG0
ATOM     17  G   UNL     1      -1.368  -3.419  12.895  1.00  0.00     0.000 G0
ENDBRANCH  15  16
ENDBRANCH   1  15
TORSDOF 0
ENDMDL
MODEL 9
REMARK VINA RESULT:    -3.572     13.143     15.034
REMARK INTER + INTRA:          -3.780
REMARK INTER:                  -4.415
REMARK INTRA:                   0.635
REMARK UNBOUND:                 0.627
REMARK SMILES C=C1[C@H]2CC[C@@H]3[C@H]2C(C)(C)CCC[C@]13C
REMARK SMILES IDX 14 1 6 2 7 3 3 4 2 5 1 6 4 7 5 8 15 9 8 10 9 11 10 12 11 13
REMARK SMILES IDX 13 15 12 16
REMARK H PARENT
REMARK Flexibility Score: 80.00
ROOT
ATOM      1  C   UNL     1      13.719  -0.247  26.175  1.00  0.00    -0.008 C 
ATOM      2  C   UNL     1      12.607  -1.349  25.966  1.00  0.00     0.003 C 
ATOM      3  C   UNL     1      11.336  -0.746  26.601  1.00  0.00     0.006 C 
ATOM      4  C   UNL     1      11.443   0.560  25.813  1.00  0.00     0.019 C 
ATOM      5  C   UNL     1      12.855   0.987  26.100  1.00  0.00    -0.068 C 
ATOM      6  C   UNL     1      13.274   2.256  26.180  1.00  0.00     0.009 C 
ATOM      7  C   UNL     1      11.430   0.028  24.360  1.00  0.00     0.008 C 
ATOM      8  C   UNL     1      12.143  -1.342  24.483  1.00  0.00     0.005 C 
ATOM      9  C   UNL     1      14.795  -0.231  25.055  1.00  0.00     0.016 C 
ENDROOT
BRANCH   3  10
ATOM     10  C   UNL     1      11.183  -0.705  28.182  1.00  0.00    -0.032 C 
ATOM     11  C   UNL     1      10.165  -1.805  28.591  1.00  0.00     0.011 C 
ATOM     12  C   UNL     1      10.579   0.640  28.661  1.00  0.00     0.011 C 
BRANCH  10  13
ATOM     13  C   UNL     1      12.481  -1.033  28.976  1.00  0.00     0.007 CG0
ATOM     14  G   UNL     1      13.643  -0.064  28.781  1.00  0.00     0.000 G0
ENDBRANCH  10  13
ENDBRANCH   3  10
BRANCH   1  15
ATOM     15  C   UNL     1      14.462  -0.393  27.529  1.00  0.00     0.011 C 
BRANCH  15  16
ATOM     16  C   UNL     1      13.648  -0.068  28.778  1.00  0.00     0.001 CG0
ATOM     17  G   UNL     1      12.478  -1.027  28.977  1.00  0.00     0.000 G0
ENDBRANCH  15  16
ENDBRANCH   1  15
TORSDOF 0
ENDMDL
