MODEL 1
REMARK VINA RESULT:    -2.826      0.000      0.000
REMARK INTER + INTRA:          -3.308
REMARK INTER:                  -3.239
REMARK INTRA:                  -0.069
REMARK UNBOUND:                -0.069
REMARK SMILES COc1cc(C=O)ccc1O
REMARK SMILES IDX 3 1 10 2 9 3 8 4 5 5 4 6 2 7 1 8 11 9 6 11 7 12
REMARK H PARENT 11 10
REMARK Flexibility Score: inf
ROOT
ATOM      1  C   UNL     1     128.921 124.373 116.978  1.00  0.00     0.161 A 
ATOM      2  C   UNL     1     128.726 124.291 115.587  1.00  0.00     0.157 A 
ATOM      3  C   UNL     1     128.163 125.366 114.893  1.00  0.00     0.051 A 
ATOM      4  C   UNL     1     127.790 126.528 115.571  1.00  0.00     0.015 A 
ATOM      5  C   UNL     1     127.976 126.628 116.959  1.00  0.00     0.018 A 
ATOM      6  C   UNL     1     128.542 125.550 117.657  1.00  0.00     0.062 A 
ENDROOT
BRANCH   1   7
ATOM      7  O   UNL     1     129.490 123.278 117.649  1.00  0.00    -0.493 OA
ATOM      8  C   UNL     1     128.745 122.234 118.267  1.00  0.00     0.278 C 
ENDBRANCH   1   7
BRANCH   2   9
ATOM      9  O   UNL     1     129.088 123.147 114.876  1.00  0.00    -0.504 OA
ATOM     10  H   UNL     1     128.446 122.376 114.730  1.00  0.00     0.293 HD
ENDBRANCH   2   9
BRANCH   5  11
ATOM     11  C   UNL     1     127.588 127.848 117.693  1.00  0.00     0.260 C 
ATOM     12  O   UNL     1     126.377 128.169 117.827  1.00  0.00    -0.298 OA
ENDBRANCH   5  11
TORSDOF 3
ENDMDL
MODEL 2
REMARK VINA RESULT:    -2.794     13.719     15.107
REMARK INTER + INTRA:          -3.271
REMARK INTER:                  -3.200
REMARK INTRA:                  -0.071
REMARK UNBOUND:                -0.069
REMARK SMILES COc1cc(C=O)ccc1O
REMARK SMILES IDX 3 1 10 2 9 3 8 4 5 5 4 6 2 7 1 8 11 9 6 11 7 12
REMARK H PARENT 11 10
REMARK Flexibility Score: inf
ROOT
ATOM      1  C   UNL     1     114.652 128.937 116.982  1.00  0.00     0.161 A 
ATOM      2  C   UNL     1     114.729 128.728 115.593  1.00  0.00     0.157 A 
ATOM      3  C   UNL     1     113.650 128.163 114.908  1.00  0.00     0.051 A 
ATOM      4  C   UNL     1     112.488 127.802 115.592  1.00  0.00     0.015 A 
ATOM      5  C   UNL     1     112.393 128.002 116.978  1.00  0.00     0.018 A 
ATOM      6  C   UNL     1     113.476 128.570 117.668  1.00  0.00     0.062 A 
ENDROOT
BRANCH   1   7
ATOM      7  O   UNL     1     115.751 129.507 117.644  1.00  0.00    -0.493 OA
ATOM      8  C   UNL     1     116.776 128.764 118.296  1.00  0.00     0.278 C 
ENDBRANCH   1   7
BRANCH   2   9
ATOM      9  O   UNL     1     115.873 129.077 114.875  1.00  0.00    -0.504 OA
ATOM     10  H   UNL     1     115.956 129.960 114.385  1.00  0.00     0.293 HD
ENDBRANCH   2   9
BRANCH   5  11
ATOM     11  C   UNL     1     111.173 127.627 117.719  1.00  0.00     0.260 C 
ATOM     12  O   UNL     1     110.896 126.419 117.946  1.00  0.00    -0.298 OA
ENDBRANCH   5  11
TORSDOF 3
ENDMDL
MODEL 3
REMARK VINA RESULT:    -2.662     17.015     17.342
REMARK INTER + INTRA:          -3.120
REMARK INTER:                  -3.047
REMARK INTRA:                  -0.073
REMARK UNBOUND:                -0.069
REMARK SMILES COc1cc(C=O)ccc1O
REMARK SMILES IDX 3 1 10 2 9 3 8 4 5 5 4 6 2 7 1 8 11 9 6 11 7 12
REMARK H PARENT 11 10
REMARK Flexibility Score: inf
ROOT
ATOM      1  C   UNL     1     111.906 117.830 116.923  1.00  0.00     0.161 A 
ATOM      2  C   UNL     1     111.626 118.059 115.563  1.00  0.00     0.157 A 
ATOM      3  C   UNL     1     112.280 119.085 114.876  1.00  0.00     0.051 A 
ATOM      4  C   UNL     1     113.215 119.890 115.528  1.00  0.00     0.015 A 
ATOM      5  C   UNL     1     113.507 119.678 116.885  1.00  0.00     0.018 A 
ATOM      6  C   UNL     1     112.851 118.647 117.577  1.00  0.00     0.062 A 
ENDROOT
BRANCH   1   7
ATOM      7  O   UNL     1     111.234 116.792 117.588  1.00  0.00    -0.493 OA
ATOM      8  C   UNL     1     110.083 116.969 118.408  1.00  0.00     0.278 C 
ENDBRANCH   1   7
BRANCH   2   9
ATOM      9  O   UNL     1     110.699 117.274 114.877  1.00  0.00    -0.504 OA
ATOM     10  H   UNL     1     110.532 116.303 115.113  1.00  0.00     0.293 HD
ENDBRANCH   2   9
BRANCH   5  11
ATOM     11  C   UNL     1     114.492 120.518 117.592  1.00  0.00     0.260 C 
ATOM     12  O   UNL     1     114.123 121.439 118.369  1.00  0.00    -0.298 OA
ENDBRANCH   5  11
TORSDOF 3
ENDMDL
MODEL 4
REMARK VINA RESULT:    -2.660      4.005      6.118
REMARK INTER + INTRA:          -3.118
REMARK INTER:                  -3.052
REMARK INTRA:                  -0.066
REMARK UNBOUND:                -0.069
REMARK SMILES COc1cc(C=O)ccc1O
REMARK SMILES IDX 3 1 10 2 9 3 8 4 5 5 4 6 2 7 1 8 11 9 6 11 7 12
REMARK H PARENT 11 10
REMARK Flexibility Score: inf
ROOT
ATOM      1  C   UNL     1     127.211 121.305 116.933  1.00  0.00     0.161 A 
ATOM      2  C   UNL     1     127.476 121.088 115.569  1.00  0.00     0.157 A 
ATOM      3  C   UNL     1     126.827 120.057 114.883  1.00  0.00     0.051 A 
ATOM      4  C   UNL     1     125.912 119.235 115.543  1.00  0.00     0.015 A 
ATOM      5  C   UNL     1     125.636 119.435 116.905  1.00  0.00     0.018 A 
ATOM      6  C   UNL     1     126.287 120.470 117.595  1.00  0.00     0.062 A 
ENDROOT
BRANCH   1   7
ATOM      7  O   UNL     1     127.878 122.348 117.596  1.00  0.00    -0.493 OA
ATOM      8  C   UNL     1     129.106 122.203 118.301  1.00  0.00     0.278 C 
ENDBRANCH   1   7
BRANCH   2   9
ATOM      9  O   UNL     1     128.383 121.890 114.875  1.00  0.00    -0.504 OA
ATOM     10  H   UNL     1     128.371 121.971 113.865  1.00  0.00     0.293 HD
ENDBRANCH   2   9
BRANCH   5  11
ATOM     11  C   UNL     1     124.672 118.577 117.620  1.00  0.00     0.260 C 
ATOM     12  O   UNL     1     125.065 117.655 118.385  1.00  0.00    -0.298 OA
ENDBRANCH   5  11
TORSDOF 3
ENDMDL
MODEL 5
REMARK VINA RESULT:    -2.650      8.909     10.431
REMARK INTER + INTRA:          -3.106
REMARK INTER:                  -3.034
REMARK INTRA:                  -0.073
REMARK UNBOUND:                -0.069
REMARK SMILES COc1cc(C=O)ccc1O
REMARK SMILES IDX 3 1 10 2 9 3 8 4 5 5 4 6 2 7 1 8 11 9 6 11 7 12
REMARK H PARENT 11 10
REMARK Flexibility Score: inf
ROOT
ATOM      1  C   UNL     1     117.846 127.172 116.939  1.00  0.00     0.161 A 
ATOM      2  C   UNL     1     118.066 127.429 115.573  1.00  0.00     0.157 A 
ATOM      3  C   UNL     1     119.087 126.760 114.890  1.00  0.00     0.051 A 
ATOM      4  C   UNL     1     119.893 125.834 115.553  1.00  0.00     0.015 A 
ATOM      5  C   UNL     1     119.689 125.565 116.916  1.00  0.00     0.018 A 
ATOM      6  C   UNL     1     118.664 126.236 117.604  1.00  0.00     0.062 A 
ENDROOT
BRANCH   1   7
ATOM      7  O   UNL     1     116.814 127.858 117.599  1.00  0.00    -0.493 OA
ATOM      8  C   UNL     1     116.996 129.034 118.381  1.00  0.00     0.278 C 
ENDBRANCH   1   7
BRANCH   2   9
ATOM      9  O   UNL     1     117.280 128.347 114.877  1.00  0.00    -0.504 OA
ATOM     10  H   UNL     1     117.617 128.832 114.053  1.00  0.00     0.293 HD
ENDBRANCH   2   9
BRANCH   5  11
ATOM     11  C   UNL     1     120.531 124.590 117.634  1.00  0.00     0.260 C 
ATOM     12  O   UNL     1     121.436 124.969 118.425  1.00  0.00    -0.298 OA
ENDBRANCH   5  11
TORSDOF 3
ENDMDL
MODEL 6
REMARK VINA RESULT:    -2.642     14.678     15.066
REMARK INTER + INTRA:          -3.097
REMARK INTER:                  -3.029
REMARK INTRA:                  -0.068
REMARK UNBOUND:                -0.069
REMARK SMILES COc1cc(C=O)ccc1O
REMARK SMILES IDX 3 1 10 2 9 3 8 4 5 5 4 6 2 7 1 8 11 9 6 11 7 12
REMARK H PARENT 11 10
REMARK Flexibility Score: inf
ROOT
ATOM      1  C   UNL     1     121.188 112.044 116.915  1.00  0.00     0.161 A 
ATOM      2  C   UNL     1     120.945 111.752 115.560  1.00  0.00     0.157 A 
ATOM      3  C   UNL     1     119.917 112.406 114.876  1.00  0.00     0.051 A 
ATOM      4  C   UNL     1     119.123 113.352 115.526  1.00  0.00     0.015 A 
ATOM      5  C   UNL     1     119.349 113.656 116.878  1.00  0.00     0.018 A 
ATOM      6  C   UNL     1     120.382 113.000 117.567  1.00  0.00     0.062 A 
ENDROOT
BRANCH   1   7
ATOM      7  O   UNL     1     122.227 111.372 117.578  1.00  0.00    -0.493 OA
ATOM      8  C   UNL     1     122.066 110.174 118.329  1.00  0.00     0.278 C 
ENDBRANCH   1   7
BRANCH   2   9
ATOM      9  O   UNL     1     121.718 110.813 114.877  1.00  0.00    -0.504 OA
ATOM     10  H   UNL     1     122.258 110.103 115.358  1.00  0.00     0.293 HD
ENDBRANCH   2   9
BRANCH   5  11
ATOM     11  C   UNL     1     118.521 114.653 117.583  1.00  0.00     0.260 C 
ATOM     12  O   UNL     1     117.681 114.302 118.453  1.00  0.00    -0.298 OA
ENDBRANCH   5  11
TORSDOF 3
ENDMDL
MODEL 7
REMARK VINA RESULT:    -2.571     17.054     17.681
REMARK INTER + INTRA:          -3.016
REMARK INTER:                  -2.963
REMARK INTRA:                  -0.052
REMARK UNBOUND:                -0.069
REMARK SMILES COc1cc(C=O)ccc1O
REMARK SMILES IDX 3 1 10 2 9 3 8 4 5 5 4 6 2 7 1 8 11 9 6 11 7 12
REMARK H PARENT 11 10
REMARK Flexibility Score: inf
ROOT
ATOM      1  C   UNL     1     111.652 118.441 116.287  1.00  0.00     0.161 A 
ATOM      2  C   UNL     1     112.381 119.613 116.017  1.00  0.00     0.157 A 
ATOM      3  C   UNL     1     113.382 120.035 116.897  1.00  0.00     0.051 A 
ATOM      4  C   UNL     1     113.667 119.301 118.049  1.00  0.00     0.015 A 
ATOM      5  C   UNL     1     112.949 118.129 118.336  1.00  0.00     0.018 A 
ATOM      6  C   UNL     1     111.944 117.703 117.452  1.00  0.00     0.062 A 
ENDROOT
BRANCH   1   7
ATOM      7  O   UNL     1     110.653 118.041 115.385  1.00  0.00    -0.493 OA
ATOM      8  C   UNL     1     109.875 116.856 115.513  1.00  0.00     0.278 C 
ENDBRANCH   1   7
BRANCH   2   9
ATOM      9  O   UNL     1     112.126 120.374 114.875  1.00  0.00    -0.504 OA
ATOM     10  H   UNL     1     111.843 121.345 114.925  1.00  0.00     0.293 HD
ENDBRANCH   2   9
BRANCH   5  11
ATOM     11  C   UNL     1     113.235 117.338 119.548  1.00  0.00     0.260 C 
ATOM     12  O   UNL     1     114.391 116.889 119.774  1.00  0.00    -0.298 OA
ENDBRANCH   5  11
TORSDOF 3
ENDMDL
MODEL 8
REMARK VINA RESULT:    -2.564      4.050      5.568
REMARK INTER + INTRA:          -3.008
REMARK INTER:                  -2.949
REMARK INTRA:                  -0.059
REMARK UNBOUND:                -0.069
REMARK SMILES COc1cc(C=O)ccc1O
REMARK SMILES IDX 3 1 10 2 9 3 8 4 5 5 4 6 2 7 1 8 11 9 6 11 7 12
REMARK H PARENT 11 10
REMARK Flexibility Score: inf
ROOT
ATOM      1  C   UNL     1     127.253 120.791 116.380  1.00  0.00     0.161 A 
ATOM      2  C   UNL     1     126.754 119.514 116.066  1.00  0.00     0.157 A 
ATOM      3  C   UNL     1     125.892 118.860 116.951  1.00  0.00     0.051 A 
ATOM      4  C   UNL     1     125.518 119.466 118.152  1.00  0.00     0.015 A 
ATOM      5  C   UNL     1     126.007 120.740 118.483  1.00  0.00     0.018 A 
ATOM      6  C   UNL     1     126.873 121.398 117.595  1.00  0.00     0.062 A 
ENDROOT
BRANCH   1   7
ATOM      7  O   UNL     1     128.117 121.424 115.472  1.00  0.00    -0.493 OA
ATOM      8  C   UNL     1     129.320 122.095 115.834  1.00  0.00     0.278 C 
ENDBRANCH   1   7
BRANCH   2   9
ATOM      9  O   UNL     1     127.104 118.877 114.875  1.00  0.00    -0.504 OA
ATOM     10  H   UNL     1     128.059 118.854 114.535  1.00  0.00     0.293 HD
ENDBRANCH   2   9
BRANCH   5  11
ATOM     11  C   UNL     1     125.624 121.397 119.747  1.00  0.00     0.260 C 
ATOM     12  O   UNL     1     125.361 122.629 119.787  1.00  0.00    -0.298 OA
ENDBRANCH   5  11
TORSDOF 3
ENDMDL
MODEL 9
REMARK VINA RESULT:    -2.475     13.817     15.169
REMARK INTER + INTRA:          -2.905
REMARK INTER:                  -2.830
REMARK INTRA:                  -0.075
REMARK UNBOUND:                -0.069
REMARK SMILES COc1cc(C=O)ccc1O
REMARK SMILES IDX 3 1 10 2 9 3 8 4 5 5 4 6 2 7 1 8 11 9 6 11 7 12
REMARK H PARENT 11 10
REMARK Flexibility Score: inf
ROOT
ATOM      1  C   UNL     1     118.987 114.060 117.352  1.00  0.00     0.161 A 
ATOM      2  C   UNL     1     118.912 115.061 116.367  1.00  0.00     0.157 A 
ATOM      3  C   UNL     1     119.553 114.884 115.137  1.00  0.00     0.051 A 
ATOM      4  C   UNL     1     120.271 113.716 114.875  1.00  0.00     0.015 A 
ATOM      5  C   UNL     1     120.358 112.706 115.846  1.00  0.00     0.018 A 
ATOM      6  C   UNL     1     119.714 112.882 117.082  1.00  0.00     0.062 A 
ENDROOT
BRANCH   1   7
ATOM      7  O   UNL     1     118.333 114.265 118.578  1.00  0.00    -0.493 OA
ATOM      8  C   UNL     1     117.111 113.639 118.957  1.00  0.00     0.278 C 
ENDBRANCH   1   7
BRANCH   2   9
ATOM      9  O   UNL     1     118.203 116.242 116.592  1.00  0.00    -0.504 OA
ATOM     10  H   UNL     1     117.199 116.301 116.469  1.00  0.00     0.293 HD
ENDBRANCH   2   9
BRANCH   5  11
ATOM     11  C   UNL     1     121.111 111.465 115.588  1.00  0.00     0.260 C 
ATOM     12  O   UNL     1     120.930 110.435 116.292  1.00  0.00    -0.298 OA
ENDBRANCH   5  11
TORSDOF 3
ENDMDL
