MODEL 1
REMARK VINA RESULT:    17.640      0.000      0.000
REMARK INTER + INTRA:          27.763
REMARK INTER:                  26.921
REMARK INTRA:                   0.842
REMARK UNBOUND:                 0.842
REMARK SMILES CC1=CCC[C@H](C)C(=O)C[C@@H](C(C)C)C(=O)C1
REMARK SMILES IDX 8 1 9 2 6 3 7 4 5 5 4 6 3 7 2 8 1 9 10 11 11 12 15 13 16 14
REMARK SMILES IDX 17 15 12 17 13 18 14 19
REMARK H PARENT
REMARK Flexibility Score: 70.00
ROOT
ATOM      1  C   UNL     1      35.898  13.532  42.690  1.00  0.00     0.136 C 
ATOM      2  O   UNL     1      36.994  13.421  42.156  1.00  0.00    -0.299 OA
ENDROOT
BRANCH   1   3
ATOM      3  C   UNL     1      35.694  14.571  43.775  1.00  0.00     0.053 C 
ATOM      4  C   UNL     1      36.934  15.472  43.854  1.00  0.00     0.016 C 
BRANCH   3   5
ATOM      5  C   UNL     1      34.418  15.405  43.504  1.00  0.00     0.015 C 
BRANCH   5   6
ATOM      6  C   UNL     1      34.644  16.808  42.887  1.00  0.00     0.028 C 
BRANCH   6   7
ATOM      7  C   UNL     1      33.917  17.130  41.597  1.00  0.00    -0.028 C 
ATOM      8  C   UNL     1      34.062  16.479  40.420  1.00  0.00    -0.070 CG0
ATOM      9  C   UNL     1      33.509  17.134  39.180  1.00  0.00     0.039 C 
ATOM     10  G   UNL     1      34.861  15.202  40.278  1.00  0.00     0.000 G0
ENDBRANCH   6   7
ENDBRANCH   5   6
ENDBRANCH   3   5
ENDBRANCH   1   3
BRANCH   1  11
ATOM     11  C   UNL     1      34.794  12.578  42.316  1.00  0.00     0.087 C 
BRANCH  11  12
ATOM     12  C   UNL     1      34.452  12.564  40.799  1.00  0.00     0.066 C 
BRANCH  12  13
ATOM     13  C   UNL     1      34.049  13.925  40.210  1.00  0.00     0.140 C 
ATOM     14  O   UNL     1      33.017  13.964  39.556  1.00  0.00    -0.299 OA
BRANCH  13  15
ATOM     15  C   UNL     1      34.862  15.208  40.256  1.00  0.00     0.106 CG0
ATOM     16  G   UNL     1      34.055  16.477  40.420  1.00  0.00     0.000 G0
ENDBRANCH  13  15
ENDBRANCH  12  13
BRANCH  12  17
ATOM     17  C   UNL     1      33.416  11.436  40.459  1.00  0.00    -0.006 C 
ATOM     18  C   UNL     1      32.432  11.191  41.619  1.00  0.00     0.008 C 
ATOM     19  C   UNL     1      34.091  10.100  40.097  1.00  0.00     0.008 C 
ENDBRANCH  12  17
ENDBRANCH  11  12
ENDBRANCH   1  11
TORSDOF 1
ENDMDL
