MODEL 1
REMARK VINA RESULT:    -5.043      0.000      0.000
REMARK INTER + INTRA:         -11.556
REMARK INTER:                  -8.875
REMARK INTRA:                  -2.681
REMARK UNBOUND:                -2.681
REMARK SMILES CCCCCCC=CCCCCCCCC(=O)[O-]
REMARK SMILES IDX 10 1 11 2 12 3 13 4 14 5 15 6 16 7 17 8 18 9 9 10 8 11 7 12
REMARK SMILES IDX 6 13 5 14 4 15 3 16 2 17 1 18
REMARK H PARENT
REMARK Flexibility Score: inf
ROOT
ATOM      1  C   UNL     1       5.171  46.365  26.051  1.00  0.00     0.004 C 
ENDROOT
BRANCH   1   2
ATOM      2  C   UNL     1       5.784  47.763  26.241  1.00  0.00     0.000 C 
BRANCH   2   3
ATOM      3  C   UNL     1       5.884  48.610  24.956  1.00  0.00     0.000 C 
BRANCH   3   4
ATOM      4  C   UNL     1       6.845  49.810  25.037  1.00  0.00     0.000 C 
BRANCH   4   5
ATOM      5  C   UNL     1       7.430  50.200  23.672  1.00  0.00     0.006 C 
BRANCH   5   6
ATOM      6  C   UNL     1       7.160  49.113  22.628  1.00  0.00     0.053 C 
BRANCH   6   7
ATOM      7  C   UNL     1       8.235  49.108  21.587  1.00  0.00     0.041 C 
ATOM      8  O   UNL     1       8.057  48.506  20.496  1.00  0.00    -0.550 OA
ATOM      9  O   UNL     1       9.414  49.810  21.803  1.00  0.00    -0.550 OA
ENDBRANCH   6   7
ENDBRANCH   5   6
ENDBRANCH   4   5
ENDBRANCH   3   4
ENDBRANCH   2   3
ENDBRANCH   1   2
BRANCH   1  10
ATOM     10  C   UNL     1       4.370  46.239  24.747  1.00  0.00     0.027 C 
BRANCH  10  11
ATOM     11  C   UNL     1       4.569  44.879  24.128  1.00  0.00    -0.031 C 
ATOM     12  C   UNL     1       5.516  44.585  23.218  1.00  0.00    -0.031 C 
BRANCH  12  13
ATOM     13  C   UNL     1       6.464  45.590  22.609  1.00  0.00     0.027 C 
BRANCH  13  14
ATOM     14  C   UNL     1       7.922  45.096  22.621  1.00  0.00     0.004 C 
BRANCH  14  15
ATOM     15  C   UNL     1       8.894  46.013  23.385  1.00  0.00     0.000 C 
BRANCH  15  16
ATOM     16  C   UNL     1       8.712  45.939  24.908  1.00  0.00    -0.000 C 
BRANCH  16  17
ATOM     17  C   UNL     1       9.332  47.162  25.596  1.00  0.00    -0.003 C 
ATOM     18  C   UNL     1      10.306  47.882  24.667  1.00  0.00     0.004 C 
ENDBRANCH  16  17
ENDBRANCH  15  16
ENDBRANCH  14  15
ENDBRANCH  13  14
ENDBRANCH  12  13
ENDBRANCH  10  11
ENDBRANCH   1  10
TORSDOF 13
ENDMDL
MODEL 2
REMARK VINA RESULT:    -4.930      2.839      4.478
REMARK INTER + INTRA:         -11.357
REMARK INTER:                  -9.255
REMARK INTRA:                  -2.102
REMARK UNBOUND:                -2.681
REMARK SMILES CCCCCCC=CCCCCCCCC(=O)[O-]
REMARK SMILES IDX 10 1 11 2 12 3 13 4 14 5 15 6 16 7 17 8 18 9 9 10 8 11 7 12
REMARK SMILES IDX 6 13 5 14 4 15 3 16 2 17 1 18
REMARK H PARENT
REMARK Flexibility Score: inf
ROOT
ATOM      1  C   UNL     1       8.799  46.026  25.058  1.00  0.00     0.004 C 
ENDROOT
BRANCH   1   2
ATOM      2  C   UNL     1       9.229  47.468  25.382  1.00  0.00     0.000 C 
BRANCH   2   3
ATOM      3  C   UNL     1       8.767  48.530  24.364  1.00  0.00     0.000 C 
BRANCH   3   4
ATOM      4  C   UNL     1       9.847  48.996  23.371  1.00  0.00     0.000 C 
BRANCH   4   5
ATOM      5  C   UNL     1      11.194  48.287  23.577  1.00  0.00     0.006 C 
BRANCH   5   6
ATOM      6  C   UNL     1      11.708  47.695  22.262  1.00  0.00     0.053 C 
BRANCH   6   7
ATOM      7  C   UNL     1      13.201  47.600  22.280  1.00  0.00     0.041 C 
ATOM      8  O   UNL     1      13.841  47.480  21.203  1.00  0.00    -0.550 OA
ATOM      9  O   UNL     1      13.890  47.695  23.483  1.00  0.00    -0.550 OA
ENDBRANCH   6   7
ENDBRANCH   5   6
ENDBRANCH   4   5
ENDBRANCH   3   4
ENDBRANCH   2   3
ENDBRANCH   1   2
BRANCH   1  10
ATOM     10  C   UNL     1       7.620  45.964  24.076  1.00  0.00     0.027 C 
BRANCH  10  11
ATOM     11  C   UNL     1       7.848  44.896  23.036  1.00  0.00    -0.031 C 
ATOM     12  C   UNL     1       8.226  45.134  21.767  1.00  0.00    -0.031 C 
BRANCH  12  13
ATOM     13  C   UNL     1       8.392  46.507  21.163  1.00  0.00     0.027 C 
BRANCH  13  14
ATOM     14  C   UNL     1       8.695  46.447  19.655  1.00  0.00     0.004 C 
BRANCH  14  15
ATOM     15  C   UNL     1       8.843  47.825  18.983  1.00  0.00     0.000 C 
BRANCH  15  16
ATOM     16  C   UNL     1       7.984  48.909  19.650  1.00  0.00    -0.000 C 
BRANCH  16  17
ATOM     17  C   UNL     1       8.821  50.156  19.963  1.00  0.00    -0.003 C 
ATOM     18  C   UNL     1      10.262  49.986  19.492  1.00  0.00     0.004 C 
ENDBRANCH  16  17
ENDBRANCH  15  16
ENDBRANCH  14  15
ENDBRANCH  13  14
ENDBRANCH  12  13
ENDBRANCH  10  11
ENDBRANCH   1  10
TORSDOF 13
ENDMDL
MODEL 3
REMARK VINA RESULT:    -4.899      1.152      2.029
REMARK INTER + INTRA:         -11.303
REMARK INTER:                  -9.001
REMARK INTRA:                  -2.302
REMARK UNBOUND:                -2.681
REMARK SMILES CCCCCCC=CCCCCCCCC(=O)[O-]
REMARK SMILES IDX 10 1 11 2 12 3 13 4 14 5 15 6 16 7 17 8 18 9 9 10 8 11 7 12
REMARK SMILES IDX 6 13 5 14 4 15 3 16 2 17 1 18
REMARK H PARENT
REMARK Flexibility Score: inf
ROOT
ATOM      1  C   UNL     1       6.317  48.833  26.227  1.00  0.00     0.004 C 
ENDROOT
BRANCH   1   2
ATOM      2  C   UNL     1       7.123  49.913  25.485  1.00  0.00     0.000 C 
BRANCH   2   3
ATOM      3  C   UNL     1       7.108  49.796  23.947  1.00  0.00     0.000 C 
BRANCH   3   4
ATOM      4  C   UNL     1       8.452  50.090  23.256  1.00  0.00     0.000 C 
BRANCH   4   5
ATOM      5  C   UNL     1       8.441  51.405  22.464  1.00  0.00     0.006 C 
BRANCH   5   6
ATOM      6  C   UNL     1       7.826  51.206  21.077  1.00  0.00     0.053 C 
BRANCH   6   7
ATOM      7  C   UNL     1       8.575  50.157  20.317  1.00  0.00     0.041 C 
ATOM      8  O   UNL     1       7.975  49.140  19.883  1.00  0.00    -0.550 OA
ATOM      9  O   UNL     1       9.927  50.328  20.045  1.00  0.00    -0.550 OA
ENDBRANCH   6   7
ENDBRANCH   5   6
ENDBRANCH   4   5
ENDBRANCH   3   4
ENDBRANCH   2   3
ENDBRANCH   1   2
BRANCH   1  10
ATOM     10  C   UNL     1       5.346  48.079  25.306  1.00  0.00     0.027 C 
BRANCH  10  11
ATOM     11  C   UNL     1       5.047  46.708  25.856  1.00  0.00    -0.031 C 
ATOM     12  C   UNL     1       4.957  45.590  25.113  1.00  0.00    -0.031 C 
BRANCH  12  13
ATOM     13  C   UNL     1       5.050  45.549  23.607  1.00  0.00     0.027 C 
BRANCH  13  14
ATOM     14  C   UNL     1       6.451  45.134  23.122  1.00  0.00     0.004 C 
BRANCH  14  15
ATOM     15  C   UNL     1       7.352  46.311  22.705  1.00  0.00     0.000 C 
BRANCH  15  16
ATOM     16  C   UNL     1       8.759  46.231  23.315  1.00  0.00    -0.000 C 
BRANCH  16  17
ATOM     17  C   UNL     1       8.688  46.022  24.833  1.00  0.00    -0.003 C 
ATOM     18  C   UNL     1       9.481  47.094  25.575  1.00  0.00     0.004 C 
ENDBRANCH  16  17
ENDBRANCH  15  16
ENDBRANCH  14  15
ENDBRANCH  13  14
ENDBRANCH  12  13
ENDBRANCH  10  11
ENDBRANCH   1  10
TORSDOF 13
ENDMDL
MODEL 4
REMARK VINA RESULT:    -4.868      1.191      3.298
REMARK INTER + INTRA:         -11.248
REMARK INTER:                  -8.935
REMARK INTRA:                  -2.312
REMARK UNBOUND:                -2.681
REMARK SMILES CCCCCCC=CCCCCCCCC(=O)[O-]
REMARK SMILES IDX 10 1 11 2 12 3 13 4 14 5 15 6 16 7 17 8 18 9 9 10 8 11 7 12
REMARK SMILES IDX 6 13 5 14 4 15 3 16 2 17 1 18
REMARK H PARENT
REMARK Flexibility Score: inf
ROOT
ATOM      1  C   UNL     1       8.186  45.388  23.343  1.00  0.00     0.004 C 
ENDROOT
BRANCH   1   2
ATOM      2  C   UNL     1       8.447  46.157  24.650  1.00  0.00     0.000 C 
BRANCH   2   3
ATOM      3  C   UNL     1       9.570  47.211  24.572  1.00  0.00     0.000 C 
BRANCH   3   4
ATOM      4  C   UNL     1       9.773  47.848  23.185  1.00  0.00     0.000 C 
BRANCH   4   5
ATOM      5  C   UNL     1       9.484  49.356  23.172  1.00  0.00     0.006 C 
BRANCH   5   6
ATOM      6  C   UNL     1       8.287  49.678  22.275  1.00  0.00     0.053 C 
BRANCH   6   7
ATOM      7  C   UNL     1       8.694  50.597  21.167  1.00  0.00     0.041 C 
ATOM      8  O   UNL     1       8.089  51.687  20.993  1.00  0.00    -0.550 OA
ATOM      9  O   UNL     1       9.775  50.273  20.357  1.00  0.00    -0.550 OA
ENDBRANCH   6   7
ENDBRANCH   5   6
ENDBRANCH   4   5
ENDBRANCH   3   4
ENDBRANCH   2   3
ENDBRANCH   1   2
BRANCH   1  10
ATOM     10  C   UNL     1       6.808  45.694  22.738  1.00  0.00     0.027 C 
BRANCH  10  11
ATOM     11  C   UNL     1       5.829  44.594  23.061  1.00  0.00    -0.031 C 
ATOM     12  C   UNL     1       4.726  44.750  23.816  1.00  0.00    -0.031 C 
BRANCH  12  13
ATOM     13  C   UNL     1       4.348  46.025  24.530  1.00  0.00     0.027 C 
BRANCH  13  14
ATOM     14  C   UNL     1       4.984  46.119  25.929  1.00  0.00     0.004 C 
BRANCH  14  15
ATOM     15  C   UNL     1       5.313  47.554  26.379  1.00  0.00     0.000 C 
BRANCH  15  16
ATOM     16  C   UNL     1       5.540  48.512  25.201  1.00  0.00    -0.000 C 
BRANCH  16  17
ATOM     17  C   UNL     1       6.603  49.562  25.544  1.00  0.00    -0.003 C 
ATOM     18  C   UNL     1       7.352  49.193  26.822  1.00  0.00     0.004 C 
ENDBRANCH  16  17
ENDBRANCH  15  16
ENDBRANCH  14  15
ENDBRANCH  13  14
ENDBRANCH  12  13
ENDBRANCH  10  11
ENDBRANCH   1  10
TORSDOF 13
ENDMDL
MODEL 5
REMARK VINA RESULT:    -4.848      1.649      3.735
REMARK INTER + INTRA:         -11.213
REMARK INTER:                  -8.461
REMARK INTRA:                  -2.752
REMARK UNBOUND:                -2.681
REMARK SMILES CCCCCCC=CCCCCCCCC(=O)[O-]
REMARK SMILES IDX 10 1 11 2 12 3 13 4 14 5 15 6 16 7 17 8 18 9 9 10 8 11 7 12
REMARK SMILES IDX 6 13 5 14 4 15 3 16 2 17 1 18
REMARK H PARENT
REMARK Flexibility Score: inf
ROOT
ATOM      1  C   UNL     1       9.506  47.129  24.307  1.00  0.00     0.004 C 
ENDROOT
BRANCH   1   2
ATOM      2  C   UNL     1       9.688  47.536  22.835  1.00  0.00     0.000 C 
BRANCH   2   3
ATOM      3  C   UNL     1       9.751  49.056  22.582  1.00  0.00     0.000 C 
BRANCH   3   4
ATOM      4  C   UNL     1       8.920  49.555  21.385  1.00  0.00     0.000 C 
BRANCH   4   5
ATOM      5  C   UNL     1       7.730  48.639  21.061  1.00  0.00     0.006 C 
BRANCH   5   6
ATOM      6  C   UNL     1       7.682  48.309  19.568  1.00  0.00     0.053 C 
BRANCH   6   7
ATOM      7  C   UNL     1       8.745  47.316  19.216  1.00  0.00     0.041 C 
ATOM      8  O   UNL     1       9.754  47.675  18.557  1.00  0.00    -0.550 OA
ATOM      9  O   UNL     1       8.643  46.003  19.661  1.00  0.00    -0.550 OA
ENDBRANCH   6   7
ENDBRANCH   5   6
ENDBRANCH   4   5
ENDBRANCH   3   4
ENDBRANCH   2   3
ENDBRANCH   1   2
BRANCH   1  10
ATOM     10  C   UNL     1       8.618  45.888  24.476  1.00  0.00     0.027 C 
BRANCH  10  11
ATOM     11  C   UNL     1       8.164  45.371  23.135  1.00  0.00    -0.031 C 
ATOM     12  C   UNL     1       6.882  45.323  22.729  1.00  0.00    -0.031 C 
BRANCH  12  13
ATOM     13  C   UNL     1       5.695  45.691  23.585  1.00  0.00     0.027 C 
BRANCH  13  14
ATOM     14  C   UNL     1       5.320  47.179  23.451  1.00  0.00     0.004 C 
BRANCH  14  15
ATOM     15  C   UNL     1       5.659  48.031  24.688  1.00  0.00     0.000 C 
BRANCH  15  16
ATOM     16  C   UNL     1       6.384  49.337  24.331  1.00  0.00    -0.000 C 
BRANCH  16  17
ATOM     17  C   UNL     1       7.285  49.797  25.485  1.00  0.00    -0.003 C 
ATOM     18  C   UNL     1       7.204  48.834  26.666  1.00  0.00     0.004 C 
ENDBRANCH  16  17
ENDBRANCH  15  16
ENDBRANCH  14  15
ENDBRANCH  13  14
ENDBRANCH  12  13
ENDBRANCH  10  11
ENDBRANCH   1  10
TORSDOF 13
ENDMDL
MODEL 6
REMARK VINA RESULT:    -4.803      2.081      3.577
REMARK INTER + INTRA:         -11.134
REMARK INTER:                  -8.967
REMARK INTRA:                  -2.167
REMARK UNBOUND:                -2.681
REMARK SMILES CCCCCCC=CCCCCCCCC(=O)[O-]
REMARK SMILES IDX 10 1 11 2 12 3 13 4 14 5 15 6 16 7 17 8 18 9 9 10 8 11 7 12
REMARK SMILES IDX 6 13 5 14 4 15 3 16 2 17 1 18
REMARK H PARENT
REMARK Flexibility Score: inf
ROOT
ATOM      1  C   UNL     1       7.847  49.791  24.585  1.00  0.00     0.004 C 
ENDROOT
BRANCH   1   2
ATOM      2  C   UNL     1       8.542  50.033  23.234  1.00  0.00     0.000 C 
BRANCH   2   3
ATOM      3  C   UNL     1       8.376  51.456  22.662  1.00  0.00     0.000 C 
BRANCH   3   4
ATOM      4  C   UNL     1       8.345  51.543  21.126  1.00  0.00     0.000 C 
BRANCH   4   5
ATOM      5  C   UNL     1       8.452  50.170  20.447  1.00  0.00     0.006 C 
BRANCH   5   6
ATOM      6  C   UNL     1       7.151  49.812  19.723  1.00  0.00     0.053 C 
BRANCH   6   7
ATOM      7  C   UNL     1       7.443  49.261  18.363  1.00  0.00     0.041 C 
ATOM      8  O   UNL     1       7.703  50.038  17.408  1.00  0.00    -0.550 OA
ATOM      9  O   UNL     1       7.478  47.887  18.163  1.00  0.00    -0.550 OA
ENDBRANCH   6   7
ENDBRANCH   5   6
ENDBRANCH   4   5
ENDBRANCH   3   4
ENDBRANCH   2   3
ENDBRANCH   1   2
BRANCH   1  10
ATOM     10  C   UNL     1       6.814  48.656  24.527  1.00  0.00     0.027 C 
BRANCH  10  11
ATOM     11  C   UNL     1       6.355  48.425  23.110  1.00  0.00    -0.031 C 
ATOM     12  C   UNL     1       5.801  47.283  22.663  1.00  0.00    -0.031 C 
BRANCH  12  13
ATOM     13  C   UNL     1       5.639  46.027  23.485  1.00  0.00     0.027 C 
BRANCH  13  14
ATOM     14  C   UNL     1       6.434  44.844  22.905  1.00  0.00     0.004 C 
BRANCH  14  15
ATOM     15  C   UNL     1       7.957  45.069  22.854  1.00  0.00     0.000 C 
BRANCH  15  16
ATOM     16  C   UNL     1       8.507  45.106  21.421  1.00  0.00    -0.000 C 
BRANCH  16  17
ATOM     17  C   UNL     1       9.038  46.503  21.073  1.00  0.00    -0.003 C 
ATOM     18  C   UNL     1       9.912  47.056  22.195  1.00  0.00     0.004 C 
ENDBRANCH  16  17
ENDBRANCH  15  16
ENDBRANCH  14  15
ENDBRANCH  13  14
ENDBRANCH  12  13
ENDBRANCH  10  11
ENDBRANCH   1  10
TORSDOF 13
ENDMDL
MODEL 7
REMARK VINA RESULT:    -4.785      1.196      3.410
REMARK INTER + INTRA:         -11.103
REMARK INTER:                  -8.845
REMARK INTRA:                  -2.257
REMARK UNBOUND:                -2.681
REMARK SMILES CCCCCCC=CCCCCCCCC(=O)[O-]
REMARK SMILES IDX 10 1 11 2 12 3 13 4 14 5 15 6 16 7 17 8 18 9 9 10 8 11 7 12
REMARK SMILES IDX 6 13 5 14 4 15 3 16 2 17 1 18
REMARK H PARENT
REMARK Flexibility Score: inf
ROOT
ATOM      1  C   UNL     1       9.054  46.577  25.007  1.00  0.00     0.004 C 
ENDROOT
BRANCH   1   2
ATOM      2  C   UNL     1       9.062  48.067  25.390  1.00  0.00     0.000 C 
BRANCH   2   3
ATOM      3  C   UNL     1       7.756  48.582  26.029  1.00  0.00     0.000 C 
BRANCH   3   4
ATOM      4  C   UNL     1       7.152  49.832  25.364  1.00  0.00     0.000 C 
BRANCH   4   5
ATOM      5  C   UNL     1       7.241  49.795  23.831  1.00  0.00     0.006 C 
BRANCH   5   6
ATOM      6  C   UNL     1       8.013  51.004  23.297  1.00  0.00     0.053 C 
BRANCH   6   7
ATOM      7  C   UNL     1       8.755  50.643  22.049  1.00  0.00     0.041 C 
ATOM      8  O   UNL     1       9.508  49.635  22.030  1.00  0.00    -0.550 OA
ATOM      9  O   UNL     1       8.574  51.390  20.892  1.00  0.00    -0.550 OA
ENDBRANCH   6   7
ENDBRANCH   5   6
ENDBRANCH   4   5
ENDBRANCH   3   4
ENDBRANCH   2   3
ENDBRANCH   1   2
BRANCH   1  10
ATOM     10  C   UNL     1       8.774  46.348  23.514  1.00  0.00     0.027 C 
BRANCH  10  11
ATOM     11  C   UNL     1       7.773  45.237  23.324  1.00  0.00    -0.031 C 
ATOM     12  C   UNL     1       6.463  45.423  23.081  1.00  0.00    -0.031 C 
BRANCH  12  13
ATOM     13  C   UNL     1       5.777  46.767  23.053  1.00  0.00     0.027 C 
BRANCH  13  14
ATOM     14  C   UNL     1       4.669  46.877  24.116  1.00  0.00     0.004 C 
BRANCH  14  15
ATOM     15  C   UNL     1       4.663  45.732  25.145  1.00  0.00     0.000 C 
BRANCH  15  16
ATOM     16  C   UNL     1       5.073  46.191  26.551  1.00  0.00    -0.000 C 
BRANCH  16  17
ATOM     17  C   UNL     1       4.471  47.564  26.877  1.00  0.00    -0.003 C 
ATOM     18  C   UNL     1       4.700  47.934  28.340  1.00  0.00     0.004 C 
ENDBRANCH  16  17
ENDBRANCH  15  16
ENDBRANCH  14  15
ENDBRANCH  13  14
ENDBRANCH  12  13
ENDBRANCH  10  11
ENDBRANCH   1  10
TORSDOF 13
ENDMDL
MODEL 8
REMARK VINA RESULT:    -4.769      2.026      4.118
REMARK INTER + INTRA:         -11.074
REMARK INTER:                  -8.442
REMARK INTRA:                  -2.632
REMARK UNBOUND:                -2.681
REMARK SMILES CCCCCCC=CCCCCCCCC(=O)[O-]
REMARK SMILES IDX 10 1 11 2 12 3 13 4 14 5 15 6 16 7 17 8 18 9 9 10 8 11 7 12
REMARK SMILES IDX 6 13 5 14 4 15 3 16 2 17 1 18
REMARK H PARENT
REMARK Flexibility Score: inf
ROOT
ATOM      1  C   UNL     1       7.996  44.991  22.285  1.00  0.00     0.004 C 
ENDROOT
BRANCH   1   2
ATOM      2  C   UNL     1       9.001  45.692  21.354  1.00  0.00     0.000 C 
BRANCH   2   3
ATOM      3  C   UNL     1       8.412  46.192  20.019  1.00  0.00     0.000 C 
BRANCH   3   4
ATOM      4  C   UNL     1       9.183  47.348  19.357  1.00  0.00     0.000 C 
BRANCH   4   5
ATOM      5  C   UNL     1       8.259  48.390  18.711  1.00  0.00     0.006 C 
BRANCH   5   6
ATOM      6  C   UNL     1       8.705  49.812  19.063  1.00  0.00     0.053 C 
BRANCH   6   7
ATOM      7  C   UNL     1       7.555  50.603  19.601  1.00  0.00     0.041 C 
ATOM      8  O   UNL     1       6.386  50.382  19.191  1.00  0.00    -0.550 OA
ATOM      9  O   UNL     1       7.769  51.552  20.593  1.00  0.00    -0.550 OA
ENDBRANCH   6   7
ENDBRANCH   5   6
ENDBRANCH   4   5
ENDBRANCH   3   4
ENDBRANCH   2   3
ENDBRANCH   1   2
BRANCH   1  10
ATOM     10  C   UNL     1       7.699  45.799  23.556  1.00  0.00     0.027 C 
BRANCH  10  11
ATOM     11  C   UNL     1       6.277  46.300  23.549  1.00  0.00    -0.031 C 
ATOM     12  C   UNL     1       5.883  47.474  23.024  1.00  0.00    -0.031 C 
BRANCH  12  13
ATOM     13  C   UNL     1       6.813  48.512  22.445  1.00  0.00     0.027 C 
BRANCH  13  14
ATOM     14  C   UNL     1       7.220  49.573  23.483  1.00  0.00     0.004 C 
BRANCH  14  15
ATOM     15  C   UNL     1       8.736  49.659  23.740  1.00  0.00     0.000 C 
BRANCH  15  16
ATOM     16  C   UNL     1       9.571  49.143  22.558  1.00  0.00    -0.000 C 
BRANCH  16  17
ATOM     17  C   UNL     1      10.747  48.289  23.050  1.00  0.00    -0.003 C 
ATOM     18  C   UNL     1      10.623  47.983  24.539  1.00  0.00     0.004 C 
ENDBRANCH  16  17
ENDBRANCH  15  16
ENDBRANCH  14  15
ENDBRANCH  13  14
ENDBRANCH  12  13
ENDBRANCH  10  11
ENDBRANCH   1  10
TORSDOF 13
ENDMDL
MODEL 9
REMARK VINA RESULT:    -4.755      2.700      4.645
REMARK INTER + INTRA:         -11.050
REMARK INTER:                  -8.285
REMARK INTRA:                  -2.765
REMARK UNBOUND:                -2.681
REMARK SMILES CCCCCCC=CCCCCCCCC(=O)[O-]
REMARK SMILES IDX 10 1 11 2 12 3 13 4 14 5 15 6 16 7 17 8 18 9 9 10 8 11 7 12
REMARK SMILES IDX 6 13 5 14 4 15 3 16 2 17 1 18
REMARK H PARENT
REMARK Flexibility Score: inf
ROOT
ATOM      1  C   UNL     1       6.414  45.190  23.013  1.00  0.00     0.004 C 
ENDROOT
BRANCH   1   2
ATOM      2  C   UNL     1       5.723  45.692  24.292  1.00  0.00     0.000 C 
BRANCH   2   3
ATOM      3  C   UNL     1       4.729  46.852  24.082  1.00  0.00     0.000 C 
BRANCH   3   4
ATOM      4  C   UNL     1       4.846  48.004  25.097  1.00  0.00     0.000 C 
BRANCH   4   5
ATOM      5  C   UNL     1       5.813  47.690  26.248  1.00  0.00     0.006 C 
BRANCH   5   6
ATOM      6  C   UNL     1       6.831  48.818  26.432  1.00  0.00     0.053 C 
BRANCH   6   7
ATOM      7  C   UNL     1       6.837  49.292  27.851  1.00  0.00     0.041 C 
ATOM      8  O   UNL     1       5.753  49.470  28.464  1.00  0.00    -0.550 OA
ATOM      9  O   UNL     1       8.043  49.489  28.513  1.00  0.00    -0.550 OA
ENDBRANCH   6   7
ENDBRANCH   5   6
ENDBRANCH   4   5
ENDBRANCH   3   4
ENDBRANCH   2   3
ENDBRANCH   1   2
BRANCH   1  10
ATOM     10  C   UNL     1       7.945  45.297  23.082  1.00  0.00     0.027 C 
BRANCH  10  11
ATOM     11  C   UNL     1       8.387  45.719  24.460  1.00  0.00    -0.031 C 
ATOM     12  C   UNL     1       9.251  46.720  24.712  1.00  0.00    -0.031 C 
BRANCH  12  13
ATOM     13  C   UNL     1       9.979  47.514  23.655  1.00  0.00     0.027 C 
BRANCH  13  14
ATOM     14  C   UNL     1       9.699  49.023  23.765  1.00  0.00     0.004 C 
BRANCH  14  15
ATOM     15  C   UNL     1       8.830  49.591  22.628  1.00  0.00     0.000 C 
BRANCH  15  16
ATOM     16  C   UNL     1       7.345  49.230  22.775  1.00  0.00    -0.000 C 
BRANCH  16  17
ATOM     17  C   UNL     1       6.823  48.530  21.513  1.00  0.00    -0.003 C 
ATOM     18  C   UNL     1       7.965  48.182  20.563  1.00  0.00     0.004 C 
ENDBRANCH  16  17
ENDBRANCH  15  16
ENDBRANCH  14  15
ENDBRANCH  13  14
ENDBRANCH  12  13
ENDBRANCH  10  11
ENDBRANCH   1  10
TORSDOF 13
ENDMDL
