MODEL 1
REMARK VINA RESULT:    -6.539      0.000      0.000
REMARK INTER + INTRA:          -6.539
REMARK INTER:                  -6.539
REMARK INTRA:                   0.000
REMARK UNBOUND:                 0.000
REMARK SMILES CC1=CC(=O)[C@H]2C[C@@H]1C2(C)C
REMARK SMILES IDX 1 1 2 2 3 3 4 4 5 5 6 6 7 7 8 8 9 9 10 10 11 11
REMARK H PARENT
REMARK Flexibility Score: inf
ROOT
ATOM      1  C   UNL     1      80.731   6.366  27.216  1.00  0.00     0.040 C 
ATOM      2  C   UNL     1      82.013   5.665  26.893  1.00  0.00    -0.066 C 
ATOM      3  C   UNL     1      82.435   5.477  25.611  1.00  0.00     0.047 C 
ATOM      4  C   UNL     1      83.739   4.756  25.442  1.00  0.00     0.159 C 
ATOM      5  O   UNL     1      84.214   4.484  24.309  1.00  0.00    -0.295 OA
ATOM      6  C   UNL     1      84.450   4.378  26.741  1.00  0.00     0.067 C 
ATOM      7  C   UNL     1      84.360   5.654  27.607  1.00  0.00     0.021 C 
ATOM      8  C   UNL     1      82.949   5.171  28.015  1.00  0.00     0.022 C 
ATOM      9  C   UNL     1      83.415   3.721  27.699  1.00  0.00    -0.019 C 
ATOM     10  C   UNL     1      82.378   2.730  27.098  1.00  0.00     0.012 C 
ATOM     11  C   UNL     1      84.089   3.039  28.917  1.00  0.00     0.012 C 
ENDROOT
TORSDOF 0
ENDMDL
MODEL 2
REMARK VINA RESULT:    -5.986      1.680      3.281
REMARK INTER + INTRA:          -5.986
REMARK INTER:                  -5.986
REMARK INTRA:                   0.000
REMARK UNBOUND:                 0.000
REMARK SMILES CC1=CC(=O)[C@H]2C[C@@H]1C2(C)C
REMARK SMILES IDX 1 1 2 2 3 3 4 4 5 5 6 6 7 7 8 8 9 9 10 10 11 11
REMARK H PARENT
REMARK Flexibility Score: inf
ROOT
ATOM      1  C   UNL     1      86.213   3.617  28.273  1.00  0.00     0.040 C 
ATOM      2  C   UNL     1      84.752   3.701  27.960  1.00  0.00    -0.066 C 
ATOM      3  C   UNL     1      84.272   4.442  26.921  1.00  0.00     0.047 C 
ATOM      4  C   UNL     1      82.786   4.431  26.731  1.00  0.00     0.159 C 
ATOM      5  O   UNL     1      82.218   5.108  25.834  1.00  0.00    -0.295 OA
ATOM      6  C   UNL     1      82.009   3.540  27.700  1.00  0.00     0.067 C 
ATOM      7  C   UNL     1      82.811   2.220  27.726  1.00  0.00     0.021 C 
ATOM      8  C   UNL     1      83.721   2.896  28.776  1.00  0.00     0.022 C 
ATOM      9  C   UNL     1      82.520   3.815  29.143  1.00  0.00    -0.019 C 
ATOM     10  C   UNL     1      82.819   5.285  29.554  1.00  0.00     0.012 C 
ATOM     11  C   UNL     1      81.604   3.185  30.224  1.00  0.00     0.012 C 
ENDROOT
TORSDOF 0
ENDMDL
MODEL 3
REMARK VINA RESULT:    -5.799      2.120      3.549
REMARK INTER + INTRA:          -5.799
REMARK INTER:                  -5.799
REMARK INTRA:                   0.000
REMARK UNBOUND:                 0.000
REMARK SMILES CC1=CC(=O)[C@H]2C[C@@H]1C2(C)C
REMARK SMILES IDX 1 1 2 2 3 3 4 4 5 5 6 6 7 7 8 8 9 9 10 10 11 11
REMARK H PARENT
REMARK Flexibility Score: inf
ROOT
ATOM      1  C   UNL     1      82.255   1.589  27.722  1.00  0.00     0.040 C 
ATOM      2  C   UNL     1      82.679   3.011  27.911  1.00  0.00    -0.066 C 
ATOM      3  C   UNL     1      82.241   3.768  28.957  1.00  0.00     0.047 C 
ATOM      4  C   UNL     1      82.749   5.177  29.014  1.00  0.00     0.159 C 
ATOM      5  O   UNL     1      82.385   5.987  29.906  1.00  0.00    -0.295 OA
ATOM      6  C   UNL     1      83.741   5.559  27.915  1.00  0.00     0.067 C 
ATOM      7  C   UNL     1      84.722   4.367  27.860  1.00  0.00     0.021 C 
ATOM      8  C   UNL     1      83.687   3.670  26.948  1.00  0.00     0.022 C 
ATOM      9  C   UNL     1      83.172   5.083  26.548  1.00  0.00    -0.019 C 
ATOM     10  C   UNL     1      81.651   5.262  26.278  1.00  0.00     0.012 C 
ATOM     11  C   UNL     1      83.951   5.676  25.346  1.00  0.00     0.012 C 
ENDROOT
TORSDOF 0
ENDMDL
MODEL 4
REMARK VINA RESULT:    -5.765      1.888      3.125
REMARK INTER + INTRA:          -5.765
REMARK INTER:                  -5.765
REMARK INTRA:                   0.000
REMARK UNBOUND:                 0.000
REMARK SMILES CC1=CC(=O)[C@H]2C[C@@H]1C2(C)C
REMARK SMILES IDX 1 1 2 2 3 3 4 4 5 5 6 6 7 7 8 8 9 9 10 10 11 11
REMARK H PARENT
REMARK Flexibility Score: inf
ROOT
ATOM      1  C   UNL     1      82.311   5.665  30.219  1.00  0.00     0.040 C 
ATOM      2  C   UNL     1      82.469   4.809  29.002  1.00  0.00    -0.066 C 
ATOM      3  C   UNL     1      82.319   3.455  29.041  1.00  0.00     0.047 C 
ATOM      4  C   UNL     1      82.509   2.729  27.744  1.00  0.00     0.159 C 
ATOM      5  O   UNL     1      82.439   1.475  27.658  1.00  0.00    -0.295 OA
ATOM      6  C   UNL     1      82.790   3.618  26.533  1.00  0.00     0.067 C 
ATOM      7  C   UNL     1      81.758   4.761  26.654  1.00  0.00     0.021 C 
ATOM      8  C   UNL     1      82.754   5.438  27.624  1.00  0.00     0.022 C 
ATOM      9  C   UNL     1      83.892   4.646  26.918  1.00  0.00    -0.019 C 
ATOM     10  C   UNL     1      85.090   4.155  27.781  1.00  0.00     0.012 C 
ATOM     11  C   UNL     1      84.457   5.396  25.685  1.00  0.00     0.012 C 
ENDROOT
TORSDOF 0
ENDMDL
MODEL 5
REMARK VINA RESULT:    -5.700      2.276      3.202
REMARK INTER + INTRA:          -5.700
REMARK INTER:                  -5.700
REMARK INTRA:                   0.000
REMARK UNBOUND:                 0.000
REMARK SMILES CC1=CC(=O)[C@H]2C[C@@H]1C2(C)C
REMARK SMILES IDX 1 1 2 2 3 3 4 4 5 5 6 6 7 7 8 8 9 9 10 10 11 11
REMARK H PARENT
REMARK Flexibility Score: inf
ROOT
ATOM      1  C   UNL     1      81.339   5.631  25.732  1.00  0.00     0.040 C 
ATOM      2  C   UNL     1      81.986   5.072  26.960  1.00  0.00    -0.066 C 
ATOM      3  C   UNL     1      81.597   5.433  28.216  1.00  0.00     0.047 C 
ATOM      4  C   UNL     1      82.338   4.791  29.349  1.00  0.00     0.159 C 
ATOM      5  O   UNL     1      82.101   5.073  30.553  1.00  0.00    -0.295 OA
ATOM      6  C   UNL     1      83.400   3.770  28.941  1.00  0.00     0.067 C 
ATOM      7  C   UNL     1      82.702   2.907  27.866  1.00  0.00     0.021 C 
ATOM      8  C   UNL     1      83.096   4.007  26.854  1.00  0.00     0.022 C 
ATOM      9  C   UNL     1      84.268   4.384  27.806  1.00  0.00    -0.019 C 
ATOM     10  C   UNL     1      84.673   5.882  27.915  1.00  0.00     0.012 C 
ATOM     11  C   UNL     1      85.547   3.554  27.525  1.00  0.00     0.012 C 
ENDROOT
TORSDOF 0
ENDMDL
MODEL 6
REMARK VINA RESULT:    -5.695      1.579      1.935
REMARK INTER + INTRA:          -5.695
REMARK INTER:                  -5.695
REMARK INTRA:                   0.000
REMARK UNBOUND:                 0.000
REMARK SMILES CC1=CC(=O)[C@H]2C[C@@H]1C2(C)C
REMARK SMILES IDX 1 1 2 2 3 3 4 4 5 5 6 6 7 7 8 8 9 9 10 10 11 11
REMARK H PARENT
REMARK Flexibility Score: inf
ROOT
ATOM      1  C   UNL     1      81.210   5.625  25.894  1.00  0.00     0.040 C 
ATOM      2  C   UNL     1      82.227   5.047  26.827  1.00  0.00    -0.066 C 
ATOM      3  C   UNL     1      83.533   4.887  26.471  1.00  0.00     0.047 C 
ATOM      4  C   UNL     1      84.435   4.293  27.510  1.00  0.00     0.159 C 
ATOM      5  O   UNL     1      85.651   4.057  27.288  1.00  0.00    -0.295 OA
ATOM      6  C   UNL     1      83.774   3.996  28.856  1.00  0.00     0.067 C 
ATOM      7  C   UNL     1      82.949   5.266  29.161  1.00  0.00     0.021 C 
ATOM      8  C   UNL     1      81.844   4.655  28.268  1.00  0.00     0.022 C 
ATOM      9  C   UNL     1      82.433   3.253  28.597  1.00  0.00    -0.019 C 
ATOM     10  C   UNL     1      82.396   2.162  27.489  1.00  0.00     0.012 C 
ATOM     11  C   UNL     1      81.833   2.649  29.893  1.00  0.00     0.012 C 
ENDROOT
TORSDOF 0
ENDMDL
MODEL 7
REMARK VINA RESULT:    -5.502      2.264      3.862
REMARK INTER + INTRA:          -5.502
REMARK INTER:                  -5.502
REMARK INTRA:                   0.000
REMARK UNBOUND:                 0.000
REMARK SMILES CC1=CC(=O)[C@H]2C[C@@H]1C2(C)C
REMARK SMILES IDX 1 1 2 2 3 3 4 4 5 5 6 6 7 7 8 8 9 9 10 10 11 11
REMARK H PARENT
REMARK Flexibility Score: inf
ROOT
ATOM      1  C   UNL     1      85.987   3.393  28.011  1.00  0.00     0.040 C 
ATOM      2  C   UNL     1      84.574   3.814  28.265  1.00  0.00    -0.066 C 
ATOM      3  C   UNL     1      83.758   3.145  29.128  1.00  0.00     0.047 C 
ATOM      4  C   UNL     1      82.368   3.683  29.278  1.00  0.00     0.159 C 
ATOM      5  O   UNL     1      81.508   3.129  30.011  1.00  0.00    -0.295 OA
ATOM      6  C   UNL     1      82.068   4.952  28.479  1.00  0.00     0.067 C 
ATOM      7  C   UNL     1      83.296   5.856  28.731  1.00  0.00     0.021 C 
ATOM      8  C   UNL     1      83.993   5.075  27.593  1.00  0.00     0.022 C 
ATOM      9  C   UNL     1      82.581   4.754  27.024  1.00  0.00    -0.019 C 
ATOM     10  C   UNL     1      82.359   3.373  26.345  1.00  0.00     0.012 C 
ATOM     11  C   UNL     1      82.067   5.857  26.063  1.00  0.00     0.012 C 
ENDROOT
TORSDOF 0
ENDMDL
MODEL 8
REMARK VINA RESULT:    -5.487      1.643      3.314
REMARK INTER + INTRA:          -5.487
REMARK INTER:                  -5.487
REMARK INTRA:                   0.000
REMARK UNBOUND:                 0.000
REMARK SMILES CC1=CC(=O)[C@H]2C[C@@H]1C2(C)C
REMARK SMILES IDX 1 1 2 2 3 3 4 4 5 5 6 6 7 7 8 8 9 9 10 10 11 11
REMARK H PARENT
REMARK Flexibility Score: inf
ROOT
ATOM      1  C   UNL     1      82.232   1.387  27.593  1.00  0.00     0.040 C 
ATOM      2  C   UNL     1      82.937   2.705  27.549  1.00  0.00    -0.066 C 
ATOM      3  C   UNL     1      84.225   2.856  27.970  1.00  0.00     0.047 C 
ATOM      4  C   UNL     1      84.799   4.237  27.868  1.00  0.00     0.159 C 
ATOM      5  O   UNL     1      85.962   4.512  28.262  1.00  0.00    -0.295 OA
ATOM      6  C   UNL     1      83.873   5.285  27.250  1.00  0.00     0.067 C 
ATOM      7  C   UNL     1      83.282   4.582  26.007  1.00  0.00     0.021 C 
ATOM      8  C   UNL     1      82.245   3.953  26.966  1.00  0.00     0.022 C 
ATOM      9  C   UNL     1      82.473   5.164  27.916  1.00  0.00    -0.019 C 
ATOM     10  C   UNL     1      82.405   4.917  29.450  1.00  0.00     0.012 C 
ATOM     11  C   UNL     1      81.552   6.364  27.576  1.00  0.00     0.012 C 
ENDROOT
TORSDOF 0
ENDMDL
MODEL 9
REMARK VINA RESULT:    -4.984     17.301     18.689
REMARK INTER + INTRA:          -4.984
REMARK INTER:                  -4.984
REMARK INTRA:                   0.000
REMARK UNBOUND:                 0.000
REMARK SMILES CC1=CC(=O)[C@H]2C[C@@H]1C2(C)C
REMARK SMILES IDX 1 1 2 2 3 3 4 4 5 5 6 6 7 7 8 8 9 9 10 10 11 11
REMARK H PARENT
REMARK Flexibility Score: inf
ROOT
ATOM      1  C   UNL     1      79.289  -8.857  16.881  1.00  0.00     0.040 C 
ATOM      2  C   UNL     1      79.336  -8.251  15.514  1.00  0.00    -0.066 C 
ATOM      3  C   UNL     1      78.680  -7.096  15.207  1.00  0.00     0.047 C 
ATOM      4  C   UNL     1      78.819  -6.611  13.796  1.00  0.00     0.159 C 
ATOM      5  O   UNL     1      78.228  -5.581  13.378  1.00  0.00    -0.295 OA
ATOM      6  C   UNL     1      79.728  -7.453  12.901  1.00  0.00     0.067 C 
ATOM      7  C   UNL     1      80.978  -7.715  13.771  1.00  0.00     0.021 C 
ATOM      8  C   UNL     1      80.187  -8.888  14.397  1.00  0.00     0.022 C 
ATOM      9  C   UNL     1      79.354  -8.952  13.084  1.00  0.00    -0.019 C 
ATOM     10  C   UNL     1      77.848  -9.329  13.187  1.00  0.00     0.012 C 
ATOM     11  C   UNL     1      80.009  -9.859  12.012  1.00  0.00     0.012 C 
ENDROOT
TORSDOF 0
ENDMDL
