MODEL 1
REMARK VINA RESULT:    -6.403      0.000      0.000
REMARK INTER + INTRA:          -7.829
REMARK INTER:                  -7.525
REMARK INTRA:                  -0.304
REMARK UNBOUND:                -0.304
REMARK SMILES O=c1cc(-c2ccc(O)c(O)c2)oc2cc(O)cc(O)c12
REMARK SMILES IDX 4 1 3 2 2 3 1 4 21 5 19 6 18 7 16 8 15 9 14 10 13 11 5 12
REMARK SMILES IDX 6 13 7 14 8 15 12 16 10 17 9 18 11 20 20 22 17 24
REMARK H PARENT 9 19 11 21 20 23 17 25
REMARK Flexibility Score: inf
ROOT
ATOM      1  C   UNL     1      17.226 -12.069   3.113  1.00  0.00     0.138 A 
ATOM      2  C   UNL     1      18.273 -11.543   2.344  1.00  0.00     0.100 A 
ATOM      3  C   UNL     1      18.512 -12.049   1.066  1.00  0.00     0.197 A 
ATOM      4  O   UNL     1      19.419 -11.514   0.376  1.00  0.00    -0.289 OA
ATOM      5  C   UNL     1      17.718 -13.109   0.568  1.00  0.00     0.107 A 
ATOM      6  C   UNL     1      17.897 -13.730  -0.704  1.00  0.00     0.134 A 
ATOM      7  C   UNL     1      16.976 -14.693  -1.137  1.00  0.00     0.093 A 
ATOM      8  C   UNL     1      15.920 -15.099  -0.322  1.00  0.00     0.123 A 
ATOM      9  C   UNL     1      15.766 -14.535   0.946  1.00  0.00     0.094 A 
ATOM     10  C   UNL     1      16.649 -13.548   1.393  1.00  0.00     0.146 A 
ATOM     11  O   UNL     1      16.460 -13.027   2.601  1.00  0.00    -0.456 OA
ENDROOT
BRANCH   1  12
ATOM     12  C   UNL     1      16.928 -11.569   4.479  1.00  0.00     0.021 A 
ATOM     13  C   UNL     1      17.947 -11.139   5.346  1.00  0.00     0.016 A 
ATOM     14  C   UNL     1      17.638 -10.684   6.630  1.00  0.00     0.051 A 
ATOM     15  C   UNL     1      16.315 -10.652   7.078  1.00  0.00     0.157 A 
ATOM     16  C   UNL     1      15.599 -11.550   4.935  1.00  0.00     0.062 A 
ATOM     17  C   UNL     1      15.281 -11.093   6.220  1.00  0.00     0.158 A 
BRANCH  15  18
ATOM     18  O   UNL     1      16.074 -10.182   8.371  1.00  0.00    -0.504 OA
ATOM     19  H   UNL     1      15.284 -10.460   8.934  1.00  0.00     0.293 HD
ENDBRANCH  15  18
BRANCH  17  20
ATOM     20  O   UNL     1      13.936 -11.096   6.599  1.00  0.00    -0.504 OA
ATOM     21  H   UNL     1      13.562 -10.546   7.357  1.00  0.00     0.293 HD
ENDBRANCH  17  20
ENDBRANCH   1  12
BRANCH   6  22
ATOM     22  O   UNL     1      18.967 -13.461  -1.562  1.00  0.00    -0.507 OA
ATOM     23  H   UNL     1      19.552 -12.642  -1.514  1.00  0.00     0.293 HD
ENDBRANCH   6  22
BRANCH   8  24
ATOM     24  O   UNL     1      15.032 -16.069  -0.780  1.00  0.00    -0.508 OA
ATOM     25  H   UNL     1      14.059 -15.853  -0.965  1.00  0.00     0.293 HD
ENDBRANCH   8  24
TORSDOF 5
ENDMDL
MODEL 2
REMARK VINA RESULT:    -6.240      2.217      6.977
REMARK INTER + INTRA:          -7.638
REMARK INTER:                  -7.363
REMARK INTRA:                  -0.275
REMARK UNBOUND:                -0.304
REMARK SMILES O=c1cc(-c2ccc(O)c(O)c2)oc2cc(O)cc(O)c12
REMARK SMILES IDX 4 1 3 2 2 3 1 4 21 5 19 6 18 7 16 8 15 9 14 10 13 11 5 12
REMARK SMILES IDX 6 13 7 14 8 15 12 16 10 17 9 18 11 20 20 22 17 24
REMARK H PARENT 9 19 11 21 20 23 17 25
REMARK Flexibility Score: inf
ROOT
ATOM      1  C   UNL     1      16.572 -13.238   3.039  1.00  0.00     0.138 A 
ATOM      2  C   UNL     1      16.289 -11.912   3.395  1.00  0.00     0.100 A 
ATOM      3  C   UNL     1      16.215 -11.560   4.743  1.00  0.00     0.197 A 
ATOM      4  O   UNL     1      16.022 -10.350   5.031  1.00  0.00    -0.289 OA
ATOM      5  C   UNL     1      16.394 -12.549   5.739  1.00  0.00     0.107 A 
ATOM      6  C   UNL     1      16.302 -12.313   7.144  1.00  0.00     0.134 A 
ATOM      7  C   UNL     1      16.613 -13.346   8.038  1.00  0.00     0.093 A 
ATOM      8  C   UNL     1      16.956 -14.618   7.581  1.00  0.00     0.123 A 
ATOM      9  C   UNL     1      16.997 -14.873   6.209  1.00  0.00     0.094 A 
ATOM     10  C   UNL     1      16.725 -13.856   5.291  1.00  0.00     0.146 A 
ATOM     11  O   UNL     1      16.789 -14.136   3.994  1.00  0.00    -0.456 OA
ENDROOT
BRANCH   1  12
ATOM     12  C   UNL     1      16.659 -13.667   1.620  1.00  0.00     0.021 A 
ATOM     13  C   UNL     1      17.621 -13.133   0.745  1.00  0.00     0.016 A 
ATOM     14  C   UNL     1      17.673 -13.548  -0.587  1.00  0.00     0.051 A 
ATOM     15  C   UNL     1      16.769 -14.496  -1.077  1.00  0.00     0.157 A 
ATOM     16  C   UNL     1      15.742 -14.609   1.124  1.00  0.00     0.062 A 
ATOM     17  C   UNL     1      15.789 -15.032  -0.210  1.00  0.00     0.158 A 
BRANCH  15  18
ATOM     18  O   UNL     1      16.878 -14.870  -2.418  1.00  0.00    -0.504 OA
ATOM     19  H   UNL     1      17.043 -14.221  -3.173  1.00  0.00     0.293 HD
ENDBRANCH  15  18
BRANCH  17  20
ATOM     20  O   UNL     1      14.849 -15.978  -0.628  1.00  0.00    -0.504 OA
ATOM     21  H   UNL     1      14.338 -15.921  -1.496  1.00  0.00     0.293 HD
ENDBRANCH  17  20
ENDBRANCH   1  12
BRANCH   6  22
ATOM     22  O   UNL     1      15.887 -11.104   7.708  1.00  0.00    -0.507 OA
ATOM     23  H   UNL     1      16.492 -10.321   7.904  1.00  0.00     0.293 HD
ENDBRANCH   6  22
BRANCH   8  24
ATOM     24  O   UNL     1      17.244 -15.623   8.500  1.00  0.00    -0.508 OA
ATOM     25  H   UNL     1      17.910 -16.359   8.289  1.00  0.00     0.293 HD
ENDBRANCH   8  24
TORSDOF 5
ENDMDL
MODEL 3
REMARK VINA RESULT:    -6.005      1.831      7.260
REMARK INTER + INTRA:          -7.362
REMARK INTER:                  -7.080
REMARK INTRA:                  -0.282
REMARK UNBOUND:                -0.304
REMARK SMILES O=c1cc(-c2ccc(O)c(O)c2)oc2cc(O)cc(O)c12
REMARK SMILES IDX 4 1 3 2 2 3 1 4 21 5 19 6 18 7 16 8 15 9 14 10 13 11 5 12
REMARK SMILES IDX 6 13 7 14 8 15 12 16 10 17 9 18 11 20 20 22 17 24
REMARK H PARENT 9 19 11 21 20 23 17 25
REMARK Flexibility Score: inf
ROOT
ATOM      1  C   UNL     1      16.583 -13.689   2.899  1.00  0.00     0.138 A 
ATOM      2  C   UNL     1      16.227 -14.666   3.839  1.00  0.00     0.100 A 
ATOM      3  C   UNL     1      16.169 -14.333   5.193  1.00  0.00     0.197 A 
ATOM      4  O   UNL     1      15.785 -15.214   6.005  1.00  0.00    -0.289 OA
ATOM      5  C   UNL     1      16.503 -13.023   5.610  1.00  0.00     0.107 A 
ATOM      6  C   UNL     1      16.518 -12.581   6.967  1.00  0.00     0.134 A 
ATOM      7  C   UNL     1      16.752 -11.229   7.250  1.00  0.00     0.093 A 
ATOM      8  C   UNL     1      17.028 -10.317   6.233  1.00  0.00     0.123 A 
ATOM      9  C   UNL     1      17.067 -10.748   4.906  1.00  0.00     0.094 A 
ATOM     10  C   UNL     1      16.806 -12.084   4.588  1.00  0.00     0.146 A 
ATOM     11  O   UNL     1      16.839 -12.452   3.312  1.00  0.00    -0.456 OA
ENDROOT
BRANCH   1  12
ATOM     12  C   UNL     1      16.662 -13.989   1.447  1.00  0.00     0.021 A 
ATOM     13  C   UNL     1      17.618 -13.379   0.617  1.00  0.00     0.016 A 
ATOM     14  C   UNL     1      17.661 -13.673  -0.747  1.00  0.00     0.051 A 
ATOM     15  C   UNL     1      16.754 -14.573  -1.314  1.00  0.00     0.157 A 
ATOM     16  C   UNL     1      15.740 -14.882   0.874  1.00  0.00     0.062 A 
ATOM     17  C   UNL     1      15.778 -15.184  -0.493  1.00  0.00     0.158 A 
BRANCH  15  18
ATOM     18  O   UNL     1      16.853 -14.825  -2.684  1.00  0.00    -0.504 OA
ATOM     19  H   UNL     1      16.170 -15.346  -3.213  1.00  0.00     0.293 HD
ENDBRANCH  15  18
BRANCH  17  20
ATOM     20  O   UNL     1      14.835 -16.087  -0.988  1.00  0.00    -0.504 OA
ATOM     21  H   UNL     1      14.213 -15.890  -1.758  1.00  0.00     0.293 HD
ENDBRANCH  17  20
ENDBRANCH   1  12
BRANCH   6  22
ATOM     22  O   UNL     1      16.338 -13.426   8.066  1.00  0.00    -0.507 OA
ATOM     23  H   UNL     1      16.653 -14.383   8.115  1.00  0.00     0.293 HD
ENDBRANCH   6  22
BRANCH   8  24
ATOM     24  O   UNL     1      17.270  -8.983   6.553  1.00  0.00    -0.508 OA
ATOM     25  H   UNL     1      18.180  -8.672   6.876  1.00  0.00     0.293 HD
ENDBRANCH   8  24
TORSDOF 5
ENDMDL
MODEL 4
REMARK VINA RESULT:    -5.779      1.564      6.959
REMARK INTER + INTRA:          -7.096
REMARK INTER:                  -6.827
REMARK INTRA:                  -0.269
REMARK UNBOUND:                -0.304
REMARK SMILES O=c1cc(-c2ccc(O)c(O)c2)oc2cc(O)cc(O)c12
REMARK SMILES IDX 4 1 3 2 2 3 1 4 21 5 19 6 18 7 16 8 15 9 14 10 13 11 5 12
REMARK SMILES IDX 6 13 7 14 8 15 12 16 10 17 9 18 11 20 20 22 17 24
REMARK H PARENT 9 19 11 21 20 23 17 25
REMARK Flexibility Score: inf
ROOT
ATOM      1  C   UNL     1      16.386 -12.248   3.240  1.00  0.00     0.138 A 
ATOM      2  C   UNL     1      17.220 -11.921   4.317  1.00  0.00     0.100 A 
ATOM      3  C   UNL     1      16.665 -11.404   5.489  1.00  0.00     0.197 A 
ATOM      4  O   UNL     1      17.432 -11.179   6.461  1.00  0.00    -0.289 OA
ATOM      5  C   UNL     1      15.269 -11.183   5.568  1.00  0.00     0.107 A 
ATOM      6  C   UNL     1      14.598 -10.623   6.696  1.00  0.00     0.134 A 
ATOM      7  C   UNL     1      13.198 -10.560   6.704  1.00  0.00     0.093 A 
ATOM      8  C   UNL     1      12.451 -10.980   5.604  1.00  0.00     0.123 A 
ATOM      9  C   UNL     1      13.100 -11.480   4.474  1.00  0.00     0.094 A 
ATOM     10  C   UNL     1      14.493 -11.587   4.449  1.00  0.00     0.146 A 
ATOM     11  O   UNL     1      15.073 -12.081   3.359  1.00  0.00    -0.456 OA
ENDROOT
BRANCH   1  12
ATOM     12  C   UNL     1      16.924 -12.799   1.971  1.00  0.00     0.021 A 
ATOM     13  C   UNL     1      16.478 -14.026   1.450  1.00  0.00     0.016 A 
ATOM     14  C   UNL     1      17.010 -14.524   0.259  1.00  0.00     0.051 A 
ATOM     15  C   UNL     1      17.998 -13.819  -0.433  1.00  0.00     0.157 A 
ATOM     16  C   UNL     1      17.928 -12.096   1.282  1.00  0.00     0.062 A 
ATOM     17  C   UNL     1      18.465 -12.589   0.086  1.00  0.00     0.158 A 
BRANCH  15  18
ATOM     18  O   UNL     1      18.485 -14.371  -1.619  1.00  0.00    -0.504 OA
ATOM     19  H   UNL     1      19.419 -14.741  -1.728  1.00  0.00     0.293 HD
ENDBRANCH  15  18
BRANCH  17  20
ATOM     20  O   UNL     1      19.453 -11.830  -0.546  1.00  0.00    -0.504 OA
ATOM     21  H   UNL     1      20.133 -12.210  -1.188  1.00  0.00     0.293 HD
ENDBRANCH  17  20
ENDBRANCH   1  12
BRANCH   6  22
ATOM     22  O   UNL     1      15.252 -10.096   7.813  1.00  0.00    -0.507 OA
ATOM     23  H   UNL     1      15.047  -9.202   8.232  1.00  0.00     0.293 HD
ENDBRANCH   6  22
BRANCH   8  24
ATOM     24  O   UNL     1      11.062 -10.888   5.642  1.00  0.00    -0.508 OA
ATOM     25  H   UNL     1      10.471 -11.612   5.248  1.00  0.00     0.293 HD
ENDBRANCH   8  24
TORSDOF 5
ENDMDL
MODEL 5
REMARK VINA RESULT:    -5.736      1.318      2.905
REMARK INTER + INTRA:          -7.046
REMARK INTER:                  -6.779
REMARK INTRA:                  -0.267
REMARK UNBOUND:                -0.304
REMARK SMILES O=c1cc(-c2ccc(O)c(O)c2)oc2cc(O)cc(O)c12
REMARK SMILES IDX 4 1 3 2 2 3 1 4 21 5 19 6 18 7 16 8 15 9 14 10 13 11 5 12
REMARK SMILES IDX 6 13 7 14 8 15 12 16 10 17 9 18 11 20 20 22 17 24
REMARK H PARENT 9 19 11 21 20 23 17 25
REMARK Flexibility Score: inf
ROOT
ATOM      1  C   UNL     1      16.531 -12.671   2.779  1.00  0.00     0.138 A 
ATOM      2  C   UNL     1      15.929 -13.752   2.121  1.00  0.00     0.100 A 
ATOM      3  C   UNL     1      16.355 -14.105   0.840  1.00  0.00     0.197 A 
ATOM      4  O   UNL     1      15.840 -15.119   0.301  1.00  0.00    -0.289 OA
ATOM      5  C   UNL     1      17.366 -13.349   0.202  1.00  0.00     0.107 A 
ATOM      6  C   UNL     1      17.851 -13.591  -1.119  1.00  0.00     0.134 A 
ATOM      7  C   UNL     1      18.937 -12.849  -1.601  1.00  0.00     0.093 A 
ATOM      8  C   UNL     1      19.516 -11.836  -0.837  1.00  0.00     0.123 A 
ATOM      9  C   UNL     1      19.015 -11.555   0.435  1.00  0.00     0.094 A 
ATOM     10  C   UNL     1      17.955 -12.300   0.958  1.00  0.00     0.146 A 
ATOM     11  O   UNL     1      17.516 -12.011   2.179  1.00  0.00    -0.456 OA
ENDROOT
BRANCH   1  12
ATOM     12  C   UNL     1      16.115 -12.252   4.141  1.00  0.00     0.021 A 
ATOM     13  C   UNL     1      17.022 -12.225   5.214  1.00  0.00     0.016 A 
ATOM     14  C   UNL     1      16.600 -11.836   6.488  1.00  0.00     0.051 A 
ATOM     15  C   UNL     1      15.271 -11.473   6.720  1.00  0.00     0.157 A 
ATOM     16  C   UNL     1      14.775 -11.901   4.379  1.00  0.00     0.062 A 
ATOM     17  C   UNL     1      14.345 -11.509   5.652  1.00  0.00     0.158 A 
BRANCH  15  18
ATOM     18  O   UNL     1      14.915 -11.092   8.016  1.00  0.00    -0.504 OA
ATOM     19  H   UNL     1      14.496 -10.204   8.248  1.00  0.00     0.293 HD
ENDBRANCH  15  18
BRANCH  17  20
ATOM     20  O   UNL     1      13.000 -11.165   5.809  1.00  0.00    -0.504 OA
ATOM     21  H   UNL     1      12.333 -11.135   5.052  1.00  0.00     0.293 HD
ENDBRANCH  17  20
ENDBRANCH   1  12
BRANCH   6  22
ATOM     22  O   UNL     1      17.291 -14.521  -1.999  1.00  0.00    -0.507 OA
ATOM     23  H   UNL     1      16.644 -14.297  -2.739  1.00  0.00     0.293 HD
ENDBRANCH   6  22
BRANCH   8  24
ATOM     24  O   UNL     1      20.585 -11.110  -1.357  1.00  0.00    -0.508 OA
ATOM     25  H   UNL     1      21.514 -11.173  -0.955  1.00  0.00     0.293 HD
ENDBRANCH   8  24
TORSDOF 5
ENDMDL
MODEL 6
REMARK VINA RESULT:    -5.622      7.182      8.659
REMARK INTER + INTRA:          -6.912
REMARK INTER:                  -6.631
REMARK INTRA:                  -0.281
REMARK UNBOUND:                -0.304
REMARK SMILES O=c1cc(-c2ccc(O)c(O)c2)oc2cc(O)cc(O)c12
REMARK SMILES IDX 4 1 3 2 2 3 1 4 21 5 19 6 18 7 16 8 15 9 14 10 13 11 5 12
REMARK SMILES IDX 6 13 7 14 8 15 12 16 10 17 9 18 11 20 20 22 17 24
REMARK H PARENT 9 19 11 21 20 23 17 25
REMARK Flexibility Score: inf
ROOT
ATOM      1  C   UNL     1      19.955 -15.647   7.969  1.00  0.00     0.138 A 
ATOM      2  C   UNL     1      20.535 -15.247   9.181  1.00  0.00     0.100 A 
ATOM      3  C   UNL     1      21.567 -16.005   9.735  1.00  0.00     0.197 A 
ATOM      4  O   UNL     1      22.110 -15.586  10.791  1.00  0.00    -0.289 OA
ATOM      5  C   UNL     1      21.998 -17.188   9.089  1.00  0.00     0.107 A 
ATOM      6  C   UNL     1      23.014 -18.060   9.583  1.00  0.00     0.134 A 
ATOM      7  C   UNL     1      23.437 -19.140   8.797  1.00  0.00     0.093 A 
ATOM      8  C   UNL     1      22.842 -19.414   7.566  1.00  0.00     0.123 A 
ATOM      9  C   UNL     1      21.811 -18.597   7.097  1.00  0.00     0.094 A 
ATOM     10  C   UNL     1      21.390 -17.493   7.842  1.00  0.00     0.146 A 
ATOM     11  O   UNL     1      20.415 -16.732   7.354  1.00  0.00    -0.456 OA
ENDROOT
BRANCH   1  12
ATOM     12  C   UNL     1      18.854 -14.879   7.336  1.00  0.00     0.021 A 
ATOM     13  C   UNL     1      18.984 -13.512   7.035  1.00  0.00     0.016 A 
ATOM     14  C   UNL     1      17.926 -12.813   6.449  1.00  0.00     0.051 A 
ATOM     15  C   UNL     1      16.720 -13.455   6.156  1.00  0.00     0.157 A 
ATOM     16  C   UNL     1      17.635 -15.521   7.054  1.00  0.00     0.062 A 
ATOM     17  C   UNL     1      16.571 -14.827   6.465  1.00  0.00     0.158 A 
BRANCH  15  18
ATOM     18  O   UNL     1      15.704 -12.699   5.568  1.00  0.00    -0.504 OA
ATOM     19  H   UNL     1      15.019 -13.075   4.928  1.00  0.00     0.293 HD
ENDBRANCH  15  18
BRANCH  17  20
ATOM     20  O   UNL     1      15.395 -15.535   6.207  1.00  0.00    -0.504 OA
ATOM     21  H   UNL     1      15.271 -16.160   5.423  1.00  0.00     0.293 HD
ENDBRANCH  17  20
ENDBRANCH   1  12
BRANCH   6  22
ATOM     22  O   UNL     1      23.615 -17.928  10.837  1.00  0.00    -0.507 OA
ATOM     23  H   UNL     1      23.826 -17.050  11.286  1.00  0.00     0.293 HD
ENDBRANCH   6  22
BRANCH   8  24
ATOM     24  O   UNL     1      23.279 -20.505   6.819  1.00  0.00    -0.508 OA
ATOM     25  H   UNL     1      22.749 -20.851   6.026  1.00  0.00     0.293 HD
ENDBRANCH   8  24
TORSDOF 5
ENDMDL
MODEL 7
REMARK VINA RESULT:    -5.522      7.267      8.146
REMARK INTER + INTRA:          -6.794
REMARK INTER:                  -6.497
REMARK INTRA:                  -0.297
REMARK UNBOUND:                -0.304
REMARK SMILES O=c1cc(-c2ccc(O)c(O)c2)oc2cc(O)cc(O)c12
REMARK SMILES IDX 4 1 3 2 2 3 1 4 21 5 19 6 18 7 16 8 15 9 14 10 13 11 5 12
REMARK SMILES IDX 6 13 7 14 8 15 12 16 10 17 9 18 11 20 20 22 17 24
REMARK H PARENT 9 19 11 21 20 23 17 25
REMARK Flexibility Score: inf
ROOT
ATOM      1  C   UNL     1      20.907 -15.312   7.708  1.00  0.00     0.138 A 
ATOM      2  C   UNL     1      22.058 -14.530   7.541  1.00  0.00     0.100 A 
ATOM      3  C   UNL     1      23.289 -15.152   7.330  1.00  0.00     0.197 A 
ATOM      4  O   UNL     1      24.294 -14.423   7.121  1.00  0.00    -0.289 OA
ATOM      5  C   UNL     1      23.372 -16.564   7.320  1.00  0.00     0.107 A 
ATOM      6  C   UNL     1      24.580 -17.306   7.154  1.00  0.00     0.134 A 
ATOM      7  C   UNL     1      24.522 -18.702   7.044  1.00  0.00     0.093 A 
ATOM      8  C   UNL     1      23.312 -19.385   7.153  1.00  0.00     0.123 A 
ATOM      9  C   UNL     1      22.131 -18.672   7.368  1.00  0.00     0.094 A 
ATOM     10  C   UNL     1      22.151 -17.277   7.448  1.00  0.00     0.146 A 
ATOM     11  O   UNL     1      21.003 -16.635   7.640  1.00  0.00    -0.456 OA
ENDROOT
BRANCH   1  12
ATOM     12  C   UNL     1      19.572 -14.703   7.937  1.00  0.00     0.021 A 
ATOM     13  C   UNL     1      19.396 -13.616   8.811  1.00  0.00     0.016 A 
ATOM     14  C   UNL     1      18.126 -13.070   9.014  1.00  0.00     0.051 A 
ATOM     15  C   UNL     1      17.009 -13.595   8.359  1.00  0.00     0.157 A 
ATOM     16  C   UNL     1      18.446 -15.240   7.289  1.00  0.00     0.062 A 
ATOM     17  C   UNL     1      17.170 -14.697   7.486  1.00  0.00     0.158 A 
BRANCH  15  18
ATOM     18  O   UNL     1      15.769 -13.002   8.604  1.00  0.00    -0.504 OA
ATOM     19  H   UNL     1      14.912 -13.518   8.734  1.00  0.00     0.293 HD
ENDBRANCH  15  18
BRANCH  17  20
ATOM     20  O   UNL     1      16.101 -15.278   6.801  1.00  0.00    -0.504 OA
ATOM     21  H   UNL     1      15.232 -14.804   6.602  1.00  0.00     0.293 HD
ENDBRANCH  17  20
ENDBRANCH   1  12
BRANCH   6  22
ATOM     22  O   UNL     1      25.853 -16.730   7.119  1.00  0.00    -0.507 OA
ATOM     23  H   UNL     1      26.345 -16.371   7.922  1.00  0.00     0.293 HD
ENDBRANCH   6  22
BRANCH   8  24
ATOM     24  O   UNL     1      23.295 -20.774   7.054  1.00  0.00    -0.508 OA
ATOM     25  H   UNL     1      22.845 -21.350   7.757  1.00  0.00     0.293 HD
ENDBRANCH   8  24
TORSDOF 5
ENDMDL
MODEL 8
REMARK VINA RESULT:    -5.388      1.683      7.201
REMARK INTER + INTRA:          -6.637
REMARK INTER:                  -6.371
REMARK INTRA:                  -0.266
REMARK UNBOUND:                -0.304
REMARK SMILES O=c1cc(-c2ccc(O)c(O)c2)oc2cc(O)cc(O)c12
REMARK SMILES IDX 4 1 3 2 2 3 1 4 21 5 19 6 18 7 16 8 15 9 14 10 13 11 5 12
REMARK SMILES IDX 6 13 7 14 8 15 12 16 10 17 9 18 11 20 20 22 17 24
REMARK H PARENT 9 19 11 21 20 23 17 25
REMARK Flexibility Score: inf
ROOT
ATOM      1  C   UNL     1      16.457 -12.320   3.502  1.00  0.00     0.138 A 
ATOM      2  C   UNL     1      15.713 -11.142   3.652  1.00  0.00     0.100 A 
ATOM      3  C   UNL     1      15.376 -10.697   4.931  1.00  0.00     0.197 A 
ATOM      4  O   UNL     1      14.761  -9.603   5.036  1.00  0.00    -0.289 OA
ATOM      5  C   UNL     1      15.759 -11.454   6.063  1.00  0.00     0.107 A 
ATOM      6  C   UNL     1      15.436 -11.118   7.413  1.00  0.00     0.134 A 
ATOM      7  C   UNL     1      15.970 -11.882   8.459  1.00  0.00     0.093 A 
ATOM      8  C   UNL     1      16.763 -12.999   8.206  1.00  0.00     0.123 A 
ATOM      9  C   UNL     1      17.042 -13.368   6.888  1.00  0.00     0.094 A 
ATOM     10  C   UNL     1      16.552 -12.608   5.823  1.00  0.00     0.146 A 
ATOM     11  O   UNL     1      16.851 -12.984   4.584  1.00  0.00    -0.456 OA
ENDROOT
BRANCH   1  12
ATOM     12  C   UNL     1      16.841 -12.840   2.165  1.00  0.00     0.021 A 
ATOM     13  C   UNL     1      16.215 -13.965   1.602  1.00  0.00     0.016 A 
ATOM     14  C   UNL     1      16.604 -14.437   0.346  1.00  0.00     0.051 A 
ATOM     15  C   UNL     1      17.625 -13.806  -0.370  1.00  0.00     0.157 A 
ATOM     16  C   UNL     1      17.878 -12.214   1.451  1.00  0.00     0.062 A 
ATOM     17  C   UNL     1      18.273 -12.681   0.191  1.00  0.00     0.158 A 
BRANCH  15  18
ATOM     18  O   UNL     1      17.964 -14.327  -1.620  1.00  0.00    -0.504 OA
ATOM     19  H   UNL     1      17.604 -15.196  -1.986  1.00  0.00     0.293 HD
ENDBRANCH  15  18
BRANCH  17  20
ATOM     20  O   UNL     1      19.305 -12.002  -0.462  1.00  0.00    -0.504 OA
ATOM     21  H   UNL     1      19.405 -10.998  -0.468  1.00  0.00     0.293 HD
ENDBRANCH  17  20
ENDBRANCH   1  12
BRANCH   6  22
ATOM     22  O   UNL     1      14.583 -10.072   7.775  1.00  0.00    -0.507 OA
ATOM     23  H   UNL     1      14.692  -9.499   8.597  1.00  0.00     0.293 HD
ENDBRANCH   6  22
BRANCH   8  24
ATOM     24  O   UNL     1      17.264 -13.743   9.272  1.00  0.00    -0.508 OA
ATOM     25  H   UNL     1      16.664 -14.056  10.028  1.00  0.00     0.293 HD
ENDBRANCH   8  24
TORSDOF 5
ENDMDL
MODEL 9
REMARK VINA RESULT:    -5.281      2.657      6.315
REMARK INTER + INTRA:          -6.511
REMARK INTER:                  -6.245
REMARK INTRA:                  -0.266
REMARK UNBOUND:                -0.304
REMARK SMILES O=c1cc(-c2ccc(O)c(O)c2)oc2cc(O)cc(O)c12
REMARK SMILES IDX 4 1 3 2 2 3 1 4 21 5 19 6 18 7 16 8 15 9 14 10 13 11 5 12
REMARK SMILES IDX 6 13 7 14 8 15 12 16 10 17 9 18 11 20 20 22 17 24
REMARK H PARENT 9 19 11 21 20 23 17 25
REMARK Flexibility Score: inf
ROOT
ATOM      1  C   UNL     1      18.068 -11.579   0.938  1.00  0.00     0.138 A 
ATOM      2  C   UNL     1      17.637 -12.775   0.347  1.00  0.00     0.100 A 
ATOM      3  C   UNL     1      16.871 -13.675   1.090  1.00  0.00     0.197 A 
ATOM      4  O   UNL     1      16.445 -14.710   0.513  1.00  0.00    -0.289 OA
ATOM      5  C   UNL     1      16.564 -13.389   2.442  1.00  0.00     0.107 A 
ATOM      6  C   UNL     1      15.825 -14.251   3.307  1.00  0.00     0.134 A 
ATOM      7  C   UNL     1      15.483 -13.810   4.592  1.00  0.00     0.093 A 
ATOM      8  C   UNL     1      15.902 -12.567   5.063  1.00  0.00     0.123 A 
ATOM      9  C   UNL     1      16.670 -11.738   4.244  1.00  0.00     0.094 A 
ATOM     10  C   UNL     1      16.999 -12.135   2.945  1.00  0.00     0.146 A 
ATOM     11  O   UNL     1      17.721 -11.310   2.192  1.00  0.00    -0.456 OA
ENDROOT
BRANCH   1  12
ATOM     12  C   UNL     1      18.886 -10.588   0.195  1.00  0.00     0.021 A 
ATOM     13  C   UNL     1      20.256 -10.415   0.457  1.00  0.00     0.016 A 
ATOM     14  C   UNL     1      20.998  -9.468  -0.251  1.00  0.00     0.051 A 
ATOM     15  C   UNL     1      20.394  -8.671  -1.228  1.00  0.00     0.157 A 
ATOM     16  C   UNL     1      18.276  -9.777  -0.778  1.00  0.00     0.062 A 
ATOM     17  C   UNL     1      19.014  -8.826  -1.493  1.00  0.00     0.158 A 
BRANCH  15  18
ATOM     18  O   UNL     1      21.193  -7.745  -1.902  1.00  0.00    -0.504 OA
ATOM     19  H   UNL     1      21.094  -6.744  -1.814  1.00  0.00     0.293 HD
ENDBRANCH  15  18
BRANCH  17  20
ATOM     20  O   UNL     1      18.339  -8.063  -2.450  1.00  0.00    -0.504 OA
ATOM     21  H   UNL     1      18.600  -8.020  -3.424  1.00  0.00     0.293 HD
ENDBRANCH  17  20
ENDBRANCH   1  12
BRANCH   6  22
ATOM     22  O   UNL     1      15.429 -15.548   2.966  1.00  0.00    -0.507 OA
ATOM     23  H   UNL     1      14.684 -15.774   2.326  1.00  0.00     0.293 HD
ENDBRANCH   6  22
BRANCH   8  24
ATOM     24  O   UNL     1      15.555 -12.168   6.352  1.00  0.00    -0.508 OA
ATOM     25  H   UNL     1      15.816 -11.257   6.713  1.00  0.00     0.293 HD
ENDBRANCH   8  24
TORSDOF 5
ENDMDL
