MODEL 1
REMARK VINA RESULT:    -4.488      0.000      0.000
REMARK INTER + INTRA:         -10.164
REMARK INTER:                  -8.424
REMARK INTRA:                  -1.740
REMARK UNBOUND:                -1.740
REMARK SMILES O=C([O-])CCCCCCCCCCCCCCC(=O)[O-]
REMARK SMILES IDX 10 1 9 2 8 3 7 4 6 5 5 6 4 7 2 8 1 9 3 10 11 11 12 12 13 13
REMARK SMILES IDX 14 14 15 15 16 16 17 17 18 18 19 19 20 20
REMARK H PARENT
REMARK Flexibility Score: inf
ROOT
ATOM      1  C   UNL     1       4.455   3.624  22.327  1.00  0.00     0.000 C 
ENDROOT
BRANCH   1   2
ATOM      2  C   UNL     1       4.439   4.931  21.521  1.00  0.00     0.000 C 
BRANCH   2   3
ATOM      3  C   UNL     1       5.551   5.887  21.981  1.00  0.00     0.000 C 
BRANCH   3   4
ATOM      4  C   UNL     1       5.526   7.225  21.226  1.00  0.00     0.000 C 
BRANCH   4   5
ATOM      5  C   UNL     1       6.931   7.814  21.014  1.00  0.00     0.000 C 
BRANCH   5   6
ATOM      6  C   UNL     1       7.143   9.141  21.765  1.00  0.00     0.006 C 
BRANCH   6   7
ATOM      7  C   UNL     1       6.029   9.487  22.767  1.00  0.00     0.053 C 
BRANCH   7   8
ATOM      8  C   UNL     1       5.836  10.965  22.914  1.00  0.00     0.041 C 
ATOM      9  O   UNL     1       6.488  11.765  22.191  1.00  0.00    -0.550 OA
ATOM     10  O   UNL     1       4.914  11.458  23.828  1.00  0.00    -0.550 OA
ENDBRANCH   7   8
ENDBRANCH   6   7
ENDBRANCH   5   6
ENDBRANCH   4   5
ENDBRANCH   3   4
ENDBRANCH   2   3
ENDBRANCH   1   2
BRANCH   1  11
ATOM     11  C   UNL     1       5.457   2.591  21.781  1.00  0.00     0.000 C 
BRANCH  11  12
ATOM     12  C   UNL     1       5.683   2.641  20.259  1.00  0.00     0.000 C 
BRANCH  12  13
ATOM     13  C   UNL     1       7.158   2.854  19.874  1.00  0.00     0.000 C 
BRANCH  13  14
ATOM     14  C   UNL     1       7.390   4.205  19.162  1.00  0.00     0.000 C 
BRANCH  14  15
ATOM     15  C   UNL     1       6.169   4.717  18.370  1.00  0.00     0.000 C 
BRANCH  15  16
ATOM     16  C   UNL     1       6.298   6.149  17.826  1.00  0.00     0.006 C 
BRANCH  16  17
ATOM     17  C   UNL     1       6.220   6.217  16.295  1.00  0.00     0.053 C 
BRANCH  17  18
ATOM     18  C   UNL     1       7.500   5.737  15.687  1.00  0.00     0.041 C 
ATOM     19  O   UNL     1       7.508   4.712  14.957  1.00  0.00    -0.550 OA
ATOM     20  O   UNL     1       8.692   6.392  15.968  1.00  0.00    -0.550 OA
ENDBRANCH  17  18
ENDBRANCH  16  17
ENDBRANCH  15  16
ENDBRANCH  14  15
ENDBRANCH  13  14
ENDBRANCH  12  13
ENDBRANCH  11  12
ENDBRANCH   1  11
TORSDOF 15
ENDMDL
MODEL 2
REMARK VINA RESULT:    -4.426      1.419      6.622
REMARK INTER + INTRA:         -10.047
REMARK INTER:                  -8.110
REMARK INTRA:                  -1.936
REMARK UNBOUND:                -1.740
REMARK SMILES O=C([O-])CCCCCCCCCCCCCCC(=O)[O-]
REMARK SMILES IDX 10 1 9 2 8 3 7 4 6 5 5 6 4 7 2 8 1 9 3 10 11 11 12 12 13 13
REMARK SMILES IDX 14 14 15 15 16 16 17 17 18 18 19 19 20 20
REMARK H PARENT
REMARK Flexibility Score: inf
ROOT
ATOM      1  C   UNL     1       7.511   4.256  18.903  1.00  0.00     0.000 C 
ENDROOT
BRANCH   1   2
ATOM      2  C   UNL     1       6.223   4.839  18.305  1.00  0.00     0.000 C 
BRANCH   2   3
ATOM      3  C   UNL     1       6.457   6.246  17.734  1.00  0.00     0.000 C 
BRANCH   3   4
ATOM      4  C   UNL     1       6.120   6.338  16.237  1.00  0.00     0.000 C 
BRANCH   4   5
ATOM      5  C   UNL     1       6.046   4.959  15.559  1.00  0.00     0.000 C 
BRANCH   5   6
ATOM      6  C   UNL     1       7.229   4.697  14.609  1.00  0.00     0.006 C 
BRANCH   6   7
ATOM      7  C   UNL     1       8.604   4.679  15.298  1.00  0.00     0.053 C 
BRANCH   7   8
ATOM      8  C   UNL     1       9.493   5.786  14.819  1.00  0.00     0.041 C 
ATOM      9  O   UNL     1       9.541   6.878  15.445  1.00  0.00    -0.550 OA
ATOM     10  O   UNL     1      10.290   5.601  13.696  1.00  0.00    -0.550 OA
ENDBRANCH   7   8
ENDBRANCH   6   7
ENDBRANCH   5   6
ENDBRANCH   4   5
ENDBRANCH   3   4
ENDBRANCH   2   3
ENDBRANCH   1   2
BRANCH   1  11
ATOM     11  C   UNL     1       7.247   3.168  19.960  1.00  0.00     0.000 C 
BRANCH  11  12
ATOM     12  C   UNL     1       5.791   2.672  20.038  1.00  0.00     0.000 C 
BRANCH  12  13
ATOM     13  C   UNL     1       5.153   2.890  21.422  1.00  0.00     0.000 C 
BRANCH  13  14
ATOM     14  C   UNL     1       4.385   4.226  21.511  1.00  0.00     0.000 C 
BRANCH  14  15
ATOM     15  C   UNL     1       5.204   5.385  22.115  1.00  0.00     0.000 C 
BRANCH  15  16
ATOM     16  C   UNL     1       5.234   6.671  21.273  1.00  0.00     0.006 C 
BRANCH  16  17
ATOM     17  C   UNL     1       6.630   7.303  21.194  1.00  0.00     0.053 C 
BRANCH  17  18
ATOM     18  C   UNL     1       6.627   8.652  21.842  1.00  0.00     0.041 C 
ATOM     19  O   UNL     1       5.690   8.981  22.616  1.00  0.00    -0.550 OA
ATOM     20  O   UNL     1       7.633   9.565  21.551  1.00  0.00    -0.550 OA
ENDBRANCH  17  18
ENDBRANCH  16  17
ENDBRANCH  15  16
ENDBRANCH  14  15
ENDBRANCH  13  14
ENDBRANCH  12  13
ENDBRANCH  11  12
ENDBRANCH   1  11
TORSDOF 15
ENDMDL
MODEL 3
REMARK VINA RESULT:    -4.422      2.241      6.755
REMARK INTER + INTRA:         -10.040
REMARK INTER:                  -8.192
REMARK INTRA:                  -1.848
REMARK UNBOUND:                -1.740
REMARK SMILES O=C([O-])CCCCCCCCCCCCCCC(=O)[O-]
REMARK SMILES IDX 10 1 9 2 8 3 7 4 6 5 5 6 4 7 2 8 1 9 3 10 11 11 12 12 13 13
REMARK SMILES IDX 14 14 15 15 16 16 17 17 18 18 19 19 20 20
REMARK H PARENT
REMARK Flexibility Score: inf
ROOT
ATOM      1  C   UNL     1       7.665   5.631  18.964  1.00  0.00     0.000 C 
ENDROOT
BRANCH   1   2
ATOM      2  C   UNL     1       6.380   6.391  18.607  1.00  0.00     0.000 C 
BRANCH   2   3
ATOM      3  C   UNL     1       6.391   6.854  17.142  1.00  0.00     0.000 C 
BRANCH   3   4
ATOM      4  C   UNL     1       5.932   5.752  16.173  1.00  0.00     0.000 C 
BRANCH   4   5
ATOM      5  C   UNL     1       7.107   5.041  15.482  1.00  0.00     0.000 C 
BRANCH   5   6
ATOM      6  C   UNL     1       8.399   5.878  15.489  1.00  0.00     0.006 C 
BRANCH   6   7
ATOM      7  C   UNL     1       9.270   5.711  14.232  1.00  0.00     0.053 C 
BRANCH   7   8
ATOM      8  C   UNL     1      10.526   6.527  14.299  1.00  0.00     0.041 C 
ATOM      9  O   UNL     1      11.453   6.333  13.470  1.00  0.00    -0.550 OA
ATOM     10  O   UNL     1      10.658   7.520  15.261  1.00  0.00    -0.550 OA
ENDBRANCH   7   8
ENDBRANCH   6   7
ENDBRANCH   5   6
ENDBRANCH   4   5
ENDBRANCH   3   4
ENDBRANCH   2   3
ENDBRANCH   1   2
BRANCH   1  11
ATOM     11  C   UNL     1       7.429   4.128  19.205  1.00  0.00     0.000 C 
BRANCH  11  12
ATOM     12  C   UNL     1       5.952   3.699  19.265  1.00  0.00     0.000 C 
BRANCH  12  13
ATOM     13  C   UNL     1       5.705   2.520  20.222  1.00  0.00     0.000 C 
BRANCH  13  14
ATOM     14  C   UNL     1       4.940   2.946  21.494  1.00  0.00     0.000 C 
BRANCH  14  15
ATOM     15  C   UNL     1       4.633   4.455  21.568  1.00  0.00     0.000 C 
BRANCH  15  16
ATOM     16  C   UNL     1       5.236   5.186  22.779  1.00  0.00     0.006 C 
BRANCH  16  17
ATOM     17  C   UNL     1       6.726   5.506  22.604  1.00  0.00     0.053 C 
BRANCH  17  18
ATOM     18  C   UNL     1       6.913   6.958  22.291  1.00  0.00     0.041 C 
ATOM     19  O   UNL     1       8.060   7.408  22.034  1.00  0.00    -0.550 OA
ATOM     20  O   UNL     1       5.826   7.823  22.332  1.00  0.00    -0.550 OA
ENDBRANCH  17  18
ENDBRANCH  16  17
ENDBRANCH  15  16
ENDBRANCH  14  15
ENDBRANCH  13  14
ENDBRANCH  12  13
ENDBRANCH  11  12
ENDBRANCH   1  11
TORSDOF 15
ENDMDL
MODEL 4
REMARK VINA RESULT:    -4.414      2.965      4.423
REMARK INTER + INTRA:         -10.025
REMARK INTER:                  -8.203
REMARK INTRA:                  -1.822
REMARK UNBOUND:                -1.740
REMARK SMILES O=C([O-])CCCCCCCCCCCCCCC(=O)[O-]
REMARK SMILES IDX 10 1 9 2 8 3 7 4 6 5 5 6 4 7 2 8 1 9 3 10 11 11 12 12 13 13
REMARK SMILES IDX 14 14 15 15 16 16 17 17 18 18 19 19 20 20
REMARK H PARENT
REMARK Flexibility Score: inf
ROOT
ATOM      1  C   UNL     1       7.459   4.285  19.277  1.00  0.00     0.000 C 
ENDROOT
BRANCH   1   2
ATOM      2  C   UNL     1       6.005   3.790  19.241  1.00  0.00     0.000 C 
BRANCH   2   3
ATOM      3  C   UNL     1       5.761   2.694  20.291  1.00  0.00     0.000 C 
BRANCH   3   4
ATOM      4  C   UNL     1       4.863   3.172  21.443  1.00  0.00     0.000 C 
BRANCH   4   5
ATOM      5  C   UNL     1       4.442   4.644  21.297  1.00  0.00     0.000 C 
BRANCH   5   6
ATOM      6  C   UNL     1       5.224   5.584  22.232  1.00  0.00     0.006 C 
BRANCH   6   7
ATOM      7  C   UNL     1       6.115   4.863  23.258  1.00  0.00     0.053 C 
BRANCH   7   8
ATOM      8  C   UNL     1       5.628   5.048  24.662  1.00  0.00     0.041 C 
ATOM      9  O   UNL     1       5.926   6.090  25.305  1.00  0.00    -0.550 OA
ATOM     10  O   UNL     1       4.821   4.083  25.251  1.00  0.00    -0.550 OA
ENDBRANCH   7   8
ENDBRANCH   6   7
ENDBRANCH   5   6
ENDBRANCH   4   5
ENDBRANCH   3   4
ENDBRANCH   2   3
ENDBRANCH   1   2
BRANCH   1  11
ATOM     11  C   UNL     1       7.574   5.820  19.232  1.00  0.00     0.000 C 
BRANCH  11  12
ATOM     12  C   UNL     1       6.317   6.555  18.732  1.00  0.00     0.000 C 
BRANCH  12  13
ATOM     13  C   UNL     1       6.451   7.063  17.285  1.00  0.00     0.000 C 
BRANCH  13  14
ATOM     14  C   UNL     1       6.007   6.007  16.249  1.00  0.00     0.000 C 
BRANCH  14  15
ATOM     15  C   UNL     1       7.173   5.260  15.571  1.00  0.00     0.000 C 
BRANCH  15  16
ATOM     16  C   UNL     1       8.529   5.985  15.619  1.00  0.00     0.006 C 
BRANCH  16  17
ATOM     17  C   UNL     1       9.611   5.285  14.787  1.00  0.00     0.053 C 
BRANCH  17  18
ATOM     18  C   UNL     1       9.716   5.916  13.435  1.00  0.00     0.041 C 
ATOM     19  O   UNL     1       9.078   5.437  12.461  1.00  0.00    -0.550 OA
ATOM     20  O   UNL     1      10.558   7.004  13.238  1.00  0.00    -0.550 OA
ENDBRANCH  17  18
ENDBRANCH  16  17
ENDBRANCH  15  16
ENDBRANCH  14  15
ENDBRANCH  13  14
ENDBRANCH  12  13
ENDBRANCH  11  12
ENDBRANCH   1  11
TORSDOF 15
ENDMDL
MODEL 5
REMARK VINA RESULT:    -4.410      3.699      7.807
REMARK INTER + INTRA:         -10.017
REMARK INTER:                  -8.633
REMARK INTRA:                  -1.384
REMARK UNBOUND:                -1.740
REMARK SMILES O=C([O-])CCCCCCCCCCCCCCC(=O)[O-]
REMARK SMILES IDX 10 1 9 2 8 3 7 4 6 5 5 6 4 7 2 8 1 9 3 10 11 11 12 12 13 13
REMARK SMILES IDX 14 14 15 15 16 16 17 17 18 18 19 19 20 20
REMARK H PARENT
REMARK Flexibility Score: inf
ROOT
ATOM      1  C   UNL     1       6.388   7.301  18.132  1.00  0.00     0.000 C 
ENDROOT
BRANCH   1   2
ATOM      2  C   UNL     1       6.282   7.077  16.616  1.00  0.00     0.000 C 
BRANCH   2   3
ATOM      3  C   UNL     1       5.773   5.663  16.294  1.00  0.00     0.000 C 
BRANCH   3   4
ATOM      4  C   UNL     1       6.647   4.946  15.253  1.00  0.00     0.000 C 
BRANCH   4   5
ATOM      5  C   UNL     1       8.125   5.364  15.328  1.00  0.00     0.000 C 
BRANCH   5   6
ATOM      6  C   UNL     1       9.029   4.534  14.397  1.00  0.00     0.006 C 
BRANCH   6   7
ATOM      7  C   UNL     1       8.276   3.512  13.529  1.00  0.00     0.053 C 
BRANCH   7   8
ATOM      8  C   UNL     1       8.655   3.608  12.083  1.00  0.00     0.041 C 
ATOM      9  O   UNL     1       7.933   4.257  11.280  1.00  0.00    -0.550 OA
ATOM     10  O   UNL     1       9.820   3.004  11.628  1.00  0.00    -0.550 OA
ENDBRANCH   7   8
ENDBRANCH   6   7
ENDBRANCH   5   6
ENDBRANCH   4   5
ENDBRANCH   3   4
ENDBRANCH   2   3
ENDBRANCH   1   2
BRANCH   1  11
ATOM     11  C   UNL     1       6.388   5.988  18.937  1.00  0.00     0.000 C 
BRANCH  11  12
ATOM     12  C   UNL     1       6.614   6.150  20.451  1.00  0.00     0.000 C 
BRANCH  12  13
ATOM     13  C   UNL     1       5.303   6.279  21.247  1.00  0.00     0.000 C 
BRANCH  13  14
ATOM     14  C   UNL     1       5.040   5.054  22.148  1.00  0.00     0.000 C 
BRANCH  14  15
ATOM     15  C   UNL     1       4.430   3.846  21.408  1.00  0.00     0.000 C 
BRANCH  15  16
ATOM     16  C   UNL     1       5.298   2.576  21.403  1.00  0.00     0.006 C 
BRANCH  16  17
ATOM     17  C   UNL     1       5.997   2.333  20.060  1.00  0.00     0.053 C 
BRANCH  17  18
ATOM     18  C   UNL     1       7.469   2.564  20.190  1.00  0.00     0.041 C 
ATOM     19  O   UNL     1       8.231   2.366  19.208  1.00  0.00    -0.550 OA
ATOM     20  O   UNL     1       8.007   2.951  21.411  1.00  0.00    -0.550 OA
ENDBRANCH  17  18
ENDBRANCH  16  17
ENDBRANCH  15  16
ENDBRANCH  14  15
ENDBRANCH  13  14
ENDBRANCH  12  13
ENDBRANCH  11  12
ENDBRANCH   1  11
TORSDOF 15
ENDMDL
MODEL 6
REMARK VINA RESULT:    -4.388      1.216      6.624
REMARK INTER + INTRA:          -9.976
REMARK INTER:                  -8.054
REMARK INTRA:                  -1.922
REMARK UNBOUND:                -1.740
REMARK SMILES O=C([O-])CCCCCCCCCCCCCCC(=O)[O-]
REMARK SMILES IDX 10 1 9 2 8 3 7 4 6 5 5 6 4 7 2 8 1 9 3 10 11 11 12 12 13 13
REMARK SMILES IDX 14 14 15 15 16 16 17 17 18 18 19 19 20 20
REMARK H PARENT
REMARK Flexibility Score: inf
ROOT
ATOM      1  C   UNL     1       4.821   4.556  22.649  1.00  0.00     0.000 C 
ENDROOT
BRANCH   1   2
ATOM      2  C   UNL     1       4.476   3.762  21.381  1.00  0.00     0.000 C 
BRANCH   2   3
ATOM      3  C   UNL     1       5.453   2.595  21.167  1.00  0.00     0.000 C 
BRANCH   3   4
ATOM      4  C   UNL     1       6.153   2.656  19.800  1.00  0.00     0.000 C 
BRANCH   4   5
ATOM      5  C   UNL     1       7.298   3.682  19.764  1.00  0.00     0.000 C 
BRANCH   5   6
ATOM      6  C   UNL     1       7.307   4.521  18.473  1.00  0.00     0.006 C 
BRANCH   6   7
ATOM      7  C   UNL     1       5.910   4.868  17.932  1.00  0.00     0.053 C 
BRANCH   7   8
ATOM      8  C   UNL     1       5.956   5.364  16.518  1.00  0.00     0.041 C 
ATOM      9  O   UNL     1       5.141   4.924  15.665  1.00  0.00    -0.550 OA
ATOM     10  O   UNL     1       6.880   6.334  16.153  1.00  0.00    -0.550 OA
ENDBRANCH   7   8
ENDBRANCH   6   7
ENDBRANCH   5   6
ENDBRANCH   4   5
ENDBRANCH   3   4
ENDBRANCH   2   3
ENDBRANCH   1   2
BRANCH   1  11
ATOM     11  C   UNL     1       5.636   5.831  22.359  1.00  0.00     0.000 C 
BRANCH  11  12
ATOM     12  C   UNL     1       5.185   6.628  21.121  1.00  0.00     0.000 C 
BRANCH  12  13
ATOM     13  C   UNL     1       6.319   7.454  20.489  1.00  0.00     0.000 C 
BRANCH  13  14
ATOM     14  C   UNL     1       7.646   7.321  21.267  1.00  0.00     0.000 C 
BRANCH  14  15
ATOM     15  C   UNL     1       8.144   8.639  21.894  1.00  0.00     0.000 C 
BRANCH  15  16
ATOM     16  C   UNL     1       7.047   9.674  22.195  1.00  0.00     0.006 C 
BRANCH  16  17
ATOM     17  C   UNL     1       7.447  11.101  21.800  1.00  0.00     0.053 C 
BRANCH  17  18
ATOM     18  C   UNL     1       6.635  12.099  22.565  1.00  0.00     0.041 C 
ATOM     19  O   UNL     1       5.923  12.938  21.954  1.00  0.00    -0.550 OA
ATOM     20  O   UNL     1       6.702  12.132  23.952  1.00  0.00    -0.550 OA
ENDBRANCH  17  18
ENDBRANCH  16  17
ENDBRANCH  15  16
ENDBRANCH  14  15
ENDBRANCH  13  14
ENDBRANCH  12  13
ENDBRANCH  11  12
ENDBRANCH   1  11
TORSDOF 15
ENDMDL
MODEL 7
REMARK VINA RESULT:    -4.378      1.135      6.333
REMARK INTER + INTRA:          -9.957
REMARK INTER:                  -7.793
REMARK INTRA:                  -2.164
REMARK UNBOUND:                -1.740
REMARK SMILES O=C([O-])CCCCCCCCCCCCCCC(=O)[O-]
REMARK SMILES IDX 10 1 9 2 8 3 7 4 6 5 5 6 4 7 2 8 1 9 3 10 11 11 12 12 13 13
REMARK SMILES IDX 14 14 15 15 16 16 17 17 18 18 19 19 20 20
REMARK H PARENT
REMARK Flexibility Score: inf
ROOT
ATOM      1  C   UNL     1       6.086   2.599  19.941  1.00  0.00     0.000 C 
ENDROOT
BRANCH   1   2
ATOM      2  C   UNL     1       7.475   3.233  20.095  1.00  0.00     0.000 C 
BRANCH   2   3
ATOM      3  C   UNL     1       7.654   4.428  19.145  1.00  0.00     0.000 C 
BRANCH   3   4
ATOM      4  C   UNL     1       6.357   4.791  18.405  1.00  0.00     0.000 C 
BRANCH   4   5
ATOM      5  C   UNL     1       6.321   6.260  17.953  1.00  0.00     0.000 C 
BRANCH   5   6
ATOM      6  C   UNL     1       6.280   6.413  16.421  1.00  0.00     0.006 C 
BRANCH   6   7
ATOM      7  C   UNL     1       6.510   5.104  15.647  1.00  0.00     0.053 C 
BRANCH   7   8
ATOM      8  C   UNL     1       7.885   5.027  15.056  1.00  0.00     0.041 C 
ATOM      9  O   UNL     1       8.101   4.315  14.041  1.00  0.00    -0.550 OA
ATOM     10  O   UNL     1       8.921   5.767  15.612  1.00  0.00    -0.550 OA
ENDBRANCH   7   8
ENDBRANCH   6   7
ENDBRANCH   5   6
ENDBRANCH   4   5
ENDBRANCH   3   4
ENDBRANCH   2   3
ENDBRANCH   1   2
BRANCH   1  11
ATOM     11  C   UNL     1       5.251   2.652  21.234  1.00  0.00     0.000 C 
BRANCH  11  12
ATOM     12  C   UNL     1       5.979   3.239  22.458  1.00  0.00     0.000 C 
BRANCH  12  13
ATOM     13  C   UNL     1       5.413   4.600  22.900  1.00  0.00     0.000 C 
BRANCH  13  14
ATOM     14  C   UNL     1       4.534   5.252  21.812  1.00  0.00     0.000 C 
BRANCH  14  15
ATOM     15  C   UNL     1       5.043   6.626  21.330  1.00  0.00     0.000 C 
BRANCH  15  16
ATOM     16  C   UNL     1       6.498   6.952  21.707  1.00  0.00     0.006 C 
BRANCH  16  17
ATOM     17  C   UNL     1       7.034   8.204  21.000  1.00  0.00     0.053 C 
BRANCH  17  18
ATOM     18  C   UNL     1       7.016   9.374  21.932  1.00  0.00     0.041 C 
ATOM     19  O   UNL     1       7.696  10.401  21.672  1.00  0.00    -0.550 OA
ATOM     20  O   UNL     1       6.288   9.312  23.113  1.00  0.00    -0.550 OA
ENDBRANCH  17  18
ENDBRANCH  16  17
ENDBRANCH  15  16
ENDBRANCH  14  15
ENDBRANCH  13  14
ENDBRANCH  12  13
ENDBRANCH  11  12
ENDBRANCH   1  11
TORSDOF 15
ENDMDL
MODEL 8
REMARK VINA RESULT:    -4.365      1.431      2.891
REMARK INTER + INTRA:          -9.933
REMARK INTER:                  -7.985
REMARK INTRA:                  -1.948
REMARK UNBOUND:                -1.740
REMARK SMILES O=C([O-])CCCCCCCCCCCCCCC(=O)[O-]
REMARK SMILES IDX 10 1 9 2 8 3 7 4 6 5 5 6 4 7 2 8 1 9 3 10 11 11 12 12 13 13
REMARK SMILES IDX 14 14 15 15 16 16 17 17 18 18 19 19 20 20
REMARK H PARENT
REMARK Flexibility Score: inf
ROOT
ATOM      1  C   UNL     1       5.926   3.660  19.289  1.00  0.00     0.000 C 
ENDROOT
BRANCH   1   2
ATOM      2  C   UNL     1       5.327   3.309  20.659  1.00  0.00     0.000 C 
BRANCH   2   3
ATOM      3  C   UNL     1       4.438   4.445  21.189  1.00  0.00     0.000 C 
BRANCH   3   4
ATOM      4  C   UNL     1       5.167   5.336  22.208  1.00  0.00     0.000 C 
BRANCH   4   5
ATOM      5  C   UNL     1       5.339   6.783  21.716  1.00  0.00     0.000 C 
BRANCH   5   6
ATOM      6  C   UNL     1       6.737   7.353  22.015  1.00  0.00     0.006 C 
BRANCH   6   7
ATOM      7  C   UNL     1       7.103   8.601  21.194  1.00  0.00     0.053 C 
BRANCH   7   8
ATOM      8  C   UNL     1       7.144   9.841  22.034  1.00  0.00     0.041 C 
ATOM      9  O   UNL     1       6.153  10.160  22.742  1.00  0.00    -0.550 OA
ATOM     10  O   UNL     1       8.289  10.627  22.056  1.00  0.00    -0.550 OA
ENDBRANCH   7   8
ENDBRANCH   6   7
ENDBRANCH   5   6
ENDBRANCH   4   5
ENDBRANCH   3   4
ENDBRANCH   2   3
ENDBRANCH   1   2
BRANCH   1  11
ATOM     11  C   UNL     1       7.374   4.176  19.379  1.00  0.00     0.000 C 
BRANCH  11  12
ATOM     12  C   UNL     1       7.578   5.634  18.930  1.00  0.00     0.000 C 
BRANCH  12  13
ATOM     13  C   UNL     1       6.316   6.256  18.305  1.00  0.00     0.000 C 
BRANCH  13  14
ATOM     14  C   UNL     1       6.543   6.700  16.844  1.00  0.00     0.000 C 
BRANCH  14  15
ATOM     15  C   UNL     1       6.389   5.566  15.810  1.00  0.00     0.000 C 
BRANCH  15  16
ATOM     16  C   UNL     1       7.706   4.924  15.343  1.00  0.00     0.006 C 
BRANCH  16  17
ATOM     17  C   UNL     1       8.919   5.844  15.528  1.00  0.00     0.053 C 
BRANCH  17  18
ATOM     18  C   UNL     1       9.558   6.133  14.206  1.00  0.00     0.041 C 
ATOM     19  O   UNL     1      10.435   7.031  14.109  1.00  0.00    -0.550 OA
ATOM     20  O   UNL     1       9.149   5.444  13.071  1.00  0.00    -0.550 OA
ENDBRANCH  17  18
ENDBRANCH  16  17
ENDBRANCH  15  16
ENDBRANCH  14  15
ENDBRANCH  13  14
ENDBRANCH  12  13
ENDBRANCH  11  12
ENDBRANCH   1  11
TORSDOF 15
ENDMDL
MODEL 9
REMARK VINA RESULT:    -4.335      3.292      6.946
REMARK INTER + INTRA:          -9.877
REMARK INTER:                  -7.536
REMARK INTRA:                  -2.340
REMARK UNBOUND:                -1.740
REMARK SMILES O=C([O-])CCCCCCCCCCCCCCC(=O)[O-]
REMARK SMILES IDX 10 1 9 2 8 3 7 4 6 5 5 6 4 7 2 8 1 9 3 10 11 11 12 12 13 13
REMARK SMILES IDX 14 14 15 15 16 16 17 17 18 18 19 19 20 20
REMARK H PARENT
REMARK Flexibility Score: inf
ROOT
ATOM      1  C   UNL     1       8.296   5.422  19.541  1.00  0.00     0.000 C 
ENDROOT
BRANCH   1   2
ATOM      2  C   UNL     1       7.433   4.236  19.087  1.00  0.00     0.000 C 
BRANCH   2   3
ATOM      3  C   UNL     1       6.240   4.704  18.238  1.00  0.00     0.000 C 
BRANCH   3   4
ATOM      4  C   UNL     1       6.300   6.206  17.917  1.00  0.00     0.000 C 
BRANCH   4   5
ATOM      5  C   UNL     1       6.243   6.494  16.407  1.00  0.00     0.000 C 
BRANCH   5   6
ATOM      6  C   UNL     1       6.755   5.318  15.555  1.00  0.00     0.006 C 
BRANCH   6   7
ATOM      7  C   UNL     1       8.241   5.415  15.169  1.00  0.00     0.053 C 
BRANCH   7   8
ATOM      8  C   UNL     1       8.914   4.076  15.163  1.00  0.00     0.041 C 
ATOM      9  O   UNL     1       9.392   3.601  16.227  1.00  0.00    -0.550 OA
ATOM     10  O   UNL     1       8.987   3.341  13.986  1.00  0.00    -0.550 OA
ENDBRANCH   7   8
ENDBRANCH   6   7
ENDBRANCH   5   6
ENDBRANCH   4   5
ENDBRANCH   3   4
ENDBRANCH   2   3
ENDBRANCH   1   2
BRANCH   1  11
ATOM     11  C   UNL     1       8.646   5.374  21.040  1.00  0.00     0.000 C 
BRANCH  11  12
ATOM     12  C   UNL     1       8.334   6.660  21.826  1.00  0.00     0.000 C 
BRANCH  12  13
ATOM     13  C   UNL     1       7.321   7.573  21.112  1.00  0.00     0.000 C 
BRANCH  13  14
ATOM     14  C   UNL     1       5.941   7.572  21.805  1.00  0.00     0.000 C 
BRANCH  14  15
ATOM     15  C   UNL     1       4.989   6.463  21.311  1.00  0.00     0.000 C 
BRANCH  15  16
ATOM     16  C   UNL     1       5.003   5.171  22.143  1.00  0.00     0.006 C 
BRANCH  16  17
ATOM     17  C   UNL     1       4.454   3.960  21.379  1.00  0.00     0.053 C 
BRANCH  17  18
ATOM     18  C   UNL     1       5.199   2.720  21.763  1.00  0.00     0.041 C 
ATOM     19  O   UNL     1       5.670   1.964  20.875  1.00  0.00    -0.550 OA
ATOM     20  O   UNL     1       5.330   2.375  23.103  1.00  0.00    -0.550 OA
ENDBRANCH  17  18
ENDBRANCH  16  17
ENDBRANCH  15  16
ENDBRANCH  14  15
ENDBRANCH  13  14
ENDBRANCH  12  13
ENDBRANCH  11  12
ENDBRANCH   1  11
TORSDOF 15
ENDMDL
