MODEL 1
REMARK VINA RESULT:    -4.001      0.000      0.000
REMARK INTER + INTRA:          -4.452
REMARK INTER:                  -4.235
REMARK INTRA:                  -0.217
REMARK UNBOUND:                -0.217
REMARK SMILES C=C(C)[C@@H]1CC=C(C)C(=O)C1
REMARK SMILES IDX 8 1 7 2 6 3 5 4 4 5 11 6 9 7 10 8 2 9 1 10 3 11
REMARK H PARENT
REMARK Flexibility Score: inf
ROOT
ATOM      1  C   UNL     1      10.379 -28.397  16.673  1.00  0.00     0.048 C 
ATOM      2  C   UNL     1       9.045 -29.091  16.657  1.00  0.00    -0.012 C 
ATOM      3  C   UNL     1       8.511 -29.477  15.489  1.00  0.00    -0.019 C 
ATOM      4  C   UNL     1       7.167 -30.147  15.398  1.00  0.00     0.036 C 
ATOM      5  C   UNL     1       6.800 -30.970  16.651  1.00  0.00     0.025 C 
ATOM      6  C   UNL     1       7.077 -30.187  17.951  1.00  0.00     0.089 C 
ATOM      7  C   UNL     1       8.403 -29.480  17.935  1.00  0.00     0.158 C 
ATOM      8  O   UNL     1       8.950 -29.186  19.031  1.00  0.00    -0.295 OA
ENDROOT
BRANCH   5   9
ATOM      9  C   UNL     1       7.424 -32.366  16.647  1.00  0.00    -0.077 C 
ATOM     10  C   UNL     1       7.645 -33.057  17.779  1.00  0.00     0.008 C 
ATOM     11  C   UNL     1       7.810 -33.011  15.339  1.00  0.00     0.039 C 
ENDBRANCH   5   9
TORSDOF 1
ENDMDL
MODEL 2
REMARK VINA RESULT:    -3.807      1.178      1.947
REMARK INTER + INTRA:          -4.247
REMARK INTER:                  -4.031
REMARK INTRA:                  -0.215
REMARK UNBOUND:                -0.217
REMARK SMILES C=C(C)[C@@H]1CC=C(C)C(=O)C1
REMARK SMILES IDX 8 1 7 2 6 3 5 4 4 5 11 6 9 7 10 8 2 9 1 10 3 11
REMARK H PARENT
REMARK Flexibility Score: inf
ROOT
ATOM      1  C   UNL     1       9.230 -28.764  19.002  1.00  0.00     0.048 C 
ATOM      2  C   UNL     1       8.633 -29.139  17.673  1.00  0.00    -0.012 C 
ATOM      3  C   UNL     1       9.415 -29.191  16.584  1.00  0.00    -0.019 C 
ATOM      4  C   UNL     1       8.877 -29.526  15.220  1.00  0.00     0.036 C 
ATOM      5  C   UNL     1       7.645 -30.456  15.252  1.00  0.00     0.025 C 
ATOM      6  C   UNL     1       6.604 -29.989  16.291  1.00  0.00     0.089 C 
ATOM      7  C   UNL     1       7.225 -29.595  17.602  1.00  0.00     0.158 C 
ATOM      8  O   UNL     1       6.517 -29.622  18.644  1.00  0.00    -0.295 OA
ENDROOT
BRANCH   5   9
ATOM      9  C   UNL     1       8.018 -31.931  15.396  1.00  0.00    -0.077 C 
ATOM     10  C   UNL     1       9.137 -32.445  14.856  1.00  0.00     0.008 C 
ATOM     11  C   UNL     1       7.115 -32.860  16.170  1.00  0.00     0.039 C 
ENDBRANCH   5   9
TORSDOF 1
ENDMDL
MODEL 3
REMARK VINA RESULT:    -3.719      1.568      2.072
REMARK INTER + INTRA:          -4.153
REMARK INTER:                  -3.933
REMARK INTRA:                  -0.220
REMARK UNBOUND:                -0.217
REMARK SMILES C=C(C)[C@@H]1CC=C(C)C(=O)C1
REMARK SMILES IDX 8 1 7 2 6 3 5 4 4 5 11 6 9 7 10 8 2 9 1 10 3 11
REMARK H PARENT
REMARK Flexibility Score: inf
ROOT
ATOM      1  C   UNL     1       9.364 -29.531  13.384  1.00  0.00     0.048 C 
ATOM      2  C   UNL     1       8.205 -29.833  14.294  1.00  0.00    -0.012 C 
ATOM      3  C   UNL     1       7.108 -30.425  13.799  1.00  0.00    -0.019 C 
ATOM      4  C   UNL     1       5.901 -30.725  14.644  1.00  0.00     0.036 C 
ATOM      5  C   UNL     1       6.235 -30.982  16.129  1.00  0.00     0.025 C 
ATOM      6  C   UNL     1       7.204 -29.920  16.689  1.00  0.00     0.089 C 
ATOM      7  C   UNL     1       8.339 -29.616  15.754  1.00  0.00     0.158 C 
ATOM      8  O   UNL     1       9.405 -29.134  16.224  1.00  0.00    -0.295 OA
ENDROOT
BRANCH   5   9
ATOM      9  C   UNL     1       6.696 -32.415  16.394  1.00  0.00    -0.077 C 
ATOM     10  C   UNL     1       7.559 -32.721  17.379  1.00  0.00     0.008 C 
ATOM     11  C   UNL     1       6.177 -33.541  15.535  1.00  0.00     0.039 C 
ENDBRANCH   5   9
TORSDOF 1
ENDMDL
MODEL 4
REMARK VINA RESULT:    -3.654      1.759      3.244
REMARK INTER + INTRA:          -4.085
REMARK INTER:                  -3.889
REMARK INTRA:                  -0.196
REMARK UNBOUND:                -0.217
REMARK SMILES C=C(C)[C@@H]1CC=C(C)C(=O)C1
REMARK SMILES IDX 8 1 7 2 6 3 5 4 4 5 11 6 9 7 10 8 2 9 1 10 3 11
REMARK H PARENT
REMARK Flexibility Score: inf
ROOT
ATOM      1  C   UNL     1       5.944 -29.008  18.173  1.00  0.00     0.048 C 
ATOM      2  C   UNL     1       6.611 -29.958  17.218  1.00  0.00    -0.012 C 
ATOM      3  C   UNL     1       5.883 -30.568  16.271  1.00  0.00    -0.019 C 
ATOM      4  C   UNL     1       6.479 -31.555  15.304  1.00  0.00     0.036 C 
ATOM      5  C   UNL     1       7.968 -31.293  14.992  1.00  0.00     0.025 C 
ATOM      6  C   UNL     1       8.783 -31.029  16.276  1.00  0.00     0.089 C 
ATOM      7  C   UNL     1       8.087 -30.098  17.228  1.00  0.00     0.158 C 
ATOM      8  O   UNL     1       8.775 -29.458  18.068  1.00  0.00    -0.295 OA
ENDROOT
BRANCH   5   9
ATOM      9  C   UNL     1       8.170 -30.220  13.922  1.00  0.00    -0.077 C 
ATOM     10  C   UNL     1       7.200 -29.878  13.056  1.00  0.00     0.008 C 
ATOM     11  C   UNL     1       9.494 -29.505  13.818  1.00  0.00     0.039 C 
ENDBRANCH   5   9
TORSDOF 1
ENDMDL
MODEL 5
REMARK VINA RESULT:    -3.534      1.908      2.656
REMARK INTER + INTRA:          -3.958
REMARK INTER:                  -3.736
REMARK INTRA:                  -0.222
REMARK UNBOUND:                -0.217
REMARK SMILES C=C(C)[C@@H]1CC=C(C)C(=O)C1
REMARK SMILES IDX 8 1 7 2 6 3 5 4 4 5 11 6 9 7 10 8 2 9 1 10 3 11
REMARK H PARENT
REMARK Flexibility Score: inf
ROOT
ATOM      1  C   UNL     1       8.500 -29.308  18.339  1.00  0.00     0.048 C 
ATOM      2  C   UNL     1       8.319 -29.493  16.857  1.00  0.00    -0.012 C 
ATOM      3  C   UNL     1       9.369 -29.345  16.036  1.00  0.00    -0.019 C 
ATOM      4  C   UNL     1       9.252 -29.483  14.542  1.00  0.00     0.036 C 
ATOM      5  C   UNL     1       8.135 -30.451  14.097  1.00  0.00     0.025 C 
ATOM      6  C   UNL     1       6.817 -30.192  14.856  1.00  0.00     0.089 C 
ATOM      7  C   UNL     1       7.024 -29.985  16.330  1.00  0.00     0.158 C 
ATOM      8  O   UNL     1       6.064 -30.201  17.117  1.00  0.00    -0.295 OA
ENDROOT
BRANCH   5   9
ATOM      9  C   UNL     1       8.571 -31.916  14.133  1.00  0.00    -0.077 C 
ATOM     10  C   UNL     1       7.699 -32.920  14.333  1.00  0.00     0.008 C 
ATOM     11  C   UNL     1      10.024 -32.271  13.937  1.00  0.00     0.039 C 
ENDBRANCH   5   9
TORSDOF 1
ENDMDL
MODEL 6
REMARK VINA RESULT:    -3.507      3.143      4.306
REMARK INTER + INTRA:          -3.929
REMARK INTER:                  -3.712
REMARK INTRA:                  -0.217
REMARK UNBOUND:                -0.217
REMARK SMILES C=C(C)[C@@H]1CC=C(C)C(=O)C1
REMARK SMILES IDX 8 1 7 2 6 3 5 4 4 5 11 6 9 7 10 8 2 9 1 10 3 11
REMARK H PARENT
REMARK Flexibility Score: inf
ROOT
ATOM      1  C   UNL     1       8.487 -29.680  16.722  1.00  0.00     0.048 C 
ATOM      2  C   UNL     1       8.788 -29.565  15.252  1.00  0.00    -0.012 C 
ATOM      3  C   UNL     1      10.037 -29.287  14.850  1.00  0.00    -0.019 C 
ATOM      4  C   UNL     1      10.400 -29.125  13.399  1.00  0.00     0.036 C 
ATOM      5  C   UNL     1       9.518 -29.957  12.444  1.00  0.00     0.025 C 
ATOM      6  C   UNL     1       8.019 -29.817  12.784  1.00  0.00     0.089 C 
ATOM      7  C   UNL     1       7.744 -29.909  14.258  1.00  0.00     0.158 C 
ATOM      8  O   UNL     1       6.594 -30.250  14.644  1.00  0.00    -0.295 OA
ENDROOT
BRANCH   5   9
ATOM      9  C   UNL     1       9.974 -31.412  12.330  1.00  0.00    -0.077 C 
ATOM     10  C   UNL     1       9.137 -32.401  11.971  1.00  0.00     0.008 C 
ATOM     11  C   UNL     1      11.409 -31.772  12.624  1.00  0.00     0.039 C 
ENDBRANCH   5   9
TORSDOF 1
ENDMDL
MODEL 7
REMARK VINA RESULT:    -3.484      2.272      4.029
REMARK INTER + INTRA:          -3.904
REMARK INTER:                  -3.741
REMARK INTRA:                  -0.163
REMARK UNBOUND:                -0.217
REMARK SMILES C=C(C)[C@@H]1CC=C(C)C(=O)C1
REMARK SMILES IDX 8 1 7 2 6 3 5 4 4 5 11 6 9 7 10 8 2 9 1 10 3 11
REMARK H PARENT
REMARK Flexibility Score: inf
ROOT
ATOM      1  C   UNL     1       7.391 -33.585  17.784  1.00  0.00     0.048 C 
ATOM      2  C   UNL     1       7.020 -32.282  17.131  1.00  0.00    -0.012 C 
ATOM      3  C   UNL     1       7.480 -31.130  17.640  1.00  0.00    -0.019 C 
ATOM      4  C   UNL     1       7.122 -29.790  17.056  1.00  0.00     0.036 C 
ATOM      5  C   UNL     1       6.842 -29.832  15.539  1.00  0.00     0.025 C 
ATOM      6  C   UNL     1       5.909 -31.002  15.162  1.00  0.00     0.089 C 
ATOM      7  C   UNL     1       6.281 -32.287  15.846  1.00  0.00     0.158 C 
ATOM      8  O   UNL     1       5.922 -33.379  15.329  1.00  0.00    -0.295 OA
ENDROOT
BRANCH   5   9
ATOM      9  C   UNL     1       8.117 -29.786  14.698  1.00  0.00    -0.077 C 
ATOM     10  C   UNL     1       9.307 -29.436  15.216  1.00  0.00     0.008 C 
ATOM     11  C   UNL     1       8.062 -30.143  13.233  1.00  0.00     0.039 C 
ENDBRANCH   5   9
TORSDOF 1
ENDMDL
MODEL 8
REMARK VINA RESULT:    -3.421      2.519      4.035
REMARK INTER + INTRA:          -3.838
REMARK INTER:                  -3.620
REMARK INTRA:                  -0.218
REMARK UNBOUND:                -0.217
REMARK SMILES C=C(C)[C@@H]1CC=C(C)C(=O)C1
REMARK SMILES IDX 8 1 7 2 6 3 5 4 4 5 11 6 9 7 10 8 2 9 1 10 3 11
REMARK H PARENT
REMARK Flexibility Score: inf
ROOT
ATOM      1  C   UNL     1      10.780 -33.076  13.837  1.00  0.00     0.048 C 
ATOM      2  C   UNL     1       9.733 -32.034  14.121  1.00  0.00    -0.012 C 
ATOM      3  C   UNL     1       8.601 -32.383  14.750  1.00  0.00    -0.019 C 
ATOM      4  C   UNL     1       7.500 -31.399  15.036  1.00  0.00     0.036 C 
ATOM      5  C   UNL     1       7.999 -29.951  15.229  1.00  0.00     0.025 C 
ATOM      6  C   UNL     1       9.001 -29.541  14.130  1.00  0.00     0.089 C 
ATOM      7  C   UNL     1      10.021 -30.607  13.844  1.00  0.00     0.158 C 
ATOM      8  O   UNL     1      11.122 -30.274  13.327  1.00  0.00    -0.295 OA
ENDROOT
BRANCH   5   9
ATOM      9  C   UNL     1       8.516 -29.685  16.643  1.00  0.00    -0.077 C 
ATOM     10  C   UNL     1       8.013 -30.311  17.721  1.00  0.00     0.008 C 
ATOM     11  C   UNL     1       9.629 -28.690  16.858  1.00  0.00     0.039 C 
ENDBRANCH   5   9
TORSDOF 1
ENDMDL
