MODEL 1
REMARK VINA RESULT:    -6.888      0.000      0.000
REMARK INTER + INTRA:         -11.497
REMARK INTER:                 -10.109
REMARK INTRA:                  -1.387
REMARK UNBOUND:                -1.387
REMARK SMILES O=c1c(O[C@@H]2O[C@H](CO)[C@@H](O)[C@H](O)[C@H]2O)c(-c2ccc(O)c(O)c2)oc2cc(O)cc(O)c12
REMARK SMILES IDX 4 1 3 2 16 3 25 4 2 5 26 6 1 7 33 8 27 9 31 10 28 11 30 12
REMARK SMILES IDX 17 13 18 14 19 15 20 16 24 17 22 18 21 19 23 21 32 23 29 25
REMARK SMILES IDX 5 27 14 28 6 29 12 30 7 31 10 32 15 33 13 35 8 37 9 38 11 40
REMARK H PARENT 21 20 23 22 32 24 29 26 15 34 13 36 9 39 11 41
REMARK Flexibility Score: inf
ROOT
ATOM      1  O   UNL     1       3.466   5.983 -25.017  1.00  0.00    -0.454 OA
ENDROOT
BRANCH   1   2
ATOM      2  C   UNL     1       4.308   7.010 -24.554  1.00  0.00     0.214 A 
ATOM      3  C   UNL     1       4.999   6.809 -23.347  1.00  0.00     0.180 A 
ATOM      4  O   UNL     1       5.838   7.728 -22.894  1.00  0.00    -0.452 OA
ATOM      5  C   UNL     1       4.500   8.228 -25.240  1.00  0.00     0.239 A 
ATOM      6  C   UNL     1       6.074   8.874 -23.523  1.00  0.00     0.146 A 
ATOM      7  O   UNL     1       3.804   8.478 -26.255  1.00  0.00    -0.285 OA
ATOM      8  C   UNL     1       5.430   9.176 -24.752  1.00  0.00     0.111 A 
ATOM      9  C   UNL     1       6.962   9.780 -22.941  1.00  0.00     0.094 A 
ATOM     10  C   UNL     1       5.745  10.416 -25.392  1.00  0.00     0.134 A 
ATOM     11  C   UNL     1       7.223  11.009 -23.550  1.00  0.00     0.123 A 
ATOM     12  C   UNL     1       6.608  11.323 -24.761  1.00  0.00     0.093 A 
BRANCH   3  13
ATOM     13  C   UNL     1       4.831   5.565 -22.567  1.00  0.00     0.025 A 
ATOM     14  C   UNL     1       3.819   5.454 -21.599  1.00  0.00     0.016 A 
ATOM     15  C   UNL     1       3.656   4.266 -20.882  1.00  0.00     0.051 A 
ATOM     16  C   UNL     1       4.505   3.177 -21.115  1.00  0.00     0.157 A 
ATOM     17  C   UNL     1       5.705   4.486 -22.777  1.00  0.00     0.062 A 
ATOM     18  C   UNL     1       5.541   3.289 -22.062  1.00  0.00     0.158 A 
BRANCH  16  19
ATOM     19  O   UNL     1       4.306   1.996 -20.400  1.00  0.00    -0.504 OA
ATOM     20  H   UNL     1       3.640   1.932 -19.638  1.00  0.00     0.293 HD
ENDBRANCH  16  19
BRANCH  18  21
ATOM     21  O   UNL     1       6.399   2.212 -22.291  1.00  0.00    -0.504 OA
ATOM     22  H   UNL     1       6.949   2.143 -23.141  1.00  0.00     0.293 HD
ENDBRANCH  18  21
ENDBRANCH   3  13
BRANCH  10  23
ATOM     23  O   UNL     1       5.261  10.797 -26.648  1.00  0.00    -0.507 OA
ATOM     24  H   UNL     1       4.923  10.163 -27.358  1.00  0.00     0.293 HD
ENDBRANCH  10  23
BRANCH  11  25
ATOM     25  O   UNL     1       8.103  11.917 -22.965  1.00  0.00    -0.508 OA
ATOM     26  H   UNL     1       9.047  11.649 -22.712  1.00  0.00     0.293 HD
ENDBRANCH  11  25
ENDBRANCH   1   2
BRANCH   1  27
ATOM     27  C   UNL     1       3.713   5.115 -26.129  1.00  0.00     0.339 C 
ATOM     28  C   UNL     1       4.030   3.689 -25.628  1.00  0.00     0.214 C 
ATOM     29  O   UNL     1       2.648   5.142 -27.072  1.00  0.00    -0.332 OA
ATOM     30  C   UNL     1       2.777   2.997 -25.073  1.00  0.00     0.180 C 
ATOM     31  C   UNL     1       1.433   4.552 -26.618  1.00  0.00     0.179 C 
ATOM     32  C   UNL     1       1.602   3.108 -26.065  1.00  0.00     0.177 C 
BRANCH  28  33
ATOM     33  O   UNL     1       4.636   2.904 -26.628  1.00  0.00    -0.384 OA
ATOM     34  H   UNL     1       4.048   2.135 -26.840  1.00  0.00     0.211 HD
ENDBRANCH  28  33
BRANCH  30  35
ATOM     35  O   UNL     1       2.437   3.575 -23.840  1.00  0.00    -0.387 OA
ATOM     36  H   UNL     1       3.213   3.453 -23.235  1.00  0.00     0.211 HD
ENDBRANCH  30  35
BRANCH  31  37
ATOM     37  C   UNL     1       0.636   5.489 -25.684  1.00  0.00     0.191 C 
BRANCH  37  38
ATOM     38  O   UNL     1      -0.245   4.755 -24.875  1.00  0.00    -0.394 OA
ATOM     39  H   UNL     1      -0.143   3.802 -25.128  1.00  0.00     0.210 HD
ENDBRANCH  37  38
ENDBRANCH  31  37
BRANCH  32  40
ATOM     40  O   UNL     1       1.811   2.210 -27.125  1.00  0.00    -0.387 OA
ATOM     41  H   UNL     1       2.165   1.366 -26.738  1.00  0.00     0.211 HD
ENDBRANCH  32  40
ENDBRANCH   1  27
TORSDOF 12
ENDMDL
MODEL 2
REMARK VINA RESULT:    -6.862      0.907      2.217
REMARK INTER + INTRA:         -11.459
REMARK INTER:                 -10.164
REMARK INTRA:                  -1.295
REMARK UNBOUND:                -1.387
REMARK SMILES O=c1c(O[C@@H]2O[C@H](CO)[C@@H](O)[C@H](O)[C@H]2O)c(-c2ccc(O)c(O)c2)oc2cc(O)cc(O)c12
REMARK SMILES IDX 4 1 3 2 16 3 25 4 2 5 26 6 1 7 33 8 27 9 31 10 28 11 30 12
REMARK SMILES IDX 17 13 18 14 19 15 20 16 24 17 22 18 21 19 23 21 32 23 29 25
REMARK SMILES IDX 5 27 14 28 6 29 12 30 7 31 10 32 15 33 13 35 8 37 9 38 11 40
REMARK H PARENT 21 20 23 22 32 24 29 26 15 34 13 36 9 39 11 41
REMARK Flexibility Score: inf
ROOT
ATOM      1  O   UNL     1       3.563   6.291 -24.847  1.00  0.00    -0.454 OA
ENDROOT
BRANCH   1   2
ATOM      2  C   UNL     1       4.460   7.257 -24.359  1.00  0.00     0.214 A 
ATOM      3  C   UNL     1       5.183   6.963 -23.192  1.00  0.00     0.180 A 
ATOM      4  O   UNL     1       6.073   7.823 -22.719  1.00  0.00    -0.452 OA
ATOM      5  C   UNL     1       4.675   8.505 -24.984  1.00  0.00     0.239 A 
ATOM      6  C   UNL     1       6.331   8.993 -23.292  1.00  0.00     0.146 A 
ATOM      7  O   UNL     1       3.956   8.837 -25.958  1.00  0.00    -0.285 OA
ATOM      8  C   UNL     1       5.659   9.388 -24.479  1.00  0.00     0.111 A 
ATOM      9  C   UNL     1       7.274   9.831 -22.694  1.00  0.00     0.094 A 
ATOM     10  C   UNL     1       6.000  10.649 -25.060  1.00  0.00     0.134 A 
ATOM     11  C   UNL     1       7.562  11.081 -23.244  1.00  0.00     0.123 A 
ATOM     12  C   UNL     1       6.919  11.486 -24.413  1.00  0.00     0.093 A 
BRANCH   3  13
ATOM     13  C   UNL     1       4.993   5.684 -22.476  1.00  0.00     0.025 A 
ATOM     14  C   UNL     1       3.987   5.546 -21.505  1.00  0.00     0.016 A 
ATOM     15  C   UNL     1       3.802   4.326 -20.849  1.00  0.00     0.051 A 
ATOM     16  C   UNL     1       4.624   3.232 -21.146  1.00  0.00     0.157 A 
ATOM     17  C   UNL     1       5.840   4.598 -22.750  1.00  0.00     0.062 A 
ATOM     18  C   UNL     1       5.654   3.370 -22.097  1.00  0.00     0.158 A 
BRANCH  16  19
ATOM     19  O   UNL     1       4.404   2.020 -20.491  1.00  0.00    -0.504 OA
ATOM     20  H   UNL     1       5.018   1.685 -19.757  1.00  0.00     0.293 HD
ENDBRANCH  16  19
BRANCH  18  21
ATOM     21  O   UNL     1       6.484   2.287 -22.390  1.00  0.00    -0.504 OA
ATOM     22  H   UNL     1       7.328   2.105 -21.857  1.00  0.00     0.293 HD
ENDBRANCH  18  21
ENDBRANCH   3  13
BRANCH  10  23
ATOM     23  O   UNL     1       5.489  11.118 -26.275  1.00  0.00    -0.507 OA
ATOM     24  H   UNL     1       5.911  11.838 -26.844  1.00  0.00     0.293 HD
ENDBRANCH  10  23
BRANCH  11  25
ATOM     25  O   UNL     1       8.497  11.922 -22.642  1.00  0.00    -0.508 OA
ATOM     26  H   UNL     1       8.785  12.789 -23.079  1.00  0.00     0.293 HD
ENDBRANCH  11  25
ENDBRANCH   1   2
BRANCH   1  27
ATOM     27  C   UNL     1       2.333   5.884 -24.236  1.00  0.00     0.339 C 
ATOM     28  C   UNL     1       1.154   6.680 -24.836  1.00  0.00     0.214 C 
ATOM     29  O   UNL     1       2.141   4.476 -24.313  1.00  0.00    -0.332 OA
ATOM     30  C   UNL     1       0.851   6.238 -26.274  1.00  0.00     0.180 C 
ATOM     31  C   UNL     1       1.891   3.978 -25.625  1.00  0.00     0.179 C 
ATOM     32  C   UNL     1       0.730   4.704 -26.363  1.00  0.00     0.177 C 
BRANCH  28  33
ATOM     33  O   UNL     1       0.002   6.599 -24.031  1.00  0.00    -0.384 OA
ATOM     34  H   UNL     1      -0.206   5.645 -23.855  1.00  0.00     0.211 HD
ENDBRANCH  28  33
BRANCH  30  35
ATOM     35  O   UNL     1       1.865   6.704 -27.125  1.00  0.00    -0.387 OA
ATOM     36  H   UNL     1       1.585   7.596 -27.454  1.00  0.00     0.211 HD
ENDBRANCH  30  35
BRANCH  31  37
ATOM     37  C   UNL     1       3.182   3.851 -26.462  1.00  0.00     0.191 C 
BRANCH  37  38
ATOM     38  O   UNL     1       4.257   3.437 -25.662  1.00  0.00    -0.394 OA
ATOM     39  H   UNL     1       5.046   3.360 -26.256  1.00  0.00     0.210 HD
ENDBRANCH  37  38
ENDBRANCH  31  37
BRANCH  32  40
ATOM     40  O   UNL     1      -0.504   4.308 -25.823  1.00  0.00    -0.387 OA
ATOM     41  H   UNL     1      -0.799   5.020 -25.195  1.00  0.00     0.211 HD
ENDBRANCH  32  40
ENDBRANCH   1  27
TORSDOF 12
ENDMDL
MODEL 3
REMARK VINA RESULT:    -6.554      2.075      3.036
REMARK INTER + INTRA:         -11.007
REMARK INTER:                  -9.620
REMARK INTRA:                  -1.386
REMARK UNBOUND:                -1.387
REMARK SMILES O=c1c(O[C@@H]2O[C@H](CO)[C@@H](O)[C@H](O)[C@H]2O)c(-c2ccc(O)c(O)c2)oc2cc(O)cc(O)c12
REMARK SMILES IDX 4 1 3 2 16 3 25 4 2 5 26 6 1 7 33 8 27 9 31 10 28 11 30 12
REMARK SMILES IDX 17 13 18 14 19 15 20 16 24 17 22 18 21 19 23 21 32 23 29 25
REMARK SMILES IDX 5 27 14 28 6 29 12 30 7 31 10 32 15 33 13 35 8 37 9 38 11 40
REMARK H PARENT 21 20 23 22 32 24 29 26 15 34 13 36 9 39 11 41
REMARK Flexibility Score: inf
ROOT
ATOM      1  O   UNL     1       2.241   4.659 -25.097  1.00  0.00    -0.454 OA
ENDROOT
BRANCH   1   2
ATOM      2  C   UNL     1       2.698   5.882 -24.576  1.00  0.00     0.214 A 
ATOM      3  C   UNL     1       3.655   5.850 -23.547  1.00  0.00     0.180 A 
ATOM      4  O   UNL     1       4.149   6.976 -23.055  1.00  0.00    -0.452 OA
ATOM      5  C   UNL     1       2.251   7.140 -25.034  1.00  0.00     0.239 A 
ATOM      6  C   UNL     1       3.781   8.180 -23.479  1.00  0.00     0.146 A 
ATOM      7  O   UNL     1       1.312   7.192 -25.867  1.00  0.00    -0.285 OA
ATOM      8  C   UNL     1       2.823   8.326 -24.517  1.00  0.00     0.111 A 
ATOM      9  C   UNL     1       4.352   9.300 -22.872  1.00  0.00     0.094 A 
ATOM     10  C   UNL     1       2.488   9.649 -24.945  1.00  0.00     0.134 A 
ATOM     11  C   UNL     1       3.980  10.587 -23.265  1.00  0.00     0.123 A 
ATOM     12  C   UNL     1       3.046  10.754 -24.287  1.00  0.00     0.093 A 
BRANCH   3  13
ATOM     13  C   UNL     1       4.153   4.568 -23.006  1.00  0.00     0.025 A 
ATOM     14  C   UNL     1       4.070   4.287 -21.632  1.00  0.00     0.016 A 
ATOM     15  C   UNL     1       4.525   3.063 -21.134  1.00  0.00     0.051 A 
ATOM     16  C   UNL     1       5.077   2.109 -21.997  1.00  0.00     0.157 A 
ATOM     17  C   UNL     1       4.738   3.627 -23.868  1.00  0.00     0.062 A 
ATOM     18  C   UNL     1       5.192   2.394 -23.372  1.00  0.00     0.158 A 
BRANCH  16  19
ATOM     19  O   UNL     1       5.504   0.888 -21.476  1.00  0.00    -0.504 OA
ATOM     20  H   UNL     1       6.361   0.800 -20.942  1.00  0.00     0.293 HD
ENDBRANCH  16  19
BRANCH  18  21
ATOM     21  O   UNL     1       5.752   1.453 -24.237  1.00  0.00    -0.504 OA
ATOM     22  H   UNL     1       5.908   1.661 -25.218  1.00  0.00     0.293 HD
ENDBRANCH  18  21
ENDBRANCH   3  13
BRANCH  10  23
ATOM     23  O   UNL     1       1.637   9.936 -26.017  1.00  0.00    -0.507 OA
ATOM     24  H   UNL     1       1.242  10.843 -26.220  1.00  0.00     0.293 HD
ENDBRANCH  10  23
BRANCH  11  25
ATOM     25  O   UNL     1       4.543  11.705 -22.653  1.00  0.00    -0.508 OA
ATOM     26  H   UNL     1       5.538  11.764 -22.474  1.00  0.00     0.293 HD
ENDBRANCH  11  25
ENDBRANCH   1   2
BRANCH   1  27
ATOM     27  C   UNL     1       1.293   3.775 -24.490  1.00  0.00     0.339 C 
ATOM     28  C   UNL     1      -0.144   4.219 -24.839  1.00  0.00     0.214 C 
ATOM     29  O   UNL     1       1.544   2.414 -24.823  1.00  0.00    -0.332 OA
ATOM     30  C   UNL     1      -0.479   3.935 -26.309  1.00  0.00     0.180 C 
ATOM     31  C   UNL     1       1.293   2.077 -26.185  1.00  0.00     0.179 C 
ATOM     32  C   UNL     1      -0.123   2.483 -26.684  1.00  0.00     0.177 C 
BRANCH  28  33
ATOM     33  O   UNL     1      -1.098   3.632 -23.984  1.00  0.00    -0.384 OA
ATOM     34  H   UNL     1      -0.825   2.700 -23.783  1.00  0.00     0.211 HD
ENDBRANCH  28  33
BRANCH  30  35
ATOM     35  O   UNL     1       0.217   4.841 -27.125  1.00  0.00    -0.387 OA
ATOM     36  H   UNL     1      -0.424   5.546 -27.395  1.00  0.00     0.211 HD
ENDBRANCH  30  35
BRANCH  31  37
ATOM     37  C   UNL     1       2.438   2.522 -27.121  1.00  0.00     0.191 C 
BRANCH  37  38
ATOM     38  O   UNL     1       3.687   2.184 -26.577  1.00  0.00    -0.394 OA
ATOM     39  H   UNL     1       3.702   2.533 -25.650  1.00  0.00     0.210 HD
ENDBRANCH  37  38
ENDBRANCH  31  37
BRANCH  32  40
ATOM     40  O   UNL     1      -1.088   1.619 -26.143  1.00  0.00    -0.387 OA
ATOM     41  H   UNL     1      -1.889   1.658 -26.731  1.00  0.00     0.211 HD
ENDBRANCH  32  40
ENDBRANCH   1  27
TORSDOF 12
ENDMDL
MODEL 4
REMARK VINA RESULT:    -6.058      2.117      4.762
REMARK INTER + INTRA:         -10.278
REMARK INTER:                  -9.393
REMARK INTRA:                  -0.885
REMARK UNBOUND:                -1.387
REMARK SMILES O=c1c(O[C@@H]2O[C@H](CO)[C@@H](O)[C@H](O)[C@H]2O)c(-c2ccc(O)c(O)c2)oc2cc(O)cc(O)c12
REMARK SMILES IDX 4 1 3 2 16 3 25 4 2 5 26 6 1 7 33 8 27 9 31 10 28 11 30 12
REMARK SMILES IDX 17 13 18 14 19 15 20 16 24 17 22 18 21 19 23 21 32 23 29 25
REMARK SMILES IDX 5 27 14 28 6 29 12 30 7 31 10 32 15 33 13 35 8 37 9 38 11 40
REMARK H PARENT 21 20 23 22 32 24 29 26 15 34 13 36 9 39 11 41
REMARK Flexibility Score: inf
ROOT
ATOM      1  O   UNL     1       3.871   4.510 -23.704  1.00  0.00    -0.454 OA
ENDROOT
BRANCH   1   2
ATOM      2  C   UNL     1       3.624   5.892 -23.787  1.00  0.00     0.214 A 
ATOM      3  C   UNL     1       2.502   6.323 -24.514  1.00  0.00     0.180 A 
ATOM      4  O   UNL     1       2.203   7.612 -24.582  1.00  0.00    -0.452 OA
ATOM      5  C   UNL     1       4.441   6.867 -23.176  1.00  0.00     0.239 A 
ATOM      6  C   UNL     1       2.924   8.560 -23.996  1.00  0.00     0.146 A 
ATOM      7  O   UNL     1       5.512   6.513 -22.624  1.00  0.00    -0.285 OA
ATOM      8  C   UNL     1       4.077   8.232 -23.234  1.00  0.00     0.111 A 
ATOM      9  C   UNL     1       2.528   9.889 -24.154  1.00  0.00     0.094 A 
ATOM     10  C   UNL     1       4.796   9.298 -22.607  1.00  0.00     0.134 A 
ATOM     11  C   UNL     1       3.266  10.924 -23.578  1.00  0.00     0.123 A 
ATOM     12  C   UNL     1       4.398  10.624 -22.820  1.00  0.00     0.093 A 
BRANCH   3  13
ATOM     13  C   UNL     1       1.615   5.358 -25.196  1.00  0.00     0.025 A 
ATOM     14  C   UNL     1       1.899   4.915 -26.497  1.00  0.00     0.016 A 
ATOM     15  C   UNL     1       1.065   3.986 -27.125  1.00  0.00     0.051 A 
ATOM     16  C   UNL     1      -0.068   3.495 -26.466  1.00  0.00     0.157 A 
ATOM     17  C   UNL     1       0.459   4.893 -24.546  1.00  0.00     0.062 A 
ATOM     18  C   UNL     1      -0.379   3.956 -25.172  1.00  0.00     0.158 A 
BRANCH  16  19
ATOM     19  O   UNL     1      -0.873   2.553 -27.108  1.00  0.00    -0.504 OA
ATOM     20  H   UNL     1      -0.846   1.568 -26.867  1.00  0.00     0.293 HD
ENDBRANCH  16  19
BRANCH  18  21
ATOM     21  O   UNL     1      -1.514   3.481 -24.513  1.00  0.00    -0.504 OA
ATOM     22  H   UNL     1      -1.849   2.533 -24.650  1.00  0.00     0.293 HD
ENDBRANCH  18  21
ENDBRANCH   3  13
BRANCH  10  23
ATOM     23  O   UNL     1       5.888   9.112 -21.752  1.00  0.00    -0.507 OA
ATOM     24  H   UNL     1       6.665   8.490 -21.927  1.00  0.00     0.293 HD
ENDBRANCH  10  23
BRANCH  11  25
ATOM     25  O   UNL     1       2.876  12.251 -23.743  1.00  0.00    -0.508 OA
ATOM     26  H   UNL     1       1.921  12.494 -23.980  1.00  0.00     0.293 HD
ENDBRANCH  11  25
ENDBRANCH   1   2
BRANCH   1  27
ATOM     27  C   UNL     1       5.148   3.866 -23.779  1.00  0.00     0.339 C 
ATOM     28  C   UNL     1       5.586   3.394 -22.376  1.00  0.00     0.214 C 
ATOM     29  O   UNL     1       5.161   2.817 -24.741  1.00  0.00    -0.332 OA
ATOM     30  C   UNL     1       4.755   2.194 -21.902  1.00  0.00     0.180 C 
ATOM     31  C   UNL     1       4.379   1.678 -24.392  1.00  0.00     0.179 C 
ATOM     32  C   UNL     1       4.702   1.098 -22.985  1.00  0.00     0.177 C 
BRANCH  28  33
ATOM     33  O   UNL     1       6.964   3.102 -22.326  1.00  0.00    -0.384 OA
ATOM     34  H   UNL     1       7.357   3.522 -21.518  1.00  0.00     0.211 HD
ENDBRANCH  28  33
BRANCH  30  35
ATOM     35  O   UNL     1       3.461   2.628 -21.575  1.00  0.00    -0.387 OA
ATOM     36  H   UNL     1       3.110   3.123 -22.360  1.00  0.00     0.211 HD
ENDBRANCH  30  35
BRANCH  31  37
ATOM     37  C   UNL     1       2.871   1.899 -24.646  1.00  0.00     0.191 C 
BRANCH  37  38
ATOM     38  O   UNL     1       2.403   1.036 -25.649  1.00  0.00    -0.394 OA
ATOM     39  H   UNL     1       1.672   1.511 -26.119  1.00  0.00     0.210 HD
ENDBRANCH  37  38
ENDBRANCH  31  37
BRANCH  32  40
ATOM     40  O   UNL     1       5.933   0.423 -23.016  1.00  0.00    -0.387 OA
ATOM     41  H   UNL     1       6.043   0.041 -23.927  1.00  0.00     0.211 HD
ENDBRANCH  32  40
ENDBRANCH   1  27
TORSDOF 12
ENDMDL
MODEL 5
REMARK VINA RESULT:    -5.553      2.206      4.893
REMARK INTER + INTRA:          -9.537
REMARK INTER:                  -8.744
REMARK INTRA:                  -0.793
REMARK UNBOUND:                -1.387
REMARK SMILES O=c1c(O[C@@H]2O[C@H](CO)[C@@H](O)[C@H](O)[C@H]2O)c(-c2ccc(O)c(O)c2)oc2cc(O)cc(O)c12
REMARK SMILES IDX 4 1 3 2 16 3 25 4 2 5 26 6 1 7 33 8 27 9 31 10 28 11 30 12
REMARK SMILES IDX 17 13 18 14 19 15 20 16 24 17 22 18 21 19 23 21 32 23 29 25
REMARK SMILES IDX 5 27 14 28 6 29 12 30 7 31 10 32 15 33 13 35 8 37 9 38 11 40
REMARK H PARENT 21 20 23 22 32 24 29 26 15 34 13 36 9 39 11 41
REMARK Flexibility Score: inf
ROOT
ATOM      1  O   UNL     1       4.135   4.659 -24.153  1.00  0.00    -0.454 OA
ENDROOT
BRANCH   1   2
ATOM      2  C   UNL     1       3.754   6.011 -24.080  1.00  0.00     0.214 A 
ATOM      3  C   UNL     1       2.505   6.378 -24.610  1.00  0.00     0.180 A 
ATOM      4  O   UNL     1       2.083   7.630 -24.524  1.00  0.00    -0.452 OA
ATOM      5  C   UNL     1       4.556   7.016 -23.500  1.00  0.00     0.239 A 
ATOM      6  C   UNL     1       2.790   8.601 -23.958  1.00  0.00     0.146 A 
ATOM      7  O   UNL     1       5.722   6.734 -23.129  1.00  0.00    -0.285 OA
ATOM      8  C   UNL     1       4.063   8.338 -23.388  1.00  0.00     0.111 A 
ATOM      9  C   UNL     1       2.255   9.891 -23.945  1.00  0.00     0.094 A 
ATOM     10  C   UNL     1       4.764   9.422 -22.772  1.00  0.00     0.134 A 
ATOM     11  C   UNL     1       2.970  10.950 -23.383  1.00  0.00     0.123 A 
ATOM     12  C   UNL     1       4.220  10.713 -22.812  1.00  0.00     0.093 A 
BRANCH   3  13
ATOM     13  C   UNL     1       1.623   5.380 -25.250  1.00  0.00     0.025 A 
ATOM     14  C   UNL     1       1.906   4.888 -26.534  1.00  0.00     0.016 A 
ATOM     15  C   UNL     1       1.076   3.929 -27.122  1.00  0.00     0.051 A 
ATOM     16  C   UNL     1      -0.051   3.456 -26.439  1.00  0.00     0.157 A 
ATOM     17  C   UNL     1       0.473   4.933 -24.578  1.00  0.00     0.062 A 
ATOM     18  C   UNL     1      -0.360   3.966 -25.163  1.00  0.00     0.158 A 
BRANCH  16  19
ATOM     19  O   UNL     1      -0.851   2.484 -27.040  1.00  0.00    -0.504 OA
ATOM     20  H   UNL     1      -1.184   2.574 -27.994  1.00  0.00     0.293 HD
ENDBRANCH  16  19
BRANCH  18  21
ATOM     21  O   UNL     1      -1.489   3.509 -24.482  1.00  0.00    -0.504 OA
ATOM     22  H   UNL     1      -1.726   3.852 -23.556  1.00  0.00     0.293 HD
ENDBRANCH  18  21
ENDBRANCH   3  13
BRANCH  10  23
ATOM     23  O   UNL     1       5.978   9.286 -22.090  1.00  0.00    -0.507 OA
ATOM     24  H   UNL     1       6.893   9.358 -22.511  1.00  0.00     0.293 HD
ENDBRANCH  10  23
BRANCH  11  25
ATOM     25  O   UNL     1       2.440  12.239 -23.377  1.00  0.00    -0.508 OA
ATOM     26  H   UNL     1       2.126  12.684 -24.231  1.00  0.00     0.293 HD
ENDBRANCH  11  25
ENDBRANCH   1   2
BRANCH   1  27
ATOM     27  C   UNL     1       3.371   3.533 -23.708  1.00  0.00     0.339 C 
ATOM     28  C   UNL     1       3.401   2.418 -24.775  1.00  0.00     0.214 C 
ATOM     29  O   UNL     1       3.789   3.079 -22.426  1.00  0.00    -0.332 OA
ATOM     30  C   UNL     1       4.778   1.744 -24.845  1.00  0.00     0.180 C 
ATOM     31  C   UNL     1       5.079   2.473 -22.398  1.00  0.00     0.179 C 
ATOM     32  C   UNL     1       5.262   1.333 -23.440  1.00  0.00     0.177 C 
BRANCH  28  33
ATOM     33  O   UNL     1       2.385   1.464 -24.567  1.00  0.00    -0.384 OA
ATOM     34  H   UNL     1       2.537   1.011 -23.699  1.00  0.00     0.211 HD
ENDBRANCH  28  33
BRANCH  30  35
ATOM     35  O   UNL     1       5.693   2.623 -25.444  1.00  0.00    -0.387 OA
ATOM     36  H   UNL     1       5.347   3.543 -25.311  1.00  0.00     0.211 HD
ENDBRANCH  30  35
BRANCH  31  37
ATOM     37  C   UNL     1       6.218   3.515 -22.405  1.00  0.00     0.191 C 
BRANCH  37  38
ATOM     38  O   UNL     1       5.956   4.547 -21.491  1.00  0.00    -0.394 OA
ATOM     39  H   UNL     1       6.734   5.160 -21.518  1.00  0.00     0.210 HD
ENDBRANCH  37  38
ENDBRANCH  31  37
BRANCH  32  40
ATOM     40  O   UNL     1       4.558   0.190 -23.029  1.00  0.00    -0.387 OA
ATOM     41  H   UNL     1       3.968  -0.087 -23.780  1.00  0.00     0.211 HD
ENDBRANCH  32  40
ENDBRANCH   1  27
TORSDOF 12
ENDMDL
MODEL 6
REMARK VINA RESULT:    -5.541      3.248      7.689
REMARK INTER + INTRA:          -9.520
REMARK INTER:                  -8.872
REMARK INTRA:                  -0.648
REMARK UNBOUND:                -1.387
REMARK SMILES O=c1c(O[C@@H]2O[C@H](CO)[C@@H](O)[C@H](O)[C@H]2O)c(-c2ccc(O)c(O)c2)oc2cc(O)cc(O)c12
REMARK SMILES IDX 4 1 3 2 16 3 25 4 2 5 26 6 1 7 33 8 27 9 31 10 28 11 30 12
REMARK SMILES IDX 17 13 18 14 19 15 20 16 24 17 22 18 21 19 23 21 32 23 29 25
REMARK SMILES IDX 5 27 14 28 6 29 12 30 7 31 10 32 15 33 13 35 8 37 9 38 11 40
REMARK H PARENT 21 20 23 22 32 24 29 26 15 34 13 36 9 39 11 41
REMARK Flexibility Score: inf
ROOT
ATOM      1  O   UNL     1       3.263   2.431 -25.156  1.00  0.00    -0.454 OA
ENDROOT
BRANCH   1   2
ATOM      2  C   UNL     1       3.536   1.212 -24.510  1.00  0.00     0.214 A 
ATOM      3  C   UNL     1       4.313   1.239 -23.341  1.00  0.00     0.180 A 
ATOM      4  O   UNL     1       4.559   0.122 -22.672  1.00  0.00    -0.452 OA
ATOM      5  C   UNL     1       3.066  -0.036 -24.973  1.00  0.00     0.239 A 
ATOM      6  C   UNL     1       4.109  -1.068 -23.052  1.00  0.00     0.146 A 
ATOM      7  O   UNL     1       2.472  -0.098 -26.077  1.00  0.00    -0.285 OA
ATOM      8  C   UNL     1       3.311  -1.207 -24.218  1.00  0.00     0.111 A 
ATOM      9  C   UNL     1       4.449  -2.182 -22.283  1.00  0.00     0.094 A 
ATOM     10  C   UNL     1       2.838  -2.513 -24.560  1.00  0.00     0.134 A 
ATOM     11  C   UNL     1       4.022  -3.458 -22.654  1.00  0.00     0.123 A 
ATOM     12  C   UNL     1       3.231  -3.618 -23.792  1.00  0.00     0.093 A 
BRANCH   3  13
ATOM     13  C   UNL     1       4.854   2.509 -22.811  1.00  0.00     0.025 A 
ATOM     14  C   UNL     1       6.240   2.714 -22.711  1.00  0.00     0.016 A 
ATOM     15  C   UNL     1       6.741   3.926 -22.229  1.00  0.00     0.051 A 
ATOM     16  C   UNL     1       5.867   4.944 -21.832  1.00  0.00     0.157 A 
ATOM     17  C   UNL     1       3.975   3.516 -22.381  1.00  0.00     0.062 A 
ATOM     18  C   UNL     1       4.476   4.737 -21.900  1.00  0.00     0.158 A 
BRANCH  16  19
ATOM     19  O   UNL     1       6.394   6.152 -21.373  1.00  0.00    -0.504 OA
ATOM     20  H   UNL     1       6.599   6.923 -22.000  1.00  0.00     0.293 HD
ENDBRANCH  16  19
BRANCH  18  21
ATOM     21  O   UNL     1       3.598   5.743 -21.495  1.00  0.00    -0.504 OA
ATOM     22  H   UNL     1       3.911   6.700 -21.363  1.00  0.00     0.293 HD
ENDBRANCH  18  21
ENDBRANCH   3  13
BRANCH  10  23
ATOM     23  O   UNL     1       1.967  -2.780 -25.622  1.00  0.00    -0.507 OA
ATOM     24  H   UNL     1       1.989  -3.611 -26.197  1.00  0.00     0.293 HD
ENDBRANCH  10  23
BRANCH  11  25
ATOM     25  O   UNL     1       4.368  -4.571 -21.891  1.00  0.00    -0.508 OA
ATOM     26  H   UNL     1       3.694  -5.027 -21.287  1.00  0.00     0.293 HD
ENDBRANCH  11  25
ENDBRANCH   1   2
BRANCH   1  27
ATOM     27  C   UNL     1       2.420   2.620 -26.298  1.00  0.00     0.339 C 
ATOM     28  C   UNL     1       0.953   2.799 -25.849  1.00  0.00     0.214 C 
ATOM     29  O   UNL     1       2.875   3.685 -27.125  1.00  0.00    -0.332 OA
ATOM     30  C   UNL     1       0.733   4.160 -25.176  1.00  0.00     0.180 C 
ATOM     31  C   UNL     1       2.740   4.984 -26.555  1.00  0.00     0.179 C 
ATOM     32  C   UNL     1       1.307   5.301 -26.039  1.00  0.00     0.177 C 
BRANCH  28  33
ATOM     33  O   UNL     1       0.051   2.614 -26.915  1.00  0.00    -0.384 OA
ATOM     34  H   UNL     1      -0.695   3.261 -26.827  1.00  0.00     0.211 HD
ENDBRANCH  28  33
BRANCH  30  35
ATOM     35  O   UNL     1       1.334   4.151 -23.907  1.00  0.00    -0.387 OA
ATOM     36  H   UNL     1       2.208   3.693 -24.000  1.00  0.00     0.211 HD
ENDBRANCH  30  35
BRANCH  31  37
ATOM     37  C   UNL     1       3.855   5.297 -25.532  1.00  0.00     0.191 C 
BRANCH  37  38
ATOM     38  O   UNL     1       3.443   6.294 -24.635  1.00  0.00    -0.394 OA
ATOM     39  H   UNL     1       3.316   7.122 -25.164  1.00  0.00     0.210 HD
ENDBRANCH  37  38
ENDBRANCH  31  37
BRANCH  32  40
ATOM     40  O   UNL     1       0.447   5.532 -27.125  1.00  0.00    -0.387 OA
ATOM     41  H   UNL     1       0.950   5.322 -27.956  1.00  0.00     0.211 HD
ENDBRANCH  32  40
ENDBRANCH   1  27
TORSDOF 12
ENDMDL
MODEL 7
REMARK VINA RESULT:    -5.373      2.693      5.761
REMARK INTER + INTRA:          -9.274
REMARK INTER:                  -8.635
REMARK INTRA:                  -0.638
REMARK UNBOUND:                -1.387
REMARK SMILES O=c1c(O[C@@H]2O[C@H](CO)[C@@H](O)[C@H](O)[C@H]2O)c(-c2ccc(O)c(O)c2)oc2cc(O)cc(O)c12
REMARK SMILES IDX 4 1 3 2 16 3 25 4 2 5 26 6 1 7 33 8 27 9 31 10 28 11 30 12
REMARK SMILES IDX 17 13 18 14 19 15 20 16 24 17 22 18 21 19 23 21 32 23 29 25
REMARK SMILES IDX 5 27 14 28 6 29 12 30 7 31 10 32 15 33 13 35 8 37 9 38 11 40
REMARK H PARENT 21 20 23 22 32 24 29 26 15 34 13 36 9 39 11 41
REMARK Flexibility Score: inf
ROOT
ATOM      1  O   UNL     1       3.860   1.849 -24.180  1.00  0.00    -0.454 OA
ENDROOT
BRANCH   1   2
ATOM      2  C   UNL     1       3.776   3.235 -23.958  1.00  0.00     0.214 A 
ATOM      3  C   UNL     1       2.633   3.912 -24.413  1.00  0.00     0.180 A 
ATOM      4  O   UNL     1       2.487   5.210 -24.188  1.00  0.00    -0.452 OA
ATOM      5  C   UNL     1       4.777   3.980 -23.298  1.00  0.00     0.239 A 
ATOM      6  C   UNL     1       3.387   5.943 -23.543  1.00  0.00     0.146 A 
ATOM      7  O   UNL     1       5.857   3.419 -22.990  1.00  0.00    -0.285 OA
ATOM      8  C   UNL     1       4.578   5.356 -23.038  1.00  0.00     0.111 A 
ATOM      9  C   UNL     1       3.140   7.307 -23.382  1.00  0.00     0.094 A 
ATOM     10  C   UNL     1       5.496   6.195 -22.331  1.00  0.00     0.134 A 
ATOM     11  C   UNL     1       4.067   8.125 -22.734  1.00  0.00     0.123 A 
ATOM     12  C   UNL     1       5.240   7.569 -22.223  1.00  0.00     0.093 A 
BRANCH   3  13
ATOM     13  C   UNL     1       1.555   3.198 -25.129  1.00  0.00     0.025 A 
ATOM     14  C   UNL     1       1.824   2.485 -26.308  1.00  0.00     0.016 A 
ATOM     15  C   UNL     1       0.801   1.796 -26.966  1.00  0.00     0.051 A 
ATOM     16  C   UNL     1      -0.504   1.817 -26.460  1.00  0.00     0.157 A 
ATOM     17  C   UNL     1       0.239   3.250 -24.639  1.00  0.00     0.062 A 
ATOM     18  C   UNL     1      -0.790   2.554 -25.295  1.00  0.00     0.158 A 
BRANCH  16  19
ATOM     19  O   UNL     1      -1.502   1.104 -27.125  1.00  0.00    -0.504 OA
ATOM     20  H   UNL     1      -2.362   1.542 -27.435  1.00  0.00     0.293 HD
ENDBRANCH  16  19
BRANCH  18  21
ATOM     21  O   UNL     1      -2.091   2.590 -24.791  1.00  0.00    -0.504 OA
ATOM     22  H   UNL     1      -2.858   2.127 -25.269  1.00  0.00     0.293 HD
ENDBRANCH  18  21
ENDBRANCH   3  13
BRANCH  10  23
ATOM     23  O   UNL     1       6.656   5.733 -21.700  1.00  0.00    -0.507 OA
ATOM     24  H   UNL     1       6.870   5.849 -20.719  1.00  0.00     0.293 HD
ENDBRANCH  10  23
BRANCH  11  25
ATOM     25  O   UNL     1       3.825   9.489 -22.580  1.00  0.00    -0.508 OA
ATOM     26  H   UNL     1       3.819   9.924 -21.666  1.00  0.00     0.293 HD
ENDBRANCH  11  25
ENDBRANCH   1   2
BRANCH   1  27
ATOM     27  C   UNL     1       4.803   0.947 -23.589  1.00  0.00     0.339 C 
ATOM     28  C   UNL     1       4.078  -0.314 -23.073  1.00  0.00     0.214 C 
ATOM     29  O   UNL     1       5.874   0.642 -24.475  1.00  0.00    -0.332 OA
ATOM     30  C   UNL     1       3.606  -1.205 -24.231  1.00  0.00     0.180 C 
ATOM     31  C   UNL     1       5.511  -0.152 -25.601  1.00  0.00     0.179 C 
ATOM     32  C   UNL     1       4.752  -1.459 -25.231  1.00  0.00     0.177 C 
BRANCH  28  33
ATOM     33  O   UNL     1       4.873  -1.045 -22.169  1.00  0.00    -0.384 OA
ATOM     34  H   UNL     1       5.368  -1.747 -22.665  1.00  0.00     0.211 HD
ENDBRANCH  28  33
BRANCH  30  35
ATOM     35  O   UNL     1       2.518  -0.593 -24.872  1.00  0.00    -0.387 OA
ATOM     36  H   UNL     1       2.505   0.357 -24.587  1.00  0.00     0.211 HD
ENDBRANCH  30  35
BRANCH  31  37
ATOM     37  C   UNL     1       4.825   0.677 -26.709  1.00  0.00     0.191 C 
BRANCH  37  38
ATOM     38  O   UNL     1       5.431   1.937 -26.836  1.00  0.00    -0.394 OA
ATOM     39  H   UNL     1       6.208   1.946 -26.222  1.00  0.00     0.210 HD
ENDBRANCH  37  38
ENDBRANCH  31  37
BRANCH  32  40
ATOM     40  O   UNL     1       5.644  -2.392 -24.680  1.00  0.00    -0.387 OA
ATOM     41  H   UNL     1       5.778  -2.152 -23.725  1.00  0.00     0.211 HD
ENDBRANCH  32  40
ENDBRANCH   1  27
TORSDOF 12
ENDMDL
MODEL 8
REMARK VINA RESULT:    -5.241      3.242      5.122
REMARK INTER + INTRA:          -9.080
REMARK INTER:                  -7.523
REMARK INTRA:                  -1.557
REMARK UNBOUND:                -1.387
REMARK SMILES O=c1c(O[C@@H]2O[C@H](CO)[C@@H](O)[C@H](O)[C@H]2O)c(-c2ccc(O)c(O)c2)oc2cc(O)cc(O)c12
REMARK SMILES IDX 4 1 3 2 16 3 25 4 2 5 26 6 1 7 33 8 27 9 31 10 28 11 30 12
REMARK SMILES IDX 17 13 18 14 19 15 20 16 24 17 22 18 21 19 23 21 32 23 29 25
REMARK SMILES IDX 5 27 14 28 6 29 12 30 7 31 10 32 15 33 13 35 8 37 9 38 11 40
REMARK H PARENT 21 20 23 22 32 24 29 26 15 34 13 36 9 39 11 41
REMARK Flexibility Score: inf
ROOT
ATOM      1  O   UNL     1       2.856   1.114 -25.143  1.00  0.00    -0.454 OA
ENDROOT
BRANCH   1   2
ATOM      2  C   UNL     1       2.789   2.484 -24.833  1.00  0.00     0.214 A 
ATOM      3  C   UNL     1       3.549   2.958 -23.752  1.00  0.00     0.180 A 
ATOM      4  O   UNL     1       3.554   4.248 -23.450  1.00  0.00    -0.452 OA
ATOM      5  C   UNL     1       2.001   3.408 -25.554  1.00  0.00     0.239 A 
ATOM      6  C   UNL     1       2.855   5.156 -24.120  1.00  0.00     0.146 A 
ATOM      7  O   UNL     1       1.224   2.988 -26.446  1.00  0.00    -0.285 OA
ATOM      8  C   UNL     1       2.055   4.785 -25.233  1.00  0.00     0.111 A 
ATOM      9  C   UNL     1       2.917   6.486 -23.699  1.00  0.00     0.094 A 
ATOM     10  C   UNL     1       1.346   5.814 -25.928  1.00  0.00     0.134 A 
ATOM     11  C   UNL     1       2.181   7.474 -24.355  1.00  0.00     0.123 A 
ATOM     12  C   UNL     1       1.395   7.132 -25.455  1.00  0.00     0.093 A 
BRANCH   3  13
ATOM     13  C   UNL     1       4.380   2.044 -22.942  1.00  0.00     0.025 A 
ATOM     14  C   UNL     1       5.778   2.030 -23.078  1.00  0.00     0.016 A 
ATOM     15  C   UNL     1       6.556   1.176 -22.292  1.00  0.00     0.051 A 
ATOM     16  C   UNL     1       5.949   0.318 -21.367  1.00  0.00     0.157 A 
ATOM     17  C   UNL     1       3.767   1.159 -22.039  1.00  0.00     0.062 A 
ATOM     18  C   UNL     1       4.546   0.303 -21.244  1.00  0.00     0.158 A 
BRANCH  16  19
ATOM     19  O   UNL     1       6.751  -0.509 -20.580  1.00  0.00    -0.504 OA
ATOM     20  H   UNL     1       6.960  -0.294 -19.612  1.00  0.00     0.293 HD
ENDBRANCH  16  19
BRANCH  18  21
ATOM     21  O   UNL     1       3.933  -0.558 -20.332  1.00  0.00    -0.504 OA
ATOM     22  H   UNL     1       3.008  -0.368 -19.962  1.00  0.00     0.293 HD
ENDBRANCH  18  21
ENDBRANCH   3  13
BRANCH  10  23
ATOM     23  O   UNL     1       0.601   5.605 -27.094  1.00  0.00    -0.507 OA
ATOM     24  H   UNL     1       0.793   6.030 -27.990  1.00  0.00     0.293 HD
ENDBRANCH  10  23
BRANCH  11  25
ATOM     25  O   UNL     1       2.237   8.799 -23.929  1.00  0.00    -0.508 OA
ATOM     26  H   UNL     1       1.614   9.502 -24.310  1.00  0.00     0.293 HD
ENDBRANCH  11  25
ENDBRANCH   1   2
BRANCH   1  27
ATOM     27  C   UNL     1       3.830   0.476 -25.976  1.00  0.00     0.339 C 
ATOM     28  C   UNL     1       4.663  -0.524 -25.146  1.00  0.00     0.214 C 
ATOM     29  O   UNL     1       3.240  -0.121 -27.125  1.00  0.00    -0.332 OA
ATOM     30  C   UNL     1       3.840  -1.764 -24.768  1.00  0.00     0.180 C 
ATOM     31  C   UNL     1       2.426  -1.259 -26.855  1.00  0.00     0.179 C 
ATOM     32  C   UNL     1       3.134  -2.353 -26.005  1.00  0.00     0.177 C 
BRANCH  28  33
ATOM     33  O   UNL     1       5.852  -0.892 -25.805  1.00  0.00    -0.384 OA
ATOM     34  H   UNL     1       5.633  -1.220 -26.714  1.00  0.00     0.211 HD
ENDBRANCH  28  33
BRANCH  30  35
ATOM     35  O   UNL     1       2.902  -1.414 -23.784  1.00  0.00    -0.387 OA
ATOM     36  H   UNL     1       2.247  -0.802 -24.207  1.00  0.00     0.211 HD
ENDBRANCH  30  35
BRANCH  31  37
ATOM     37  C   UNL     1       1.025  -0.871 -26.332  1.00  0.00     0.191 C 
BRANCH  37  38
ATOM     38  O   UNL     1       0.554   0.283 -26.978  1.00  0.00    -0.394 OA
ATOM     39  H   UNL     1      -0.170  -0.005 -27.589  1.00  0.00     0.210 HD
ENDBRANCH  37  38
ENDBRANCH  31  37
BRANCH  32  40
ATOM     40  O   UNL     1       4.077  -3.035 -26.791  1.00  0.00    -0.387 OA
ATOM     41  H   UNL     1       4.778  -3.387 -26.180  1.00  0.00     0.211 HD
ENDBRANCH  32  40
ENDBRANCH   1  27
TORSDOF 12
ENDMDL
MODEL 9
REMARK VINA RESULT:    -5.055      2.167      7.537
REMARK INTER + INTRA:          -8.806
REMARK INTER:                  -7.925
REMARK INTRA:                  -0.881
REMARK UNBOUND:                -1.387
REMARK SMILES O=c1c(O[C@@H]2O[C@H](CO)[C@@H](O)[C@H](O)[C@H]2O)c(-c2ccc(O)c(O)c2)oc2cc(O)cc(O)c12
REMARK SMILES IDX 4 1 3 2 16 3 25 4 2 5 26 6 1 7 33 8 27 9 31 10 28 11 30 12
REMARK SMILES IDX 17 13 18 14 19 15 20 16 24 17 22 18 21 19 23 21 32 23 29 25
REMARK SMILES IDX 5 27 14 28 6 29 12 30 7 31 10 32 15 33 13 35 8 37 9 38 11 40
REMARK H PARENT 21 20 23 22 32 24 29 26 15 34 13 36 9 39 11 41
REMARK Flexibility Score: inf
ROOT
ATOM      1  O   UNL     1       4.832   7.471 -23.293  1.00  0.00    -0.454 OA
ENDROOT
BRANCH   1   2
ATOM      2  C   UNL     1       4.638   6.086 -23.437  1.00  0.00     0.214 A 
ATOM      3  C   UNL     1       3.628   5.643 -24.306  1.00  0.00     0.180 A 
ATOM      4  O   UNL     1       3.438   4.348 -24.510  1.00  0.00    -0.452 OA
ATOM      5  C   UNL     1       5.408   5.117 -22.757  1.00  0.00     0.239 A 
ATOM      6  C   UNL     1       4.159   3.404 -23.918  1.00  0.00     0.146 A 
ATOM      7  O   UNL     1       6.234   5.488 -21.888  1.00  0.00    -0.285 OA
ATOM      8  C   UNL     1       5.209   3.742 -23.023  1.00  0.00     0.111 A 
ATOM      9  C   UNL     1       3.856   2.068 -24.189  1.00  0.00     0.094 A 
ATOM     10  C   UNL     1       5.965   2.679 -22.437  1.00  0.00     0.134 A 
ATOM     11  C   UNL     1       4.569   1.039 -23.573  1.00  0.00     0.123 A 
ATOM     12  C   UNL     1       5.608   1.348 -22.696  1.00  0.00     0.093 A 
BRANCH   3  13
ATOM     13  C   UNL     1       2.771   6.602 -25.035  1.00  0.00     0.025 A 
ATOM     14  C   UNL     1       2.963   6.843 -26.405  1.00  0.00     0.016 A 
ATOM     15  C   UNL     1       2.134   7.736 -27.088  1.00  0.00     0.051 A 
ATOM     16  C   UNL     1       1.109   8.407 -26.412  1.00  0.00     0.157 A 
ATOM     17  C   UNL     1       1.765   7.301 -24.347  1.00  0.00     0.062 A 
ATOM     18  C   UNL     1       0.927   8.195 -25.031  1.00  0.00     0.158 A 
BRANCH  16  19
ATOM     19  O   UNL     1       0.282   9.278 -27.123  1.00  0.00    -0.504 OA
ATOM     20  H   UNL     1       0.627   9.840 -27.893  1.00  0.00     0.293 HD
ENDBRANCH  16  19
BRANCH  18  21
ATOM     21  O   UNL     1      -0.086   8.870 -24.348  1.00  0.00    -0.504 OA
ATOM     22  H   UNL     1      -1.065   8.649 -24.496  1.00  0.00     0.293 HD
ENDBRANCH  18  21
ENDBRANCH   3  13
BRANCH  10  23
ATOM     23  O   UNL     1       7.082   2.868 -21.617  1.00  0.00    -0.507 OA
ATOM     24  H   UNL     1       7.311   2.310 -20.807  1.00  0.00     0.293 HD
ENDBRANCH  10  23
BRANCH  11  25
ATOM     25  O   UNL     1       4.261  -0.294 -23.838  1.00  0.00    -0.508 OA
ATOM     26  H   UNL     1       3.442  -0.549 -24.377  1.00  0.00     0.293 HD
ENDBRANCH  11  25
ENDBRANCH   1   2
BRANCH   1  27
ATOM     27  C   UNL     1       5.201   8.392 -24.325  1.00  0.00     0.339 C 
ATOM     28  C   UNL     1       4.172   9.541 -24.403  1.00  0.00     0.214 C 
ATOM     29  O   UNL     1       6.536   8.859 -24.170  1.00  0.00    -0.332 OA
ATOM     30  C   UNL     1       4.295  10.487 -23.201  1.00  0.00     0.180 C 
ATOM     31  C   UNL     1       6.743   9.715 -23.050  1.00  0.00     0.179 C 
ATOM     32  C   UNL     1       5.760  10.919 -22.987  1.00  0.00     0.177 C 
BRANCH  28  33
ATOM     33  O   UNL     1       4.270  10.253 -25.614  1.00  0.00    -0.384 OA
ATOM     34  H   UNL     1       3.710  11.069 -25.559  1.00  0.00     0.211 HD
ENDBRANCH  28  33
BRANCH  30  35
ATOM     35  O   UNL     1       3.798   9.846 -22.055  1.00  0.00    -0.387 OA
ATOM     36  H   UNL     1       4.156  10.332 -21.268  1.00  0.00     0.211 HD
ENDBRANCH  30  35
BRANCH  31  37
ATOM     37  C   UNL     1       6.858   8.932 -21.724  1.00  0.00     0.191 C 
BRANCH  37  38
ATOM     38  O   UNL     1       7.697   7.817 -21.874  1.00  0.00    -0.394 OA
ATOM     39  H   UNL     1       7.740   7.618 -22.844  1.00  0.00     0.210 HD
ENDBRANCH  37  38
ENDBRANCH  31  37
BRANCH  32  40
ATOM     40  O   UNL     1       6.104  11.871 -23.961  1.00  0.00    -0.387 OA
ATOM     41  H   UNL     1       7.074  11.770 -24.149  1.00  0.00     0.211 HD
ENDBRANCH  32  40
ENDBRANCH   1  27
TORSDOF 12
ENDMDL
