MODEL 1
REMARK VINA RESULT:    -4.530      0.000      0.000
REMARK INTER + INTRA:          -7.445
REMARK INTER:                  -6.913
REMARK INTRA:                  -0.532
REMARK UNBOUND:                -0.532
REMARK SMILES O=C([O-])CCCCCCCCC(=O)[O-]
REMARK SMILES IDX 7 1 6 2 5 3 4 4 2 5 1 6 3 7 8 8 9 9 10 10 11 11 12 12 13 13
REMARK SMILES IDX 14 14
REMARK H PARENT
REMARK Flexibility Score: inf
ROOT
ATOM      1  C   UNL     1      13.389 -31.535  21.389  1.00  0.00     0.000 C 
ENDROOT
BRANCH   1   2
ATOM      2  C   UNL     1      14.208 -30.239  21.527  1.00  0.00     0.000 C 
BRANCH   2   3
ATOM      3  C   UNL     1      14.497 -29.866  22.991  1.00  0.00     0.006 C 
BRANCH   3   4
ATOM      4  C   UNL     1      13.261 -30.035  23.886  1.00  0.00     0.053 C 
BRANCH   4   5
ATOM      5  C   UNL     1      12.480 -28.763  24.006  1.00  0.00     0.041 C 
ATOM      6  O   UNL     1      11.616 -28.466  23.139  1.00  0.00    -0.550 OA
ATOM      7  O   UNL     1      12.726 -27.891  25.058  1.00  0.00    -0.550 OA
ENDBRANCH   4   5
ENDBRANCH   3   4
ENDBRANCH   2   3
ENDBRANCH   1   2
BRANCH   1   8
ATOM      8  C   UNL     1      14.183 -32.757  20.891  1.00  0.00     0.000 C 
BRANCH   8   9
ATOM      9  C   UNL     1      14.978 -33.451  22.007  1.00  0.00     0.000 C 
BRANCH   9  10
ATOM     10  C   UNL     1      15.618 -34.751  21.498  1.00  0.00     0.006 C 
BRANCH  10  11
ATOM     11  C   UNL     1      15.448 -34.927  19.983  1.00  0.00     0.053 C 
BRANCH  11  12
ATOM     12  C   UNL     1      16.767 -35.112  19.295  1.00  0.00     0.041 C 
ATOM     13  O   UNL     1      17.296 -36.253  19.232  1.00  0.00    -0.550 OA
ATOM     14  O   UNL     1      17.427 -34.017  18.752  1.00  0.00    -0.550 OA
ENDBRANCH  11  12
ENDBRANCH  10  11
ENDBRANCH   9  10
ENDBRANCH   8   9
ENDBRANCH   1   8
TORSDOF 9
ENDMDL
MODEL 2
REMARK VINA RESULT:    -4.434      1.999      5.948
REMARK INTER + INTRA:          -7.298
REMARK INTER:                  -6.267
REMARK INTRA:                  -1.031
REMARK UNBOUND:                -0.532
REMARK SMILES O=C([O-])CCCCCCCCC(=O)[O-]
REMARK SMILES IDX 7 1 6 2 5 3 4 4 2 5 1 6 3 7 8 8 9 9 10 10 11 11 12 12 13 13
REMARK SMILES IDX 14 14
REMARK H PARENT
REMARK Flexibility Score: inf
ROOT
ATOM      1  C   UNL     1      16.371 -30.372  21.631  1.00  0.00     0.000 C 
ENDROOT
BRANCH   1   2
ATOM      2  C   UNL     1      16.571 -31.874  21.356  1.00  0.00     0.000 C 
BRANCH   2   3
ATOM      3  C   UNL     1      16.300 -32.750  22.591  1.00  0.00     0.006 C 
BRANCH   3   4
ATOM      4  C   UNL     1      15.234 -33.820  22.318  1.00  0.00     0.053 C 
BRANCH   4   5
ATOM      5  C   UNL     1      15.568 -34.649  21.117  1.00  0.00     0.041 C 
ATOM      6  O   UNL     1      14.842 -34.597  20.089  1.00  0.00    -0.550 OA
ATOM      7  O   UNL     1      16.665 -35.501  21.142  1.00  0.00    -0.550 OA
ENDBRANCH   4   5
ENDBRANCH   3   4
ENDBRANCH   2   3
ENDBRANCH   1   2
BRANCH   1   8
ATOM      8  C   UNL     1      15.887 -30.029  23.052  1.00  0.00     0.000 C 
BRANCH   8   9
ATOM      9  C   UNL     1      14.623 -29.157  23.060  1.00  0.00     0.000 C 
BRANCH   9  10
ATOM     10  C   UNL     1      13.490 -29.840  23.841  1.00  0.00     0.006 C 
BRANCH  10  11
ATOM     11  C   UNL     1      13.047 -31.157  23.189  1.00  0.00     0.053 C 
BRANCH  11  12
ATOM     12  C   UNL     1      12.481 -30.935  21.819  1.00  0.00     0.041 C 
ATOM     13  O   UNL     1      13.069 -31.397  20.807  1.00  0.00    -0.550 OA
ATOM     14  O   UNL     1      11.319 -30.188  21.661  1.00  0.00    -0.550 OA
ENDBRANCH  11  12
ENDBRANCH  10  11
ENDBRANCH   9  10
ENDBRANCH   8   9
ENDBRANCH   1   8
TORSDOF 9
ENDMDL
MODEL 3
REMARK VINA RESULT:    -4.417      2.593      3.376
REMARK INTER + INTRA:          -7.273
REMARK INTER:                  -6.479
REMARK INTRA:                  -0.794
REMARK UNBOUND:                -0.532
REMARK SMILES O=C([O-])CCCCCCCCC(=O)[O-]
REMARK SMILES IDX 7 1 6 2 5 3 4 4 2 5 1 6 3 7 8 8 9 9 10 10 11 11 12 12 13 13
REMARK SMILES IDX 14 14
REMARK H PARENT
REMARK Flexibility Score: inf
ROOT
ATOM      1  C   UNL     1      13.500 -31.721  23.524  1.00  0.00     0.000 C 
ENDROOT
BRANCH   1   2
ATOM      2  C   UNL     1      12.731 -31.015  22.392  1.00  0.00     0.000 C 
BRANCH   2   3
ATOM      3  C   UNL     1      12.216 -29.623  22.796  1.00  0.00     0.006 C 
BRANCH   3   4
ATOM      4  C   UNL     1      12.795 -29.159  24.139  1.00  0.00     0.053 C 
BRANCH   4   5
ATOM      5  C   UNL     1      12.466 -27.726  24.424  1.00  0.00     0.041 C 
ATOM      6  O   UNL     1      13.098 -27.095  25.313  1.00  0.00    -0.550 OA
ATOM      7  O   UNL     1      11.442 -27.095  23.729  1.00  0.00    -0.550 OA
ENDBRANCH   4   5
ENDBRANCH   3   4
ENDBRANCH   2   3
ENDBRANCH   1   2
BRANCH   1   8
ATOM      8  C   UNL     1      14.800 -32.423  23.089  1.00  0.00     0.000 C 
BRANCH   8   9
ATOM      9  C   UNL     1      16.054 -31.819  23.738  1.00  0.00     0.000 C 
BRANCH   9  10
ATOM     10  C   UNL     1      16.340 -30.417  23.180  1.00  0.00     0.006 C 
BRANCH  10  11
ATOM     11  C   UNL     1      16.277 -30.379  21.647  1.00  0.00     0.053 C 
BRANCH  11  12
ATOM     12  C   UNL     1      17.571 -30.812  21.028  1.00  0.00     0.041 C 
ATOM     13  O   UNL     1      18.522 -29.995  20.909  1.00  0.00    -0.550 OA
ATOM     14  O   UNL     1      17.714 -32.109  20.553  1.00  0.00    -0.550 OA
ENDBRANCH  11  12
ENDBRANCH  10  11
ENDBRANCH   9  10
ENDBRANCH   8   9
ENDBRANCH   1   8
TORSDOF 9
ENDMDL
MODEL 4
REMARK VINA RESULT:    -4.383      1.065      7.782
REMARK INTER + INTRA:          -7.221
REMARK INTER:                  -6.991
REMARK INTRA:                  -0.231
REMARK UNBOUND:                -0.532
REMARK SMILES O=C([O-])CCCCCCCCC(=O)[O-]
REMARK SMILES IDX 7 1 6 2 5 3 4 4 2 5 1 6 3 7 8 8 9 9 10 10 11 11 12 12 13 13
REMARK SMILES IDX 14 14
REMARK H PARENT
REMARK Flexibility Score: inf
ROOT
ATOM      1  C   UNL     1      14.186 -32.567  21.454  1.00  0.00     0.000 C 
ENDROOT
BRANCH   1   2
ATOM      2  C   UNL     1      14.598 -33.615  20.404  1.00  0.00     0.000 C 
BRANCH   2   3
ATOM      3  C   UNL     1      15.542 -34.690  20.968  1.00  0.00     0.006 C 
BRANCH   3   4
ATOM      4  C   UNL     1      15.855 -35.784  19.938  1.00  0.00     0.053 C 
BRANCH   4   5
ATOM      5  C   UNL     1      17.290 -36.210  19.993  1.00  0.00     0.041 C 
ATOM      6  O   UNL     1      18.191 -35.466  19.522  1.00  0.00    -0.550 OA
ATOM      7  O   UNL     1      17.631 -37.441  20.539  1.00  0.00    -0.550 OA
ENDBRANCH   4   5
ENDBRANCH   3   4
ENDBRANCH   2   3
ENDBRANCH   1   2
BRANCH   1   8
ATOM      8  C   UNL     1      13.410 -31.359  20.900  1.00  0.00     0.000 C 
BRANCH   8   9
ATOM      9  C   UNL     1      12.400 -30.784  21.904  1.00  0.00     0.000 C 
BRANCH   9  10
ATOM     10  C   UNL     1      13.084 -30.442  23.237  1.00  0.00     0.006 C 
BRANCH  10  11
ATOM     11  C   UNL     1      13.467 -28.960  23.329  1.00  0.00     0.053 C 
BRANCH  11  12
ATOM     12  C   UNL     1      12.411 -28.156  24.026  1.00  0.00     0.041 C 
ATOM     13  O   UNL     1      11.289 -27.977  23.482  1.00  0.00    -0.550 OA
ATOM     14  O   UNL     1      12.678 -27.579  25.261  1.00  0.00    -0.550 OA
ENDBRANCH  11  12
ENDBRANCH  10  11
ENDBRANCH   9  10
ENDBRANCH   8   9
ENDBRANCH   1   8
TORSDOF 9
ENDMDL
MODEL 5
REMARK VINA RESULT:    -4.383      1.554      2.093
REMARK INTER + INTRA:          -7.221
REMARK INTER:                  -6.375
REMARK INTRA:                  -0.845
REMARK UNBOUND:                -0.532
REMARK SMILES O=C([O-])CCCCCCCCC(=O)[O-]
REMARK SMILES IDX 7 1 6 2 5 3 4 4 2 5 1 6 3 7 8 8 9 9 10 10 11 11 12 12 13 13
REMARK SMILES IDX 14 14
REMARK H PARENT
REMARK Flexibility Score: inf
ROOT
ATOM      1  C   UNL     1      14.550 -32.669  23.372  1.00  0.00     0.000 C 
ENDROOT
BRANCH   1   2
ATOM      2  C   UNL     1      15.104 -31.263  23.079  1.00  0.00     0.000 C 
BRANCH   2   3
ATOM      3  C   UNL     1      14.497 -30.632  21.814  1.00  0.00     0.006 C 
BRANCH   3   4
ATOM      4  C   UNL     1      13.177 -31.301  21.410  1.00  0.00     0.053 C 
BRANCH   4   5
ATOM      5  C   UNL     1      11.990 -30.466  21.779  1.00  0.00     0.041 C 
ATOM      6  O   UNL     1      10.902 -30.600  21.159  1.00  0.00    -0.550 OA
ATOM      7  O   UNL     1      12.093 -29.517  22.789  1.00  0.00    -0.550 OA
ENDBRANCH   4   5
ENDBRANCH   3   4
ENDBRANCH   2   3
ENDBRANCH   1   2
BRANCH   1   8
ATOM      8  C   UNL     1      15.617 -33.760  23.578  1.00  0.00     0.000 C 
BRANCH   8   9
ATOM      9  C   UNL     1      16.254 -34.233  22.263  1.00  0.00     0.000 C 
BRANCH   9  10
ATOM     10  C   UNL     1      15.181 -34.483  21.192  1.00  0.00     0.006 C 
BRANCH  10  11
ATOM     11  C   UNL     1      15.723 -34.288  19.770  1.00  0.00     0.053 C 
BRANCH  11  12
ATOM     12  C   UNL     1      16.769 -35.307  19.432  1.00  0.00     0.041 C 
ATOM     13  O   UNL     1      16.510 -36.535  19.521  1.00  0.00    -0.550 OA
ATOM     14  O   UNL     1      18.040 -34.897  19.049  1.00  0.00    -0.550 OA
ENDBRANCH  11  12
ENDBRANCH  10  11
ENDBRANCH   9  10
ENDBRANCH   8   9
ENDBRANCH   1   8
TORSDOF 9
ENDMDL
MODEL 6
REMARK VINA RESULT:    -4.382      2.741      6.772
REMARK INTER + INTRA:          -7.219
REMARK INTER:                  -6.268
REMARK INTRA:                  -0.952
REMARK UNBOUND:                -0.532
REMARK SMILES O=C([O-])CCCCCCCCC(=O)[O-]
REMARK SMILES IDX 7 1 6 2 5 3 4 4 2 5 1 6 3 7 8 8 9 9 10 10 11 11 12 12 13 13
REMARK SMILES IDX 14 14
REMARK H PARENT
REMARK Flexibility Score: inf
ROOT
ATOM      1  C   UNL     1      18.294 -33.196  20.647  1.00  0.00     0.000 C 
ENDROOT
BRANCH   1   2
ATOM      2  C   UNL     1      18.248 -34.040  19.361  1.00  0.00     0.000 C 
BRANCH   2   3
ATOM      3  C   UNL     1      16.838 -34.566  19.041  1.00  0.00     0.006 C 
BRANCH   3   4
ATOM      4  C   UNL     1      16.400 -35.672  20.010  1.00  0.00     0.053 C 
BRANCH   4   5
ATOM      5  C   UNL     1      17.383 -36.801  20.051  1.00  0.00     0.041 C 
ATOM      6  O   UNL     1      17.601 -37.490  19.020  1.00  0.00    -0.550 OA
ATOM      7  O   UNL     1      18.036 -37.113  21.237  1.00  0.00    -0.550 OA
ENDBRANCH   4   5
ENDBRANCH   3   4
ENDBRANCH   2   3
ENDBRANCH   1   2
BRANCH   1   8
ATOM      8  C   UNL     1      17.753 -31.761  20.506  1.00  0.00     0.000 C 
BRANCH   8   9
ATOM      9  C   UNL     1      16.727 -31.398  21.589  1.00  0.00     0.000 C 
BRANCH   9  10
ATOM     10  C   UNL     1      16.100 -32.661  22.197  1.00  0.00     0.006 C 
BRANCH  10  11
ATOM     11  C   UNL     1      14.585 -32.519  22.398  1.00  0.00     0.053 C 
BRANCH  11  12
ATOM     12  C   UNL     1      13.882 -32.210  21.111  1.00  0.00     0.041 C 
ATOM     13  O   UNL     1      13.886 -33.046  20.169  1.00  0.00    -0.550 OA
ATOM     14  O   UNL     1      13.250 -30.985  20.941  1.00  0.00    -0.550 OA
ENDBRANCH  11  12
ENDBRANCH  10  11
ENDBRANCH   9  10
ENDBRANCH   8   9
ENDBRANCH   1   8
TORSDOF 9
ENDMDL
MODEL 7
REMARK VINA RESULT:    -4.332      2.574      3.283
REMARK INTER + INTRA:          -7.143
REMARK INTER:                  -6.254
REMARK INTRA:                  -0.888
REMARK UNBOUND:                -0.532
REMARK SMILES O=C([O-])CCCCCCCCC(=O)[O-]
REMARK SMILES IDX 7 1 6 2 5 3 4 4 2 5 1 6 3 7 8 8 9 9 10 10 11 11 12 12 13 13
REMARK SMILES IDX 14 14
REMARK H PARENT
REMARK Flexibility Score: inf
ROOT
ATOM      1  C   UNL     1      17.337 -31.406  20.939  1.00  0.00     0.000 C 
ENDROOT
BRANCH   1   2
ATOM      2  C   UNL     1      16.931 -31.087  22.389  1.00  0.00     0.000 C 
BRANCH   2   3
ATOM      3  C   UNL     1      15.681 -30.194  22.479  1.00  0.00     0.006 C 
BRANCH   3   4
ATOM      4  C   UNL     1      14.659 -30.518  21.381  1.00  0.00     0.053 C 
BRANCH   4   5
ATOM      5  C   UNL     1      13.368 -31.021  21.950  1.00  0.00     0.041 C 
ATOM      6  O   UNL     1      12.293 -30.871  21.313  1.00  0.00    -0.550 OA
ATOM      7  O   UNL     1      13.348 -31.630  23.199  1.00  0.00    -0.550 OA
ENDBRANCH   4   5
ENDBRANCH   3   4
ENDBRANCH   2   3
ENDBRANCH   1   2
BRANCH   1   8
ATOM      8  C   UNL     1      18.625 -32.237  20.790  1.00  0.00     0.000 C 
BRANCH   8   9
ATOM      9  C   UNL     1      18.352 -33.726  20.530  1.00  0.00     0.000 C 
BRANCH   9  10
ATOM     10  C   UNL     1      17.392 -33.908  19.345  1.00  0.00     0.006 C 
BRANCH  10  11
ATOM     11  C   UNL     1      16.272 -34.911  19.655  1.00  0.00     0.053 C 
BRANCH  11  12
ATOM     12  C   UNL     1      15.132 -34.263  20.380  1.00  0.00     0.041 C 
ATOM     13  O   UNL     1      14.226 -33.671  19.737  1.00  0.00    -0.550 OA
ATOM     14  O   UNL     1      15.089 -34.285  21.768  1.00  0.00    -0.550 OA
ENDBRANCH  11  12
ENDBRANCH  10  11
ENDBRANCH   9  10
ENDBRANCH   8   9
ENDBRANCH   1   8
TORSDOF 9
ENDMDL
MODEL 8
REMARK VINA RESULT:    -4.329      2.216      2.814
REMARK INTER + INTRA:          -7.138
REMARK INTER:                  -6.374
REMARK INTRA:                  -0.764
REMARK UNBOUND:                -0.532
REMARK SMILES O=C([O-])CCCCCCCCC(=O)[O-]
REMARK SMILES IDX 7 1 6 2 5 3 4 4 2 5 1 6 3 7 8 8 9 9 10 10 11 11 12 12 13 13
REMARK SMILES IDX 14 14
REMARK H PARENT
REMARK Flexibility Score: inf
ROOT
ATOM      1  C   UNL     1      15.459 -33.963  22.974  1.00  0.00     0.000 C 
ENDROOT
BRANCH   1   2
ATOM      2  C   UNL     1      15.346 -32.553  23.580  1.00  0.00     0.000 C 
BRANCH   2   3
ATOM      3  C   UNL     1      13.890 -32.133  23.852  1.00  0.00     0.006 C 
BRANCH   3   4
ATOM      4  C   UNL     1      13.578 -30.737  23.297  1.00  0.00     0.053 C 
BRANCH   4   5
ATOM      5  C   UNL     1      13.658 -30.698  21.803  1.00  0.00     0.041 C 
ATOM      6  O   UNL     1      12.792 -31.290  21.105  1.00  0.00    -0.550 OA
ATOM      7  O   UNL     1      14.707 -30.034  21.178  1.00  0.00    -0.550 OA
ENDBRANCH   4   5
ENDBRANCH   3   4
ENDBRANCH   2   3
ENDBRANCH   1   2
BRANCH   1   8
ATOM      8  C   UNL     1      15.104 -34.060  21.479  1.00  0.00     0.000 C 
BRANCH   8   9
ATOM      9  C   UNL     1      16.156 -33.408  20.569  1.00  0.00     0.000 C 
BRANCH   9  10
ATOM     10  C   UNL     1      16.672 -34.408  19.523  1.00  0.00     0.006 C 
BRANCH  10  11
ATOM     11  C   UNL     1      16.196 -35.839  19.803  1.00  0.00     0.053 C 
BRANCH  11  12
ATOM     12  C   UNL     1      17.329 -36.730  20.214  1.00  0.00     0.041 C 
ATOM     13  O   UNL     1      17.757 -37.615  19.428  1.00  0.00    -0.550 OA
ATOM     14  O   UNL     1      17.890 -36.601  21.478  1.00  0.00    -0.550 OA
ENDBRANCH  11  12
ENDBRANCH  10  11
ENDBRANCH   9  10
ENDBRANCH   8   9
ENDBRANCH   1   8
TORSDOF 9
ENDMDL
MODEL 9
REMARK VINA RESULT:    -4.325      1.940      6.852
REMARK INTER + INTRA:          -7.133
REMARK INTER:                  -6.340
REMARK INTRA:                  -0.793
REMARK UNBOUND:                -0.532
REMARK SMILES O=C([O-])CCCCCCCCC(=O)[O-]
REMARK SMILES IDX 7 1 6 2 5 3 4 4 2 5 1 6 3 7 8 8 9 9 10 10 11 11 12 12 13 13
REMARK SMILES IDX 14 14
REMARK H PARENT
REMARK Flexibility Score: inf
ROOT
ATOM      1  C   UNL     1      16.707 -30.308  23.212  1.00  0.00     0.000 C 
ENDROOT
BRANCH   1   2
ATOM      2  C   UNL     1      16.764 -31.717  23.828  1.00  0.00     0.000 C 
BRANCH   2   3
ATOM      3  C   UNL     1      15.395 -32.418  23.845  1.00  0.00     0.006 C 
BRANCH   3   4
ATOM      4  C   UNL     1      15.502 -33.907  23.488  1.00  0.00     0.053 C 
BRANCH   4   5
ATOM      5  C   UNL     1      15.457 -34.131  22.008  1.00  0.00     0.041 C 
ATOM      6  O   UNL     1      16.260 -34.935  21.463  1.00  0.00    -0.550 OA
ATOM      7  O   UNL     1      14.549 -33.430  21.224  1.00  0.00    -0.550 OA
ENDBRANCH   4   5
ENDBRANCH   3   4
ENDBRANCH   2   3
ENDBRANCH   1   2
BRANCH   1   8
ATOM      8  C   UNL     1      15.777 -30.166  21.993  1.00  0.00     0.000 C 
BRANCH   8   9
ATOM      9  C   UNL     1      14.755 -29.030  22.147  1.00  0.00     0.000 C 
BRANCH   9  10
ATOM     10  C   UNL     1      13.367 -29.586  22.502  1.00  0.00     0.006 C 
BRANCH  10  11
ATOM     11  C   UNL     1      13.054 -29.453  23.998  1.00  0.00     0.053 C 
BRANCH  11  12
ATOM     12  C   UNL     1      12.399 -28.143  24.314  1.00  0.00     0.041 C 
ATOM     13  O   UNL     1      11.482 -27.698  23.574  1.00  0.00    -0.550 OA
ATOM     14  O   UNL     1      12.824 -27.398  25.407  1.00  0.00    -0.550 OA
ENDBRANCH  11  12
ENDBRANCH  10  11
ENDBRANCH   9  10
ENDBRANCH   8   9
ENDBRANCH   1   8
TORSDOF 9
ENDMDL
