MODEL 1
REMARK VINA RESULT:    -4.405      0.000      0.000
REMARK INTER + INTRA:          -5.245
REMARK INTER:                  -5.178
REMARK INTRA:                  -0.067
REMARK UNBOUND:                -0.067
REMARK SMILES CCCCC(=O)[O-]
REMARK SMILES IDX 4 1 5 2 6 3 7 4 3 5 2 6 1 7
REMARK H PARENT
REMARK Flexibility Score: inf
ROOT
ATOM      1  C   UNL     1      15.593   7.367 -21.791  1.00  0.00     0.053 C 
ENDROOT
BRANCH   1   2
ATOM      2  C   UNL     1      16.340   8.621 -21.455  1.00  0.00     0.041 C 
ATOM      3  O   UNL     1      16.987   8.704 -20.378  1.00  0.00    -0.550 OA
ATOM      4  O   UNL     1      16.292   9.710 -22.316  1.00  0.00    -0.550 OA
ENDBRANCH   1   2
BRANCH   1   5
ATOM      5  C   UNL     1      14.919   6.757 -20.555  1.00  0.00     0.006 C 
BRANCH   5   6
ATOM      6  C   UNL     1      13.517   7.334 -20.314  1.00  0.00    -0.003 C 
ATOM      7  C   UNL     1      13.171   7.338 -18.828  1.00  0.00     0.004 C 
ENDBRANCH   5   6
ENDBRANCH   1   5
TORSDOF 3
ENDMDL
MODEL 2
REMARK VINA RESULT:    -4.285      1.937      2.915
REMARK INTER + INTRA:          -5.103
REMARK INTER:                  -5.073
REMARK INTRA:                  -0.031
REMARK UNBOUND:                -0.067
REMARK SMILES CCCCC(=O)[O-]
REMARK SMILES IDX 4 1 5 2 6 3 7 4 3 5 2 6 1 7
REMARK H PARENT
REMARK Flexibility Score: inf
ROOT
ATOM      1  C   UNL     1      16.814   8.516 -19.754  1.00  0.00     0.053 C 
ENDROOT
BRANCH   1   2
ATOM      2  C   UNL     1      17.904   9.453 -19.331  1.00  0.00     0.041 C 
ATOM      3  O   UNL     1      17.702  10.696 -19.318  1.00  0.00    -0.550 OA
ATOM      4  O   UNL     1      19.153   8.955 -18.983  1.00  0.00    -0.550 OA
ENDBRANCH   1   2
BRANCH   1   5
ATOM      5  C   UNL     1      16.529   8.619 -21.258  1.00  0.00     0.006 C 
BRANCH   5   6
ATOM      6  C   UNL     1      15.614   7.490 -21.753  1.00  0.00    -0.003 C 
ATOM      7  C   UNL     1      14.898   6.810 -20.589  1.00  0.00     0.004 C 
ENDBRANCH   5   6
ENDBRANCH   1   5
TORSDOF 3
ENDMDL
MODEL 3
REMARK VINA RESULT:    -4.260      1.980      2.758
REMARK INTER + INTRA:          -5.074
REMARK INTER:                  -5.043
REMARK INTRA:                  -0.031
REMARK UNBOUND:                -0.067
REMARK SMILES CCCCC(=O)[O-]
REMARK SMILES IDX 4 1 5 2 6 3 7 4 3 5 2 6 1 7
REMARK H PARENT
REMARK Flexibility Score: inf
ROOT
ATOM      1  C   UNL     1      16.738   8.576 -19.722  1.00  0.00     0.053 C 
ENDROOT
BRANCH   1   2
ATOM      2  C   UNL     1      17.859   9.455 -19.261  1.00  0.00     0.041 C 
ATOM      3  O   UNL     1      18.924   8.948 -18.822  1.00  0.00    -0.550 OA
ATOM      4  O   UNL     1      17.714  10.836 -19.286  1.00  0.00    -0.550 OA
ENDBRANCH   1   2
BRANCH   1   5
ATOM      5  C   UNL     1      16.555   8.637 -21.243  1.00  0.00     0.006 C 
BRANCH   5   6
ATOM      6  C   UNL     1      15.632   7.526 -21.763  1.00  0.00    -0.003 C 
ATOM      7  C   UNL     1      14.889   6.846 -20.615  1.00  0.00     0.004 C 
ENDBRANCH   5   6
ENDBRANCH   1   5
TORSDOF 3
ENDMDL
MODEL 4
REMARK VINA RESULT:    -3.782      2.407      3.666
REMARK INTER + INTRA:          -4.513
REMARK INTER:                  -4.441
REMARK INTRA:                  -0.072
REMARK UNBOUND:                -0.067
REMARK SMILES CCCCC(=O)[O-]
REMARK SMILES IDX 4 1 5 2 6 3 7 4 3 5 2 6 1 7
REMARK H PARENT
REMARK Flexibility Score: inf
ROOT
ATOM      1  C   UNL     1      14.951   6.784 -20.243  1.00  0.00     0.053 C 
ENDROOT
BRANCH   1   2
ATOM      2  C   UNL     1      13.596   7.289 -19.851  1.00  0.00     0.041 C 
ATOM      3  O   UNL     1      12.872   7.881 -20.693  1.00  0.00    -0.550 OA
ATOM      4  O   UNL     1      13.149   7.136 -18.545  1.00  0.00    -0.550 OA
ENDBRANCH   1   2
BRANCH   1   5
ATOM      5  C   UNL     1      15.366   7.287 -21.631  1.00  0.00     0.006 C 
BRANCH   5   6
ATOM      6  C   UNL     1      16.219   8.561 -21.556  1.00  0.00    -0.003 C 
ATOM      7  C   UNL     1      17.038   8.600 -20.269  1.00  0.00     0.004 C 
ENDBRANCH   5   6
ENDBRANCH   1   5
TORSDOF 3
ENDMDL
MODEL 5
REMARK VINA RESULT:    -3.656      2.256      3.362
REMARK INTER + INTRA:          -4.364
REMARK INTER:                  -4.293
REMARK INTRA:                  -0.071
REMARK UNBOUND:                -0.067
REMARK SMILES CCCCC(=O)[O-]
REMARK SMILES IDX 4 1 5 2 6 3 7 4 3 5 2 6 1 7
REMARK H PARENT
REMARK Flexibility Score: inf
ROOT
ATOM      1  C   UNL     1      15.821   7.456 -21.736  1.00  0.00     0.053 C 
ENDROOT
BRANCH   1   2
ATOM      2  C   UNL     1      14.707   6.962 -20.864  1.00  0.00     0.041 C 
ATOM      3  O   UNL     1      14.793   5.840 -20.300  1.00  0.00    -0.550 OA
ATOM      4  O   UNL     1      13.560   7.729 -20.703  1.00  0.00    -0.550 OA
ENDBRANCH   1   2
BRANCH   1   5
ATOM      5  C   UNL     1      16.240   8.885 -21.369  1.00  0.00     0.006 C 
BRANCH   5   6
ATOM      6  C   UNL     1      17.564   8.921 -20.592  1.00  0.00    -0.003 C 
ATOM      7  C   UNL     1      17.320   9.097 -19.096  1.00  0.00     0.004 C 
ENDBRANCH   5   6
ENDBRANCH   1   5
TORSDOF 3
ENDMDL
MODEL 6
REMARK VINA RESULT:    -3.530      5.406      6.343
REMARK INTER + INTRA:          -4.216
REMARK INTER:                  -4.175
REMARK INTRA:                  -0.041
REMARK UNBOUND:                -0.067
REMARK SMILES CCCCC(=O)[O-]
REMARK SMILES IDX 4 1 5 2 6 3 7 4 3 5 2 6 1 7
REMARK H PARENT
REMARK Flexibility Score: inf
ROOT
ATOM      1  C   UNL     1      18.629  12.843 -21.195  1.00  0.00     0.053 C 
ENDROOT
BRANCH   1   2
ATOM      2  C   UNL     1      17.602  12.521 -20.153  1.00  0.00     0.041 C 
ATOM      3  O   UNL     1      16.684  13.342 -19.893  1.00  0.00    -0.550 OA
ATOM      4  O   UNL     1      17.680  11.327 -19.447  1.00  0.00    -0.550 OA
ENDBRANCH   1   2
BRANCH   1   5
ATOM      5  C   UNL     1      19.427  11.601 -21.611  1.00  0.00     0.006 C 
BRANCH   5   6
ATOM      6  C   UNL     1      19.885  11.668 -23.075  1.00  0.00    -0.003 C 
ATOM      7  C   UNL     1      18.692  11.775 -24.021  1.00  0.00     0.004 C 
ENDBRANCH   5   6
ENDBRANCH   1   5
TORSDOF 3
ENDMDL
MODEL 7
REMARK VINA RESULT:    -3.522      3.593      4.759
REMARK INTER + INTRA:          -4.207
REMARK INTER:                  -4.173
REMARK INTRA:                  -0.034
REMARK UNBOUND:                -0.067
REMARK SMILES CCCCC(=O)[O-]
REMARK SMILES IDX 4 1 5 2 6 3 7 4 3 5 2 6 1 7
REMARK H PARENT
REMARK Flexibility Score: inf
ROOT
ATOM      1  C   UNL     1      17.526  11.578 -20.948  1.00  0.00     0.053 C 
ENDROOT
BRANCH   1   2
ATOM      2  C   UNL     1      17.699  12.799 -20.098  1.00  0.00     0.041 C 
ATOM      3  O   UNL     1      16.704  13.511 -19.801  1.00  0.00    -0.550 OA
ATOM      4  O   UNL     1      18.965  13.169 -19.662  1.00  0.00    -0.550 OA
ENDBRANCH   1   2
BRANCH   1   5
ATOM      5  C   UNL     1      18.430  10.429 -20.484  1.00  0.00     0.006 C 
BRANCH   5   6
ATOM      6  C   UNL     1      17.627   9.261 -19.894  1.00  0.00    -0.003 C 
ATOM      7  C   UNL     1      16.750   8.604 -20.956  1.00  0.00     0.004 C 
ENDBRANCH   5   6
ENDBRANCH   1   5
TORSDOF 3
ENDMDL
MODEL 8
REMARK VINA RESULT:    -3.478      2.478      3.630
REMARK INTER + INTRA:          -4.156
REMARK INTER:                  -4.091
REMARK INTRA:                  -0.064
REMARK UNBOUND:                -0.067
REMARK SMILES CCCCC(=O)[O-]
REMARK SMILES IDX 4 1 5 2 6 3 7 4 3 5 2 6 1 7
REMARK H PARENT
REMARK Flexibility Score: inf
ROOT
ATOM      1  C   UNL     1      18.497   9.884 -20.829  1.00  0.00     0.053 C 
ENDROOT
BRANCH   1   2
ATOM      2  C   UNL     1      18.164  11.336 -20.676  1.00  0.00     0.041 C 
ATOM      3  O   UNL     1      18.376  12.139 -21.622  1.00  0.00    -0.550 OA
ATOM      4  O   UNL     1      17.650  11.808 -19.475  1.00  0.00    -0.550 OA
ENDBRANCH   1   2
BRANCH   1   5
ATOM      5  C   UNL     1      17.313   8.986 -20.450  1.00  0.00     0.006 C 
BRANCH   5   6
ATOM      6  C   UNL     1      16.285   8.870 -21.585  1.00  0.00    -0.003 C 
ATOM      7  C   UNL     1      15.586   7.514 -21.558  1.00  0.00     0.004 C 
ENDBRANCH   5   6
ENDBRANCH   1   5
TORSDOF 3
ENDMDL
MODEL 9
REMARK VINA RESULT:    -3.449     14.907     15.505
REMARK INTER + INTRA:          -4.121
REMARK INTER:                  -4.105
REMARK INTRA:                  -0.016
REMARK UNBOUND:                -0.067
REMARK SMILES CCCCC(=O)[O-]
REMARK SMILES IDX 4 1 5 2 6 3 7 4 3 5 2 6 1 7
REMARK H PARENT
REMARK Flexibility Score: inf
ROOT
ATOM      1  C   UNL     1       6.274  -1.036 -28.627  1.00  0.00     0.053 C 
ENDROOT
BRANCH   1   2
ATOM      2  C   UNL     1       4.810  -0.957 -28.935  1.00  0.00     0.041 C 
ATOM      3  O   UNL     1       4.358  -1.458 -29.998  1.00  0.00    -0.550 OA
ATOM      4  O   UNL     1       3.952  -0.299 -28.063  1.00  0.00    -0.550 OA
ENDBRANCH   1   2
BRANCH   1   5
ATOM      5  C   UNL     1       6.604  -2.243 -27.740  1.00  0.00     0.006 C 
BRANCH   5   6
ATOM      6  C   UNL     1       8.110  -2.539 -27.697  1.00  0.00    -0.003 C 
ATOM      7  C   UNL     1       8.623  -2.576 -26.261  1.00  0.00     0.004 C 
ENDBRANCH   5   6
ENDBRANCH   1   5
TORSDOF 3
ENDMDL
