MODEL 1
REMARK VINA RESULT:    -5.467      0.000      0.000
REMARK INTER + INTRA:          -6.299
REMARK INTER:                  -5.787
REMARK INTRA:                  -0.512
REMARK UNBOUND:                -0.512
REMARK SMILES CC1=CC[C@]23[C@@H]([C@@H](C(C)C)CC[C@@H]2C)[C@@H]13
REMARK SMILES IDX 14 1 13 2 12 3 11 4 7 5 6 6 5 7 15 8 2 9 3 10 4 11 1 12 8 13
REMARK SMILES IDX 9 14 10 15
REMARK H PARENT
REMARK Flexibility Score: inf
ROOT
ATOM      1  C   UNL     1     167.927 161.673 204.246  1.00  0.00     0.008 C 
ATOM      2  C   UNL     1     166.890 161.879 203.136  1.00  0.00    -0.007 C 
ATOM      3  C   UNL     1     165.772 162.867 203.594  1.00  0.00     0.004 C 
ATOM      4  C   UNL     1     164.764 163.254 202.467  1.00  0.00     0.004 C 
ATOM      5  C   UNL     1     165.437 163.517 201.082  1.00  0.00    -0.004 C 
ATOM      6  C   UNL     1     166.345 162.306 200.828  1.00  0.00     0.007 C 
ATOM      7  C   UNL     1     167.534 162.450 201.851  1.00  0.00    -0.013 C 
ATOM      8  C   UNL     1     167.750 162.027 200.401  1.00  0.00     0.025 C 
ATOM      9  C   UNL     1     168.463 163.161 199.755  1.00  0.00    -0.073 C 
ATOM     10  C   UNL     1     168.782 164.115 200.615  1.00  0.00    -0.027 C 
ATOM     11  C   UNL     1     168.332 163.780 201.991  1.00  0.00     0.035 C 
ATOM     12  C   UNL     1     168.791 163.216 198.295  1.00  0.00     0.039 C 
ENDROOT
BRANCH   5  13
ATOM     13  C   UNL     1     164.433 163.727 199.910  1.00  0.00    -0.014 C 
ATOM     14  C   UNL     1     164.927 164.667 198.796  1.00  0.00     0.007 C 
ATOM     15  C   UNL     1     163.995 162.385 199.301  1.00  0.00     0.007 C 
ENDBRANCH   5  13
TORSDOF 1
ENDMDL
MODEL 2
REMARK VINA RESULT:    -5.447      5.374      7.165
REMARK INTER + INTRA:          -6.278
REMARK INTER:                  -5.766
REMARK INTRA:                  -0.512
REMARK UNBOUND:                -0.512
REMARK SMILES CC1=CC[C@]23[C@@H]([C@@H](C(C)C)CC[C@@H]2C)[C@@H]13
REMARK SMILES IDX 14 1 13 2 12 3 11 4 7 5 6 6 5 7 15 8 2 9 3 10 4 11 1 12 8 13
REMARK SMILES IDX 9 14 10 15
REMARK H PARENT
REMARK Flexibility Score: inf
ROOT
ATOM      1  C   UNL     1     164.122 170.284 204.218  1.00  0.00     0.008 C 
ATOM      2  C   UNL     1     165.160 170.085 203.108  1.00  0.00    -0.007 C 
ATOM      3  C   UNL     1     166.250 169.057 203.543  1.00  0.00     0.004 C 
ATOM      4  C   UNL     1     167.255 168.678 202.410  1.00  0.00     0.004 C 
ATOM      5  C   UNL     1     166.584 168.473 201.015  1.00  0.00    -0.004 C 
ATOM      6  C   UNL     1     165.709 169.715 200.792  1.00  0.00     0.007 C 
ATOM      7  C   UNL     1     164.511 169.570 201.803  1.00  0.00    -0.013 C 
ATOM      8  C   UNL     1     164.314 170.041 200.365  1.00  0.00     0.025 C 
ATOM      9  C   UNL     1     163.577 168.945 199.681  1.00  0.00    -0.073 C 
ATOM     10  C   UNL     1     163.229 167.975 200.510  1.00  0.00    -0.027 C 
ATOM     11  C   UNL     1     163.678 168.257 201.898  1.00  0.00     0.035 C 
ATOM     12  C   UNL     1     163.257 168.942 198.219  1.00  0.00     0.039 C 
ENDROOT
BRANCH   5  13
ATOM     13  C   UNL     1     167.590 168.274 199.841  1.00  0.00    -0.014 C 
ATOM     14  C   UNL     1     167.073 167.393 198.690  1.00  0.00     0.007 C 
ATOM     15  C   UNL     1     168.078 169.621 199.287  1.00  0.00     0.007 C 
ENDBRANCH   5  13
TORSDOF 1
ENDMDL
MODEL 3
REMARK VINA RESULT:    -5.332      5.032      6.633
REMARK INTER + INTRA:          -6.155
REMARK INTER:                  -5.771
REMARK INTRA:                  -0.384
REMARK UNBOUND:                -0.512
REMARK SMILES CC1=CC[C@]23[C@@H]([C@@H](C(C)C)CC[C@@H]2C)[C@@H]13
REMARK SMILES IDX 14 1 13 2 12 3 11 4 7 5 6 6 5 7 15 8 2 9 3 10 4 11 1 12 8 13
REMARK SMILES IDX 9 14 10 15
REMARK H PARENT
REMARK Flexibility Score: inf
ROOT
ATOM      1  C   UNL     1     163.384 168.198 202.321  1.00  0.00     0.008 C 
ATOM      2  C   UNL     1     164.449 168.386 201.235  1.00  0.00    -0.007 C 
ATOM      3  C   UNL     1     164.363 169.813 200.611  1.00  0.00     0.004 C 
ATOM      4  C   UNL     1     165.515 170.140 199.610  1.00  0.00     0.004 C 
ATOM      5  C   UNL     1     166.918 169.639 200.077  1.00  0.00    -0.004 C 
ATOM      6  C   UNL     1     166.722 168.167 200.467  1.00  0.00     0.007 C 
ATOM      7  C   UNL     1     165.877 168.194 201.796  1.00  0.00    -0.013 C 
ATOM      8  C   UNL     1     167.061 167.252 201.599  1.00  0.00     0.025 C 
ATOM      9  C   UNL     1     168.118 167.739 202.525  1.00  0.00    -0.073 C 
ATOM     10  C   UNL     1     167.702 168.734 203.291  1.00  0.00    -0.027 C 
ATOM     11  C   UNL     1     166.287 169.086 203.005  1.00  0.00     0.035 C 
ATOM     12  C   UNL     1     169.499 167.162 202.590  1.00  0.00     0.039 C 
ENDROOT
BRANCH   5  13
ATOM     13  C   UNL     1     168.044 169.796 199.012  1.00  0.00    -0.014 C 
ATOM     14  C   UNL     1     168.855 168.517 198.735  1.00  0.00     0.007 C 
ATOM     15  C   UNL     1     167.492 170.358 197.693  1.00  0.00     0.007 C 
ENDBRANCH   5  13
TORSDOF 1
ENDMDL
MODEL 4
REMARK VINA RESULT:    -5.311      3.715      6.039
REMARK INTER + INTRA:          -6.133
REMARK INTER:                  -5.623
REMARK INTRA:                  -0.510
REMARK UNBOUND:                -0.512
REMARK SMILES CC1=CC[C@]23[C@@H]([C@@H](C(C)C)CC[C@@H]2C)[C@@H]13
REMARK SMILES IDX 14 1 13 2 12 3 11 4 7 5 6 6 5 7 15 8 2 9 3 10 4 11 1 12 8 13
REMARK SMILES IDX 9 14 10 15
REMARK H PARENT
REMARK Flexibility Score: inf
ROOT
ATOM      1  C   UNL     1     168.119 169.584 198.126  1.00  0.00     0.008 C 
ATOM      2  C   UNL     1     168.467 169.039 199.515  1.00  0.00    -0.007 C 
ATOM      3  C   UNL     1     167.361 169.409 200.552  1.00  0.00     0.004 C 
ATOM      4  C   UNL     1     167.560 168.755 201.955  1.00  0.00     0.004 C 
ATOM      5  C   UNL     1     168.028 167.265 201.896  1.00  0.00    -0.004 C 
ATOM      6  C   UNL     1     169.225 167.246 200.935  1.00  0.00     0.007 C 
ATOM      7  C   UNL     1     168.618 167.501 199.504  1.00  0.00    -0.013 C 
ATOM      8  C   UNL     1     169.705 166.460 199.758  1.00  0.00     0.025 C 
ATOM      9  C   UNL     1     169.051 165.140 199.556  1.00  0.00    -0.073 C 
ATOM     10  C   UNL     1     167.804 165.252 199.129  1.00  0.00    -0.027 C 
ATOM     11  C   UNL     1     167.407 166.675 198.974  1.00  0.00     0.035 C 
ATOM     12  C   UNL     1     169.730 163.828 199.800  1.00  0.00     0.039 C 
ENDROOT
BRANCH   5  13
ATOM     13  C   UNL     1     168.404 166.655 203.279  1.00  0.00    -0.014 C 
ATOM     14  C   UNL     1     168.551 165.123 203.292  1.00  0.00     0.007 C 
ATOM     15  C   UNL     1     169.674 167.305 203.850  1.00  0.00     0.007 C 
ENDBRANCH   5  13
TORSDOF 1
ENDMDL
MODEL 5
REMARK VINA RESULT:    -5.304      2.979      5.289
REMARK INTER + INTRA:          -6.126
REMARK INTER:                  -5.615
REMARK INTRA:                  -0.510
REMARK UNBOUND:                -0.512
REMARK SMILES CC1=CC[C@]23[C@@H]([C@@H](C(C)C)CC[C@@H]2C)[C@@H]13
REMARK SMILES IDX 14 1 13 2 12 3 11 4 7 5 6 6 5 7 15 8 2 9 3 10 4 11 1 12 8 13
REMARK SMILES IDX 9 14 10 15
REMARK H PARENT
REMARK Flexibility Score: inf
ROOT
ATOM      1  C   UNL     1     163.910 162.333 198.277  1.00  0.00     0.008 C 
ATOM      2  C   UNL     1     163.546 162.915 199.648  1.00  0.00    -0.007 C 
ATOM      3  C   UNL     1     164.648 162.586 200.703  1.00  0.00     0.004 C 
ATOM      4  C   UNL     1     164.432 163.278 202.085  1.00  0.00     0.004 C 
ATOM      5  C   UNL     1     163.952 164.761 201.979  1.00  0.00    -0.004 C 
ATOM      6  C   UNL     1     162.763 164.742 201.009  1.00  0.00     0.007 C 
ATOM      7  C   UNL     1     163.383 164.452 199.591  1.00  0.00    -0.013 C 
ATOM      8  C   UNL     1     162.285 165.489 199.805  1.00  0.00     0.025 C 
ATOM      9  C   UNL     1     162.929 166.809 199.570  1.00  0.00    -0.073 C 
ATOM     10  C   UNL     1     164.180 166.695 199.156  1.00  0.00    -0.027 C 
ATOM     11  C   UNL     1     164.591 165.271 199.046  1.00  0.00     0.035 C 
ATOM     12  C   UNL     1     162.238 168.122 199.771  1.00  0.00     0.039 C 
ENDROOT
BRANCH   5  13
ATOM     13  C   UNL     1     163.560 165.408 203.341  1.00  0.00    -0.014 C 
ATOM     14  C   UNL     1     163.417 166.940 203.312  1.00  0.00     0.007 C 
ATOM     15  C   UNL     1     162.280 164.777 203.912  1.00  0.00     0.007 C 
ENDBRANCH   5  13
TORSDOF 1
ENDMDL
MODEL 6
REMARK VINA RESULT:    -5.279      5.307      6.515
REMARK INTER + INTRA:          -6.099
REMARK INTER:                  -5.687
REMARK INTRA:                  -0.412
REMARK UNBOUND:                -0.512
REMARK SMILES CC1=CC[C@]23[C@@H]([C@@H](C(C)C)CC[C@@H]2C)[C@@H]13
REMARK SMILES IDX 14 1 13 2 12 3 11 4 7 5 6 6 5 7 15 8 2 9 3 10 4 11 1 12 8 13
REMARK SMILES IDX 9 14 10 15
REMARK H PARENT
REMARK Flexibility Score: inf
ROOT
ATOM      1  C   UNL     1     169.818 167.134 199.971  1.00  0.00     0.008 C 
ATOM      2  C   UNL     1     168.344 167.476 200.217  1.00  0.00    -0.007 C 
ATOM      3  C   UNL     1     168.179 168.324 201.516  1.00  0.00     0.004 C 
ATOM      4  C   UNL     1     166.728 168.850 201.752  1.00  0.00     0.004 C 
ATOM      5  C   UNL     1     166.026 169.367 200.456  1.00  0.00    -0.004 C 
ATOM      6  C   UNL     1     166.210 168.255 199.414  1.00  0.00     0.007 C 
ATOM      7  C   UNL     1     167.740 168.279 199.042  1.00  0.00    -0.013 C 
ATOM      8  C   UNL     1     166.646 168.112 197.992  1.00  0.00     0.025 C 
ATOM      9  C   UNL     1     166.660 169.368 197.194  1.00  0.00    -0.073 C 
ATOM     10  C   UNL     1     167.645 170.178 197.544  1.00  0.00    -0.027 C 
ATOM     11  C   UNL     1     168.462 169.601 198.644  1.00  0.00     0.035 C 
ATOM     12  C   UNL     1     165.675 169.678 196.110  1.00  0.00     0.039 C 
ENDROOT
BRANCH   5  13
ATOM     13  C   UNL     1     164.521 169.725 200.640  1.00  0.00    -0.014 C 
ATOM     14  C   UNL     1     163.646 169.500 199.394  1.00  0.00     0.007 C 
ATOM     15  C   UNL     1     163.913 168.987 201.843  1.00  0.00     0.007 C 
ENDBRANCH   5  13
TORSDOF 1
ENDMDL
MODEL 7
REMARK VINA RESULT:    -5.277      1.604      3.691
REMARK INTER + INTRA:          -6.097
REMARK INTER:                  -5.588
REMARK INTRA:                  -0.509
REMARK UNBOUND:                -0.512
REMARK SMILES CC1=CC[C@]23[C@@H]([C@@H](C(C)C)CC[C@@H]2C)[C@@H]13
REMARK SMILES IDX 14 1 13 2 12 3 11 4 7 5 6 6 5 7 15 8 2 9 3 10 4 11 1 12 8 13
REMARK SMILES IDX 9 14 10 15
REMARK H PARENT
REMARK Flexibility Score: inf
ROOT
ATOM      1  C   UNL     1     168.249 164.481 202.783  1.00  0.00     0.008 C 
ATOM      2  C   UNL     1     167.636 163.978 201.471  1.00  0.00    -0.007 C 
ATOM      3  C   UNL     1     167.942 162.463 201.258  1.00  0.00     0.004 C 
ATOM      4  C   UNL     1     167.219 161.835 200.026  1.00  0.00     0.004 C 
ATOM      5  C   UNL     1     165.739 162.304 199.857  1.00  0.00    -0.004 C 
ATOM      6  C   UNL     1     165.779 163.837 199.943  1.00  0.00     0.007 C 
ATOM      7  C   UNL     1     166.102 164.163 201.450  1.00  0.00    -0.013 C 
ATOM      8  C   UNL     1     165.059 164.939 200.650  1.00  0.00     0.025 C 
ATOM      9  C   UNL     1     163.745 164.573 201.243  1.00  0.00    -0.073 C 
ATOM     10  C   UNL     1     163.869 163.802 202.311  1.00  0.00    -0.027 C 
ATOM     11  C   UNL     1     165.295 163.517 202.615  1.00  0.00     0.035 C 
ATOM     12  C   UNL     1     162.428 165.032 200.698  1.00  0.00     0.039 C 
ENDROOT
BRANCH   5  13
ATOM     13  C   UNL     1     165.061 161.831 198.536  1.00  0.00    -0.014 C 
ATOM     14  C   UNL     1     163.533 162.007 198.494  1.00  0.00     0.007 C 
ATOM     15  C   UNL     1     165.696 162.504 197.309  1.00  0.00     0.007 C 
ENDBRANCH   5  13
TORSDOF 1
ENDMDL
MODEL 8
REMARK VINA RESULT:    -5.270      1.597      4.384
REMARK INTER + INTRA:          -6.090
REMARK INTER:                  -5.678
REMARK INTRA:                  -0.412
REMARK UNBOUND:                -0.512
REMARK SMILES CC1=CC[C@]23[C@@H]([C@@H](C(C)C)CC[C@@H]2C)[C@@H]13
REMARK SMILES IDX 14 1 13 2 12 3 11 4 7 5 6 6 5 7 15 8 2 9 3 10 4 11 1 12 8 13
REMARK SMILES IDX 9 14 10 15
REMARK H PARENT
REMARK Flexibility Score: inf
ROOT
ATOM      1  C   UNL     1     162.156 164.849 199.945  1.00  0.00     0.008 C 
ATOM      2  C   UNL     1     163.628 164.516 200.212  1.00  0.00    -0.007 C 
ATOM      3  C   UNL     1     163.778 163.648 201.500  1.00  0.00     0.004 C 
ATOM      4  C   UNL     1     165.229 163.131 201.754  1.00  0.00     0.004 C 
ATOM      5  C   UNL     1     165.959 162.642 200.463  1.00  0.00    -0.004 C 
ATOM      6  C   UNL     1     165.784 163.770 199.436  1.00  0.00     0.007 C 
ATOM      7  C   UNL     1     164.261 163.739 199.035  1.00  0.00    -0.013 C 
ATOM      8  C   UNL     1     165.373 163.933 198.008  1.00  0.00     0.025 C 
ATOM      9  C   UNL     1     165.385 162.691 197.190  1.00  0.00    -0.073 C 
ATOM     10  C   UNL     1     164.401 161.866 197.508  1.00  0.00    -0.027 C 
ATOM     11  C   UNL     1     163.559 162.417 198.602  1.00  0.00     0.035 C 
ATOM     12  C   UNL     1     166.392 162.407 196.119  1.00  0.00     0.039 C 
ENDROOT
BRANCH   5  13
ATOM     13  C   UNL     1     167.464 162.294 200.669  1.00  0.00    -0.014 C 
ATOM     14  C   UNL     1     168.359 162.543 199.441  1.00  0.00     0.007 C 
ATOM     15  C   UNL     1     168.044 163.022 201.892  1.00  0.00     0.007 C 
ENDBRANCH   5  13
TORSDOF 1
ENDMDL
MODEL 9
REMARK VINA RESULT:    -5.251      1.854      4.485
REMARK INTER + INTRA:          -6.070
REMARK INTER:                  -5.663
REMARK INTRA:                  -0.407
REMARK UNBOUND:                -0.512
REMARK SMILES CC1=CC[C@]23[C@@H]([C@@H](C(C)C)CC[C@@H]2C)[C@@H]13
REMARK SMILES IDX 14 1 13 2 12 3 11 4 7 5 6 6 5 7 15 8 2 9 3 10 4 11 1 12 8 13
REMARK SMILES IDX 9 14 10 15
REMARK H PARENT
REMARK Flexibility Score: inf
ROOT
ATOM      1  C   UNL     1     168.908 165.089 195.920  1.00  0.00     0.008 C 
ATOM      2  C   UNL     1     167.738 164.584 196.772  1.00  0.00    -0.007 C 
ATOM      3  C   UNL     1     167.179 163.240 196.210  1.00  0.00     0.004 C 
ATOM      4  C   UNL     1     166.092 162.577 197.112  1.00  0.00     0.004 C 
ATOM      5  C   UNL     1     166.412 162.645 198.639  1.00  0.00    -0.004 C 
ATOM      6  C   UNL     1     166.761 164.112 198.923  1.00  0.00     0.007 C 
ATOM      7  C   UNL     1     168.160 164.350 198.240  1.00  0.00    -0.013 C 
ATOM      8  C   UNL     1     167.823 164.897 199.624  1.00  0.00     0.025 C 
ATOM      9  C   UNL     1     168.668 164.128 200.577  1.00  0.00    -0.073 C 
ATOM     10  C   UNL     1     169.505 163.309 199.963  1.00  0.00    -0.027 C 
ATOM     11  C   UNL     1     169.361 163.388 198.486  1.00  0.00     0.035 C 
ATOM     12  C   UNL     1     168.587 164.271 202.065  1.00  0.00     0.039 C 
ENDROOT
BRANCH   5  13
ATOM     13  C   UNL     1     165.256 162.151 199.561  1.00  0.00    -0.014 C 
ATOM     14  C   UNL     1     165.107 162.926 200.882  1.00  0.00     0.007 C 
ATOM     15  C   UNL     1     163.913 162.134 198.813  1.00  0.00     0.007 C 
ENDBRANCH   5  13
TORSDOF 1
ENDMDL
