MODEL 1
REMARK VINA RESULT:    -1.892      0.000      0.000
REMARK INTER + INTRA:          -1.892
REMARK INTER:                  -1.892
REMARK INTRA:                   0.000
REMARK UNBOUND:                 0.000
REMARK SMILES CC(=O)[O-]
REMARK SMILES IDX 1 1 2 2 3 3 4 4
REMARK H PARENT
REMARK Flexibility Score: inf
ROOT
ATOM      1  C   UNL     1     164.379 150.977 169.550  1.00  0.00     0.063 C 
ATOM      2  C   UNL     1     162.968 151.435 169.698  1.00  0.00     0.038 C 
ATOM      3  O   UNL     1     162.206 150.875 170.528  1.00  0.00    -0.550 OA
ATOM      4  O   UNL     1     162.475 152.445 168.882  1.00  0.00    -0.550 OA
ENDROOT
TORSDOF 0
ENDMDL
MODEL 2
REMARK VINA RESULT:    -1.869     10.118     10.647
REMARK INTER + INTRA:          -1.869
REMARK INTER:                  -1.869
REMARK INTRA:                   0.000
REMARK UNBOUND:                 0.000
REMARK SMILES CC(=O)[O-]
REMARK SMILES IDX 1 1 2 2 3 3 4 4
REMARK H PARENT
REMARK Flexibility Score: inf
ROOT
ATOM      1  C   UNL     1     155.890 156.021 166.042  1.00  0.00     0.063 C 
ATOM      2  C   UNL     1     154.517 156.605 166.051  1.00  0.00     0.038 C 
ATOM      3  O   UNL     1     154.319 157.759 165.591  1.00  0.00    -0.550 OA
ATOM      4  O   UNL     1     153.465 155.898 166.618  1.00  0.00    -0.550 OA
ENDROOT
TORSDOF 0
ENDMDL
MODEL 3
REMARK VINA RESULT:    -1.865      9.964     10.421
REMARK INTER + INTRA:          -1.865
REMARK INTER:                  -1.865
REMARK INTRA:                   0.000
REMARK UNBOUND:                 0.000
REMARK SMILES CC(=O)[O-]
REMARK SMILES IDX 1 1 2 2 3 3 4 4
REMARK H PARENT
REMARK Flexibility Score: inf
ROOT
ATOM      1  C   UNL     1     155.994 155.945 166.041  1.00  0.00     0.063 C 
ATOM      2  C   UNL     1     154.607 156.493 166.078  1.00  0.00     0.038 C 
ATOM      3  O   UNL     1     153.665 155.796 166.537  1.00  0.00    -0.550 OA
ATOM      4  O   UNL     1     154.343 157.752 165.557  1.00  0.00    -0.550 OA
ENDROOT
TORSDOF 0
ENDMDL
MODEL 4
REMARK VINA RESULT:    -1.826     10.126     10.729
REMARK INTER + INTRA:          -1.826
REMARK INTER:                  -1.826
REMARK INTRA:                   0.000
REMARK UNBOUND:                 0.000
REMARK SMILES CC(=O)[O-]
REMARK SMILES IDX 1 1 2 2 3 3 4 4
REMARK H PARENT
REMARK Flexibility Score: inf
ROOT
ATOM      1  C   UNL     1     154.017 157.751 165.260  1.00  0.00     0.063 C 
ATOM      2  C   UNL     1     154.526 156.607 166.070  1.00  0.00     0.038 C 
ATOM      3  O   UNL     1     153.742 155.961 166.813  1.00  0.00    -0.550 OA
ATOM      4  O   UNL     1     155.876 156.285 166.048  1.00  0.00    -0.550 OA
ENDROOT
TORSDOF 0
ENDMDL
MODEL 5
REMARK VINA RESULT:    -1.820      8.645      9.155
REMARK INTER + INTRA:          -1.820
REMARK INTER:                  -1.820
REMARK INTRA:                   0.000
REMARK UNBOUND:                 0.000
REMARK SMILES CC(=O)[O-]
REMARK SMILES IDX 1 1 2 2 3 3 4 4
REMARK H PARENT
REMARK Flexibility Score: inf
ROOT
ATOM      1  C   UNL     1     165.999 152.309 177.244  1.00  0.00     0.063 C 
ATOM      2  C   UNL     1     167.312 151.619 177.403  1.00  0.00     0.038 C 
ATOM      3  O   UNL     1     168.167 151.668 176.480  1.00  0.00    -0.550 OA
ATOM      4  O   UNL     1     167.573 150.875 178.546  1.00  0.00    -0.550 OA
ENDROOT
TORSDOF 0
ENDMDL
MODEL 6
REMARK VINA RESULT:    -1.815      8.080      8.692
REMARK INTER + INTRA:          -1.815
REMARK INTER:                  -1.815
REMARK INTRA:                   0.000
REMARK UNBOUND:                 0.000
REMARK SMILES CC(=O)[O-]
REMARK SMILES IDX 1 1 2 2 3 3 4 4
REMARK H PARENT
REMARK Flexibility Score: inf
ROOT
ATOM      1  C   UNL     1     155.610 156.138 165.979  1.00  0.00     0.063 C 
ATOM      2  C   UNL     1     155.925 155.204 167.098  1.00  0.00     0.038 C 
ATOM      3  O   UNL     1     157.008 154.561 167.098  1.00  0.00    -0.550 OA
ATOM      4  O   UNL     1     155.002 155.000 168.115  1.00  0.00    -0.550 OA
ENDROOT
TORSDOF 0
ENDMDL
MODEL 7
REMARK VINA RESULT:    -1.741      8.455      8.843
REMARK INTER + INTRA:          -1.741
REMARK INTER:                  -1.741
REMARK INTRA:                   0.000
REMARK UNBOUND:                 0.000
REMARK SMILES CC(=O)[O-]
REMARK SMILES IDX 1 1 2 2 3 3 4 4
REMARK H PARENT
REMARK Flexibility Score: inf
ROOT
ATOM      1  C   UNL     1     166.765 151.301 177.270  1.00  0.00     0.063 C 
ATOM      2  C   UNL     1     166.464 152.747 177.474  1.00  0.00     0.038 C 
ATOM      3  O   UNL     1     166.402 153.524 176.485  1.00  0.00    -0.550 OA
ATOM      4  O   UNL     1     166.306 153.251 178.758  1.00  0.00    -0.550 OA
ENDROOT
TORSDOF 0
ENDMDL
MODEL 8
REMARK VINA RESULT:    -1.737      2.136      2.359
REMARK INTER + INTRA:          -1.737
REMARK INTER:                  -1.737
REMARK INTRA:                   0.000
REMARK UNBOUND:                 0.000
REMARK SMILES CC(=O)[O-]
REMARK SMILES IDX 1 1 2 2 3 3 4 4
REMARK H PARENT
REMARK Flexibility Score: inf
ROOT
ATOM      1  C   UNL     1     163.143 151.249 169.750  1.00  0.00     0.063 C 
ATOM      2  C   UNL     1     164.483 151.227 169.096  1.00  0.00     0.038 C 
ATOM      3  O   UNL     1     165.499 150.875 169.750  1.00  0.00    -0.550 OA
ATOM      4  O   UNL     1     164.621 151.648 167.780  1.00  0.00    -0.550 OA
ENDROOT
TORSDOF 0
ENDMDL
MODEL 9
REMARK VINA RESULT:    -1.706      8.672      8.983
REMARK INTER + INTRA:          -1.706
REMARK INTER:                  -1.706
REMARK INTRA:                   0.000
REMARK UNBOUND:                 0.000
REMARK SMILES CC(=O)[O-]
REMARK SMILES IDX 1 1 2 2 3 3 4 4
REMARK H PARENT
REMARK Flexibility Score: inf
ROOT
ATOM      1  C   UNL     1     166.764 151.265 177.249  1.00  0.00     0.063 C 
ATOM      2  C   UNL     1     167.890 152.216 177.025  1.00  0.00     0.038 C 
ATOM      3  O   UNL     1     168.941 152.123 177.712  1.00  0.00    -0.550 OA
ATOM      4  O   UNL     1     167.762 153.240 176.097  1.00  0.00    -0.550 OA
ENDROOT
TORSDOF 0
ENDMDL
