MODEL 1
REMARK VINA RESULT:    -3.647      0.000      0.000
REMARK INTER + INTRA:          -5.865
REMARK INTER:                  -5.352
REMARK INTRA:                  -0.513
REMARK UNBOUND:                -0.513
REMARK SMILES O=C([O-])CCCCCCCC(=O)[O-]
REMARK SMILES IDX 7 1 6 2 5 3 4 4 2 5 1 6 3 7 8 8 9 9 10 10 11 11 12 12 13 13
REMARK H PARENT
REMARK Flexibility Score: inf
ROOT
ATOM      1  C   UNL     1       0.082   8.675   4.507  1.00  0.00     0.000 C 
ENDROOT
BRANCH   1   2
ATOM      2  C   UNL     1      -0.241   9.860   5.434  1.00  0.00     0.000 C 
BRANCH   2   3
ATOM      3  C   UNL     1       0.864  10.124   6.473  1.00  0.00     0.006 C 
BRANCH   3   4
ATOM      4  C   UNL     1       2.272   9.718   6.010  1.00  0.00     0.053 C 
BRANCH   4   5
ATOM      5  C   UNL     1       2.871   8.664   6.891  1.00  0.00     0.041 C 
ATOM      6  O   UNL     1       3.355   8.973   8.012  1.00  0.00    -0.550 OA
ATOM      7  O   UNL     1       2.911   7.343   6.466  1.00  0.00    -0.550 OA
ENDBRANCH   4   5
ENDBRANCH   3   4
ENDBRANCH   2   3
ENDBRANCH   1   2
BRANCH   1   8
ATOM      8  C   UNL     1      -0.446   8.894   3.073  1.00  0.00     0.000 C 
BRANCH   8   9
ATOM      9  C   UNL     1      -1.733   9.735   3.009  1.00  0.00     0.006 C 
BRANCH   9  10
ATOM     10  C   UNL     1      -2.996   8.882   2.856  1.00  0.00     0.053 C 
BRANCH  10  11
ATOM     11  C   UNL     1      -3.736   8.804   4.154  1.00  0.00     0.041 C 
ATOM     12  O   UNL     1      -4.259   7.719   4.521  1.00  0.00    -0.550 OA
ATOM     13  O   UNL     1      -3.806   9.918   4.983  1.00  0.00    -0.550 OA
ENDBRANCH  10  11
ENDBRANCH   9  10
ENDBRANCH   8   9
ENDBRANCH   1   8
TORSDOF 8
ENDMDL
MODEL 2
REMARK VINA RESULT:    -3.554      1.270      1.817
REMARK INTER + INTRA:          -5.729
REMARK INTER:                  -5.246
REMARK INTRA:                  -0.483
REMARK UNBOUND:                -0.513
REMARK SMILES O=C([O-])CCCCCCCC(=O)[O-]
REMARK SMILES IDX 7 1 6 2 5 3 4 4 2 5 1 6 3 7 8 8 9 9 10 10 11 11 12 12 13 13
REMARK H PARENT
REMARK Flexibility Score: inf
ROOT
ATOM      1  C   UNL     1      -0.169   8.592   4.364  1.00  0.00     0.000 C 
ENDROOT
BRANCH   1   2
ATOM      2  C   UNL     1       1.194   9.027   3.797  1.00  0.00     0.000 C 
BRANCH   2   3
ATOM      3  C   UNL     1       1.883  10.100   4.661  1.00  0.00     0.006 C 
BRANCH   3   4
ATOM      4  C   UNL     1       1.426  10.115   6.128  1.00  0.00     0.053 C 
BRANCH   4   5
ATOM      5  C   UNL     1       2.381   9.382   7.021  1.00  0.00     0.041 C 
ATOM      6  O   UNL     1       2.087   8.241   7.465  1.00  0.00    -0.550 OA
ATOM      7  O   UNL     1       3.589   9.968   7.377  1.00  0.00    -0.550 OA
ENDBRANCH   4   5
ENDBRANCH   3   4
ENDBRANCH   2   3
ENDBRANCH   1   2
BRANCH   1   8
ATOM      8  C   UNL     1      -1.326   9.471   3.842  1.00  0.00     0.000 C 
BRANCH   8   9
ATOM      9  C   UNL     1      -2.288   9.945   4.944  1.00  0.00     0.006 C 
BRANCH   9  10
ATOM     10  C   UNL     1      -3.728  10.112   4.448  1.00  0.00     0.053 C 
BRANCH  10  11
ATOM     11  C   UNL     1      -4.233   8.831   3.864  1.00  0.00     0.041 C 
ATOM     12  O   UNL     1      -4.595   8.784   2.659  1.00  0.00    -0.550 OA
ATOM     13  O   UNL     1      -4.255   7.675   4.636  1.00  0.00    -0.550 OA
ENDBRANCH  10  11
ENDBRANCH   9  10
ENDBRANCH   8   9
ENDBRANCH   1   8
TORSDOF 8
ENDMDL
MODEL 3
REMARK VINA RESULT:    -3.457      1.104      6.378
REMARK INTER + INTRA:          -5.587
REMARK INTER:                  -5.124
REMARK INTRA:                  -0.463
REMARK UNBOUND:                -0.513
REMARK SMILES O=C([O-])CCCCCCCC(=O)[O-]
REMARK SMILES IDX 7 1 6 2 5 3 4 4 2 5 1 6 3 7 8 8 9 9 10 10 11 11 12 12 13 13
REMARK H PARENT
REMARK Flexibility Score: inf
ROOT
ATOM      1  C   UNL     1      -0.682   8.514   4.336  1.00  0.00     0.000 C 
ENDROOT
BRANCH   1   2
ATOM      2  C   UNL     1      -1.286   8.797   2.949  1.00  0.00     0.000 C 
BRANCH   2   3
ATOM      3  C   UNL     1      -2.168  10.059   2.930  1.00  0.00     0.006 C 
BRANCH   3   4
ATOM      4  C   UNL     1      -3.588   9.827   2.389  1.00  0.00     0.053 C 
BRANCH   4   5
ATOM      5  C   UNL     1      -4.621   9.904   3.472  1.00  0.00     0.041 C 
ATOM      6  O   UNL     1      -4.277  10.124   4.663  1.00  0.00    -0.550 OA
ATOM      7  O   UNL     1      -5.962   9.711   3.169  1.00  0.00    -0.550 OA
ENDBRANCH   4   5
ENDBRANCH   3   4
ENDBRANCH   2   3
ENDBRANCH   1   2
BRANCH   1   8
ATOM      8  C   UNL     1      -0.731   9.752   5.258  1.00  0.00     0.000 C 
BRANCH   8   9
ATOM      9  C   UNL     1       0.529   9.931   6.120  1.00  0.00     0.006 C 
BRANCH   9  10
ATOM     10  C   UNL     1       1.766   9.258   5.516  1.00  0.00     0.053 C 
BRANCH  10  11
ATOM     11  C   UNL     1       2.599   8.632   6.590  1.00  0.00     0.041 C 
ATOM     12  O   UNL     1       3.027   9.329   7.547  1.00  0.00    -0.550 OA
ATOM     13  O   UNL     1       2.862   7.268   6.560  1.00  0.00    -0.550 OA
ENDBRANCH  10  11
ENDBRANCH   9  10
ENDBRANCH   8   9
ENDBRANCH   1   8
TORSDOF 8
ENDMDL
MODEL 4
REMARK VINA RESULT:    -3.437      1.271      6.397
REMARK INTER + INTRA:          -5.558
REMARK INTER:                  -5.156
REMARK INTRA:                  -0.402
REMARK UNBOUND:                -0.513
REMARK SMILES O=C([O-])CCCCCCCC(=O)[O-]
REMARK SMILES IDX 7 1 6 2 5 3 4 4 2 5 1 6 3 7 8 8 9 9 10 10 11 11 12 12 13 13
REMARK H PARENT
REMARK Flexibility Score: inf
ROOT
ATOM      1  C   UNL     1      -0.947   8.499   3.447  1.00  0.00     0.000 C 
ENDROOT
BRANCH   1   2
ATOM      2  C   UNL     1      -1.737   9.795   3.194  1.00  0.00     0.000 C 
BRANCH   2   3
ATOM      3  C   UNL     1      -2.945   9.950   4.136  1.00  0.00     0.006 C 
BRANCH   3   4
ATOM      4  C   UNL     1      -3.725   8.648   4.379  1.00  0.00     0.053 C 
BRANCH   4   5
ATOM      5  C   UNL     1      -4.921   8.535   3.484  1.00  0.00     0.041 C 
ATOM      6  O   UNL     1      -5.195   7.441   2.924  1.00  0.00    -0.550 OA
ATOM      7  O   UNL     1      -5.723   9.645   3.253  1.00  0.00    -0.550 OA
ENDBRANCH   4   5
ENDBRANCH   3   4
ENDBRANCH   2   3
ENDBRANCH   1   2
BRANCH   1   8
ATOM      8  C   UNL     1       0.458   8.776   4.028  1.00  0.00     0.000 C 
BRANCH   8   9
ATOM      9  C   UNL     1       0.434   9.480   5.395  1.00  0.00     0.006 C 
BRANCH   9  10
ATOM     10  C   UNL     1       1.775  10.124   5.758  1.00  0.00     0.053 C 
BRANCH  10  11
ATOM     11  C   UNL     1       2.451   9.351   6.846  1.00  0.00     0.041 C 
ATOM     12  O   UNL     1       1.883   8.353   7.361  1.00  0.00    -0.550 OA
ATOM     13  O   UNL     1       3.731   9.703   7.257  1.00  0.00    -0.550 OA
ENDBRANCH  10  11
ENDBRANCH   9  10
ENDBRANCH   8   9
ENDBRANCH   1   8
TORSDOF 8
ENDMDL
MODEL 5
REMARK VINA RESULT:    -3.407     15.062     16.324
REMARK INTER + INTRA:          -5.512
REMARK INTER:                  -4.679
REMARK INTRA:                  -0.834
REMARK UNBOUND:                -0.513
REMARK SMILES O=C([O-])CCCCCCCC(=O)[O-]
REMARK SMILES IDX 7 1 6 2 5 3 4 4 2 5 1 6 3 7 8 8 9 9 10 10 11 11 12 12 13 13
REMARK H PARENT
REMARK Flexibility Score: inf
ROOT
ATOM      1  C   UNL     1       6.668  -2.385  -6.842  1.00  0.00     0.000 C 
ENDROOT
BRANCH   1   2
ATOM      2  C   UNL     1       7.584  -1.152  -6.762  1.00  0.00     0.000 C 
BRANCH   2   3
ATOM      3  C   UNL     1       6.994   0.077  -7.479  1.00  0.00     0.006 C 
BRANCH   3   4
ATOM      4  C   UNL     1       6.710   1.270  -6.553  1.00  0.00     0.053 C 
BRANCH   4   5
ATOM      5  C   UNL     1       5.267   1.339  -6.152  1.00  0.00     0.041 C 
ATOM      6  O   UNL     1       4.951   1.533  -4.949  1.00  0.00    -0.550 OA
ATOM      7  O   UNL     1       4.272   1.169  -7.105  1.00  0.00    -0.550 OA
ENDBRANCH   4   5
ENDBRANCH   3   4
ENDBRANCH   2   3
ENDBRANCH   1   2
BRANCH   1   8
ATOM      8  C   UNL     1       5.643  -2.277  -7.993  1.00  0.00     0.000 C 
BRANCH   8   9
ATOM      9  C   UNL     1       4.179  -2.296  -7.522  1.00  0.00     0.006 C 
BRANCH   9  10
ATOM     10  C   UNL     1       4.040  -2.553  -6.018  1.00  0.00     0.053 C 
BRANCH  10  11
ATOM     11  C   UNL     1       2.953  -1.703  -5.439  1.00  0.00     0.041 C 
ATOM     12  O   UNL     1       3.061  -1.244  -4.272  1.00  0.00    -0.550 OA
ATOM     13  O   UNL     1       1.842  -1.376  -6.208  1.00  0.00    -0.550 OA
ENDBRANCH  10  11
ENDBRANCH   9  10
ENDBRANCH   8   9
ENDBRANCH   1   8
TORSDOF 8
ENDMDL
MODEL 6
REMARK VINA RESULT:    -3.355      1.716      2.368
REMARK INTER + INTRA:          -5.437
REMARK INTER:                  -5.209
REMARK INTRA:                  -0.229
REMARK UNBOUND:                -0.513
REMARK SMILES O=C([O-])CCCCCCCC(=O)[O-]
REMARK SMILES IDX 7 1 6 2 5 3 4 4 2 5 1 6 3 7 8 8 9 9 10 10 11 11 12 12 13 13
REMARK H PARENT
REMARK Flexibility Score: inf
ROOT
ATOM      1  C   UNL     1      -2.003   9.378   4.287  1.00  0.00     0.000 C 
ENDROOT
BRANCH   1   2
ATOM      2  C   UNL     1      -1.168  10.007   5.416  1.00  0.00     0.000 C 
BRANCH   2   3
ATOM      3  C   UNL     1       0.271   9.460   5.469  1.00  0.00     0.006 C 
BRANCH   3   4
ATOM      4  C   UNL     1       1.126  10.046   6.603  1.00  0.00     0.053 C 
BRANCH   4   5
ATOM      5  C   UNL     1       2.318   9.191   6.907  1.00  0.00     0.041 C 
ATOM      6  O   UNL     1       3.310   9.676   7.512  1.00  0.00    -0.550 OA
ATOM      7  O   UNL     1       2.341   7.862   6.504  1.00  0.00    -0.550 OA
ENDBRANCH   4   5
ENDBRANCH   3   4
ENDBRANCH   2   3
ENDBRANCH   1   2
BRANCH   1   8
ATOM      8  C   UNL     1      -3.497   9.265   4.659  1.00  0.00     0.000 C 
BRANCH   8   9
ATOM      9  C   UNL     1      -4.122   7.905   4.304  1.00  0.00     0.006 C 
BRANCH   9  10
ATOM     10  C   UNL     1      -3.971   7.548   2.822  1.00  0.00     0.053 C 
BRANCH  10  11
ATOM     11  C   UNL     1      -5.158   8.022   2.045  1.00  0.00     0.041 C 
ATOM     12  O   UNL     1      -5.093   8.134   0.793  1.00  0.00    -0.550 OA
ATOM     13  O   UNL     1      -6.354   8.294   2.699  1.00  0.00    -0.550 OA
ENDBRANCH  10  11
ENDBRANCH   9  10
ENDBRANCH   8   9
ENDBRANCH   1   8
TORSDOF 8
ENDMDL
MODEL 7
REMARK VINA RESULT:    -3.348     15.442     16.542
REMARK INTER + INTRA:          -5.427
REMARK INTER:                  -5.129
REMARK INTRA:                  -0.298
REMARK UNBOUND:                -0.513
REMARK SMILES O=C([O-])CCCCCCCC(=O)[O-]
REMARK SMILES IDX 7 1 6 2 5 3 4 4 2 5 1 6 3 7 8 8 9 9 10 10 11 11 12 12 13 13
REMARK H PARENT
REMARK Flexibility Score: inf
ROOT
ATOM      1  C   UNL     1       1.929  -2.242  -4.869  1.00  0.00     0.000 C 
ENDROOT
BRANCH   1   2
ATOM      2  C   UNL     1       0.863  -1.934  -5.935  1.00  0.00     0.000 C 
BRANCH   2   3
ATOM      3  C   UNL     1      -0.572  -2.011  -5.381  1.00  0.00     0.006 C 
BRANCH   3   4
ATOM      4  C   UNL     1      -0.792  -3.134  -4.356  1.00  0.00     0.053 C 
BRANCH   4   5
ATOM      5  C   UNL     1      -2.161  -3.734  -4.465  1.00  0.00     0.041 C 
ATOM      6  O   UNL     1      -3.054  -3.160  -5.142  1.00  0.00    -0.550 OA
ATOM      7  O   UNL     1      -2.455  -4.919  -3.803  1.00  0.00    -0.550 OA
ENDBRANCH   4   5
ENDBRANCH   3   4
ENDBRANCH   2   3
ENDBRANCH   1   2
BRANCH   1   8
ATOM      8  C   UNL     1       3.361  -2.204  -5.448  1.00  0.00     0.000 C 
BRANCH   8   9
ATOM      9  C   UNL     1       3.451  -1.536  -6.830  1.00  0.00     0.006 C 
BRANCH   9  10
ATOM     10  C   UNL     1       4.806  -0.865  -7.081  1.00  0.00     0.053 C 
BRANCH  10  11
ATOM     11  C   UNL     1       4.627   0.598  -7.336  1.00  0.00     0.041 C 
ATOM     12  O   UNL     1       5.623   1.368  -7.335  1.00  0.00    -0.550 OA
ATOM     13  O   UNL     1       3.366   1.104  -7.625  1.00  0.00    -0.550 OA
ENDBRANCH  10  11
ENDBRANCH   9  10
ENDBRANCH   8   9
ENDBRANCH   1   8
TORSDOF 8
ENDMDL
MODEL 8
REMARK VINA RESULT:    -3.305     11.526     13.176
REMARK INTER + INTRA:          -5.363
REMARK INTER:                  -4.668
REMARK INTRA:                  -0.695
REMARK UNBOUND:                -0.513
REMARK SMILES O=C([O-])CCCCCCCC(=O)[O-]
REMARK SMILES IDX 7 1 6 2 5 3 4 4 2 5 1 6 3 7 8 8 9 9 10 10 11 11 12 12 13 13
REMARK H PARENT
REMARK Flexibility Score: inf
ROOT
ATOM      1  C   UNL     1      -8.134  -2.800   9.915  1.00  0.00     0.000 C 
ENDROOT
BRANCH   1   2
ATOM      2  C   UNL     1      -9.043  -2.184  10.994  1.00  0.00     0.000 C 
BRANCH   2   3
ATOM      3  C   UNL     1      -8.510  -0.841  11.525  1.00  0.00     0.006 C 
BRANCH   3   4
ATOM      4  C   UNL     1      -7.185  -0.393  10.890  1.00  0.00     0.053 C 
BRANCH   4   5
ATOM      5  C   UNL     1      -7.025   1.097  10.915  1.00  0.00     0.041 C 
ATOM      6  O   UNL     1      -6.106   1.648  10.254  1.00  0.00    -0.550 OA
ATOM      7  O   UNL     1      -7.880   1.874  11.685  1.00  0.00    -0.550 OA
ENDBRANCH   4   5
ENDBRANCH   3   4
ENDBRANCH   2   3
ENDBRANCH   1   2
BRANCH   1   8
ATOM      8  C   UNL     1      -8.817  -2.840   8.530  1.00  0.00     0.000 C 
BRANCH   8   9
ATOM      9  C   UNL     1      -8.254  -1.814   7.532  1.00  0.00     0.006 C 
BRANCH   9  10
ATOM     10  C   UNL     1      -8.955  -0.455   7.615  1.00  0.00     0.053 C 
BRANCH  10  11
ATOM     11  C   UNL     1      -8.092   0.616   7.027  1.00  0.00     0.041 C 
ATOM     12  O   UNL     1      -6.870   0.679   7.324  1.00  0.00    -0.550 OA
ATOM     13  O   UNL     1      -8.626   1.516   6.113  1.00  0.00    -0.550 OA
ENDBRANCH  10  11
ENDBRANCH   9  10
ENDBRANCH   8   9
ENDBRANCH   1   8
TORSDOF 8
ENDMDL
MODEL 9
REMARK VINA RESULT:    -3.283      1.927      5.962
REMARK INTER + INTRA:          -5.331
REMARK INTER:                  -4.849
REMARK INTRA:                  -0.481
REMARK UNBOUND:                -0.513
REMARK SMILES O=C([O-])CCCCCCCC(=O)[O-]
REMARK SMILES IDX 7 1 6 2 5 3 4 4 2 5 1 6 3 7 8 8 9 9 10 10 11 11 12 12 13 13
REMARK H PARENT
REMARK Flexibility Score: inf
ROOT
ATOM      1  C   UNL     1      -2.341   9.937   3.777  1.00  0.00     0.000 C 
ENDROOT
BRANCH   1   2
ATOM      2  C   UNL     1      -3.805   9.742   4.209  1.00  0.00     0.000 C 
BRANCH   2   3
ATOM      3  C   UNL     1      -4.154   8.267   4.480  1.00  0.00     0.006 C 
BRANCH   3   4
ATOM      4  C   UNL     1      -4.531   7.468   3.223  1.00  0.00     0.053 C 
BRANCH   4   5
ATOM      5  C   UNL     1      -3.698   6.232   3.072  1.00  0.00     0.041 C 
ATOM      6  O   UNL     1      -2.506   6.314   2.674  1.00  0.00    -0.550 OA
ATOM      7  O   UNL     1      -4.245   4.987   3.353  1.00  0.00    -0.550 OA
ENDBRANCH   4   5
ENDBRANCH   3   4
ENDBRANCH   2   3
ENDBRANCH   1   2
BRANCH   1   8
ATOM      8  C   UNL     1      -1.345   9.486   4.868  1.00  0.00     0.000 C 
BRANCH   8   9
ATOM      9  C   UNL     1      -0.152   8.683   4.323  1.00  0.00     0.006 C 
BRANCH   9  10
ATOM     10  C   UNL     1       1.199   9.214   4.814  1.00  0.00     0.053 C 
BRANCH  10  11
ATOM     11  C   UNL     1       1.591   8.544   6.093  1.00  0.00     0.041 C 
ATOM     12  O   UNL     1       1.554   9.180   7.179  1.00  0.00    -0.550 OA
ATOM     13  O   UNL     1       1.950   7.201   6.093  1.00  0.00    -0.550 OA
ENDBRANCH  10  11
ENDBRANCH   9  10
ENDBRANCH   8   9
ENDBRANCH   1   8
TORSDOF 8
ENDMDL
