MODEL 1
REMARK VINA RESULT:    63.809      0.000      0.000
REMARK INTER + INTRA:          80.545
REMARK INTER:                  80.596
REMARK INTRA:                  -0.051
REMARK UNBOUND:                -0.051
REMARK SMILES CC(C)[C@@H](C)C=C[C@H](C)[C@@H]1CC[C@@H]2C3=CC=C4C[C@@H](O)CC[C@]4(C)[C@H]3CC[C@@]21C
REMARK SMILES IDX 8 1 9 2 7 3 6 4 4 5 5 6 2 7 1 8 3 9 10 10 11 11 28 12 12 13
REMARK SMILES IDX 13 14 27 15 29 16 14 17 26 18 25 19 15 20 23 21 16 22 17 23
REMARK SMILES IDX 22 24 24 25 18 26 21 27 19 28 20 29
REMARK H PARENT 20 30
REMARK Flexibility Score: inf
ROOT
ATOM      1  C   UNL     1     -36.949  23.718   2.019  1.00  0.00     0.012 C 
ATOM      2  C   UNL     1     -35.476  23.789   2.481  1.00  0.00     0.012 C 
ENDROOT
BRANCH   1   3
ATOM      3  C   UNL     1     -37.871  23.824   3.213  1.00  0.00    -0.028 C 
ATOM      4  C   UNL     1     -37.830  22.925   4.211  1.00  0.00    -0.028 C 
BRANCH   4   5
ATOM      5  C   UNL     1     -38.704  23.031   5.447  1.00  0.00     0.011 C 
ATOM      6  C   UNL     1     -38.893  24.511   5.820  1.00  0.00     0.012 C 
BRANCH   5   7
ATOM      7  C   UNL     1     -38.151  22.176   6.629  1.00  0.00    -0.011 C 
ATOM      8  C   UNL     1     -37.879  23.033   7.876  1.00  0.00     0.008 C 
ATOM      9  C   UNL     1     -39.125  21.043   7.000  1.00  0.00     0.008 C 
ENDBRANCH   5   7
ENDBRANCH   4   5
ENDBRANCH   1   3
BRANCH   1  10
ATOM     10  C   UNL     1     -37.390  24.677   0.860  1.00  0.00     0.002 C 
ATOM     11  C   UNL     1     -37.283  24.058  -0.543  1.00  0.00     0.005 C 
ATOM     12  C   UNL     1     -36.818  26.127   0.745  1.00  0.00    -0.023 C 
ATOM     13  C   UNL     1     -37.095  25.217  -1.518  1.00  0.00     0.009 C 
ATOM     14  C   UNL     1     -37.216  26.506  -0.700  1.00  0.00     0.021 C 
ATOM     15  C   UNL     1     -35.276  26.180   0.917  1.00  0.00     0.008 C 
ATOM     16  C   UNL     1     -37.506  27.086   1.752  1.00  0.00     0.012 C 
ATOM     17  C   UNL     1     -36.421  27.637  -1.331  1.00  0.00    -0.063 C 
ATOM     18  C   UNL     1     -34.680  27.526   0.506  1.00  0.00     0.009 C 
ATOM     19  C   UNL     1     -34.959  27.859  -0.976  1.00  0.00     0.025 C 
ATOM     20  C   UNL     1     -36.925  28.229  -2.424  1.00  0.00    -0.000 C 
ATOM     21  C   UNL     1     -34.453  29.295  -1.399  1.00  0.00    -0.005 C 
ATOM     22  C   UNL     1     -36.130  29.163  -3.232  1.00  0.00    -0.000 C 
ATOM     23  C   UNL     1     -34.930  29.603  -2.822  1.00  0.00    -0.061 C 
ATOM     24  C   UNL     1     -32.895  29.320  -1.344  1.00  0.00     0.014 C 
ATOM     25  C   UNL     1     -35.030  30.395  -0.468  1.00  0.00     0.017 C 
ATOM     26  C   UNL     1     -34.223  30.653  -3.654  1.00  0.00     0.063 C 
ATOM     27  C   UNL     1     -32.277  30.523  -2.066  1.00  0.00     0.033 C 
ATOM     28  C   UNL     1     -32.699  30.541  -3.536  1.00  0.00     0.118 C 
BRANCH  28  29
ATOM     29  O   UNL     1     -32.089  31.633  -4.173  1.00  0.00    -0.393 OA
ATOM     30  H   UNL     1     -31.628  32.156  -3.466  1.00  0.00     0.210 HD
ENDBRANCH  28  29
ENDBRANCH   1  10
TORSDOF 5
ENDMDL
MODEL 2
REMARK VINA RESULT:    66.317      5.917     11.881
REMARK INTER + INTRA:          83.712
REMARK INTER:                  84.292
REMARK INTRA:                  -0.580
REMARK UNBOUND:                -0.051
REMARK SMILES CC(C)[C@@H](C)C=C[C@H](C)[C@@H]1CC[C@@H]2C3=CC=C4C[C@@H](O)CC[C@]4(C)[C@H]3CC[C@@]21C
REMARK SMILES IDX 8 1 9 2 7 3 6 4 4 5 5 6 2 7 1 8 3 9 10 10 11 11 28 12 12 13
REMARK SMILES IDX 13 14 27 15 29 16 14 17 26 18 25 19 15 20 23 21 16 22 17 23
REMARK SMILES IDX 22 24 24 25 18 26 21 27 19 28 20 29
REMARK H PARENT 20 30
REMARK Flexibility Score: inf
ROOT
ATOM      1  C   UNL     1     -27.251  32.076  -3.725  1.00  0.00     0.012 C 
ATOM      2  C   UNL     1     -25.770  32.239  -3.315  1.00  0.00     0.012 C 
ENDROOT
BRANCH   1   3
ATOM      3  C   UNL     1     -27.363  31.988  -5.231  1.00  0.00    -0.028 C 
ATOM      4  C   UNL     1     -26.474  31.291  -5.959  1.00  0.00    -0.028 C 
BRANCH   4   5
ATOM      5  C   UNL     1     -26.587  31.139  -7.465  1.00  0.00     0.011 C 
ATOM      6  C   UNL     1     -27.579  30.012  -7.798  1.00  0.00     0.012 C 
BRANCH   5   7
ATOM      7  C   UNL     1     -25.194  30.936  -8.138  1.00  0.00    -0.011 C 
ATOM      8  C   UNL     1     -25.044  29.524  -8.728  1.00  0.00     0.008 C 
ATOM      9  C   UNL     1     -24.955  31.973  -9.250  1.00  0.00     0.008 C 
ENDBRANCH   5   7
ENDBRANCH   4   5
ENDBRANCH   1   3
BRANCH   1  10
ATOM     10  C   UNL     1     -28.077  30.948  -3.017  1.00  0.00     0.002 C 
ATOM     11  C   UNL     1     -28.164  29.638  -3.816  1.00  0.00     0.005 C 
ATOM     12  C   UNL     1     -29.513  31.220  -2.463  1.00  0.00    -0.023 C 
ATOM     13  C   UNL     1     -29.450  28.943  -3.376  1.00  0.00     0.009 C 
ATOM     14  C   UNL     1     -30.039  29.784  -2.241  1.00  0.00     0.021 C 
ATOM     15  C   UNL     1     -30.413  31.980  -3.473  1.00  0.00     0.008 C 
ATOM     16  C   UNL     1     -29.461  31.979  -1.111  1.00  0.00     0.012 C 
ATOM     17  C   UNL     1     -31.550  29.636  -2.170  1.00  0.00    -0.063 C 
ATOM     18  C   UNL     1     -31.888  31.980  -3.070  1.00  0.00     0.009 C 
ATOM     19  C   UNL     1     -32.464  30.550  -2.971  1.00  0.00     0.025 C 
ATOM     20  C   UNL     1     -32.050  28.504  -1.652  1.00  0.00    -0.000 C 
ATOM     21  C   UNL     1     -33.954  30.514  -2.447  1.00  0.00    -0.005 C 
ATOM     22  C   UNL     1     -33.477  28.172  -1.756  1.00  0.00    -0.000 C 
ATOM     23  C   UNL     1     -34.375  29.059  -2.211  1.00  0.00    -0.061 C 
ATOM     24  C   UNL     1     -34.884  31.170  -3.513  1.00  0.00     0.014 C 
ATOM     25  C   UNL     1     -34.096  31.262  -1.093  1.00  0.00     0.017 C 
ATOM     26  C   UNL     1     -35.842  28.685  -2.179  1.00  0.00     0.063 C 
ATOM     27  C   UNL     1     -36.373  30.878  -3.290  1.00  0.00     0.033 C 
ATOM     28  C   UNL     1     -36.630  29.371  -3.301  1.00  0.00     0.118 C 
BRANCH  28  29
ATOM     29  O   UNL     1     -38.004  29.141  -3.128  1.00  0.00    -0.393 OA
ATOM     30  H   UNL     1     -38.335  28.737  -3.972  1.00  0.00     0.210 HD
ENDBRANCH  28  29
ENDBRANCH   1  10
TORSDOF 5
ENDMDL
