MODEL 1
REMARK VINA RESULT:    -3.830      0.000      0.000
REMARK INTER + INTRA:          -4.870
REMARK INTER:                  -4.725
REMARK INTRA:                  -0.145
REMARK UNBOUND:                -0.145
REMARK SMILES CCCCCC(=O)[O-]
REMARK SMILES IDX 4 1 5 2 6 3 7 4 8 5 3 6 2 7 1 8
REMARK H PARENT
REMARK Flexibility Score: inf
ROOT
ATOM      1  C   UNL     1      37.014 119.440  15.018  1.00  0.00     0.006 C 
ENDROOT
BRANCH   1   2
ATOM      2  C   UNL     1      35.781 118.587  14.689  1.00  0.00     0.053 C 
BRANCH   2   3
ATOM      3  C   UNL     1      35.667 118.321  13.219  1.00  0.00     0.041 C 
ATOM      4  O   UNL     1      36.492 117.561  12.646  1.00  0.00    -0.550 OA
ATOM      5  O   UNL     1      34.630 118.885  12.490  1.00  0.00    -0.550 OA
ENDBRANCH   2   3
ENDBRANCH   1   2
BRANCH   1   6
ATOM      6  C   UNL     1      37.088 120.711  14.156  1.00  0.00     0.000 C 
BRANCH   6   7
ATOM      7  C   UNL     1      37.023 121.996  14.994  1.00  0.00    -0.003 C 
ATOM      8  C   UNL     1      36.589 121.738  16.437  1.00  0.00     0.004 C 
ENDBRANCH   6   7
ENDBRANCH   1   6
TORSDOF 4
ENDMDL
MODEL 2
REMARK VINA RESULT:    -3.538     16.524     17.232
REMARK INTER + INTRA:          -4.511
REMARK INTER:                  -4.258
REMARK INTRA:                  -0.253
REMARK UNBOUND:                -0.145
REMARK SMILES CCCCCC(=O)[O-]
REMARK SMILES IDX 4 1 5 2 6 3 7 4 8 5 3 6 2 7 1 8
REMARK H PARENT
REMARK Flexibility Score: inf
ROOT
ATOM      1  C   UNL     1      42.526 123.521  -1.628  1.00  0.00     0.006 C 
ENDROOT
BRANCH   1   2
ATOM      2  C   UNL     1      41.385 124.347  -2.237  1.00  0.00     0.053 C 
BRANCH   2   3
ATOM      3  C   UNL     1      40.993 125.489  -1.350  1.00  0.00     0.041 C 
ATOM      4  O   UNL     1      40.622 125.274  -0.165  1.00  0.00    -0.550 OA
ATOM      5  O   UNL     1      41.070 126.792  -1.821  1.00  0.00    -0.550 OA
ENDBRANCH   2   3
ENDBRANCH   1   2
BRANCH   1   6
ATOM      6  C   UNL     1      43.742 124.390  -1.265  1.00  0.00     0.000 C 
BRANCH   6   7
ATOM      7  C   UNL     1      44.202 124.182   0.186  1.00  0.00    -0.003 C 
ATOM      8  C   UNL     1      43.337 123.173   0.941  1.00  0.00     0.004 C 
ENDBRANCH   6   7
ENDBRANCH   1   6
TORSDOF 4
ENDMDL
MODEL 3
REMARK VINA RESULT:    -3.504      8.848      9.652
REMARK INTER + INTRA:          -4.469
REMARK INTER:                  -4.330
REMARK INTRA:                  -0.139
REMARK UNBOUND:                -0.145
REMARK SMILES CCCCCC(=O)[O-]
REMARK SMILES IDX 4 1 5 2 6 3 7 4 8 5 3 6 2 7 1 8
REMARK H PARENT
REMARK Flexibility Score: inf
ROOT
ATOM      1  C   UNL     1      42.945 116.350   8.468  1.00  0.00     0.006 C 
ENDROOT
BRANCH   1   2
ATOM      2  C   UNL     1      44.414 115.936   8.633  1.00  0.00     0.053 C 
BRANCH   2   3
ATOM      3  C   UNL     1      44.545 114.487   8.990  1.00  0.00     0.041 C 
ATOM      4  O   UNL     1      43.948 114.025   9.998  1.00  0.00    -0.550 OA
ATOM      5  O   UNL     1      45.299 113.640   8.189  1.00  0.00    -0.550 OA
ENDBRANCH   2   3
ENDBRANCH   1   2
BRANCH   1   6
ATOM      6  C   UNL     1      42.568 117.528   9.381  1.00  0.00     0.000 C 
BRANCH   6   7
ATOM      7  C   UNL     1      42.205 117.079  10.805  1.00  0.00    -0.003 C 
ATOM      8  C   UNL     1      40.874 117.657  11.285  1.00  0.00     0.004 C 
ENDBRANCH   6   7
ENDBRANCH   1   6
TORSDOF 4
ENDMDL
MODEL 4
REMARK VINA RESULT:    -3.468      7.740      8.516
REMARK INTER + INTRA:          -4.424
REMARK INTER:                  -4.338
REMARK INTRA:                  -0.085
REMARK UNBOUND:                -0.145
REMARK SMILES CCCCCC(=O)[O-]
REMARK SMILES IDX 4 1 5 2 6 3 7 4 8 5 3 6 2 7 1 8
REMARK H PARENT
REMARK Flexibility Score: inf
ROOT
ATOM      1  C   UNL     1      42.519 117.088  10.517  1.00  0.00     0.006 C 
ENDROOT
BRANCH   1   2
ATOM      2  C   UNL     1      42.899 117.030   9.031  1.00  0.00     0.053 C 
BRANCH   2   3
ATOM      3  C   UNL     1      43.869 115.923   8.751  1.00  0.00     0.041 C 
ATOM      4  O   UNL     1      44.837 116.112   7.967  1.00  0.00    -0.550 OA
ATOM      5  O   UNL     1      43.722 114.695   9.380  1.00  0.00    -0.550 OA
ENDBRANCH   2   3
ENDBRANCH   1   2
BRANCH   1   6
ATOM      6  C   UNL     1      41.200 117.844  10.750  1.00  0.00     0.000 C 
BRANCH   6   7
ATOM      7  C   UNL     1      40.460 117.365  12.008  1.00  0.00    -0.003 C 
ATOM      8  C   UNL     1      41.290 116.393  12.847  1.00  0.00     0.004 C 
ENDBRANCH   6   7
ENDBRANCH   1   6
TORSDOF 4
ENDMDL
MODEL 5
REMARK VINA RESULT:    -3.460      9.265     10.191
REMARK INTER + INTRA:          -4.414
REMARK INTER:                  -4.170
REMARK INTRA:                  -0.244
REMARK UNBOUND:                -0.145
REMARK SMILES CCCCCC(=O)[O-]
REMARK SMILES IDX 4 1 5 2 6 3 7 4 8 5 3 6 2 7 1 8
REMARK H PARENT
REMARK Flexibility Score: inf
ROOT
ATOM      1  C   UNL     1      44.664 115.841   8.485  1.00  0.00     0.006 C 
ENDROOT
BRANCH   1   2
ATOM      2  C   UNL     1      43.224 116.371   8.455  1.00  0.00     0.053 C 
BRANCH   2   3
ATOM      3  C   UNL     1      42.863 117.068   9.731  1.00  0.00     0.041 C 
ATOM      4  O   UNL     1      43.658 117.053  10.709  1.00  0.00    -0.550 OA
ATOM      5  O   UNL     1      41.666 117.764   9.828  1.00  0.00    -0.550 OA
ENDBRANCH   2   3
ENDBRANCH   1   2
BRANCH   1   6
ATOM      6  C   UNL     1      44.718 114.314   8.651  1.00  0.00     0.000 C 
BRANCH   6   7
ATOM      7  C   UNL     1      45.222 113.889  10.039  1.00  0.00    -0.003 C 
ATOM      8  C   UNL     1      44.084 113.596  11.016  1.00  0.00     0.004 C 
ENDBRANCH   6   7
ENDBRANCH   1   6
TORSDOF 4
ENDMDL
MODEL 6
REMARK VINA RESULT:    -3.445      7.048      7.981
REMARK INTER + INTRA:          -4.395
REMARK INTER:                  -4.296
REMARK INTRA:                  -0.099
REMARK UNBOUND:                -0.145
REMARK SMILES CCCCCC(=O)[O-]
REMARK SMILES IDX 4 1 5 2 6 3 7 4 8 5 3 6 2 7 1 8
REMARK H PARENT
REMARK Flexibility Score: inf
ROOT
ATOM      1  C   UNL     1      42.464 117.169  10.454  1.00  0.00     0.006 C 
ENDROOT
BRANCH   1   2
ATOM      2  C   UNL     1      41.118 117.803  10.831  1.00  0.00     0.053 C 
BRANCH   2   3
ATOM      3  C   UNL     1      40.477 117.097  11.986  1.00  0.00     0.041 C 
ATOM      4  O   UNL     1      41.148 116.299  12.694  1.00  0.00    -0.550 OA
ATOM      5  O   UNL     1      39.148 117.345  12.302  1.00  0.00    -0.550 OA
ENDBRANCH   2   3
ENDBRANCH   1   2
BRANCH   1   6
ATOM      6  C   UNL     1      42.692 117.150   8.934  1.00  0.00     0.000 C 
BRANCH   6   7
ATOM      7  C   UNL     1      43.554 115.962   8.481  1.00  0.00    -0.003 C 
ATOM      8  C   UNL     1      43.805 114.954   9.603  1.00  0.00     0.004 C 
ENDBRANCH   6   7
ENDBRANCH   1   6
TORSDOF 4
ENDMDL
MODEL 7
REMARK VINA RESULT:    -3.443      9.888     10.979
REMARK INTER + INTRA:          -4.393
REMARK INTER:                  -4.322
REMARK INTRA:                  -0.071
REMARK UNBOUND:                -0.145
REMARK SMILES CCCCCC(=O)[O-]
REMARK SMILES IDX 4 1 5 2 6 3 7 4 8 5 3 6 2 7 1 8
REMARK H PARENT
REMARK Flexibility Score: inf
ROOT
ATOM      1  C   UNL     1      44.534 115.695   8.477  1.00  0.00     0.006 C 
ENDROOT
BRANCH   1   2
ATOM      2  C   UNL     1      43.869 116.488   9.610  1.00  0.00     0.053 C 
BRANCH   2   3
ATOM      3  C   UNL     1      42.621 117.176   9.146  1.00  0.00     0.041 C 
ATOM      4  O   UNL     1      42.218 117.027   7.962  1.00  0.00    -0.550 OA
ATOM      5  O   UNL     1      41.887 117.954  10.030  1.00  0.00    -0.550 OA
ENDBRANCH   2   3
ENDBRANCH   1   2
BRANCH   1   6
ATOM      6  C   UNL     1      44.562 114.184   8.765  1.00  0.00     0.000 C 
BRANCH   6   7
ATOM      7  C   UNL     1      45.752 113.479   8.096  1.00  0.00    -0.003 C 
ATOM      8  C   UNL     1      45.319 112.479   7.024  1.00  0.00     0.004 C 
ENDBRANCH   6   7
ENDBRANCH   1   6
TORSDOF 4
ENDMDL
MODEL 8
REMARK VINA RESULT:    -3.398      2.052      2.511
REMARK INTER + INTRA:          -4.338
REMARK INTER:                  -4.158
REMARK INTRA:                  -0.180
REMARK UNBOUND:                -0.145
REMARK SMILES CCCCCC(=O)[O-]
REMARK SMILES IDX 4 1 5 2 6 3 7 4 8 5 3 6 2 7 1 8
REMARK H PARENT
REMARK Flexibility Score: inf
ROOT
ATOM      1  C   UNL     1      36.750 120.443  14.247  1.00  0.00     0.006 C 
ENDROOT
BRANCH   1   2
ATOM      2  C   UNL     1      37.926 119.910  13.417  1.00  0.00     0.053 C 
BRANCH   2   3
ATOM      3  C   UNL     1      38.331 118.534  13.850  1.00  0.00     0.041 C 
ATOM      4  O   UNL     1      38.451 117.611  13.000  1.00  0.00    -0.550 OA
ATOM      5  O   UNL     1      38.610 118.280  15.185  1.00  0.00    -0.550 OA
ENDBRANCH   2   3
ENDBRANCH   1   2
BRANCH   1   6
ATOM      6  C   UNL     1      37.074 121.791  14.913  1.00  0.00     0.000 C 
BRANCH   6   7
ATOM      7  C   UNL     1      36.623 121.847  16.381  1.00  0.00    -0.003 C 
ATOM      8  C   UNL     1      36.370 120.461  16.974  1.00  0.00     0.004 C 
ENDBRANCH   6   7
ENDBRANCH   1   6
TORSDOF 4
ENDMDL
MODEL 9
REMARK VINA RESULT:    -3.357      2.397      3.239
REMARK INTER + INTRA:          -4.287
REMARK INTER:                  -4.073
REMARK INTRA:                  -0.214
REMARK UNBOUND:                -0.145
REMARK SMILES CCCCCC(=O)[O-]
REMARK SMILES IDX 4 1 5 2 6 3 7 4 8 5 3 6 2 7 1 8
REMARK H PARENT
REMARK Flexibility Score: inf
ROOT
ATOM      1  C   UNL     1      36.658 117.661  12.967  1.00  0.00     0.006 C 
ENDROOT
BRANCH   1   2
ATOM      2  C   UNL     1      38.025 117.571  13.659  1.00  0.00     0.053 C 
BRANCH   2   3
ATOM      3  C   UNL     1      39.134 118.020  12.758  1.00  0.00     0.041 C 
ATOM      4  O   UNL     1      39.662 119.153  12.917  1.00  0.00    -0.550 OA
ATOM      5  O   UNL     1      39.607 117.174  11.764  1.00  0.00    -0.550 OA
ENDBRANCH   2   3
ENDBRANCH   1   2
BRANCH   1   6
ATOM      6  C   UNL     1      36.036 119.062  13.092  1.00  0.00     0.000 C 
BRANCH   6   7
ATOM      7  C   UNL     1      36.299 119.704  14.463  1.00  0.00    -0.003 C 
ATOM      8  C   UNL     1      37.082 121.012  14.361  1.00  0.00     0.004 C 
ENDBRANCH   6   7
ENDBRANCH   1   6
TORSDOF 4
ENDMDL
