MODEL 1
REMARK VINA RESULT:    -4.182      0.000      0.000
REMARK INTER + INTRA:          -6.118
REMARK INTER:                  -5.893
REMARK INTRA:                  -0.225
REMARK UNBOUND:                -0.225
REMARK SMILES CCCCCCCCC(=O)[O-]
REMARK SMILES IDX 6 1 7 2 8 3 9 4 10 5 11 6 5 7 4 8 3 9 2 10 1 11
REMARK H PARENT
REMARK Flexibility Score: inf
ROOT
ATOM      1  C   UNL     1       3.052  18.670  34.062  1.00  0.00     0.000 C 
ENDROOT
BRANCH   1   2
ATOM      2  C   UNL     1       4.194  17.646  34.192  1.00  0.00     0.006 C 
BRANCH   2   3
ATOM      3  C   UNL     1       5.261  17.745  33.090  1.00  0.00     0.053 C 
BRANCH   3   4
ATOM      4  C   UNL     1       6.326  16.703  33.243  1.00  0.00     0.041 C 
ATOM      5  O   UNL     1       6.724  16.051  32.242  1.00  0.00    -0.550 OA
ATOM      6  O   UNL     1       6.855  16.427  34.497  1.00  0.00    -0.550 OA
ENDBRANCH   3   4
ENDBRANCH   2   3
ENDBRANCH   1   2
BRANCH   1   7
ATOM      7  C   UNL     1       3.260  19.650  32.897  1.00  0.00     0.000 C 
BRANCH   7   8
ATOM      8  C   UNL     1       1.935  19.948  32.187  1.00  0.00    -0.000 C 
BRANCH   8   9
ATOM      9  C   UNL     1       0.954  20.662  33.128  1.00  0.00    -0.000 C 
BRANCH   9  10
ATOM     10  C   UNL     1      -0.116  21.463  32.370  1.00  0.00    -0.003 C 
ATOM     11  C   UNL     1      -0.504  22.757  33.087  1.00  0.00     0.004 C 
ENDBRANCH   9  10
ENDBRANCH   8   9
ENDBRANCH   7   8
ENDBRANCH   1   7
TORSDOF 7
ENDMDL
MODEL 2
REMARK VINA RESULT:    -4.178      1.745      3.134
REMARK INTER + INTRA:          -6.113
REMARK INTER:                  -5.803
REMARK INTRA:                  -0.310
REMARK UNBOUND:                -0.225
REMARK SMILES CCCCCCCCC(=O)[O-]
REMARK SMILES IDX 6 1 7 2 8 3 9 4 10 5 11 6 5 7 4 8 3 9 2 10 1 11
REMARK H PARENT
REMARK Flexibility Score: inf
ROOT
ATOM      1  C   UNL     1       1.094  20.632  33.568  1.00  0.00     0.000 C 
ENDROOT
BRANCH   1   2
ATOM      2  C   UNL     1       1.906  19.385  33.171  1.00  0.00     0.006 C 
BRANCH   2   3
ATOM      3  C   UNL     1       3.355  19.680  32.755  1.00  0.00     0.053 C 
BRANCH   3   4
ATOM      4  C   UNL     1       4.309  18.642  33.263  1.00  0.00     0.041 C 
ATOM      5  O   UNL     1       4.079  18.048  34.349  1.00  0.00    -0.550 OA
ATOM      6  O   UNL     1       5.468  18.356  32.554  1.00  0.00    -0.550 OA
ENDBRANCH   3   4
ENDBRANCH   2   3
ENDBRANCH   1   2
BRANCH   1   7
ATOM      7  C   UNL     1       0.119  21.083  32.470  1.00  0.00     0.000 C 
BRANCH   7   8
ATOM      8  C   UNL     1      -0.473  22.459  32.794  1.00  0.00    -0.000 C 
BRANCH   8   9
ATOM      9  C   UNL     1       0.052  22.982  34.139  1.00  0.00    -0.000 C 
BRANCH   9  10
ATOM     10  C   UNL     1      -1.037  23.681  34.968  1.00  0.00    -0.003 C 
ATOM     11  C   UNL     1      -1.981  24.525  34.112  1.00  0.00     0.004 C 
ENDBRANCH   9  10
ENDBRANCH   8   9
ENDBRANCH   7   8
ENDBRANCH   1   7
TORSDOF 7
ENDMDL
MODEL 3
REMARK VINA RESULT:    -4.150      5.829      7.189
REMARK INTER + INTRA:          -6.073
REMARK INTER:                  -5.857
REMARK INTRA:                  -0.217
REMARK UNBOUND:                -0.225
REMARK SMILES CCCCCCCCC(=O)[O-]
REMARK SMILES IDX 6 1 7 2 8 3 9 4 10 5 11 6 5 7 4 8 3 9 2 10 1 11
REMARK H PARENT
REMARK Flexibility Score: inf
ROOT
ATOM      1  C   UNL     1      -0.872  20.976  30.896  1.00  0.00     0.000 C 
ENDROOT
BRANCH   1   2
ATOM      2  C   UNL     1      -1.267  19.798  29.986  1.00  0.00     0.006 C 
BRANCH   2   3
ATOM      3  C   UNL     1      -1.879  20.216  28.640  1.00  0.00     0.053 C 
BRANCH   3   4
ATOM      4  C   UNL     1      -2.447  19.048  27.893  1.00  0.00     0.041 C 
ATOM      5  O   UNL     1      -3.097  19.232  26.830  1.00  0.00    -0.550 OA
ATOM      6  O   UNL     1      -2.287  17.761  28.388  1.00  0.00    -0.550 OA
ENDBRANCH   3   4
ENDBRANCH   2   3
ENDBRANCH   1   2
BRANCH   1   7
ATOM      7  C   UNL     1       0.223  20.606  31.908  1.00  0.00     0.000 C 
BRANCH   7   8
ATOM      8  C   UNL     1       0.030  21.364  33.227  1.00  0.00    -0.000 C 
BRANCH   8   9
ATOM      9  C   UNL     1      -0.475  22.792  32.972  1.00  0.00    -0.000 C 
BRANCH   9  10
ATOM     10  C   UNL     1      -0.827  23.535  34.270  1.00  0.00    -0.003 C 
ATOM     11  C   UNL     1      -2.004  24.496  34.101  1.00  0.00     0.004 C 
ENDBRANCH   9  10
ENDBRANCH   8   9
ENDBRANCH   7   8
ENDBRANCH   1   7
TORSDOF 7
ENDMDL
MODEL 4
REMARK VINA RESULT:    -4.143     10.281     12.442
REMARK INTER + INTRA:          -6.063
REMARK INTER:                  -5.619
REMARK INTRA:                  -0.444
REMARK UNBOUND:                -0.225
REMARK SMILES CCCCCCCCC(=O)[O-]
REMARK SMILES IDX 6 1 7 2 8 3 9 4 10 5 11 6 5 7 4 8 3 9 2 10 1 11
REMARK H PARENT
REMARK Flexibility Score: inf
ROOT
ATOM      1  C   UNL     1      10.276  15.283  23.530  1.00  0.00     0.000 C 
ENDROOT
BRANCH   1   2
ATOM      2  C   UNL     1       8.868  14.660  23.547  1.00  0.00     0.006 C 
BRANCH   2   3
ATOM      3  C   UNL     1       8.105  14.857  24.867  1.00  0.00     0.053 C 
BRANCH   3   4
ATOM      4  C   UNL     1       6.621  14.856  24.664  1.00  0.00     0.041 C 
ATOM      5  O   UNL     1       6.082  13.984  23.932  1.00  0.00    -0.550 OA
ATOM      6  O   UNL     1       5.837  15.837  25.256  1.00  0.00    -0.550 OA
ENDBRANCH   3   4
ENDBRANCH   2   3
ENDBRANCH   1   2
BRANCH   1   7
ATOM      7  C   UNL     1      11.394  14.234  23.617  1.00  0.00     0.000 C 
BRANCH   7   8
ATOM      8  C   UNL     1      12.355  14.550  24.769  1.00  0.00    -0.000 C 
BRANCH   8   9
ATOM      9  C   UNL     1      12.307  13.451  25.841  1.00  0.00    -0.000 C 
BRANCH   9  10
ATOM     10  C   UNL     1      11.715  13.947  27.170  1.00  0.00    -0.003 C 
ATOM     11  C   UNL     1      10.210  13.701  27.274  1.00  0.00     0.004 C 
ENDBRANCH   9  10
ENDBRANCH   8   9
ENDBRANCH   7   8
ENDBRANCH   1   7
TORSDOF 7
ENDMDL
MODEL 5
REMARK VINA RESULT:    -4.075     18.452     19.529
REMARK INTER + INTRA:          -5.967
REMARK INTER:                  -5.799
REMARK INTRA:                  -0.168
REMARK UNBOUND:                -0.225
REMARK SMILES CCCCCCCCC(=O)[O-]
REMARK SMILES IDX 6 1 7 2 8 3 9 4 10 5 11 6 5 7 4 8 3 9 2 10 1 11
REMARK H PARENT
REMARK Flexibility Score: inf
ROOT
ATOM      1  C   UNL     1       5.335   9.763  15.911  1.00  0.00     0.000 C 
ENDROOT
BRANCH   1   2
ATOM      2  C   UNL     1       6.301  10.958  15.805  1.00  0.00     0.006 C 
BRANCH   2   3
ATOM      3  C   UNL     1       7.038  11.293  17.112  1.00  0.00     0.053 C 
BRANCH   3   4
ATOM      4  C   UNL     1       8.287  12.083  16.867  1.00  0.00     0.041 C 
ATOM      5  O   UNL     1       8.882  12.640  17.826  1.00  0.00    -0.550 OA
ATOM      6  O   UNL     1       8.774  12.231  15.575  1.00  0.00    -0.550 OA
ENDBRANCH   3   4
ENDBRANCH   2   3
ENDBRANCH   1   2
BRANCH   1   7
ATOM      7  C   UNL     1       4.026   9.985  15.139  1.00  0.00     0.000 C 
BRANCH   7   8
ATOM      8  C   UNL     1       2.841   9.347  15.872  1.00  0.00    -0.000 C 
BRANCH   8   9
ATOM      9  C   UNL     1       1.992   8.499  14.914  1.00  0.00    -0.000 C 
BRANCH   9  10
ATOM     10  C   UNL     1       0.716   7.956  15.576  1.00  0.00    -0.003 C 
ATOM     11  C   UNL     1       0.187   8.871  16.680  1.00  0.00     0.004 C 
ENDBRANCH   9  10
ENDBRANCH   8   9
ENDBRANCH   7   8
ENDBRANCH   1   7
TORSDOF 7
ENDMDL
MODEL 6
REMARK VINA RESULT:    -4.071      5.419      7.076
REMARK INTER + INTRA:          -5.963
REMARK INTER:                  -5.799
REMARK INTRA:                  -0.163
REMARK UNBOUND:                -0.225
REMARK SMILES CCCCCCCCC(=O)[O-]
REMARK SMILES IDX 6 1 7 2 8 3 9 4 10 5 11 6 5 7 4 8 3 9 2 10 1 11
REMARK H PARENT
REMARK Flexibility Score: inf
ROOT
ATOM      1  C   UNL     1      -0.532  20.264  30.788  1.00  0.00     0.000 C 
ENDROOT
BRANCH   1   2
ATOM      2  C   UNL     1      -0.565  21.412  31.814  1.00  0.00     0.006 C 
BRANCH   2   3
ATOM      3  C   UNL     1       0.463  21.276  32.948  1.00  0.00     0.053 C 
BRANCH   3   4
ATOM      4  C   UNL     1       0.355  22.391  33.942  1.00  0.00     0.041 C 
ATOM      5  O   UNL     1       1.133  22.436  34.931  1.00  0.00    -0.550 OA
ATOM      6  O   UNL     1      -0.628  23.362  33.795  1.00  0.00    -0.550 OA
ENDBRANCH   3   4
ENDBRANCH   2   3
ENDBRANCH   1   2
BRANCH   1   7
ATOM      7  C   UNL     1      -1.619  20.396  29.710  1.00  0.00     0.000 C 
BRANCH   7   8
ATOM      8  C   UNL     1      -1.549  19.233  28.715  1.00  0.00    -0.000 C 
BRANCH   8   9
ATOM      9  C   UNL     1      -2.733  19.273  27.737  1.00  0.00    -0.000 C 
BRANCH   9  10
ATOM     10  C   UNL     1      -2.729  20.531  26.854  1.00  0.00    -0.003 C 
ATOM     11  C   UNL     1      -1.378  20.775  26.180  1.00  0.00     0.004 C 
ENDBRANCH   9  10
ENDBRANCH   8   9
ENDBRANCH   7   8
ENDBRANCH   1   7
TORSDOF 7
ENDMDL
MODEL 7
REMARK VINA RESULT:    -4.041     18.050     19.255
REMARK INTER + INTRA:          -5.920
REMARK INTER:                  -5.684
REMARK INTRA:                  -0.236
REMARK UNBOUND:                -0.225
REMARK SMILES CCCCCCCCC(=O)[O-]
REMARK SMILES IDX 6 1 7 2 8 3 9 4 10 5 11 6 5 7 4 8 3 9 2 10 1 11
REMARK H PARENT
REMARK Flexibility Score: inf
ROOT
ATOM      1  C   UNL     1       0.348   9.416  17.155  1.00  0.00     0.000 C 
ENDROOT
BRANCH   1   2
ATOM      2  C   UNL     1      -1.040   9.395  17.822  1.00  0.00     0.006 C 
BRANCH   2   3
ATOM      3  C   UNL     1      -1.268  10.522  18.841  1.00  0.00     0.053 C 
BRANCH   3   4
ATOM      4  C   UNL     1      -1.878  10.016  20.112  1.00  0.00     0.041 C 
ATOM      5  O   UNL     1      -1.163   9.847  21.135  1.00  0.00    -0.550 OA
ATOM      6  O   UNL     1      -3.229   9.698  20.157  1.00  0.00    -0.550 OA
ENDBRANCH   3   4
ENDBRANCH   2   3
ENDBRANCH   1   2
BRANCH   1   7
ATOM      7  C   UNL     1       0.482   8.386  16.024  1.00  0.00     0.000 C 
BRANCH   7   8
ATOM      8  C   UNL     1       1.863   8.470  15.364  1.00  0.00    -0.000 C 
BRANCH   8   9
ATOM      9  C   UNL     1       2.789   9.413  16.146  1.00  0.00    -0.000 C 
BRANCH   9  10
ATOM     10  C   UNL     1       4.034   9.821  15.342  1.00  0.00    -0.003 C 
ATOM     11  C   UNL     1       5.283   9.954  16.213  1.00  0.00     0.004 C 
ENDBRANCH   9  10
ENDBRANCH   8   9
ENDBRANCH   7   8
ENDBRANCH   1   7
TORSDOF 7
ENDMDL
MODEL 8
REMARK VINA RESULT:    -3.996      4.100      6.687
REMARK INTER + INTRA:          -5.856
REMARK INTER:                  -5.609
REMARK INTRA:                  -0.246
REMARK UNBOUND:                -0.225
REMARK SMILES CCCCCCCCC(=O)[O-]
REMARK SMILES IDX 6 1 7 2 8 3 9 4 10 5 11 6 5 7 4 8 3 9 2 10 1 11
REMARK H PARENT
REMARK Flexibility Score: inf
ROOT
ATOM      1  C   UNL     1       3.250  19.894  32.685  1.00  0.00     0.000 C 
ENDROOT
BRANCH   1   2
ATOM      2  C   UNL     1       1.725  19.904  32.474  1.00  0.00     0.006 C 
BRANCH   2   3
ATOM      3  C   UNL     1       0.987  21.011  33.243  1.00  0.00     0.053 C 
BRANCH   3   4
ATOM      4  C   UNL     1      -0.176  21.555  32.470  1.00  0.00     0.041 C 
ATOM      5  O   UNL     1      -0.607  20.940  31.460  1.00  0.00    -0.550 OA
ATOM      6  O   UNL     1      -0.760  22.757  32.846  1.00  0.00    -0.550 OA
ENDBRANCH   3   4
ENDBRANCH   2   3
ENDBRANCH   1   2
BRANCH   1   7
ATOM      7  C   UNL     1       3.651  19.478  34.109  1.00  0.00     0.000 C 
BRANCH   7   8
ATOM      8  C   UNL     1       5.069  18.896  34.131  1.00  0.00    -0.000 C 
BRANCH   8   9
ATOM      9  C   UNL     1       5.349  18.080  32.861  1.00  0.00    -0.000 C 
BRANCH   9  10
ATOM     10  C   UNL     1       5.744  16.626  33.167  1.00  0.00    -0.003 C 
ATOM     11  C   UNL     1       6.857  16.111  32.255  1.00  0.00     0.004 C 
ENDBRANCH   9  10
ENDBRANCH   8   9
ENDBRANCH   7   8
ENDBRANCH   1   7
TORSDOF 7
ENDMDL
