MODEL 1
REMARK VINA RESULT:    -3.712      0.000      0.000
REMARK INTER + INTRA:          -8.987
REMARK INTER:                  -6.858
REMARK INTRA:                  -2.129
REMARK UNBOUND:                -2.129
REMARK SMILES CCCCCCCCCCCCCCCCO
REMARK SMILES IDX 9 1 8 2 7 3 6 4 5 5 4 6 3 7 2 8 1 9 10 10 11 11 12 12 13 13
REMARK SMILES IDX 14 14 15 15 16 16 17 17
REMARK H PARENT 17 18
REMARK Flexibility Score: inf
ROOT
ATOM      1  C   UNL     1     162.385 176.564 187.787  1.00  0.00     0.000 C 
ENDROOT
BRANCH   1   2
ATOM      2  C   UNL     1     162.096 175.068 187.586  1.00  0.00    -0.000 C 
BRANCH   2   3
ATOM      3  C   UNL     1     160.596 174.773 187.407  1.00  0.00    -0.000 C 
BRANCH   3   4
ATOM      4  C   UNL     1     160.273 174.168 186.031  1.00  0.00    -0.000 C 
BRANCH   4   5
ATOM      5  C   UNL     1     161.286 173.095 185.605  1.00  0.00    -0.000 C 
BRANCH   5   6
ATOM      6  C   UNL     1     160.593 171.741 185.391  1.00  0.00    -0.000 C 
BRANCH   6   7
ATOM      7  C   UNL     1     161.076 170.657 186.372  1.00  0.00    -0.000 C 
BRANCH   7   8
ATOM      8  C   UNL     1     161.594 171.188 187.720  1.00  0.00    -0.003 C 
ATOM      9  C   UNL     1     160.540 171.141 188.827  1.00  0.00     0.004 C 
ENDBRANCH   7   8
ENDBRANCH   6   7
ENDBRANCH   5   6
ENDBRANCH   4   5
ENDBRANCH   3   4
ENDBRANCH   2   3
ENDBRANCH   1   2
BRANCH   1  10
ATOM     10  C   UNL     1     161.164 177.336 188.312  1.00  0.00     0.000 C 
BRANCH  10  11
ATOM     11  C   UNL     1     160.621 178.295 187.245  1.00  0.00     0.000 C 
BRANCH  11  12
ATOM     12  C   UNL     1     161.364 178.113 185.913  1.00  0.00     0.000 C 
BRANCH  12  13
ATOM     13  C   UNL     1     160.434 177.657 184.777  1.00  0.00     0.000 C 
BRANCH  13  14
ATOM     14  C   UNL     1     161.201 177.003 183.614  1.00  0.00     0.002 C 
BRANCH  14  15
ATOM     15  C   UNL     1     162.620 176.558 184.008  1.00  0.00     0.028 C 
BRANCH  15  16
ATOM     16  C   UNL     1     163.719 177.197 183.152  1.00  0.00     0.156 C 
BRANCH  16  17
ATOM     17  O   UNL     1     163.633 178.593 183.211  1.00  0.00    -0.396 OA
ATOM     18  H   UNL     1     164.432 178.897 183.716  1.00  0.00     0.210 HD
ENDBRANCH  16  17
ENDBRANCH  15  16
ENDBRANCH  14  15
ENDBRANCH  13  14
ENDBRANCH  12  13
ENDBRANCH  11  12
ENDBRANCH  10  11
ENDBRANCH   1  10
TORSDOF 15
ENDMDL
MODEL 2
REMARK VINA RESULT:    -3.667      2.575      5.563
REMARK INTER + INTRA:          -8.905
REMARK INTER:                  -6.415
REMARK INTRA:                  -2.490
REMARK UNBOUND:                -2.129
REMARK SMILES CCCCCCCCCCCCCCCCO
REMARK SMILES IDX 9 1 8 2 7 3 6 4 5 5 4 6 3 7 2 8 1 9 10 10 11 11 12 12 13 13
REMARK SMILES IDX 14 14 15 15 16 16 17 17
REMARK H PARENT 17 18
REMARK Flexibility Score: inf
ROOT
ATOM      1  C   UNL     1     164.366 176.993 185.467  1.00  0.00     0.000 C 
ENDROOT
BRANCH   1   2
ATOM      2  C   UNL     1     164.545 177.634 186.853  1.00  0.00    -0.000 C 
BRANCH   2   3
ATOM      3  C   UNL     1     163.291 178.395 187.319  1.00  0.00    -0.000 C 
BRANCH   3   4
ATOM      4  C   UNL     1     162.379 177.539 188.213  1.00  0.00    -0.000 C 
BRANCH   4   5
ATOM      5  C   UNL     1     161.016 177.255 187.565  1.00  0.00    -0.000 C 
BRANCH   5   6
ATOM      6  C   UNL     1     160.612 178.393 186.616  1.00  0.00    -0.000 C 
BRANCH   6   7
ATOM      7  C   UNL     1     160.561 177.955 185.141  1.00  0.00    -0.000 C 
BRANCH   7   8
ATOM      8  C   UNL     1     160.585 176.433 184.916  1.00  0.00    -0.003 C 
ATOM      9  C   UNL     1     160.923 176.046 183.476  1.00  0.00     0.004 C 
ENDBRANCH   7   8
ENDBRANCH   6   7
ENDBRANCH   5   6
ENDBRANCH   4   5
ENDBRANCH   3   4
ENDBRANCH   2   3
ENDBRANCH   1   2
BRANCH   1  10
ATOM     10  C   UNL     1     164.056 175.491 185.547  1.00  0.00     0.000 C 
BRANCH  10  11
ATOM     11  C   UNL     1     164.646 174.876 186.822  1.00  0.00     0.000 C 
BRANCH  11  12
ATOM     12  C   UNL     1     163.606 174.005 187.544  1.00  0.00     0.000 C 
BRANCH  12  13
ATOM     13  C   UNL     1     162.395 173.674 186.658  1.00  0.00     0.000 C 
BRANCH  13  14
ATOM     14  C   UNL     1     161.059 173.820 187.405  1.00  0.00     0.002 C 
BRANCH  14  15
ATOM     15  C   UNL     1     159.909 173.050 186.731  1.00  0.00     0.028 C 
BRANCH  15  16
ATOM     16  C   UNL     1     160.136 172.802 185.236  1.00  0.00     0.156 C 
BRANCH  16  17
ATOM     17  O   UNL     1     159.876 171.463 184.919  1.00  0.00    -0.396 OA
ATOM     18  H   UNL     1     160.023 170.949 185.756  1.00  0.00     0.210 HD
ENDBRANCH  16  17
ENDBRANCH  15  16
ENDBRANCH  14  15
ENDBRANCH  13  14
ENDBRANCH  12  13
ENDBRANCH  11  12
ENDBRANCH  10  11
ENDBRANCH   1  10
TORSDOF 15
ENDMDL
MODEL 3
REMARK VINA RESULT:    -3.633      1.646      2.944
REMARK INTER + INTRA:          -8.840
REMARK INTER:                  -6.360
REMARK INTRA:                  -2.481
REMARK UNBOUND:                -2.129
REMARK SMILES CCCCCCCCCCCCCCCCO
REMARK SMILES IDX 9 1 8 2 7 3 6 4 5 5 4 6 3 7 2 8 1 9 10 10 11 11 12 12 13 13
REMARK SMILES IDX 14 14 15 15 16 16 17 17
REMARK H PARENT 17 18
REMARK Flexibility Score: inf
ROOT
ATOM      1  C   UNL     1     160.462 178.277 186.608  1.00  0.00     0.000 C 
ENDROOT
BRANCH   1   2
ATOM      2  C   UNL     1     161.198 177.863 185.324  1.00  0.00    -0.000 C 
BRANCH   2   3
ATOM      3  C   UNL     1     160.586 176.613 184.668  1.00  0.00    -0.000 C 
BRANCH   3   4
ATOM      4  C   UNL     1     161.615 175.490 184.460  1.00  0.00    -0.000 C 
BRANCH   4   5
ATOM      5  C   UNL     1     161.181 174.165 185.104  1.00  0.00    -0.000 C 
BRANCH   5   6
ATOM      6  C   UNL     1     160.248 174.416 186.299  1.00  0.00    -0.000 C 
BRANCH   6   7
ATOM      7  C   UNL     1     160.627 173.588 187.541  1.00  0.00    -0.000 C 
BRANCH   7   8
ATOM      8  C   UNL     1     161.682 172.496 187.294  1.00  0.00    -0.003 C 
ATOM      9  C   UNL     1     162.918 172.646 188.180  1.00  0.00     0.004 C 
ENDBRANCH   7   8
ENDBRANCH   6   7
ENDBRANCH   5   6
ENDBRANCH   4   5
ENDBRANCH   3   4
ENDBRANCH   2   3
ENDBRANCH   1   2
BRANCH   1  10
ATOM     10  C   UNL     1     160.999 177.559 187.855  1.00  0.00     0.000 C 
BRANCH  10  11
ATOM     11  C   UNL     1     162.526 177.674 187.940  1.00  0.00     0.000 C 
BRANCH  11  12
ATOM     12  C   UNL     1     163.184 176.286 187.926  1.00  0.00     0.000 C 
BRANCH  12  13
ATOM     13  C   UNL     1     164.207 176.129 186.791  1.00  0.00     0.000 C 
BRANCH  13  14
ATOM     14  C   UNL     1     165.020 177.412 186.546  1.00  0.00     0.002 C 
BRANCH  14  15
ATOM     15  C   UNL     1     164.917 177.919 185.097  1.00  0.00     0.028 C 
BRANCH  15  16
ATOM     16  C   UNL     1     165.167 176.827 184.050  1.00  0.00     0.156 C 
BRANCH  16  17
ATOM     17  O   UNL     1     166.118 177.257 183.116  1.00  0.00    -0.396 OA
ATOM     18  H   UNL     1     167.002 176.996 183.484  1.00  0.00     0.210 HD
ENDBRANCH  16  17
ENDBRANCH  15  16
ENDBRANCH  14  15
ENDBRANCH  13  14
ENDBRANCH  12  13
ENDBRANCH  11  12
ENDBRANCH  10  11
ENDBRANCH   1  10
TORSDOF 15
ENDMDL
MODEL 4
REMARK VINA RESULT:    -3.630      2.011      3.238
REMARK INTER + INTRA:          -8.836
REMARK INTER:                  -6.313
REMARK INTRA:                  -2.524
REMARK UNBOUND:                -2.129
REMARK SMILES CCCCCCCCCCCCCCCCO
REMARK SMILES IDX 9 1 8 2 7 3 6 4 5 5 4 6 3 7 2 8 1 9 10 10 11 11 12 12 13 13
REMARK SMILES IDX 14 14 15 15 16 16 17 17
REMARK H PARENT 17 18
REMARK Flexibility Score: inf
ROOT
ATOM      1  C   UNL     1     163.170 177.463 187.697  1.00  0.00     0.000 C 
ENDROOT
BRANCH   1   2
ATOM      2  C   UNL     1     161.785 177.897 188.203  1.00  0.00    -0.000 C 
BRANCH   2   3
ATOM      3  C   UNL     1     160.636 177.299 187.372  1.00  0.00    -0.000 C 
BRANCH   3   4
ATOM      4  C   UNL     1     160.665 177.760 185.906  1.00  0.00    -0.000 C 
BRANCH   4   5
ATOM      5  C   UNL     1     160.663 176.585 184.917  1.00  0.00    -0.000 C 
BRANCH   5   6
ATOM      6  C   UNL     1     160.743 175.243 185.661  1.00  0.00    -0.000 C 
BRANCH   6   7
ATOM      7  C   UNL     1     161.825 174.305 185.094  1.00  0.00    -0.000 C 
BRANCH   7   8
ATOM      8  C   UNL     1     162.802 173.738 186.138  1.00  0.00    -0.003 C 
ATOM      9  C   UNL     1     162.338 173.962 187.576  1.00  0.00     0.004 C 
ENDBRANCH   7   8
ENDBRANCH   6   7
ENDBRANCH   5   6
ENDBRANCH   4   5
ENDBRANCH   3   4
ENDBRANCH   2   3
ENDBRANCH   1   2
BRANCH   1  10
ATOM     10  C   UNL     1     163.980 178.633 187.118  1.00  0.00     0.000 C 
BRANCH  10  11
ATOM     11  C   UNL     1     164.245 178.429 185.621  1.00  0.00     0.000 C 
BRANCH  11  12
ATOM     12  C   UNL     1     164.485 176.946 185.302  1.00  0.00     0.000 C 
BRANCH  12  13
ATOM     13  C   UNL     1     164.168 176.598 183.838  1.00  0.00     0.000 C 
BRANCH  13  14
ATOM     14  C   UNL     1     163.826 177.840 182.997  1.00  0.00     0.002 C 
BRANCH  14  15
ATOM     15  C   UNL     1     163.022 177.500 181.729  1.00  0.00     0.028 C 
BRANCH  15  16
ATOM     16  C   UNL     1     161.642 178.168 181.685  1.00  0.00     0.156 C 
BRANCH  16  17
ATOM     17  O   UNL     1     161.728 179.423 181.072  1.00  0.00    -0.396 OA
ATOM     18  H   UNL     1     161.347 179.311 180.162  1.00  0.00     0.210 HD
ENDBRANCH  16  17
ENDBRANCH  15  16
ENDBRANCH  14  15
ENDBRANCH  13  14
ENDBRANCH  12  13
ENDBRANCH  11  12
ENDBRANCH  10  11
ENDBRANCH   1  10
TORSDOF 15
ENDMDL
MODEL 5
REMARK VINA RESULT:    -3.629      2.020      3.154
REMARK INTER + INTRA:          -8.833
REMARK INTER:                  -6.204
REMARK INTRA:                  -2.630
REMARK UNBOUND:                -2.129
REMARK SMILES CCCCCCCCCCCCCCCCO
REMARK SMILES IDX 9 1 8 2 7 3 6 4 5 5 4 6 3 7 2 8 1 9 10 10 11 11 12 12 13 13
REMARK SMILES IDX 14 14 15 15 16 16 17 17
REMARK H PARENT 17 18
REMARK Flexibility Score: inf
ROOT
ATOM      1  C   UNL     1     162.238 177.270 188.172  1.00  0.00     0.000 C 
ENDROOT
BRANCH   1   2
ATOM      2  C   UNL     1     163.216 178.209 187.448  1.00  0.00    -0.000 C 
BRANCH   2   3
ATOM      3  C   UNL     1     164.484 177.484 186.964  1.00  0.00    -0.000 C 
BRANCH   3   4
ATOM      4  C   UNL     1     164.666 177.566 185.440  1.00  0.00    -0.000 C 
BRANCH   4   5
ATOM      5  C   UNL     1     164.619 176.187 184.764  1.00  0.00    -0.000 C 
BRANCH   5   6
ATOM      6  C   UNL     1     164.679 175.063 185.809  1.00  0.00    -0.000 C 
BRANCH   6   7
ATOM      7  C   UNL     1     163.624 173.966 185.572  1.00  0.00    -0.000 C 
BRANCH   7   8
ATOM      8  C   UNL     1     162.521 173.886 186.641  1.00  0.00    -0.003 C 
ATOM      9  C   UNL     1     163.062 173.576 188.037  1.00  0.00     0.004 C 
ENDBRANCH   7   8
ENDBRANCH   6   7
ENDBRANCH   5   6
ENDBRANCH   4   5
ENDBRANCH   3   4
ENDBRANCH   2   3
ENDBRANCH   1   2
BRANCH   1  10
ATOM     10  C   UNL     1     160.942 177.043 187.379  1.00  0.00     0.000 C 
BRANCH  10  11
ATOM     11  C   UNL     1     160.598 178.269 186.525  1.00  0.00     0.000 C 
BRANCH  11  12
ATOM     12  C   UNL     1     160.381 177.873 185.057  1.00  0.00     0.000 C 
BRANCH  12  13
ATOM     13  C   UNL     1     160.903 176.462 184.742  1.00  0.00     0.000 C 
BRANCH  13  14
ATOM     14  C   UNL     1     161.343 176.308 183.276  1.00  0.00     0.002 C 
BRANCH  14  15
ATOM     15  C   UNL     1     161.471 177.656 182.546  1.00  0.00     0.028 C 
BRANCH  15  16
ATOM     16  C   UNL     1     162.826 177.850 181.856  1.00  0.00     0.156 C 
BRANCH  16  17
ATOM     17  O   UNL     1     163.524 178.914 182.442  1.00  0.00    -0.396 OA
ATOM     18  H   UNL     1     163.346 179.706 181.871  1.00  0.00     0.210 HD
ENDBRANCH  16  17
ENDBRANCH  15  16
ENDBRANCH  14  15
ENDBRANCH  13  14
ENDBRANCH  12  13
ENDBRANCH  11  12
ENDBRANCH  10  11
ENDBRANCH   1  10
TORSDOF 15
ENDMDL
MODEL 6
REMARK VINA RESULT:    -3.613      2.798      6.089
REMARK INTER + INTRA:          -8.805
REMARK INTER:                  -6.440
REMARK INTRA:                  -2.365
REMARK UNBOUND:                -2.129
REMARK SMILES CCCCCCCCCCCCCCCCO
REMARK SMILES IDX 9 1 8 2 7 3 6 4 5 5 4 6 3 7 2 8 1 9 10 10 11 11 12 12 13 13
REMARK SMILES IDX 14 14 15 15 16 16 17 17
REMARK H PARENT 17 18
REMARK Flexibility Score: inf
ROOT
ATOM      1  C   UNL     1     161.784 175.133 184.509  1.00  0.00     0.000 C 
ENDROOT
BRANCH   1   2
ATOM      2  C   UNL     1     160.655 176.152 184.731  1.00  0.00    -0.000 C 
BRANCH   2   3
ATOM      3  C   UNL     1     161.182 177.584 184.934  1.00  0.00    -0.000 C 
BRANCH   3   4
ATOM      4  C   UNL     1     160.611 178.250 186.197  1.00  0.00    -0.000 C 
BRANCH   4   5
ATOM      5  C   UNL     1     160.645 177.321 187.420  1.00  0.00    -0.000 C 
BRANCH   5   6
ATOM      6  C   UNL     1     161.934 177.527 188.230  1.00  0.00    -0.000 C 
BRANCH   6   7
ATOM      7  C   UNL     1     162.918 176.350 188.100  1.00  0.00    -0.000 C 
BRANCH   7   8
ATOM      8  C   UNL     1     164.073 176.578 187.109  1.00  0.00    -0.003 C 
ATOM      9  C   UNL     1     164.734 175.278 186.651  1.00  0.00     0.004 C 
ENDBRANCH   7   8
ENDBRANCH   6   7
ENDBRANCH   5   6
ENDBRANCH   4   5
ENDBRANCH   3   4
ENDBRANCH   2   3
ENDBRANCH   1   2
BRANCH   1  10
ATOM     10  C   UNL     1     161.447 173.746 185.078  1.00  0.00     0.000 C 
BRANCH  10  11
ATOM     11  C   UNL     1     160.305 173.833 186.097  1.00  0.00     0.000 C 
BRANCH  11  12
ATOM     12  C   UNL     1     160.793 173.452 187.503  1.00  0.00     0.000 C 
BRANCH  12  13
ATOM     13  C   UNL     1     162.115 172.669 187.478  1.00  0.00     0.000 C 
BRANCH  13  14
ATOM     14  C   UNL     1     161.972 171.251 188.056  1.00  0.00     0.002 C 
BRANCH  14  15
ATOM     15  C   UNL     1     160.602 170.618 187.756  1.00  0.00     0.028 C 
BRANCH  15  16
ATOM     16  C   UNL     1     160.683 169.401 186.826  1.00  0.00     0.156 C 
BRANCH  16  17
ATOM     17  O   UNL     1     159.875 169.596 185.699  1.00  0.00    -0.396 OA
ATOM     18  H   UNL     1     159.999 170.544 185.433  1.00  0.00     0.210 HD
ENDBRANCH  16  17
ENDBRANCH  15  16
ENDBRANCH  14  15
ENDBRANCH  13  14
ENDBRANCH  12  13
ENDBRANCH  11  12
ENDBRANCH  10  11
ENDBRANCH   1  10
TORSDOF 15
ENDMDL
MODEL 7
REMARK VINA RESULT:    -3.597      1.891      4.091
REMARK INTER + INTRA:          -8.776
REMARK INTER:                  -6.150
REMARK INTRA:                  -2.626
REMARK UNBOUND:                -2.129
REMARK SMILES CCCCCCCCCCCCCCCCO
REMARK SMILES IDX 9 1 8 2 7 3 6 4 5 5 4 6 3 7 2 8 1 9 10 10 11 11 12 12 13 13
REMARK SMILES IDX 14 14 15 15 16 16 17 17
REMARK H PARENT 17 18
REMARK Flexibility Score: inf
ROOT
ATOM      1  C   UNL     1     160.338 175.527 187.383  1.00  0.00     0.000 C 
ENDROOT
BRANCH   1   2
ATOM      2  C   UNL     1     160.892 176.842 187.954  1.00  0.00    -0.000 C 
BRANCH   2   3
ATOM      3  C   UNL     1     160.558 178.057 187.070  1.00  0.00    -0.000 C 
BRANCH   3   4
ATOM      4  C   UNL     1     161.125 177.927 185.647  1.00  0.00    -0.000 C 
BRANCH   4   5
ATOM      5  C   UNL     1     160.028 177.926 184.573  1.00  0.00    -0.000 C 
BRANCH   5   6
ATOM      6  C   UNL     1     160.077 176.637 183.739  1.00  0.00    -0.000 C 
BRANCH   6   7
ATOM      7  C   UNL     1     161.432 175.912 183.835  1.00  0.00    -0.000 C 
BRANCH   7   8
ATOM      8  C   UNL     1     161.426 174.458 183.332  1.00  0.00    -0.003 C 
ATOM      9  C   UNL     1     160.350 173.600 183.996  1.00  0.00     0.004 C 
ENDBRANCH   7   8
ENDBRANCH   6   7
ENDBRANCH   5   6
ENDBRANCH   4   5
ENDBRANCH   3   4
ENDBRANCH   2   3
ENDBRANCH   1   2
BRANCH   1  10
ATOM     10  C   UNL     1     161.376 174.394 187.395  1.00  0.00     0.000 C 
BRANCH  10  11
ATOM     11  C   UNL     1     162.797 174.954 187.532  1.00  0.00     0.000 C 
BRANCH  11  12
ATOM     12  C   UNL     1     163.749 174.293 186.523  1.00  0.00     0.000 C 
BRANCH  12  13
ATOM     13  C   UNL     1     164.508 175.319 185.667  1.00  0.00     0.000 C 
BRANCH  13  14
ATOM     14  C   UNL     1     164.881 176.586 186.456  1.00  0.00     0.002 C 
BRANCH  14  15
ATOM     15  C   UNL     1     164.756 177.871 185.619  1.00  0.00     0.028 C 
BRANCH  15  16
ATOM     16  C   UNL     1     164.740 177.614 184.107  1.00  0.00     0.156 C 
BRANCH  16  17
ATOM     17  O   UNL     1     163.843 178.484 183.475  1.00  0.00    -0.396 OA
ATOM     18  H   UNL     1     164.299 178.797 182.651  1.00  0.00     0.210 HD
ENDBRANCH  16  17
ENDBRANCH  15  16
ENDBRANCH  14  15
ENDBRANCH  13  14
ENDBRANCH  12  13
ENDBRANCH  11  12
ENDBRANCH  10  11
ENDBRANCH   1  10
TORSDOF 15
ENDMDL
MODEL 8
REMARK VINA RESULT:    -3.594      1.571      2.860
REMARK INTER + INTRA:          -8.769
REMARK INTER:                  -6.651
REMARK INTRA:                  -2.118
REMARK UNBOUND:                -2.129
REMARK SMILES CCCCCCCCCCCCCCCCO
REMARK SMILES IDX 9 1 8 2 7 3 6 4 5 5 4 6 3 7 2 8 1 9 10 10 11 11 12 12 13 13
REMARK SMILES IDX 14 14 15 15 16 16 17 17
REMARK H PARENT 17 18
REMARK Flexibility Score: inf
ROOT
ATOM      1  C   UNL     1     160.634 176.281 185.109  1.00  0.00     0.000 C 
ENDROOT
BRANCH   1   2
ATOM      2  C   UNL     1     161.688 175.811 184.094  1.00  0.00    -0.000 C 
BRANCH   2   3
ATOM      3  C   UNL     1     162.222 174.402 184.404  1.00  0.00    -0.000 C 
BRANCH   3   4
ATOM      4  C   UNL     1     161.971 173.982 185.861  1.00  0.00    -0.000 C 
BRANCH   4   5
ATOM      5  C   UNL     1     163.273 173.802 186.656  1.00  0.00    -0.000 C 
BRANCH   5   6
ATOM      6  C   UNL     1     162.978 173.385 188.105  1.00  0.00    -0.000 C 
BRANCH   6   7
ATOM      7  C   UNL     1     163.149 171.873 188.341  1.00  0.00    -0.000 C 
BRANCH   7   8
ATOM      8  C   UNL     1     161.924 171.169 188.951  1.00  0.00    -0.003 C 
ATOM      9  C   UNL     1     160.856 170.822 187.915  1.00  0.00     0.004 C 
ENDBRANCH   7   8
ENDBRANCH   6   7
ENDBRANCH   5   6
ENDBRANCH   4   5
ENDBRANCH   3   4
ENDBRANCH   2   3
ENDBRANCH   1   2
BRANCH   1  10
ATOM     10  C   UNL     1     160.546 177.811 185.204  1.00  0.00     0.000 C 
BRANCH  10  11
ATOM     11  C   UNL     1     160.652 178.278 186.661  1.00  0.00     0.000 C 
BRANCH  11  12
ATOM     12  C   UNL     1     161.131 177.136 187.571  1.00  0.00     0.000 C 
BRANCH  12  13
ATOM     13  C   UNL     1     162.517 177.407 188.178  1.00  0.00     0.000 C 
BRANCH  13  14
ATOM     14  C   UNL     1     163.446 178.167 187.215  1.00  0.00     0.002 C 
BRANCH  14  15
ATOM     15  C   UNL     1     164.494 177.256 186.553  1.00  0.00     0.028 C 
BRANCH  15  16
ATOM     16  C   UNL     1     164.763 177.603 185.084  1.00  0.00     0.156 C 
BRANCH  16  17
ATOM     17  O   UNL     1     163.960 178.678 184.683  1.00  0.00    -0.396 OA
ATOM     18  H   UNL     1     164.122 178.794 183.711  1.00  0.00     0.210 HD
ENDBRANCH  16  17
ENDBRANCH  15  16
ENDBRANCH  14  15
ENDBRANCH  13  14
ENDBRANCH  12  13
ENDBRANCH  11  12
ENDBRANCH  10  11
ENDBRANCH   1  10
TORSDOF 15
ENDMDL
MODEL 9
REMARK VINA RESULT:    -3.557      1.936      4.454
REMARK INTER + INTRA:          -8.701
REMARK INTER:                  -6.425
REMARK INTRA:                  -2.275
REMARK UNBOUND:                -2.129
REMARK SMILES CCCCCCCCCCCCCCCCO
REMARK SMILES IDX 9 1 8 2 7 3 6 4 5 5 4 6 3 7 2 8 1 9 10 10 11 11 12 12 13 13
REMARK SMILES IDX 14 14 15 15 16 16 17 17
REMARK H PARENT 17 18
REMARK Flexibility Score: inf
ROOT
ATOM      1  C   UNL     1     161.606 173.533 186.124  1.00  0.00     0.000 C 
ENDROOT
BRANCH   1   2
ATOM      2  C   UNL     1     161.454 174.248 187.476  1.00  0.00    -0.000 C 
BRANCH   2   3
ATOM      3  C   UNL     1     160.315 175.283 187.473  1.00  0.00    -0.000 C 
BRANCH   3   4
ATOM      4  C   UNL     1     160.801 176.698 187.827  1.00  0.00    -0.000 C 
BRANCH   4   5
ATOM      5  C   UNL     1     160.884 177.618 186.600  1.00  0.00    -0.000 C 
BRANCH   5   6
ATOM      6  C   UNL     1     162.337 178.024 186.315  1.00  0.00    -0.000 C 
BRANCH   6   7
ATOM      7  C   UNL     1     163.323 177.516 187.383  1.00  0.00    -0.000 C 
BRANCH   7   8
ATOM      8  C   UNL     1     164.384 176.528 186.867  1.00  0.00    -0.003 C 
ATOM      9  C   UNL     1     164.281 176.269 185.365  1.00  0.00     0.004 C 
ENDBRANCH   7   8
ENDBRANCH   6   7
ENDBRANCH   5   6
ENDBRANCH   4   5
ENDBRANCH   3   4
ENDBRANCH   2   3
ENDBRANCH   1   2
BRANCH   1  10
ATOM     10  C   UNL     1     160.266 173.363 185.392  1.00  0.00     0.000 C 
BRANCH  10  11
ATOM     11  C   UNL     1     160.383 173.796 183.925  1.00  0.00     0.000 C 
BRANCH  11  12
ATOM     12  C   UNL     1     161.159 175.115 183.802  1.00  0.00     0.000 C 
BRANCH  12  13
ATOM     13  C   UNL     1     160.411 176.164 182.963  1.00  0.00     0.000 C 
BRANCH  13  14
ATOM     14  C   UNL     1     161.145 177.516 182.917  1.00  0.00     0.002 C 
BRANCH  14  15
ATOM     15  C   UNL     1     162.171 177.600 181.773  1.00  0.00     0.028 C 
BRANCH  15  16
ATOM     16  C   UNL     1     161.702 178.463 180.595  1.00  0.00     0.156 C 
BRANCH  16  17
ATOM     17  O   UNL     1     161.328 179.736 181.043  1.00  0.00    -0.396 OA
ATOM     18  H   UNL     1     162.091 180.073 181.581  1.00  0.00     0.210 HD
ENDBRANCH  16  17
ENDBRANCH  15  16
ENDBRANCH  14  15
ENDBRANCH  13  14
ENDBRANCH  12  13
ENDBRANCH  11  12
ENDBRANCH  10  11
ENDBRANCH   1  10
TORSDOF 15
ENDMDL
