MODEL 1
REMARK VINA RESULT:    -3.855      0.000      0.000
REMARK INTER + INTRA:          -4.804
REMARK INTER:                  -4.757
REMARK INTRA:                  -0.047
REMARK UNBOUND:                -0.047
REMARK SMILES CCCCCC(=O)[O-]
REMARK SMILES IDX 4 1 5 2 6 3 7 4 8 5 3 6 2 7 1 8
REMARK H PARENT
REMARK Flexibility Score: inf
ROOT
ATOM      1  C   UNL     1      43.305  17.227  12.686  1.00  0.00     0.006 C 
ENDROOT
BRANCH   1   2
ATOM      2  C   UNL     1      42.435  17.758  11.536  1.00  0.00     0.053 C 
BRANCH   2   3
ATOM      3  C   UNL     1      41.078  18.179  12.009  1.00  0.00     0.041 C 
ATOM      4  O   UNL     1      40.961  18.953  12.995  1.00  0.00    -0.550 OA
ATOM      5  O   UNL     1      39.940  17.689  11.380  1.00  0.00    -0.550 OA
ENDBRANCH   2   3
ENDBRANCH   1   2
BRANCH   1   6
ATOM      6  C   UNL     1      44.588  16.502  12.234  1.00  0.00     0.000 C 
BRANCH   6   7
ATOM      7  C   UNL     1      44.475  14.969  12.160  1.00  0.00    -0.003 C 
ATOM      8  C   UNL     1      45.829  14.266  12.244  1.00  0.00     0.004 C 
ENDBRANCH   6   7
ENDBRANCH   1   6
TORSDOF 4
ENDMDL
MODEL 2
REMARK VINA RESULT:    -3.775      3.061      5.027
REMARK INTER + INTRA:          -4.705
REMARK INTER:                  -4.466
REMARK INTRA:                  -0.239
REMARK UNBOUND:                -0.047
REMARK SMILES CCCCCC(=O)[O-]
REMARK SMILES IDX 4 1 5 2 6 3 7 4 8 5 3 6 2 7 1 8
REMARK H PARENT
REMARK Flexibility Score: inf
ROOT
ATOM      1  C   UNL     1      40.330  17.755  11.468  1.00  0.00     0.006 C 
ENDROOT
BRANCH   1   2
ATOM      2  C   UNL     1      41.655  17.975  12.213  1.00  0.00     0.053 C 
BRANCH   2   3
ATOM      3  C   UNL     1      41.658  19.259  12.982  1.00  0.00     0.041 C 
ATOM      4  O   UNL     1      42.656  20.026  12.933  1.00  0.00    -0.550 OA
ATOM      5  O   UNL     1      40.572  19.594  13.781  1.00  0.00    -0.550 OA
ENDBRANCH   2   3
ENDBRANCH   1   2
BRANCH   1   6
ATOM      6  C   UNL     1      40.051  18.775  10.345  1.00  0.00     0.000 C 
BRANCH   6   7
ATOM      7  C   UNL     1      38.759  19.592  10.516  1.00  0.00    -0.003 C 
ATOM      8  C   UNL     1      37.699  18.866  11.344  1.00  0.00     0.004 C 
ENDBRANCH   6   7
ENDBRANCH   1   6
TORSDOF 4
ENDMDL
MODEL 3
REMARK VINA RESULT:    -3.746      3.716      5.591
REMARK INTER + INTRA:          -4.669
REMARK INTER:                  -4.557
REMARK INTRA:                  -0.112
REMARK UNBOUND:                -0.047
REMARK SMILES CCCCCC(=O)[O-]
REMARK SMILES IDX 4 1 5 2 6 3 7 4 8 5 3 6 2 7 1 8
REMARK H PARENT
REMARK Flexibility Score: inf
ROOT
ATOM      1  C   UNL     1      40.254  17.794  11.311  1.00  0.00     0.006 C 
ENDROOT
BRANCH   1   2
ATOM      2  C   UNL     1      41.619  18.161  10.708  1.00  0.00     0.053 C 
BRANCH   2   3
ATOM      3  C   UNL     1      41.546  18.334   9.222  1.00  0.00     0.041 C 
ATOM      4  O   UNL     1      42.030  17.459   8.457  1.00  0.00    -0.550 OA
ATOM      5  O   UNL     1      40.973  19.479   8.683  1.00  0.00    -0.550 OA
ENDBRANCH   2   3
ENDBRANCH   1   2
BRANCH   1   6
ATOM      6  C   UNL     1      39.377  19.005  11.689  1.00  0.00     0.000 C 
BRANCH   6   7
ATOM      7  C   UNL     1      38.063  19.126  10.898  1.00  0.00    -0.003 C 
ATOM      8  C   UNL     1      36.851  18.605  11.670  1.00  0.00     0.004 C 
ENDBRANCH   6   7
ENDBRANCH   1   6
TORSDOF 4
ENDMDL
MODEL 4
REMARK VINA RESULT:    -3.738     14.782     15.400
REMARK INTER + INTRA:          -4.660
REMARK INTER:                  -4.555
REMARK INTRA:                  -0.105
REMARK UNBOUND:                -0.047
REMARK SMILES CCCCCC(=O)[O-]
REMARK SMILES IDX 4 1 5 2 6 3 7 4 8 5 3 6 2 7 1 8
REMARK H PARENT
REMARK Flexibility Score: inf
ROOT
ATOM      1  C   UNL     1      35.573   4.732  16.327  1.00  0.00     0.006 C 
ENDROOT
BRANCH   1   2
ATOM      2  C   UNL     1      35.266   4.670  14.823  1.00  0.00     0.053 C 
BRANCH   2   3
ATOM      3  C   UNL     1      36.350   3.974  14.059  1.00  0.00     0.041 C 
ATOM      4  O   UNL     1      36.204   3.726  12.833  1.00  0.00    -0.550 OA
ATOM      5  O   UNL     1      37.509   3.569  14.710  1.00  0.00    -0.550 OA
ENDBRANCH   2   3
ENDBRANCH   1   2
BRANCH   1   6
ATOM      6  C   UNL     1      34.830   5.851  17.085  1.00  0.00     0.000 C 
BRANCH   6   7
ATOM      7  C   UNL     1      33.364   5.537  17.433  1.00  0.00    -0.003 C 
ATOM      8  C   UNL     1      32.367   6.344  16.603  1.00  0.00     0.004 C 
ENDBRANCH   6   7
ENDBRANCH   1   6
TORSDOF 4
ENDMDL
MODEL 5
REMARK VINA RESULT:    -3.717      2.629      5.112
REMARK INTER + INTRA:          -4.633
REMARK INTER:                  -4.589
REMARK INTRA:                  -0.044
REMARK UNBOUND:                -0.047
REMARK SMILES CCCCCC(=O)[O-]
REMARK SMILES IDX 4 1 5 2 6 3 7 4 8 5 3 6 2 7 1 8
REMARK H PARENT
REMARK Flexibility Score: inf
ROOT
ATOM      1  C   UNL     1      41.478  18.255  12.121  1.00  0.00     0.006 C 
ENDROOT
BRANCH   1   2
ATOM      2  C   UNL     1      42.410  17.059  12.373  1.00  0.00     0.053 C 
BRANCH   2   3
ATOM      3  C   UNL     1      43.854  17.452  12.312  1.00  0.00     0.041 C 
ATOM      4  O   UNL     1      44.752  16.569  12.316  1.00  0.00    -0.550 OA
ATOM      5  O   UNL     1      44.208  18.795  12.284  1.00  0.00    -0.550 OA
ENDBRANCH   2   3
ENDBRANCH   1   2
BRANCH   1   6
ATOM      6  C   UNL     1      40.150  17.893  11.426  1.00  0.00     0.000 C 
BRANCH   6   7
ATOM      7  C   UNL     1      39.359  19.093  10.875  1.00  0.00    -0.003 C 
ATOM      8  C   UNL     1      37.846  18.923  11.011  1.00  0.00     0.004 C 
ENDBRANCH   6   7
ENDBRANCH   1   6
TORSDOF 4
ENDMDL
MODEL 6
REMARK VINA RESULT:    -3.709     14.581     14.864
REMARK INTER + INTRA:          -4.623
REMARK INTER:                  -4.527
REMARK INTRA:                  -0.097
REMARK UNBOUND:                -0.047
REMARK SMILES CCCCCC(=O)[O-]
REMARK SMILES IDX 4 1 5 2 6 3 7 4 8 5 3 6 2 7 1 8
REMARK H PARENT
REMARK Flexibility Score: inf
ROOT
ATOM      1  C   UNL     1      34.814   4.665  15.324  1.00  0.00     0.006 C 
ENDROOT
BRANCH   1   2
ATOM      2  C   UNL     1      35.219   5.512  16.540  1.00  0.00     0.053 C 
BRANCH   2   3
ATOM      3  C   UNL     1      34.026   6.031  17.283  1.00  0.00     0.041 C 
ATOM      4  O   UNL     1      32.969   6.320  16.663  1.00  0.00    -0.550 OA
ATOM      5  O   UNL     1      34.094   6.227  18.657  1.00  0.00    -0.550 OA
ENDBRANCH   2   3
ENDBRANCH   1   2
BRANCH   1   6
ATOM      6  C   UNL     1      35.966   4.363  14.345  1.00  0.00     0.000 C 
BRANCH   6   7
ATOM      7  C   UNL     1      36.697   3.032  14.594  1.00  0.00    -0.003 C 
ATOM      8  C   UNL     1      38.173   3.218  14.942  1.00  0.00     0.004 C 
ENDBRANCH   6   7
ENDBRANCH   1   6
TORSDOF 4
ENDMDL
MODEL 7
REMARK VINA RESULT:    -3.707      2.081      2.918
REMARK INTER + INTRA:          -4.621
REMARK INTER:                  -4.499
REMARK INTRA:                  -0.122
REMARK UNBOUND:                -0.047
REMARK SMILES CCCCCC(=O)[O-]
REMARK SMILES IDX 4 1 5 2 6 3 7 4 8 5 3 6 2 7 1 8
REMARK H PARENT
REMARK Flexibility Score: inf
ROOT
ATOM      1  C   UNL     1      40.920  18.976  12.360  1.00  0.00     0.006 C 
ENDROOT
BRANCH   1   2
ATOM      2  C   UNL     1      40.160  17.961  11.493  1.00  0.00     0.053 C 
BRANCH   2   3
ATOM      3  C   UNL     1      39.556  18.602  10.282  1.00  0.00     0.041 C 
ATOM      4  O   UNL     1      38.308  18.595  10.115  1.00  0.00    -0.550 OA
ATOM      5  O   UNL     1      40.375  19.178   9.319  1.00  0.00    -0.550 OA
ENDBRANCH   2   3
ENDBRANCH   1   2
BRANCH   1   6
ATOM      6  C   UNL     1      42.394  18.609  12.629  1.00  0.00     0.000 C 
BRANCH   6   7
ATOM      7  C   UNL     1      42.781  17.167  12.256  1.00  0.00    -0.003 C 
ATOM      8  C   UNL     1      44.274  16.888  12.426  1.00  0.00     0.004 C 
ENDBRANCH   6   7
ENDBRANCH   1   6
TORSDOF 4
ENDMDL
MODEL 8
REMARK VINA RESULT:    -3.703      3.284      5.873
REMARK INTER + INTRA:          -4.615
REMARK INTER:                  -4.504
REMARK INTRA:                  -0.112
REMARK UNBOUND:                -0.047
REMARK SMILES CCCCCC(=O)[O-]
REMARK SMILES IDX 4 1 5 2 6 3 7 4 8 5 3 6 2 7 1 8
REMARK H PARENT
REMARK Flexibility Score: inf
ROOT
ATOM      1  C   UNL     1      39.432  19.087  10.730  1.00  0.00     0.006 C 
ENDROOT
BRANCH   1   2
ATOM      2  C   UNL     1      40.100  17.831  11.310  1.00  0.00     0.053 C 
BRANCH   2   3
ATOM      3  C   UNL     1      41.200  18.173  12.266  1.00  0.00     0.041 C 
ATOM      4  O   UNL     1      41.196  19.278  12.869  1.00  0.00    -0.550 OA
ATOM      5  O   UNL     1      42.249  17.284  12.465  1.00  0.00    -0.550 OA
ENDBRANCH   2   3
ENDBRANCH   1   2
BRANCH   1   6
ATOM      6  C   UNL     1      37.894  19.011  10.644  1.00  0.00     0.000 C 
BRANCH   6   7
ATOM      7  C   UNL     1      37.199  18.486  11.912  1.00  0.00    -0.003 C 
ATOM      8  C   UNL     1      35.678  18.627  11.860  1.00  0.00     0.004 C 
ENDBRANCH   6   7
ENDBRANCH   1   6
TORSDOF 4
ENDMDL
MODEL 9
REMARK VINA RESULT:    -3.685      2.514      3.237
REMARK INTER + INTRA:          -4.594
REMARK INTER:                  -4.409
REMARK INTRA:                  -0.185
REMARK UNBOUND:                -0.047
REMARK SMILES CCCCCC(=O)[O-]
REMARK SMILES IDX 4 1 5 2 6 3 7 4 8 5 3 6 2 7 1 8
REMARK H PARENT
REMARK Flexibility Score: inf
ROOT
ATOM      1  C   UNL     1      40.418  17.819  11.510  1.00  0.00     0.006 C 
ENDROOT
BRANCH   1   2
ATOM      2  C   UNL     1      40.153  18.657  10.250  1.00  0.00     0.053 C 
BRANCH   2   3
ATOM      3  C   UNL     1      41.378  18.794   9.401  1.00  0.00     0.041 C 
ATOM      4  O   UNL     1      41.904  19.925   9.223  1.00  0.00    -0.550 OA
ATOM      5  O   UNL     1      41.920  17.678   8.777  1.00  0.00    -0.550 OA
ENDBRANCH   2   3
ENDBRANCH   1   2
BRANCH   1   6
ATOM      6  C   UNL     1      41.713  18.188  12.262  1.00  0.00     0.000 C 
BRANCH   6   7
ATOM      7  C   UNL     1      42.754  17.059  12.355  1.00  0.00    -0.003 C 
ATOM      8  C   UNL     1      44.193  17.564  12.253  1.00  0.00     0.004 C 
ENDBRANCH   6   7
ENDBRANCH   1   6
TORSDOF 4
ENDMDL
