MODEL 1
REMARK VINA RESULT:    -4.281      0.000      0.000
REMARK INTER + INTRA:          -5.224
REMARK INTER:                  -5.157
REMARK INTRA:                  -0.067
REMARK UNBOUND:                -0.067
REMARK SMILES OCCc1ccc(O)c(O)c1
REMARK SMILES IDX 3 1 4 2 5 3 6 4 7 5 11 6 9 7 8 8 10 10 2 12 1 13
REMARK H PARENT 8 9 10 11 1 14
REMARK Flexibility Score: inf
ROOT
ATOM      1  C   UNL     1      25.278   5.037  22.886  1.00  0.00     0.064 C 
ENDROOT
BRANCH   1   2
ATOM      2  C   UNL     1      24.329   4.459  23.902  1.00  0.00    -0.042 A 
ATOM      3  C   UNL     1      23.067   5.035  24.103  1.00  0.00     0.008 A 
ATOM      4  C   UNL     1      22.200   4.513  25.064  1.00  0.00     0.050 A 
ATOM      5  C   UNL     1      22.578   3.416  25.847  1.00  0.00     0.157 A 
ATOM      6  C   UNL     1      24.718   3.366  24.691  1.00  0.00     0.054 A 
ATOM      7  C   UNL     1      23.856   2.836  25.659  1.00  0.00     0.157 A 
BRANCH   5   8
ATOM      8  O   UNL     1      21.665   2.941  26.789  1.00  0.00    -0.504 OA
ATOM      9  H   UNL     1      21.710   3.151  27.775  1.00  0.00     0.293 HD
ENDBRANCH   5   8
BRANCH   7  10
ATOM     10  O   UNL     1      24.306   1.746  26.406  1.00  0.00    -0.504 OA
ATOM     11  H   UNL     1      23.701   1.029  26.779  1.00  0.00     0.293 HD
ENDBRANCH   7  10
ENDBRANCH   1   2
BRANCH   1  12
ATOM     12  C   UNL     1      25.769   3.965  21.908  1.00  0.00     0.161 C 
BRANCH  12  13
ATOM     13  O   UNL     1      27.101   4.200  21.534  1.00  0.00    -0.396 OA
ATOM     14  H   UNL     1      27.667   3.688  22.169  1.00  0.00     0.210 HD
ENDBRANCH  12  13
ENDBRANCH   1  12
TORSDOF 5
ENDMDL
MODEL 2
REMARK VINA RESULT:    -4.267      1.973      4.349
REMARK INTER + INTRA:          -5.207
REMARK INTER:                  -5.132
REMARK INTRA:                  -0.075
REMARK UNBOUND:                -0.067
REMARK SMILES OCCc1ccc(O)c(O)c1
REMARK SMILES IDX 3 1 4 2 5 3 6 4 7 5 11 6 9 7 8 8 10 10 2 12 1 13
REMARK H PARENT 8 9 10 11 1 14
REMARK Flexibility Score: inf
ROOT
ATOM      1  C   UNL     1      20.442   4.649  25.554  1.00  0.00     0.064 C 
ENDROOT
BRANCH   1   2
ATOM      2  C   UNL     1      21.847   4.224  25.218  1.00  0.00    -0.042 A 
ATOM      3  C   UNL     1      22.539   4.832  24.162  1.00  0.00     0.008 A 
ATOM      4  C   UNL     1      23.831   4.418  23.835  1.00  0.00     0.050 A 
ATOM      5  C   UNL     1      24.451   3.384  24.547  1.00  0.00     0.157 A 
ATOM      6  C   UNL     1      22.459   3.179  25.928  1.00  0.00     0.054 A 
ATOM      7  C   UNL     1      23.753   2.755  25.607  1.00  0.00     0.157 A 
BRANCH   5   8
ATOM      8  O   UNL     1      25.744   3.017  24.172  1.00  0.00    -0.504 OA
ATOM      9  H   UNL     1      26.491   2.832  24.825  1.00  0.00     0.293 HD
ENDBRANCH   5   8
BRANCH   7  10
ATOM     10  O   UNL     1      24.303   1.713  26.357  1.00  0.00    -0.504 OA
ATOM     11  H   UNL     1      24.689   1.826  27.282  1.00  0.00     0.293 HD
ENDBRANCH   7  10
ENDBRANCH   1   2
BRANCH   1  12
ATOM     12  C   UNL     1      20.201   6.116  25.185  1.00  0.00     0.161 C 
BRANCH  12  13
ATOM     13  O   UNL     1      18.864   6.327  24.815  1.00  0.00    -0.396 OA
ATOM     14  H   UNL     1      18.793   6.078  23.857  1.00  0.00     0.210 HD
ENDBRANCH  12  13
ENDBRANCH   1  12
TORSDOF 5
ENDMDL
MODEL 3
REMARK VINA RESULT:    -4.146      1.321      4.762
REMARK INTER + INTRA:          -5.060
REMARK INTER:                  -4.986
REMARK INTRA:                  -0.074
REMARK UNBOUND:                -0.067
REMARK SMILES OCCc1ccc(O)c(O)c1
REMARK SMILES IDX 3 1 4 2 5 3 6 4 7 5 11 6 9 7 8 8 10 10 2 12 1 13
REMARK H PARENT 8 9 10 11 1 14
REMARK Flexibility Score: inf
ROOT
ATOM      1  C   UNL     1      22.911   4.529  24.523  1.00  0.00     0.064 C 
ENDROOT
BRANCH   1   2
ATOM      2  C   UNL     1      24.143   4.903  23.742  1.00  0.00    -0.042 A 
ATOM      3  C   UNL     1      24.648   6.209  23.797  1.00  0.00     0.008 A 
ATOM      4  C   UNL     1      25.775   6.560  23.051  1.00  0.00     0.050 A 
ATOM      5  C   UNL     1      26.410   5.620  22.232  1.00  0.00     0.157 A 
ATOM      6  C   UNL     1      24.769   3.959  22.914  1.00  0.00     0.054 A 
ATOM      7  C   UNL     1      25.898   4.301  22.161  1.00  0.00     0.157 A 
BRANCH   5   8
ATOM      8  O   UNL     1      27.533   6.033  21.513  1.00  0.00    -0.504 OA
ATOM      9  H   UNL     1      27.625   6.942  21.083  1.00  0.00     0.293 HD
ENDBRANCH   5   8
BRANCH   7  10
ATOM     10  O   UNL     1      26.474   3.312  21.360  1.00  0.00    -0.504 OA
ATOM     11  H   UNL     1      26.589   2.351  21.647  1.00  0.00     0.293 HD
ENDBRANCH   7  10
ENDBRANCH   1   2
BRANCH   1  12
ATOM     12  C   UNL     1      23.209   3.423  25.539  1.00  0.00     0.161 C 
BRANCH  12  13
ATOM     13  O   UNL     1      22.675   2.196  25.117  1.00  0.00    -0.396 OA
ATOM     14  H   UNL     1      21.688   2.279  25.185  1.00  0.00     0.210 HD
ENDBRANCH  12  13
ENDBRANCH   1  12
TORSDOF 5
ENDMDL
MODEL 4
REMARK VINA RESULT:    -4.102      1.026      2.046
REMARK INTER + INTRA:          -5.007
REMARK INTER:                  -4.937
REMARK INTRA:                  -0.071
REMARK UNBOUND:                -0.067
REMARK SMILES OCCc1ccc(O)c(O)c1
REMARK SMILES IDX 3 1 4 2 5 3 6 4 7 5 11 6 9 7 8 8 10 10 2 12 1 13
REMARK H PARENT 8 9 10 11 1 14
REMARK Flexibility Score: inf
ROOT
ATOM      1  C   UNL     1      25.040   4.935  23.172  1.00  0.00     0.064 C 
ENDROOT
BRANCH   1   2
ATOM      2  C   UNL     1      24.214   4.238  24.222  1.00  0.00    -0.042 A 
ATOM      3  C   UNL     1      24.834   3.477  25.222  1.00  0.00     0.008 A 
ATOM      4  C   UNL     1      24.066   2.809  26.177  1.00  0.00     0.050 A 
ATOM      5  C   UNL     1      22.669   2.881  26.147  1.00  0.00     0.157 A 
ATOM      6  C   UNL     1      22.813   4.305  24.180  1.00  0.00     0.054 A 
ATOM      7  C   UNL     1      22.034   3.638  25.132  1.00  0.00     0.157 A 
BRANCH   5   8
ATOM      8  O   UNL     1      21.958   2.193  27.131  1.00  0.00    -0.504 OA
ATOM      9  H   UNL     1      21.648   2.607  27.998  1.00  0.00     0.293 HD
ENDBRANCH   5   8
BRANCH   7  10
ATOM     10  O   UNL     1      20.645   3.750  25.033  1.00  0.00    -0.504 OA
ATOM     11  H   UNL     1      20.168   4.173  24.250  1.00  0.00     0.293 HD
ENDBRANCH   7  10
ENDBRANCH   1   2
BRANCH   1  12
ATOM     12  C   UNL     1      25.298   4.022  21.969  1.00  0.00     0.161 C 
BRANCH  12  13
ATOM     13  O   UNL     1      26.470   3.274  22.150  1.00  0.00    -0.396 OA
ATOM     14  H   UNL     1      26.793   3.470  23.069  1.00  0.00     0.210 HD
ENDBRANCH  12  13
ENDBRANCH   1  12
TORSDOF 5
ENDMDL
MODEL 5
REMARK VINA RESULT:    -4.098      2.115      2.889
REMARK INTER + INTRA:          -5.003
REMARK INTER:                  -4.918
REMARK INTRA:                  -0.085
REMARK UNBOUND:                -0.067
REMARK SMILES OCCc1ccc(O)c(O)c1
REMARK SMILES IDX 3 1 4 2 5 3 6 4 7 5 11 6 9 7 8 8 10 10 2 12 1 13
REMARK H PARENT 8 9 10 11 1 14
REMARK Flexibility Score: inf
ROOT
ATOM      1  C   UNL     1      24.717   5.387  24.228  1.00  0.00     0.064 C 
ENDROOT
BRANCH   1   2
ATOM      2  C   UNL     1      23.234   5.521  24.453  1.00  0.00    -0.042 A 
ATOM      3  C   UNL     1      22.671   6.770  24.746  1.00  0.00     0.008 A 
ATOM      4  C   UNL     1      21.300   6.888  24.981  1.00  0.00     0.050 A 
ATOM      5  C   UNL     1      20.470   5.762  24.936  1.00  0.00     0.157 A 
ATOM      6  C   UNL     1      22.408   4.388  24.418  1.00  0.00     0.054 A 
ATOM      7  C   UNL     1      21.032   4.494  24.653  1.00  0.00     0.157 A 
BRANCH   5   8
ATOM      8  O   UNL     1      19.107   5.946  25.178  1.00  0.00    -0.504 OA
ATOM      9  H   UNL     1      18.731   6.306  26.043  1.00  0.00     0.293 HD
ENDBRANCH   5   8
BRANCH   7  10
ATOM     10  O   UNL     1      20.269   3.326  24.599  1.00  0.00    -0.504 OA
ATOM     11  H   UNL     1      20.152   2.691  25.376  1.00  0.00     0.293 HD
ENDBRANCH   7  10
ENDBRANCH   1   2
BRANCH   1  12
ATOM     12  C   UNL     1      25.019   4.509  23.010  1.00  0.00     0.161 C 
BRANCH  12  13
ATOM     13  O   UNL     1      25.808   3.406  23.369  1.00  0.00    -0.396 OA
ATOM     14  H   UNL     1      26.512   3.748  23.980  1.00  0.00     0.210 HD
ENDBRANCH  12  13
ENDBRANCH   1  12
TORSDOF 5
ENDMDL
MODEL 6
REMARK VINA RESULT:    -4.082      2.120      4.501
REMARK INTER + INTRA:          -4.984
REMARK INTER:                  -4.932
REMARK INTRA:                  -0.052
REMARK UNBOUND:                -0.067
REMARK SMILES OCCc1ccc(O)c(O)c1
REMARK SMILES IDX 3 1 4 2 5 3 6 4 7 5 11 6 9 7 8 8 10 10 2 12 1 13
REMARK H PARENT 8 9 10 11 1 14
REMARK Flexibility Score: inf
ROOT
ATOM      1  C   UNL     1      20.641   4.267  24.698  1.00  0.00     0.064 C 
ENDROOT
BRANCH   1   2
ATOM      2  C   UNL     1      22.079   3.920  24.978  1.00  0.00    -0.042 A 
ATOM      3  C   UNL     1      22.402   2.974  25.960  1.00  0.00     0.008 A 
ATOM      4  C   UNL     1      23.737   2.673  26.237  1.00  0.00     0.050 A 
ATOM      5  C   UNL     1      24.771   3.316  25.547  1.00  0.00     0.157 A 
ATOM      6  C   UNL     1      23.112   4.576  24.291  1.00  0.00     0.054 A 
ATOM      7  C   UNL     1      24.454   4.283  24.562  1.00  0.00     0.157 A 
BRANCH   5   8
ATOM      8  O   UNL     1      26.085   2.970  25.869  1.00  0.00    -0.504 OA
ATOM      9  H   UNL     1      26.740   2.569  25.215  1.00  0.00     0.293 HD
ENDBRANCH   5   8
BRANCH   7  10
ATOM     10  O   UNL     1      25.431   4.971  23.839  1.00  0.00    -0.504 OA
ATOM     11  H   UNL     1      25.273   5.389  22.934  1.00  0.00     0.293 HD
ENDBRANCH   7  10
ENDBRANCH   1   2
BRANCH   1  12
ATOM     12  C   UNL     1      20.249   5.592  25.360  1.00  0.00     0.161 C 
BRANCH  12  13
ATOM     13  O   UNL     1      19.046   6.081  24.828  1.00  0.00    -0.396 OA
ATOM     14  H   UNL     1      19.181   6.159  23.847  1.00  0.00     0.210 HD
ENDBRANCH  12  13
ENDBRANCH   1  12
TORSDOF 5
ENDMDL
MODEL 7
REMARK VINA RESULT:    -4.009      2.218      4.601
REMARK INTER + INTRA:          -4.896
REMARK INTER:                  -4.812
REMARK INTRA:                  -0.085
REMARK UNBOUND:                -0.067
REMARK SMILES OCCc1ccc(O)c(O)c1
REMARK SMILES IDX 3 1 4 2 5 3 6 4 7 5 11 6 9 7 8 8 10 10 2 12 1 13
REMARK H PARENT 8 9 10 11 1 14
REMARK Flexibility Score: inf
ROOT
ATOM      1  C   UNL     1      20.855   4.352  24.934  1.00  0.00     0.064 C 
ENDROOT
BRANCH   1   2
ATOM      2  C   UNL     1      22.275   4.780  24.670  1.00  0.00    -0.042 A 
ATOM      3  C   UNL     1      22.585   6.134  24.487  1.00  0.00     0.008 A 
ATOM      4  C   UNL     1      23.897   6.526  24.217  1.00  0.00     0.050 A 
ATOM      5  C   UNL     1      24.919   5.575  24.115  1.00  0.00     0.157 A 
ATOM      6  C   UNL     1      23.293   3.822  24.558  1.00  0.00     0.054 A 
ATOM      7  C   UNL     1      24.612   4.204  24.286  1.00  0.00     0.157 A 
BRANCH   5   8
ATOM      8  O   UNL     1      26.210   6.032  23.844  1.00  0.00    -0.504 OA
ATOM      9  H   UNL     1      26.428   6.730  23.148  1.00  0.00     0.293 HD
ENDBRANCH   5   8
BRANCH   7  10
ATOM     10  O   UNL     1      25.577   3.198  24.192  1.00  0.00    -0.504 OA
ATOM     11  H   UNL     1      26.026   2.926  23.329  1.00  0.00     0.293 HD
ENDBRANCH   7  10
ENDBRANCH   1   2
BRANCH   1  12
ATOM     12  C   UNL     1      20.073   5.440  25.676  1.00  0.00     0.161 C 
BRANCH  12  13
ATOM     13  O   UNL     1      19.092   6.006  24.849  1.00  0.00    -0.396 OA
ATOM     14  H   UNL     1      18.402   6.390  25.451  1.00  0.00     0.210 HD
ENDBRANCH  12  13
ENDBRANCH   1  12
TORSDOF 5
ENDMDL
MODEL 8
REMARK VINA RESULT:    -3.834      3.058      4.267
REMARK INTER + INTRA:          -4.686
REMARK INTER:                  -4.594
REMARK INTRA:                  -0.092
REMARK UNBOUND:                -0.067
REMARK SMILES OCCc1ccc(O)c(O)c1
REMARK SMILES IDX 3 1 4 2 5 3 6 4 7 5 11 6 9 7 8 8 10 10 2 12 1 13
REMARK H PARENT 8 9 10 11 1 14
REMARK Flexibility Score: inf
ROOT
ATOM      1  C   UNL     1      21.256   4.198  26.707  1.00  0.00     0.064 C 
ENDROOT
BRANCH   1   2
ATOM      2  C   UNL     1      22.701   3.784  26.800  1.00  0.00    -0.042 A 
ATOM      3  C   UNL     1      23.722   4.717  26.573  1.00  0.00     0.008 A 
ATOM      4  C   UNL     1      25.061   4.325  26.634  1.00  0.00     0.050 A 
ATOM      5  C   UNL     1      25.404   2.997  26.911  1.00  0.00     0.157 A 
ATOM      6  C   UNL     1      23.039   2.449  27.067  1.00  0.00     0.054 A 
ATOM      7  C   UNL     1      24.378   2.045  27.128  1.00  0.00     0.157 A 
BRANCH   5   8
ATOM      8  O   UNL     1      26.760   2.669  26.959  1.00  0.00    -0.504 OA
ATOM      9  H   UNL     1      27.148   1.816  26.584  1.00  0.00     0.293 HD
ENDBRANCH   5   8
BRANCH   7  10
ATOM     10  O   UNL     1      24.643   0.701  27.402  1.00  0.00    -0.504 OA
ATOM     11  H   UNL     1      25.088   0.375  28.247  1.00  0.00     0.293 HD
ENDBRANCH   7  10
ENDBRANCH   1   2
BRANCH   1  12
ATOM     12  C   UNL     1      20.877   4.578  25.272  1.00  0.00     0.161 C 
BRANCH  12  13
ATOM     13  O   UNL     1      20.413   3.461  24.563  1.00  0.00    -0.396 OA
ATOM     14  H   UNL     1      19.435   3.587  24.443  1.00  0.00     0.210 HD
ENDBRANCH  12  13
ENDBRANCH   1  12
TORSDOF 5
ENDMDL
MODEL 9
REMARK VINA RESULT:    -3.718      2.917      3.795
REMARK INTER + INTRA:          -4.546
REMARK INTER:                  -4.453
REMARK INTRA:                  -0.092
REMARK UNBOUND:                -0.067
REMARK SMILES OCCc1ccc(O)c(O)c1
REMARK SMILES IDX 3 1 4 2 5 3 6 4 7 5 11 6 9 7 8 8 10 10 2 12 1 13
REMARK H PARENT 8 9 10 11 1 14
REMARK Flexibility Score: inf
ROOT
ATOM      1  C   UNL     1      25.735   4.139  26.772  1.00  0.00     0.064 C 
ENDROOT
BRANCH   1   2
ATOM      2  C   UNL     1      24.348   3.993  26.204  1.00  0.00    -0.042 A 
ATOM      3  C   UNL     1      23.725   2.738  26.166  1.00  0.00     0.008 A 
ATOM      4  C   UNL     1      22.450   2.601  25.614  1.00  0.00     0.050 A 
ATOM      5  C   UNL     1      21.779   3.709  25.084  1.00  0.00     0.157 A 
ATOM      6  C   UNL     1      23.684   5.105  25.665  1.00  0.00     0.054 A 
ATOM      7  C   UNL     1      22.406   4.979  25.108  1.00  0.00     0.157 A 
BRANCH   5   8
ATOM      8  O   UNL     1      20.506   3.506  24.549  1.00  0.00    -0.504 OA
ATOM      9  H   UNL     1      19.701   3.233  25.094  1.00  0.00     0.293 HD
ENDBRANCH   5   8
BRANCH   7  10
ATOM     10  O   UNL     1      21.802   6.127  24.592  1.00  0.00    -0.504 OA
ATOM     11  H   UNL     1      20.808   6.222  24.440  1.00  0.00     0.293 HD
ENDBRANCH   7  10
ENDBRANCH   1   2
BRANCH   1  12
ATOM     12  C   UNL     1      26.030   3.051  27.810  1.00  0.00     0.161 C 
BRANCH  12  13
ATOM     13  O   UNL     1      27.109   2.251  27.405  1.00  0.00    -0.396 OA
ATOM     14  H   UNL     1      26.720   1.477  26.919  1.00  0.00     0.210 HD
ENDBRANCH  12  13
ENDBRANCH   1  12
TORSDOF 5
ENDMDL
