MODEL 1
REMARK VINA RESULT:    -3.896      0.000      0.000
REMARK INTER + INTRA:          -4.251
REMARK INTER:                  -4.237
REMARK INTRA:                  -0.014
REMARK UNBOUND:                -0.014
REMARK SMILES OCc1ccco1
REMARK SMILES IDX 2 1 3 2 5 3 6 4 4 5 7 6 1 7
REMARK H PARENT 1 8
REMARK Flexibility Score: inf
ROOT
ATOM      1  C   UNL     1      -1.978   8.191  21.939  1.00  0.00     0.231 C 
ENDROOT
BRANCH   1   2
ATOM      2  C   UNL     1      -2.497   9.589  22.047  1.00  0.00     0.129 A 
ATOM      3  C   UNL     1      -3.502  11.495  21.620  1.00  0.00     0.042 A 
ATOM      4  C   UNL     1      -2.954  11.494  22.887  1.00  0.00     0.195 A 
ATOM      5  C   UNL     1      -3.211  10.262  21.076  1.00  0.00     0.048 A 
ATOM      6  O   UNL     1      -2.364  10.343  23.114  1.00  0.00    -0.467 OA
ENDBRANCH   1   2
BRANCH   1   7
ATOM      7  O   UNL     1      -1.334   8.012  20.708  1.00  0.00    -0.388 OA
ATOM      8  H   UNL     1      -0.668   8.744  20.627  1.00  0.00     0.211 HD
ENDBRANCH   1   7
TORSDOF 2
ENDMDL
MODEL 2
REMARK VINA RESULT:    -3.839      2.036      2.196
REMARK INTER + INTRA:          -4.189
REMARK INTER:                  -4.174
REMARK INTRA:                  -0.016
REMARK UNBOUND:                -0.014
REMARK SMILES OCc1ccco1
REMARK SMILES IDX 2 1 3 2 5 3 6 4 4 5 7 6 1 7
REMARK H PARENT 1 8
REMARK Flexibility Score: inf
ROOT
ATOM      1  C   UNL     1      -1.591   8.432  21.807  1.00  0.00     0.231 C 
ENDROOT
BRANCH   1   2
ATOM      2  C   UNL     1      -3.075   8.584  21.697  1.00  0.00     0.129 A 
ATOM      3  C   UNL     1      -5.107   8.822  20.900  1.00  0.00     0.042 A 
ATOM      4  C   UNL     1      -5.125   8.670  22.273  1.00  0.00     0.195 A 
ATOM      5  C   UNL     1      -3.782   8.763  20.525  1.00  0.00     0.048 A 
ATOM      6  O   UNL     1      -3.898   8.528  22.718  1.00  0.00    -0.467 OA
ENDBRANCH   1   2
BRANCH   1   7
ATOM      7  O   UNL     1      -1.069   7.931  20.608  1.00  0.00    -0.388 OA
ATOM      8  H   UNL     1      -1.136   6.942  20.660  1.00  0.00     0.211 HD
ENDBRANCH   1   7
TORSDOF 2
ENDMDL
MODEL 3
REMARK VINA RESULT:    -3.785      2.176      2.853
REMARK INTER + INTRA:          -4.131
REMARK INTER:                  -4.111
REMARK INTRA:                  -0.020
REMARK UNBOUND:                -0.014
REMARK SMILES OCc1ccco1
REMARK SMILES IDX 2 1 3 2 5 3 6 4 4 5 7 6 1 7
REMARK H PARENT 1 8
REMARK Flexibility Score: inf
ROOT
ATOM      1  C   UNL     1      -2.155   8.448  21.365  1.00  0.00     0.231 C 
ENDROOT
BRANCH   1   2
ATOM      2  C   UNL     1      -1.637   8.684  22.748  1.00  0.00     0.129 A 
ATOM      3  C   UNL     1      -1.469   8.807  24.934  1.00  0.00     0.042 A 
ATOM      4  C   UNL     1      -0.280   9.153  24.323  1.00  0.00     0.195 A 
ATOM      5  C   UNL     1      -2.347   8.499  23.917  1.00  0.00     0.048 A 
ATOM      6  O   UNL     1      -0.411   9.068  23.020  1.00  0.00    -0.467 OA
ENDBRANCH   1   2
BRANCH   1   7
ATOM      7  O   UNL     1      -1.125   7.976  20.541  1.00  0.00    -0.388 OA
ATOM      8  H   UNL     1      -1.060   6.998  20.700  1.00  0.00     0.211 HD
ENDBRANCH   1   7
TORSDOF 2
ENDMDL
MODEL 4
REMARK VINA RESULT:    -3.562      1.346      3.033
REMARK INTER + INTRA:          -3.888
REMARK INTER:                  -3.872
REMARK INTRA:                  -0.015
REMARK UNBOUND:                -0.014
REMARK SMILES OCc1ccco1
REMARK SMILES IDX 2 1 3 2 5 3 6 4 4 5 7 6 1 7
REMARK H PARENT 1 8
REMARK Flexibility Score: inf
ROOT
ATOM      1  C   UNL     1      -3.346  11.737  22.834  1.00  0.00     0.231 C 
ENDROOT
BRANCH   1   2
ATOM      2  C   UNL     1      -2.880  10.448  22.234  1.00  0.00     0.129 A 
ATOM      3  C   UNL     1      -2.560   8.768  20.856  1.00  0.00     0.042 A 
ATOM      4  C   UNL     1      -1.808   8.620  22.005  1.00  0.00     0.195 A 
ATOM      5  C   UNL     1      -3.251   9.952  21.001  1.00  0.00     0.048 A 
ATOM      6  O   UNL     1      -2.019   9.639  22.806  1.00  0.00    -0.467 OA
ENDBRANCH   1   2
BRANCH   1   7
ATOM      7  O   UNL     1      -3.654  12.654  21.821  1.00  0.00    -0.388 OA
ATOM      8  H   UNL     1      -3.827  13.523  22.268  1.00  0.00     0.211 HD
ENDBRANCH   1   7
TORSDOF 2
ENDMDL
MODEL 5
REMARK VINA RESULT:    -3.470      2.592      3.068
REMARK INTER + INTRA:          -3.788
REMARK INTER:                  -3.772
REMARK INTRA:                  -0.016
REMARK UNBOUND:                -0.014
REMARK SMILES OCc1ccco1
REMARK SMILES IDX 2 1 3 2 5 3 6 4 4 5 7 6 1 7
REMARK H PARENT 1 8
REMARK Flexibility Score: inf
ROOT
ATOM      1  C   UNL     1       0.993   9.219  23.602  1.00  0.00     0.231 C 
ENDROOT
BRANCH   1   2
ATOM      2  C   UNL     1      -0.486   8.995  23.582  1.00  0.00     0.129 A 
ATOM      3  C   UNL     1      -2.534   8.560  22.920  1.00  0.00     0.042 A 
ATOM      4  C   UNL     1      -2.482   8.747  24.287  1.00  0.00     0.195 A 
ATOM      5  C   UNL     1      -1.244   8.716  22.462  1.00  0.00     0.048 A 
ATOM      6  O   UNL     1      -1.247   9.003  24.651  1.00  0.00    -0.467 OA
ENDBRANCH   1   2
BRANCH   1   7
ATOM      7  O   UNL     1       1.572   8.707  22.435  1.00  0.00    -0.388 OA
ATOM      8  H   UNL     1       2.139   7.940  22.712  1.00  0.00     0.211 HD
ENDBRANCH   1   7
TORSDOF 2
ENDMDL
MODEL 6
REMARK VINA RESULT:    -3.378      7.578      8.579
REMARK INTER + INTRA:          -3.688
REMARK INTER:                  -3.670
REMARK INTRA:                  -0.018
REMARK UNBOUND:                -0.014
REMARK SMILES OCc1ccco1
REMARK SMILES IDX 2 1 3 2 5 3 6 4 4 5 7 6 1 7
REMARK H PARENT 1 8
REMARK Flexibility Score: inf
ROOT
ATOM      1  C   UNL     1       1.511  15.409  24.232  1.00  0.00     0.231 C 
ENDROOT
BRANCH   1   2
ATOM      2  C   UNL     1       2.969  15.079  24.277  1.00  0.00     0.129 A 
ATOM      3  C   UNL     1       4.877  14.029  24.566  1.00  0.00     0.042 A 
ATOM      4  C   UNL     1       5.073  15.272  23.997  1.00  0.00     0.195 A 
ATOM      5  C   UNL     1       3.516  13.901  24.745  1.00  0.00     0.048 A 
ATOM      6  O   UNL     1       3.917  15.872  23.835  1.00  0.00    -0.467 OA
ENDBRANCH   1   2
BRANCH   1   7
ATOM      7  O   UNL     1       1.160  15.862  22.955  1.00  0.00    -0.388 OA
ATOM      8  H   UNL     1       0.429  15.272  22.635  1.00  0.00     0.211 HD
ENDBRANCH   1   7
TORSDOF 2
ENDMDL
MODEL 7
REMARK VINA RESULT:    -3.311      6.576      7.520
REMARK INTER + INTRA:          -3.615
REMARK INTER:                  -3.601
REMARK INTRA:                  -0.014
REMARK UNBOUND:                -0.014
REMARK SMILES OCc1ccco1
REMARK SMILES IDX 2 1 3 2 5 3 6 4 4 5 7 6 1 7
REMARK H PARENT 1 8
REMARK Flexibility Score: inf
ROOT
ATOM      1  C   UNL     1       0.310  13.439  26.177  1.00  0.00     0.231 C 
ENDROOT
BRANCH   1   2
ATOM      2  C   UNL     1       1.482  13.999  25.434  1.00  0.00     0.129 A 
ATOM      3  C   UNL     1       2.859  15.371  24.412  1.00  0.00     0.042 A 
ATOM      4  C   UNL     1       3.392  14.099  24.493  1.00  0.00     0.195 A 
ATOM      5  C   UNL     1       1.625  15.309  25.023  1.00  0.00     0.048 A 
ATOM      6  O   UNL     1       2.548  13.305  25.111  1.00  0.00    -0.467 OA
ENDBRANCH   1   2
BRANCH   1   7
ATOM      7  O   UNL     1       0.133  14.128  27.383  1.00  0.00    -0.388 OA
ATOM      8  H   UNL     1      -0.828  14.046  27.619  1.00  0.00     0.211 HD
ENDBRANCH   1   7
TORSDOF 2
ENDMDL
MODEL 8
REMARK VINA RESULT:    -3.298      7.843      9.281
REMARK INTER + INTRA:          -3.601
REMARK INTER:                  -3.581
REMARK INTRA:                  -0.020
REMARK UNBOUND:                -0.014
REMARK SMILES OCc1ccco1
REMARK SMILES IDX 2 1 3 2 5 3 6 4 4 5 7 6 1 7
REMARK H PARENT 1 8
REMARK Flexibility Score: inf
ROOT
ATOM      1  C   UNL     1       2.056  17.927  26.444  1.00  0.00     0.231 C 
ENDROOT
BRANCH   1   2
ATOM      2  C   UNL     1       2.148  16.726  25.557  1.00  0.00     0.129 A 
ATOM      3  C   UNL     1       2.676  15.361  23.920  1.00  0.00     0.042 A 
ATOM      4  C   UNL     1       1.888  14.729  24.861  1.00  0.00     0.195 A 
ATOM      5  C   UNL     1       2.848  16.652  24.370  1.00  0.00     0.048 A 
ATOM      6  O   UNL     1       1.592  15.568  25.827  1.00  0.00    -0.467 OA
ENDBRANCH   1   2
BRANCH   1   7
ATOM      7  O   UNL     1       2.008  17.530  27.786  1.00  0.00    -0.388 OA
ATOM      8  H   UNL     1       1.077  17.230  27.960  1.00  0.00     0.211 HD
ENDBRANCH   1   7
TORSDOF 2
ENDMDL
MODEL 9
REMARK VINA RESULT:    -1.480      2.378      3.605
REMARK INTER + INTRA:          -1.624
REMARK INTER:                  -1.607
REMARK INTRA:                  -0.016
REMARK UNBOUND:                -0.014
REMARK SMILES OCc1ccco1
REMARK SMILES IDX 2 1 3 2 5 3 6 4 4 5 7 6 1 7
REMARK H PARENT 1 8
REMARK Flexibility Score: inf
ROOT
ATOM      1  C   UNL     1      -3.693  12.103  22.334  1.00  0.00     0.231 C 
ENDROOT
BRANCH   1   2
ATOM      2  C   UNL     1      -4.034  10.766  21.757  1.00  0.00     0.129 A 
ATOM      3  C   UNL     1      -3.942   8.873  20.648  1.00  0.00     0.042 A 
ATOM      4  C   UNL     1      -5.100   8.956  21.395  1.00  0.00     0.195 A 
ATOM      5  C   UNL     1      -3.249  10.041  20.883  1.00  0.00     0.048 A 
ATOM      6  O   UNL     1      -5.125  10.095  22.047  1.00  0.00    -0.467 OA
ENDBRANCH   1   2
BRANCH   1   7
ATOM      7  O   UNL     1      -4.748  13.000  22.124  1.00  0.00    -0.388 OA
ATOM      8  H   UNL     1      -4.346  13.832  21.760  1.00  0.00     0.211 HD
ENDBRANCH   1   7
TORSDOF 2
ENDMDL
