MODEL 1
REMARK VINA RESULT:    -6.835      0.000      0.000
REMARK INTER + INTRA:         -12.062
REMARK INTER:                 -10.431
REMARK INTRA:                  -1.631
REMARK UNBOUND:                -1.631
REMARK SMILES OC[C@@H]1O[C@H](O[C@@]2(CO)O[C@H](CO)[C@H](O)[C@@H]2O)[C@H](O)[C@@H](O)[C@H]1O
REMARK SMILES IDX 6 1 5 2 3 3 22 4 4 5 20 6 18 7 2 8 1 9 23 11 21 13 19 15
REMARK SMILES IDX 7 17 16 18 10 19 14 20 11 21 8 22 9 23 17 25 15 27 12 29
REMARK SMILES IDX 13 30
REMARK H PARENT 1 10 23 12 21 14 19 16 9 24 17 26 15 28 13 31
REMARK Flexibility Score: inf
ROOT
ATOM      1  O   UNL     1     -36.405  -5.323 -15.908  1.00  0.00    -0.313 OA
ENDROOT
BRANCH   1   2
ATOM      2  C   UNL     1     -36.892  -6.651 -16.062  1.00  0.00     0.285 C 
ATOM      3  C   UNL     1     -36.591  -7.314 -13.777  1.00  0.00     0.178 C 
ATOM      4  C   UNL     1     -38.118  -7.311 -13.516  1.00  0.00     0.177 C 
ATOM      5  O   UNL     1     -36.256  -7.533 -15.144  1.00  0.00    -0.341 OA
ATOM      6  C   UNL     1     -38.836  -6.356 -14.479  1.00  0.00     0.179 C 
ATOM      7  C   UNL     1     -38.426  -6.675 -15.921  1.00  0.00     0.202 C 
BRANCH   3   8
ATOM      8  C   UNL     1     -35.870  -6.098 -13.164  1.00  0.00     0.191 C 
BRANCH   8   9
ATOM      9  O   UNL     1     -35.355  -6.437 -11.907  1.00  0.00    -0.394 OA
ATOM     10  H   UNL     1     -34.702  -7.169 -12.064  1.00  0.00     0.210 HD
ENDBRANCH   8   9
ENDBRANCH   3   8
BRANCH   4  11
ATOM     11  O   UNL     1     -38.627  -8.610 -13.681  1.00  0.00    -0.387 OA
ATOM     12  H   UNL     1     -39.348  -8.555 -14.361  1.00  0.00     0.211 HD
ENDBRANCH   4  11
BRANCH   6  13
ATOM     13  O   UNL     1     -40.228  -6.492 -14.345  1.00  0.00    -0.387 OA
ATOM     14  H   UNL     1     -40.558  -5.653 -13.929  1.00  0.00     0.211 HD
ENDBRANCH   6  13
BRANCH   7  15
ATOM     15  O   UNL     1     -38.991  -5.737 -16.800  1.00  0.00    -0.385 OA
ATOM     16  H   UNL     1     -38.240  -5.307 -17.287  1.00  0.00     0.211 HD
ENDBRANCH   7  15
ENDBRANCH   1   2
BRANCH   1  17
ATOM     17  C   UNL     1     -35.686  -4.786 -17.018  1.00  0.00     0.224 C 
ATOM     18  C   UNL     1     -35.997  -3.286 -17.298  1.00  0.00     0.208 C 
ATOM     19  O   UNL     1     -36.120  -5.515 -18.155  1.00  0.00    -0.337 OA
ATOM     20  C   UNL     1     -36.134  -3.225 -18.798  1.00  0.00     0.180 C 
ATOM     21  C   UNL     1     -36.670  -4.617 -19.093  1.00  0.00     0.179 C 
BRANCH  17  22
ATOM     22  C   UNL     1     -34.171  -5.102 -16.889  1.00  0.00     0.225 C 
BRANCH  22  23
ATOM     23  O   UNL     1     -33.589  -5.461 -18.112  1.00  0.00    -0.391 OA
ATOM     24  H   UNL     1     -33.499  -6.450 -18.096  1.00  0.00     0.210 HD
ENDBRANCH  22  23
ENDBRANCH  17  22
BRANCH  18  25
ATOM     25  O   UNL     1     -34.998  -2.416 -16.826  1.00  0.00    -0.385 OA
ATOM     26  H   UNL     1     -34.707  -1.870 -17.604  1.00  0.00     0.211 HD
ENDBRANCH  18  25
BRANCH  20  27
ATOM     27  O   UNL     1     -34.882  -3.027 -19.409  1.00  0.00    -0.387 OA
ATOM     28  H   UNL     1     -35.059  -2.617 -20.296  1.00  0.00     0.211 HD
ENDBRANCH  20  27
BRANCH  21  29
ATOM     29  C   UNL     1     -36.381  -5.107 -20.519  1.00  0.00     0.191 C 
BRANCH  29  30
ATOM     30  O   UNL     1     -35.143  -5.763 -20.580  1.00  0.00    -0.394 OA
ATOM     31  H   UNL     1     -35.224  -6.461 -21.281  1.00  0.00     0.210 HD
ENDBRANCH  29  30
ENDBRANCH  21  29
ENDBRANCH   1  17
TORSDOF 13
ENDMDL
MODEL 2
REMARK VINA RESULT:    -6.479      1.259      2.317
REMARK INTER + INTRA:         -11.519
REMARK INTER:                  -9.554
REMARK INTRA:                  -1.966
REMARK UNBOUND:                -1.631
REMARK SMILES OC[C@@H]1O[C@H](O[C@@]2(CO)O[C@H](CO)[C@H](O)[C@@H]2O)[C@H](O)[C@@H](O)[C@H]1O
REMARK SMILES IDX 6 1 5 2 3 3 22 4 4 5 20 6 18 7 2 8 1 9 23 11 21 13 19 15
REMARK SMILES IDX 7 17 16 18 10 19 14 20 11 21 8 22 9 23 17 25 15 27 12 29
REMARK SMILES IDX 13 30
REMARK H PARENT 1 10 23 12 21 14 19 16 9 24 17 26 15 28 13 31
REMARK Flexibility Score: inf
ROOT
ATOM      1  O   UNL     1     -36.760  -4.864 -15.803  1.00  0.00    -0.313 OA
ENDROOT
BRANCH   1   2
ATOM      2  C   UNL     1     -36.845  -6.270 -16.007  1.00  0.00     0.285 C 
ATOM      3  C   UNL     1     -36.389  -6.898 -13.737  1.00  0.00     0.178 C 
ATOM      4  C   UNL     1     -37.855  -7.340 -13.506  1.00  0.00     0.177 C 
ATOM      5  O   UNL     1     -35.992  -6.965 -15.104  1.00  0.00    -0.341 OA
ATOM      6  C   UNL     1     -38.807  -6.598 -14.452  1.00  0.00     0.179 C 
ATOM      7  C   UNL     1     -38.309  -6.736 -15.895  1.00  0.00     0.202 C 
BRANCH   3   8
ATOM      8  C   UNL     1     -36.051  -5.549 -13.074  1.00  0.00     0.191 C 
BRANCH   8   9
ATOM      9  O   UNL     1     -34.861  -5.042 -13.608  1.00  0.00    -0.394 OA
ATOM     10  H   UNL     1     -34.801  -5.398 -14.534  1.00  0.00     0.210 HD
ENDBRANCH   8   9
ENDBRANCH   3   8
BRANCH   4  11
ATOM     11  O   UNL     1     -37.969  -8.725 -13.720  1.00  0.00    -0.387 OA
ATOM     12  H   UNL     1     -37.051  -9.071 -13.874  1.00  0.00     0.211 HD
ENDBRANCH   4  11
BRANCH   6  13
ATOM     13  O   UNL     1     -40.102  -7.131 -14.350  1.00  0.00    -0.387 OA
ATOM     14  H   UNL     1     -40.733  -6.370 -14.453  1.00  0.00     0.211 HD
ENDBRANCH   6  13
BRANCH   7  15
ATOM     15  O   UNL     1     -39.110  -5.969 -16.757  1.00  0.00    -0.385 OA
ATOM     16  H   UNL     1     -39.958  -5.782 -16.274  1.00  0.00     0.211 HD
ENDBRANCH   7  15
ENDBRANCH   1   2
BRANCH   1  17
ATOM     17  C   UNL     1     -36.051  -4.128 -16.799  1.00  0.00     0.224 C 
ATOM     18  C   UNL     1     -36.147  -4.753 -18.223  1.00  0.00     0.208 C 
ATOM     19  O   UNL     1     -34.684  -4.175 -16.423  1.00  0.00    -0.337 OA
ATOM     20  C   UNL     1     -34.739  -4.653 -18.751  1.00  0.00     0.180 C 
ATOM     21  C   UNL     1     -33.941  -4.769 -17.462  1.00  0.00     0.179 C 
BRANCH  17  22
ATOM     22  C   UNL     1     -36.435  -2.625 -16.744  1.00  0.00     0.225 C 
BRANCH  22  23
ATOM     23  O   UNL     1     -35.317  -1.782 -16.731  1.00  0.00    -0.391 OA
ATOM     24  H   UNL     1     -35.296  -1.362 -15.832  1.00  0.00     0.210 HD
ENDBRANCH  22  23
ENDBRANCH  17  22
BRANCH  18  25
ATOM     25  O   UNL     1     -37.069  -4.093 -19.056  1.00  0.00    -0.385 OA
ATOM     26  H   UNL     1     -36.755  -4.230 -19.989  1.00  0.00     0.211 HD
ENDBRANCH  18  25
BRANCH  20  27
ATOM     27  O   UNL     1     -34.522  -3.406 -19.368  1.00  0.00    -0.387 OA
ATOM     28  H   UNL     1     -33.538  -3.294 -19.446  1.00  0.00     0.211 HD
ENDBRANCH  20  27
BRANCH  21  29
ATOM     29  C   UNL     1     -32.543  -4.137 -17.535  1.00  0.00     0.191 C 
BRANCH  29  30
ATOM     30  O   UNL     1     -32.630  -2.737 -17.554  1.00  0.00    -0.394 OA
ATOM     31  H   UNL     1     -33.551  -2.513 -17.847  1.00  0.00     0.210 HD
ENDBRANCH  29  30
ENDBRANCH  21  29
ENDBRANCH   1  17
TORSDOF 13
ENDMDL
MODEL 3
REMARK VINA RESULT:    -6.405      1.904      2.413
REMARK INTER + INTRA:         -11.406
REMARK INTER:                  -9.695
REMARK INTRA:                  -1.711
REMARK UNBOUND:                -1.631
REMARK SMILES OC[C@@H]1O[C@H](O[C@@]2(CO)O[C@H](CO)[C@H](O)[C@@H]2O)[C@H](O)[C@@H](O)[C@H]1O
REMARK SMILES IDX 6 1 5 2 3 3 22 4 4 5 20 6 18 7 2 8 1 9 23 11 21 13 19 15
REMARK SMILES IDX 7 17 16 18 10 19 14 20 11 21 8 22 9 23 17 25 15 27 12 29
REMARK SMILES IDX 13 30
REMARK H PARENT 1 10 23 12 21 14 19 16 9 24 17 26 15 28 13 31
REMARK Flexibility Score: inf
ROOT
ATOM      1  O   UNL     1     -37.117  -5.871 -15.051  1.00  0.00    -0.313 OA
ENDROOT
BRANCH   1   2
ATOM      2  C   UNL     1     -38.455  -6.109 -15.473  1.00  0.00     0.285 C 
ATOM      3  C   UNL     1     -38.565  -8.390 -14.739  1.00  0.00     0.178 C 
ATOM      4  C   UNL     1     -39.519  -8.028 -13.574  1.00  0.00     0.177 C 
ATOM      5  O   UNL     1     -38.638  -7.475 -15.829  1.00  0.00    -0.341 OA
ATOM      6  C   UNL     1     -39.337  -6.564 -13.152  1.00  0.00     0.179 C 
ATOM      7  C   UNL     1     -39.445  -5.657 -14.383  1.00  0.00     0.202 C 
BRANCH   3   8
ATOM      8  C   UNL     1     -37.121  -8.667 -14.276  1.00  0.00     0.191 C 
BRANCH   8   9
ATOM      9  O   UNL     1     -36.319  -8.971 -15.382  1.00  0.00    -0.394 OA
ATOM     10  H   UNL     1     -35.379  -8.905 -15.067  1.00  0.00     0.210 HD
ENDBRANCH   8   9
ENDBRANCH   3   8
BRANCH   4  11
ATOM     11  O   UNL     1     -40.850  -8.237 -13.972  1.00  0.00    -0.387 OA
ATOM     12  H   UNL     1     -41.283  -7.345 -14.016  1.00  0.00     0.211 HD
ENDBRANCH   4  11
BRANCH   6  13
ATOM     13  O   UNL     1     -40.322  -6.205 -12.217  1.00  0.00    -0.387 OA
ATOM     14  H   UNL     1     -40.818  -5.437 -12.605  1.00  0.00     0.211 HD
ENDBRANCH   6  13
BRANCH   7  15
ATOM     15  O   UNL     1     -39.170  -4.327 -14.026  1.00  0.00    -0.385 OA
ATOM     16  H   UNL     1     -39.002  -3.829 -14.869  1.00  0.00     0.211 HD
ENDBRANCH   7  15
ENDBRANCH   1   2
BRANCH   1  17
ATOM     17  C   UNL     1     -36.318  -5.071 -15.924  1.00  0.00     0.224 C 
ATOM     18  C   UNL     1     -35.728  -3.802 -15.242  1.00  0.00     0.208 C 
ATOM     19  O   UNL     1     -37.189  -4.620 -16.948  1.00  0.00    -0.337 OA
ATOM     20  C   UNL     1     -35.933  -2.718 -16.270  1.00  0.00     0.180 C 
ATOM     21  C   UNL     1     -37.197  -3.210 -16.956  1.00  0.00     0.179 C 
BRANCH  17  22
ATOM     22  C   UNL     1     -35.260  -5.947 -16.649  1.00  0.00     0.225 C 
BRANCH  22  23
ATOM     23  O   UNL     1     -35.150  -5.643 -18.011  1.00  0.00    -0.391 OA
ATOM     24  H   UNL     1     -35.158  -4.652 -18.075  1.00  0.00     0.210 HD
ENDBRANCH  22  23
ENDBRANCH  17  22
BRANCH  18  25
ATOM     25  O   UNL     1     -34.374  -3.942 -14.889  1.00  0.00    -0.385 OA
ATOM     26  H   UNL     1     -33.988  -4.620 -15.504  1.00  0.00     0.211 HD
ENDBRANCH  18  25
BRANCH  20  27
ATOM     27  O   UNL     1     -34.854  -2.673 -17.172  1.00  0.00    -0.387 OA
ATOM     28  H   UNL     1     -34.572  -1.723 -17.233  1.00  0.00     0.211 HD
ENDBRANCH  20  27
BRANCH  21  29
ATOM     29  C   UNL     1     -37.368  -2.695 -18.392  1.00  0.00     0.191 C 
BRANCH  29  30
ATOM     30  O   UNL     1     -36.484  -3.347 -19.264  1.00  0.00    -0.394 OA
ATOM     31  H   UNL     1     -36.897  -3.311 -20.167  1.00  0.00     0.210 HD
ENDBRANCH  29  30
ENDBRANCH  21  29
ENDBRANCH   1  17
TORSDOF 13
ENDMDL
MODEL 4
REMARK VINA RESULT:    -6.401      1.738      5.883
REMARK INTER + INTRA:         -11.400
REMARK INTER:                  -9.473
REMARK INTRA:                  -1.927
REMARK UNBOUND:                -1.631
REMARK SMILES OC[C@@H]1O[C@H](O[C@@]2(CO)O[C@H](CO)[C@H](O)[C@@H]2O)[C@H](O)[C@@H](O)[C@H]1O
REMARK SMILES IDX 6 1 5 2 3 3 22 4 4 5 20 6 18 7 2 8 1 9 23 11 21 13 19 15
REMARK SMILES IDX 7 17 16 18 10 19 14 20 11 21 8 22 9 23 17 25 15 27 12 29
REMARK SMILES IDX 13 30
REMARK H PARENT 1 10 23 12 21 14 19 16 9 24 17 26 15 28 13 31
REMARK Flexibility Score: inf
ROOT
ATOM      1  O   UNL     1     -35.371  -5.449 -17.308  1.00  0.00    -0.313 OA
ENDROOT
BRANCH   1   2
ATOM      2  C   UNL     1     -35.676  -4.287 -18.072  1.00  0.00     0.285 C 
ATOM      3  C   UNL     1     -33.541  -3.226 -17.810  1.00  0.00     0.178 C 
ATOM      4  C   UNL     1     -33.163  -3.495 -19.287  1.00  0.00     0.177 C 
ATOM      5  O   UNL     1     -34.948  -3.161 -17.594  1.00  0.00    -0.341 OA
ATOM      6  C   UNL     1     -33.918  -4.715 -19.832  1.00  0.00     0.179 C 
ATOM      7  C   UNL     1     -35.419  -4.550 -19.567  1.00  0.00     0.202 C 
BRANCH   3   8
ATOM      8  C   UNL     1     -32.818  -4.159 -16.819  1.00  0.00     0.191 C 
BRANCH   8   9
ATOM      9  O   UNL     1     -33.205  -3.851 -15.510  1.00  0.00    -0.394 OA
ATOM     10  H   UNL     1     -32.405  -4.008 -14.942  1.00  0.00     0.210 HD
ENDBRANCH   8   9
ENDBRANCH   3   8
BRANCH   4  11
ATOM     11  O   UNL     1     -33.472  -2.368 -20.067  1.00  0.00    -0.387 OA
ATOM     12  H   UNL     1     -33.422  -2.650 -21.017  1.00  0.00     0.211 HD
ENDBRANCH   4  11
BRANCH   6  13
ATOM     13  O   UNL     1     -33.696  -4.843 -21.213  1.00  0.00    -0.387 OA
ATOM     14  H   UNL     1     -34.383  -5.473 -21.556  1.00  0.00     0.211 HD
ENDBRANCH   6  13
BRANCH   7  15
ATOM     15  O   UNL     1     -36.107  -5.709 -19.962  1.00  0.00    -0.385 OA
ATOM     16  H   UNL     1     -35.521  -6.482 -19.748  1.00  0.00     0.211 HD
ENDBRANCH   7  15
ENDBRANCH   1   2
BRANCH   1  17
ATOM     17  C   UNL     1     -36.242  -5.724 -16.211  1.00  0.00     0.224 C 
ATOM     18  C   UNL     1     -37.617  -4.999 -16.310  1.00  0.00     0.208 C 
ATOM     19  O   UNL     1     -35.592  -5.216 -15.058  1.00  0.00    -0.337 OA
ATOM     20  C   UNL     1     -37.852  -4.490 -14.910  1.00  0.00     0.180 C 
ATOM     21  C   UNL     1     -36.422  -4.253 -14.449  1.00  0.00     0.179 C 
BRANCH  17  22
ATOM     22  C   UNL     1     -36.352  -7.254 -15.974  1.00  0.00     0.225 C 
BRANCH  22  23
ATOM     23  O   UNL     1     -36.361  -7.589 -14.614  1.00  0.00    -0.391 OA
ATOM     24  H   UNL     1     -35.436  -7.875 -14.393  1.00  0.00     0.210 HD
ENDBRANCH  22  23
ENDBRANCH  17  22
BRANCH  18  25
ATOM     25  O   UNL     1     -38.657  -5.840 -16.743  1.00  0.00    -0.385 OA
ATOM     26  H   UNL     1     -39.333  -5.854 -16.015  1.00  0.00     0.211 HD
ENDBRANCH  18  25
BRANCH  20  27
ATOM     27  O   UNL     1     -38.482  -5.469 -14.119  1.00  0.00    -0.387 OA
ATOM     28  H   UNL     1     -38.498  -5.118 -13.191  1.00  0.00     0.211 HD
ENDBRANCH  20  27
BRANCH  21  29
ATOM     29  C   UNL     1     -36.244  -4.296 -12.924  1.00  0.00     0.191 C 
BRANCH  29  30
ATOM     30  O   UNL     1     -35.654  -5.504 -12.525  1.00  0.00    -0.394 OA
ATOM     31  H   UNL     1     -35.865  -6.170 -13.230  1.00  0.00     0.210 HD
ENDBRANCH  29  30
ENDBRANCH  21  29
ENDBRANCH   1  17
TORSDOF 13
ENDMDL
MODEL 5
REMARK VINA RESULT:    -6.374      1.963      2.984
REMARK INTER + INTRA:         -11.359
REMARK INTER:                  -9.492
REMARK INTRA:                  -1.867
REMARK UNBOUND:                -1.631
REMARK SMILES OC[C@@H]1O[C@H](O[C@@]2(CO)O[C@H](CO)[C@H](O)[C@@H]2O)[C@H](O)[C@@H](O)[C@H]1O
REMARK SMILES IDX 6 1 5 2 3 3 22 4 4 5 20 6 18 7 2 8 1 9 23 11 21 13 19 15
REMARK SMILES IDX 7 17 16 18 10 19 14 20 11 21 8 22 9 23 17 25 15 27 12 29
REMARK SMILES IDX 13 30
REMARK H PARENT 1 10 23 12 21 14 19 16 9 24 17 26 15 28 13 31
REMARK Flexibility Score: inf
ROOT
ATOM      1  O   UNL     1     -37.163  -5.928 -14.310  1.00  0.00    -0.313 OA
ENDROOT
BRANCH   1   2
ATOM      2  C   UNL     1     -38.417  -6.034 -14.975  1.00  0.00     0.285 C 
ATOM      3  C   UNL     1     -38.795  -8.347 -14.466  1.00  0.00     0.178 C 
ATOM      4  C   UNL     1     -39.917  -8.000 -13.457  1.00  0.00     0.177 C 
ATOM      5  O   UNL     1     -38.617  -7.352 -15.471  1.00  0.00    -0.341 OA
ATOM      6  C   UNL     1     -39.724  -6.588 -12.887  1.00  0.00     0.179 C 
ATOM      7  C   UNL     1     -39.555  -5.589 -14.037  1.00  0.00     0.202 C 
BRANCH   3   8
ATOM      8  C   UNL     1     -37.477  -8.764 -13.786  1.00  0.00     0.191 C 
BRANCH   8   9
ATOM      9  O   UNL     1     -36.422  -8.676 -14.703  1.00  0.00    -0.394 OA
ATOM     10  H   UNL     1     -36.125  -7.728 -14.690  1.00  0.00     0.210 HD
ENDBRANCH   8   9
ENDBRANCH   3   8
BRANCH   4  11
ATOM     11  O   UNL     1     -41.167  -8.079 -14.095  1.00  0.00    -0.387 OA
ATOM     12  H   UNL     1     -41.855  -7.868 -13.411  1.00  0.00     0.211 HD
ENDBRANCH   4  11
BRANCH   6  13
ATOM     13  O   UNL     1     -40.835  -6.225 -12.109  1.00  0.00    -0.387 OA
ATOM     14  H   UNL     1     -41.381  -5.607 -12.662  1.00  0.00     0.211 HD
ENDBRANCH   6  13
BRANCH   7  15
ATOM     15  O   UNL     1     -39.268  -4.312 -13.527  1.00  0.00    -0.385 OA
ATOM     16  H   UNL     1     -38.722  -3.842 -14.211  1.00  0.00     0.211 HD
ENDBRANCH   7  15
ENDBRANCH   1   2
BRANCH   1  17
ATOM     17  C   UNL     1     -36.241  -4.986 -14.858  1.00  0.00     0.224 C 
ATOM     18  C   UNL     1     -36.815  -4.179 -16.061  1.00  0.00     0.208 C 
ATOM     19  O   UNL     1     -35.153  -5.746 -15.356  1.00  0.00    -0.337 OA
ATOM     20  C   UNL     1     -35.682  -4.169 -17.055  1.00  0.00     0.180 C 
ATOM     21  C   UNL     1     -35.009  -5.495 -16.736  1.00  0.00     0.179 C 
BRANCH  17  22
ATOM     22  C   UNL     1     -35.636  -4.099 -13.736  1.00  0.00     0.225 C 
BRANCH  22  23
ATOM     23  O   UNL     1     -36.609  -3.368 -13.043  1.00  0.00    -0.391 OA
ATOM     24  H   UNL     1     -36.118  -2.708 -12.489  1.00  0.00     0.210 HD
ENDBRANCH  22  23
ENDBRANCH  17  22
BRANCH  18  25
ATOM     25  O   UNL     1     -37.219  -2.878 -15.713  1.00  0.00    -0.385 OA
ATOM     26  H   UNL     1     -37.116  -2.803 -14.727  1.00  0.00     0.211 HD
ENDBRANCH  18  25
BRANCH  20  27
ATOM     27  O   UNL     1     -34.811  -3.090 -16.812  1.00  0.00    -0.387 OA
ATOM     28  H   UNL     1     -34.579  -2.706 -17.698  1.00  0.00     0.211 HD
ENDBRANCH  20  27
BRANCH  21  29
ATOM     29  C   UNL     1     -33.526  -5.551 -17.127  1.00  0.00     0.191 C 
BRANCH  29  30
ATOM     30  O   UNL     1     -33.365  -5.343 -18.505  1.00  0.00    -0.394 OA
ATOM     31  H   UNL     1     -32.391  -5.404 -18.690  1.00  0.00     0.210 HD
ENDBRANCH  29  30
ENDBRANCH  21  29
ENDBRANCH   1  17
TORSDOF 13
ENDMDL
MODEL 6
REMARK VINA RESULT:    -6.365      1.693      6.024
REMARK INTER + INTRA:         -11.344
REMARK INTER:                  -9.437
REMARK INTRA:                  -1.908
REMARK UNBOUND:                -1.631
REMARK SMILES OC[C@@H]1O[C@H](O[C@@]2(CO)O[C@H](CO)[C@H](O)[C@@H]2O)[C@H](O)[C@@H](O)[C@H]1O
REMARK SMILES IDX 6 1 5 2 3 3 22 4 4 5 20 6 18 7 2 8 1 9 23 11 21 13 19 15
REMARK SMILES IDX 7 17 16 18 10 19 14 20 11 21 8 22 9 23 17 25 15 27 12 29
REMARK SMILES IDX 13 30
REMARK H PARENT 1 10 23 12 21 14 19 16 9 24 17 26 15 28 13 31
REMARK Flexibility Score: inf
ROOT
ATOM      1  O   UNL     1     -35.854  -4.430 -16.226  1.00  0.00    -0.313 OA
ENDROOT
BRANCH   1   2
ATOM      2  C   UNL     1     -34.883  -5.139 -16.988  1.00  0.00     0.285 C 
ATOM      3  C   UNL     1     -35.589  -4.335 -19.135  1.00  0.00     0.178 C 
ATOM      4  C   UNL     1     -34.330  -3.445 -19.278  1.00  0.00     0.177 C 
ATOM      5  O   UNL     1     -35.388  -5.457 -18.280  1.00  0.00    -0.341 OA
ATOM      6  C   UNL     1     -33.767  -3.067 -17.901  1.00  0.00     0.179 C 
ATOM      7  C   UNL     1     -33.572  -4.335 -17.061  1.00  0.00     0.202 C 
BRANCH   3   8
ATOM      8  C   UNL     1     -36.861  -3.535 -18.796  1.00  0.00     0.191 C 
BRANCH   8   9
ATOM      9  O   UNL     1     -37.908  -4.414 -18.497  1.00  0.00    -0.394 OA
ATOM     10  H   UNL     1     -37.626  -4.915 -17.687  1.00  0.00     0.210 HD
ENDBRANCH   8   9
ENDBRANCH   3   8
BRANCH   4  11
ATOM     11  O   UNL     1     -33.347  -4.131 -20.012  1.00  0.00    -0.387 OA
ATOM     12  H   UNL     1     -32.539  -3.554 -20.025  1.00  0.00     0.211 HD
ENDBRANCH   4  11
BRANCH   6  13
ATOM     13  O   UNL     1     -32.535  -2.407 -18.048  1.00  0.00    -0.387 OA
ATOM     14  H   UNL     1     -31.827  -3.094 -17.927  1.00  0.00     0.211 HD
ENDBRANCH   6  13
BRANCH   7  15
ATOM     15  O   UNL     1     -33.162  -3.992 -15.762  1.00  0.00    -0.385 OA
ATOM     16  H   UNL     1     -33.441  -3.051 -15.608  1.00  0.00     0.211 HD
ENDBRANCH   7  15
ENDBRANCH   1   2
BRANCH   1  17
ATOM     17  C   UNL     1     -36.570  -5.195 -15.257  1.00  0.00     0.224 C 
ATOM     18  C   UNL     1     -35.665  -6.150 -14.423  1.00  0.00     0.208 C 
ATOM     19  O   UNL     1     -37.467  -6.014 -15.989  1.00  0.00    -0.337 OA
ATOM     20  C   UNL     1     -36.456  -7.432 -14.370  1.00  0.00     0.180 C 
ATOM     21  C   UNL     1     -37.198  -7.367 -15.696  1.00  0.00     0.179 C 
BRANCH  17  22
ATOM     22  C   UNL     1     -37.475  -4.273 -14.396  1.00  0.00     0.225 C 
BRANCH  22  23
ATOM     23  O   UNL     1     -38.455  -4.984 -13.692  1.00  0.00    -0.391 OA
ATOM     24  H   UNL     1     -38.021  -5.822 -13.384  1.00  0.00     0.210 HD
ENDBRANCH  22  23
ENDBRANCH  17  22
BRANCH  18  25
ATOM     25  O   UNL     1     -35.376  -5.658 -13.138  1.00  0.00    -0.385 OA
ATOM     26  H   UNL     1     -35.755  -4.740 -13.094  1.00  0.00     0.211 HD
ENDBRANCH  18  25
BRANCH  20  27
ATOM     27  O   UNL     1     -37.356  -7.422 -13.287  1.00  0.00    -0.387 OA
ATOM     28  H   UNL     1     -38.248  -7.195 -13.660  1.00  0.00     0.211 HD
ENDBRANCH  20  27
BRANCH  21  29
ATOM     29  C   UNL     1     -38.501  -8.178 -15.722  1.00  0.00     0.191 C 
BRANCH  29  30
ATOM     30  O   UNL     1     -39.511  -7.522 -15.003  1.00  0.00    -0.394 OA
ATOM     31  H   UNL     1     -40.322  -8.092 -15.067  1.00  0.00     0.210 HD
ENDBRANCH  29  30
ENDBRANCH  21  29
ENDBRANCH   1  17
TORSDOF 13
ENDMDL
MODEL 7
REMARK VINA RESULT:    -6.327      1.748      5.770
REMARK INTER + INTRA:         -11.287
REMARK INTER:                  -9.638
REMARK INTRA:                  -1.649
REMARK UNBOUND:                -1.631
REMARK SMILES OC[C@@H]1O[C@H](O[C@@]2(CO)O[C@H](CO)[C@H](O)[C@@H]2O)[C@H](O)[C@@H](O)[C@H]1O
REMARK SMILES IDX 6 1 5 2 3 3 22 4 4 5 20 6 18 7 2 8 1 9 23 11 21 13 19 15
REMARK SMILES IDX 7 17 16 18 10 19 14 20 11 21 8 22 9 23 17 25 15 27 12 29
REMARK SMILES IDX 13 30
REMARK H PARENT 1 10 23 12 21 14 19 16 9 24 17 26 15 28 13 31
REMARK Flexibility Score: inf
ROOT
ATOM      1  O   UNL     1     -35.630  -5.181 -17.057  1.00  0.00    -0.313 OA
ENDROOT
BRANCH   1   2
ATOM      2  C   UNL     1     -35.838  -3.999 -17.823  1.00  0.00     0.285 C 
ATOM      3  C   UNL     1     -33.563  -3.240 -17.765  1.00  0.00     0.178 C 
ATOM      4  C   UNL     1     -33.353  -3.580 -19.261  1.00  0.00     0.177 C 
ATOM      5  O   UNL     1     -34.925  -2.979 -17.435  1.00  0.00    -0.341 OA
ATOM      6  C   UNL     1     -34.311  -4.691 -19.710  1.00  0.00     0.179 C 
ATOM      7  C   UNL     1     -35.748  -4.317 -19.327  1.00  0.00     0.202 C 
BRANCH   3   8
ATOM      8  C   UNL     1     -32.893  -4.249 -16.814  1.00  0.00     0.191 C 
BRANCH   8   9
ATOM      9  O   UNL     1     -33.164  -3.902 -15.486  1.00  0.00    -0.394 OA
ATOM     10  H   UNL     1     -33.888  -3.223 -15.520  1.00  0.00     0.210 HD
ENDBRANCH   8   9
ENDBRANCH   3   8
BRANCH   4  11
ATOM     11  O   UNL     1     -33.571  -2.431 -20.042  1.00  0.00    -0.387 OA
ATOM     12  H   UNL     1     -34.097  -1.799 -19.486  1.00  0.00     0.211 HD
ENDBRANCH   4  11
BRANCH   6  13
ATOM     13  O   UNL     1     -34.227  -4.868 -21.101  1.00  0.00    -0.387 OA
ATOM     14  H   UNL     1     -33.272  -5.041 -21.310  1.00  0.00     0.211 HD
ENDBRANCH   6  13
BRANCH   7  15
ATOM     15  O   UNL     1     -36.618  -5.375 -19.634  1.00  0.00    -0.385 OA
ATOM     16  H   UNL     1     -36.895  -5.258 -20.581  1.00  0.00     0.211 HD
ENDBRANCH   7  15
ENDBRANCH   1   2
BRANCH   1  17
ATOM     17  C   UNL     1     -36.637  -5.488 -16.093  1.00  0.00     0.224 C 
ATOM     18  C   UNL     1     -36.141  -5.386 -14.620  1.00  0.00     0.208 C 
ATOM     19  O   UNL     1     -36.992  -6.843 -16.314  1.00  0.00    -0.337 OA
ATOM     20  C   UNL     1     -36.727  -6.609 -13.962  1.00  0.00     0.180 C 
ATOM     21  C   UNL     1     -36.756  -7.578 -15.134  1.00  0.00     0.179 C 
BRANCH  17  22
ATOM     22  C   UNL     1     -37.931  -4.678 -16.380  1.00  0.00     0.225 C 
BRANCH  22  23
ATOM     23  O   UNL     1     -39.005  -5.495 -16.756  1.00  0.00    -0.391 OA
ATOM     24  H   UNL     1     -39.732  -4.882 -17.040  1.00  0.00     0.210 HD
ENDBRANCH  22  23
ENDBRANCH  17  22
BRANCH  18  25
ATOM     25  O   UNL     1     -36.546  -4.201 -13.980  1.00  0.00    -0.385 OA
ATOM     26  H   UNL     1     -37.502  -4.064 -14.215  1.00  0.00     0.211 HD
ENDBRANCH  18  25
BRANCH  20  27
ATOM     27  O   UNL     1     -38.027  -6.350 -13.489  1.00  0.00    -0.387 OA
ATOM     28  H   UNL     1     -38.153  -5.366 -13.525  1.00  0.00     0.211 HD
ENDBRANCH  20  27
BRANCH  21  29
ATOM     29  C   UNL     1     -37.801  -8.694 -14.994  1.00  0.00     0.191 C 
BRANCH  29  30
ATOM     30  O   UNL     1     -39.017  -8.315 -15.583  1.00  0.00    -0.394 OA
ATOM     31  H   UNL     1     -39.377  -7.568 -15.037  1.00  0.00     0.210 HD
ENDBRANCH  29  30
ENDBRANCH  21  29
ENDBRANCH   1  17
TORSDOF 13
ENDMDL
MODEL 8
REMARK VINA RESULT:    -6.222      1.362      5.804
REMARK INTER + INTRA:         -11.127
REMARK INTER:                  -9.507
REMARK INTRA:                  -1.620
REMARK UNBOUND:                -1.631
REMARK SMILES OC[C@@H]1O[C@H](O[C@@]2(CO)O[C@H](CO)[C@H](O)[C@@H]2O)[C@H](O)[C@@H](O)[C@H]1O
REMARK SMILES IDX 6 1 5 2 3 3 22 4 4 5 20 6 18 7 2 8 1 9 23 11 21 13 19 15
REMARK SMILES IDX 7 17 16 18 10 19 14 20 11 21 8 22 9 23 17 25 15 27 12 29
REMARK SMILES IDX 13 30
REMARK H PARENT 1 10 23 12 21 14 19 16 9 24 17 26 15 28 13 31
REMARK Flexibility Score: inf
ROOT
ATOM      1  O   UNL     1     -35.839  -5.855 -16.426  1.00  0.00    -0.313 OA
ENDROOT
BRANCH   1   2
ATOM      2  C   UNL     1     -36.006  -4.485 -16.773  1.00  0.00     0.285 C 
ATOM      3  C   UNL     1     -33.777  -4.143 -17.590  1.00  0.00     0.178 C 
ATOM      4  C   UNL     1     -34.266  -4.063 -19.057  1.00  0.00     0.177 C 
ATOM      5  O   UNL     1     -34.778  -3.777 -16.644  1.00  0.00    -0.341 OA
ATOM      6  C   UNL     1     -35.582  -4.831 -19.237  1.00  0.00     0.179 C 
ATOM      7  C   UNL     1     -36.598  -4.363 -18.189  1.00  0.00     0.202 C 
BRANCH   3   8
ATOM      8  C   UNL     1     -33.084  -5.477 -17.254  1.00  0.00     0.191 C 
BRANCH   8   9
ATOM      9  O   UNL     1     -31.696  -5.297 -17.223  1.00  0.00    -0.394 OA
ATOM     10  H   UNL     1     -31.447  -5.241 -16.263  1.00  0.00     0.210 HD
ENDBRANCH   8   9
ENDBRANCH   3   8
BRANCH   4  11
ATOM     11  O   UNL     1     -34.456  -2.718 -19.419  1.00  0.00    -0.387 OA
ATOM     12  H   UNL     1     -34.242  -2.646 -20.386  1.00  0.00     0.211 HD
ENDBRANCH   4  11
BRANCH   6  13
ATOM     13  O   UNL     1     -36.099  -4.608 -20.524  1.00  0.00    -0.387 OA
ATOM     14  H   UNL     1     -36.109  -5.488 -20.985  1.00  0.00     0.211 HD
ENDBRANCH   6  13
BRANCH   7  15
ATOM     15  O   UNL     1     -37.768  -5.136 -18.274  1.00  0.00    -0.385 OA
ATOM     16  H   UNL     1     -37.875  -5.396 -19.227  1.00  0.00     0.211 HD
ENDBRANCH   7  15
ENDBRANCH   1   2
BRANCH   1  17
ATOM     17  C   UNL     1     -36.551  -6.299 -15.271  1.00  0.00     0.224 C 
ATOM     18  C   UNL     1     -37.183  -7.713 -15.433  1.00  0.00     0.208 C 
ATOM     19  O   UNL     1     -37.623  -5.387 -15.096  1.00  0.00    -0.337 OA
ATOM     20  C   UNL     1     -38.559  -7.558 -14.836  1.00  0.00     0.180 C 
ATOM     21  C   UNL     1     -38.841  -6.096 -15.144  1.00  0.00     0.179 C 
BRANCH  17  22
ATOM     22  C   UNL     1     -35.675  -6.143 -13.998  1.00  0.00     0.225 C 
BRANCH  22  23
ATOM     23  O   UNL     1     -36.368  -5.547 -12.937  1.00  0.00    -0.391 OA
ATOM     24  H   UNL     1     -35.678  -5.155 -12.340  1.00  0.00     0.210 HD
ENDBRANCH  22  23
ENDBRANCH  17  22
BRANCH  18  25
ATOM     25  O   UNL     1     -36.445  -8.726 -14.795  1.00  0.00    -0.385 OA
ATOM     26  H   UNL     1     -35.718  -8.984 -15.421  1.00  0.00     0.211 HD
ENDBRANCH  18  25
BRANCH  20  27
ATOM     27  O   UNL     1     -38.531  -7.785 -13.447  1.00  0.00    -0.387 OA
ATOM     28  H   UNL     1     -38.168  -6.961 -13.030  1.00  0.00     0.211 HD
ENDBRANCH  20  27
BRANCH  21  29
ATOM     29  C   UNL     1     -39.863  -5.446 -14.199  1.00  0.00     0.191 C 
BRANCH  29  30
ATOM     30  O   UNL     1     -39.254  -5.058 -12.997  1.00  0.00    -0.394 OA
ATOM     31  H   UNL     1     -38.842  -5.874 -12.610  1.00  0.00     0.210 HD
ENDBRANCH  29  30
ENDBRANCH  21  29
ENDBRANCH   1  17
TORSDOF 13
ENDMDL
MODEL 9
REMARK VINA RESULT:    -6.215      1.596      5.929
REMARK INTER + INTRA:         -11.116
REMARK INTER:                  -9.520
REMARK INTRA:                  -1.596
REMARK UNBOUND:                -1.631
REMARK SMILES OC[C@@H]1O[C@H](O[C@@]2(CO)O[C@H](CO)[C@H](O)[C@@H]2O)[C@H](O)[C@@H](O)[C@H]1O
REMARK SMILES IDX 6 1 5 2 3 3 22 4 4 5 20 6 18 7 2 8 1 9 23 11 21 13 19 15
REMARK SMILES IDX 7 17 16 18 10 19 14 20 11 21 8 22 9 23 17 25 15 27 12 29
REMARK SMILES IDX 13 30
REMARK H PARENT 1 10 23 12 21 14 19 16 9 24 17 26 15 28 13 31
REMARK Flexibility Score: inf
ROOT
ATOM      1  O   UNL     1     -36.259  -5.314 -15.439  1.00  0.00    -0.313 OA
ENDROOT
BRANCH   1   2
ATOM      2  C   UNL     1     -36.500  -5.397 -16.839  1.00  0.00     0.285 C 
ATOM      3  C   UNL     1     -37.170  -3.113 -17.131  1.00  0.00     0.178 C 
ATOM      4  C   UNL     1     -35.858  -2.765 -17.878  1.00  0.00     0.177 C 
ATOM      5  O   UNL     1     -37.524  -4.489 -17.231  1.00  0.00    -0.341 OA
ATOM      6  C   UNL     1     -34.726  -3.715 -17.466  1.00  0.00     0.179 C 
ATOM      7  C   UNL     1     -35.192  -5.167 -17.619  1.00  0.00     0.202 C 
BRANCH   3   8
ATOM      8  C   UNL     1     -37.204  -2.581 -15.686  1.00  0.00     0.191 C 
BRANCH   8   9
ATOM      9  O   UNL     1     -38.339  -3.069 -15.028  1.00  0.00    -0.394 OA
ATOM     10  H   UNL     1     -38.950  -3.397 -15.738  1.00  0.00     0.210 HD
ENDBRANCH   8   9
ENDBRANCH   3   8
BRANCH   4  11
ATOM     11  O   UNL     1     -36.065  -2.858 -19.265  1.00  0.00    -0.387 OA
ATOM     12  H   UNL     1     -35.456  -3.566 -19.602  1.00  0.00     0.211 HD
ENDBRANCH   4  11
BRANCH   6  13
ATOM     13  O   UNL     1     -33.596  -3.497 -18.272  1.00  0.00    -0.387 OA
ATOM     14  H   UNL     1     -33.285  -4.391 -18.574  1.00  0.00     0.211 HD
ENDBRANCH   6  13
BRANCH   7  15
ATOM     15  O   UNL     1     -34.203  -6.042 -17.140  1.00  0.00    -0.385 OA
ATOM     16  H   UNL     1     -34.517  -6.965 -17.330  1.00  0.00     0.211 HD
ENDBRANCH   7  15
ENDBRANCH   1   2
BRANCH   1  17
ATOM     17  C   UNL     1     -36.870  -6.324 -14.636  1.00  0.00     0.224 C 
ATOM     18  C   UNL     1     -37.343  -7.565 -15.450  1.00  0.00     0.208 C 
ATOM     19  O   UNL     1     -38.031  -5.732 -14.078  1.00  0.00    -0.337 OA
ATOM     20  C   UNL     1     -38.704  -7.869 -14.876  1.00  0.00     0.180 C 
ATOM     21  C   UNL     1     -39.162  -6.476 -14.473  1.00  0.00     0.179 C 
BRANCH  17  22
ATOM     22  C   UNL     1     -35.969  -6.674 -13.421  1.00  0.00     0.225 C 
BRANCH  22  23
ATOM     23  O   UNL     1     -35.526  -5.537 -12.734  1.00  0.00    -0.391 OA
ATOM     24  H   UNL     1     -36.321  -5.168 -12.268  1.00  0.00     0.210 HD
ENDBRANCH  22  23
ENDBRANCH  17  22
BRANCH  18  25
ATOM     25  O   UNL     1     -36.471  -8.663 -15.344  1.00  0.00    -0.385 OA
ATOM     26  H   UNL     1     -36.136  -8.669 -14.409  1.00  0.00     0.211 HD
ENDBRANCH  18  25
BRANCH  20  27
ATOM     27  O   UNL     1     -38.597  -8.710 -13.752  1.00  0.00    -0.387 OA
ATOM     28  H   UNL     1     -39.191  -9.487 -13.920  1.00  0.00     0.211 HD
ENDBRANCH  20  27
BRANCH  21  29
ATOM     29  C   UNL     1     -40.213  -6.465 -13.353  1.00  0.00     0.191 C 
BRANCH  29  30
ATOM     30  O   UNL     1     -41.316  -7.261 -13.697  1.00  0.00    -0.394 OA
ATOM     31  H   UNL     1     -40.967  -8.175 -13.863  1.00  0.00     0.210 HD
ENDBRANCH  29  30
ENDBRANCH  21  29
ENDBRANCH   1  17
TORSDOF 13
ENDMDL
