MODEL 1
REMARK VINA RESULT:    -4.297      0.000      0.000
REMARK INTER + INTRA:          -6.834
REMARK INTER:                  -5.930
REMARK INTRA:                  -0.905
REMARK UNBOUND:                -0.905
REMARK SMILES CC[C@@H](CC[C@@H](C)[C@@H]1CC[C@H]2[C@H]3CC=C4C[C@@H](O)CC[C@@]4(C)[C@@H]3CC[C@@]21C)C(C)C
REMARK SMILES IDX 5 1 4 2 3 3 2 4 1 5 28 6 29 7 30 8 6 9 7 10 8 11 9 12 26 13
REMARK SMILES IDX 10 14 11 15 25 16 27 17 12 18 24 19 23 20 13 21 21 22 14 23
REMARK SMILES IDX 15 24 20 25 22 26 16 27 19 28 17 29 18 30
REMARK H PARENT 18 31
REMARK Flexibility Score: inf
ROOT
ATOM      1  C   UNL     1     -28.913  -2.259  16.529  1.00  0.00     0.004 C 
ENDROOT
BRANCH   1   2
ATOM      2  C   UNL     1     -28.296  -3.566  15.991  1.00  0.00     0.004 C 
BRANCH   2   3
ATOM      3  C   UNL     1     -28.229  -3.583  14.429  1.00  0.00    -0.009 C 
BRANCH   3   4
ATOM      4  C   UNL     1     -28.928  -4.863  13.893  1.00  0.00     0.000 C 
ATOM      5  C   UNL     1     -30.448  -4.847  14.047  1.00  0.00     0.004 C 
ENDBRANCH   3   4
BRANCH   3   6
ATOM      6  C   UNL     1     -26.776  -3.389  13.875  1.00  0.00    -0.014 C 
ATOM      7  C   UNL     1     -25.803  -4.505  14.304  1.00  0.00     0.007 C 
ATOM      8  C   UNL     1     -26.199  -1.999  14.217  1.00  0.00     0.007 C 
ENDBRANCH   3   6
ENDBRANCH   2   3
ENDBRANCH   1   2
BRANCH   1   9
ATOM      9  C   UNL     1     -29.236  -2.334  18.049  1.00  0.00    -0.011 C 
ATOM     10  C   UNL     1     -28.996  -3.775  18.567  1.00  0.00     0.008 C 
BRANCH   9  11
ATOM     11  C   UNL     1     -28.468  -1.203  18.829  1.00  0.00    -0.002 C 
ATOM     12  C   UNL     1     -26.948  -1.490  18.981  1.00  0.00     0.005 C 
ATOM     13  C   UNL     1     -28.930  -0.817  20.278  1.00  0.00    -0.026 C 
ATOM     14  C   UNL     1     -26.659  -1.661  20.486  1.00  0.00     0.005 C 
ATOM     15  C   UNL     1     -28.039  -1.715  21.137  1.00  0.00    -0.001 C 
ATOM     16  C   UNL     1     -30.414  -1.101  20.644  1.00  0.00     0.007 C 
ATOM     17  C   UNL     1     -28.616   0.710  20.451  1.00  0.00     0.012 C 
ATOM     18  C   UNL     1     -28.182  -1.565  22.680  1.00  0.00     0.000 C 
ATOM     19  C   UNL     1     -30.726  -1.107  22.172  1.00  0.00     0.005 C 
ATOM     20  C   UNL     1     -29.512  -0.894  23.130  1.00  0.00     0.003 C 
ATOM     21  C   UNL     1     -27.023  -0.861  23.398  1.00  0.00     0.031 C 
ATOM     22  C   UNL     1     -29.774  -1.225  24.642  1.00  0.00    -0.008 C 
ATOM     23  C   UNL     1     -27.279  -0.768  24.888  1.00  0.00    -0.027 C 
ATOM     24  C   UNL     1     -28.515  -0.846  25.452  1.00  0.00    -0.065 C 
ATOM     25  C   UNL     1     -30.974  -0.367  25.149  1.00  0.00     0.014 C 
ATOM     26  C   UNL     1     -30.065  -2.750  24.858  1.00  0.00     0.016 C 
ATOM     27  C   UNL     1     -28.639  -0.744  26.957  1.00  0.00     0.063 C 
ATOM     28  C   UNL     1     -31.106  -0.324  26.680  1.00  0.00     0.033 C 
ATOM     29  C   UNL     1     -29.812   0.159  27.349  1.00  0.00     0.118 C 
BRANCH  29  30
ATOM     30  O   UNL     1     -29.547   1.490  26.974  1.00  0.00    -0.393 OA
ATOM     31  H   UNL     1     -30.145   1.698  26.213  1.00  0.00     0.210 HD
ENDBRANCH  29  30
ENDBRANCH   9  11
ENDBRANCH   1   9
TORSDOF 7
ENDMDL
MODEL 2
REMARK VINA RESULT:    -4.227      1.321      2.659
REMARK INTER + INTRA:          -6.739
REMARK INTER:                  -5.841
REMARK INTRA:                  -0.898
REMARK UNBOUND:                -0.905
REMARK SMILES CC[C@@H](CC[C@@H](C)[C@@H]1CC[C@H]2[C@H]3CC=C4C[C@@H](O)CC[C@@]4(C)[C@@H]3CC[C@@]21C)C(C)C
REMARK SMILES IDX 5 1 4 2 3 3 2 4 1 5 28 6 29 7 30 8 6 9 7 10 8 11 9 12 26 13
REMARK SMILES IDX 10 14 11 15 25 16 27 17 12 18 24 19 23 20 13 21 21 22 14 23
REMARK SMILES IDX 15 24 20 25 22 26 16 27 19 28 17 29 18 30
REMARK H PARENT 18 31
REMARK Flexibility Score: inf
ROOT
ATOM      1  C   UNL     1     -27.943  -2.962  16.669  1.00  0.00     0.004 C 
ENDROOT
BRANCH   1   2
ATOM      2  C   UNL     1     -28.322  -2.196  15.385  1.00  0.00     0.004 C 
BRANCH   2   3
ATOM      3  C   UNL     1     -27.847  -2.941  14.096  1.00  0.00    -0.009 C 
BRANCH   3   4
ATOM      4  C   UNL     1     -28.392  -4.396  14.106  1.00  0.00     0.000 C 
ATOM      5  C   UNL     1     -29.917  -4.484  14.162  1.00  0.00     0.004 C 
ENDBRANCH   3   4
BRANCH   3   6
ATOM      6  C   UNL     1     -26.298  -2.859  13.875  1.00  0.00    -0.014 C 
ATOM      7  C   UNL     1     -25.554  -4.151  14.267  1.00  0.00     0.007 C 
ATOM      8  C   UNL     1     -25.671  -1.634  14.574  1.00  0.00     0.007 C 
ENDBRANCH   3   6
ENDBRANCH   2   3
ENDBRANCH   1   2
BRANCH   1   9
ATOM      9  C   UNL     1     -27.915  -2.044  17.925  1.00  0.00    -0.011 C 
ATOM     10  C   UNL     1     -28.233  -0.583  17.516  1.00  0.00     0.008 C 
BRANCH   9  11
ATOM     11  C   UNL     1     -28.831  -2.638  19.059  1.00  0.00    -0.002 C 
ATOM     12  C   UNL     1     -30.344  -2.365  18.828  1.00  0.00     0.005 C 
ATOM     13  C   UNL     1     -28.588  -2.209  20.548  1.00  0.00    -0.026 C 
ATOM     14  C   UNL     1     -30.828  -1.455  19.974  1.00  0.00     0.005 C 
ATOM     15  C   UNL     1     -29.548  -1.027  20.691  1.00  0.00    -0.001 C 
ATOM     16  C   UNL     1     -27.157  -1.727  20.920  1.00  0.00     0.007 C 
ATOM     17  C   UNL     1     -28.989  -3.440  21.435  1.00  0.00     0.012 C 
ATOM     18  C   UNL     1     -29.624  -0.358  22.094  1.00  0.00     0.000 C 
ATOM     19  C   UNL     1     -27.057  -0.927  22.254  1.00  0.00     0.005 C 
ATOM     20  C   UNL     1     -28.399  -0.658  23.005  1.00  0.00     0.003 C 
ATOM     21  C   UNL     1     -30.900  -0.631  22.902  1.00  0.00     0.031 C 
ATOM     22  C   UNL     1     -28.332   0.412  24.152  1.00  0.00    -0.008 C 
ATOM     23  C   UNL     1     -30.854   0.063  24.247  1.00  0.00    -0.027 C 
ATOM     24  C   UNL     1     -29.704   0.462  24.857  1.00  0.00    -0.065 C 
ATOM     25  C   UNL     1     -27.250  -0.023  25.189  1.00  0.00     0.014 C 
ATOM     26  C   UNL     1     -28.007   1.840  23.593  1.00  0.00     0.016 C 
ATOM     27  C   UNL     1     -29.792   1.152  26.201  1.00  0.00     0.063 C 
ATOM     28  C   UNL     1     -27.331   0.731  26.527  1.00  0.00     0.033 C 
ATOM     29  C   UNL     1     -28.723   0.618  27.160  1.00  0.00     0.118 C 
BRANCH  29  30
ATOM     30  O   UNL     1     -28.993  -0.724  27.489  1.00  0.00    -0.393 OA
ATOM     31  H   UNL     1     -29.949  -0.771  27.742  1.00  0.00     0.210 HD
ENDBRANCH  29  30
ENDBRANCH   9  11
ENDBRANCH   1   9
TORSDOF 7
ENDMDL
MODEL 3
REMARK VINA RESULT:    -3.980      0.546      1.808
REMARK INTER + INTRA:          -6.397
REMARK INTER:                  -5.664
REMARK INTRA:                  -0.733
REMARK UNBOUND:                -0.905
REMARK SMILES CC[C@@H](CC[C@@H](C)[C@@H]1CC[C@H]2[C@H]3CC=C4C[C@@H](O)CC[C@@]4(C)[C@@H]3CC[C@@]21C)C(C)C
REMARK SMILES IDX 5 1 4 2 3 3 2 4 1 5 28 6 29 7 30 8 6 9 7 10 8 11 9 12 26 13
REMARK SMILES IDX 10 14 11 15 25 16 27 17 12 18 24 19 23 20 13 21 21 22 14 23
REMARK SMILES IDX 15 24 20 25 22 26 16 27 19 28 17 29 18 30
REMARK H PARENT 18 31
REMARK Flexibility Score: inf
ROOT
ATOM      1  C   UNL     1     -28.401  -2.769  16.594  1.00  0.00     0.004 C 
ENDROOT
BRANCH   1   2
ATOM      2  C   UNL     1     -28.419  -4.240  16.131  1.00  0.00     0.004 C 
BRANCH   2   3
ATOM      3  C   UNL     1     -28.562  -4.365  14.580  1.00  0.00    -0.009 C 
BRANCH   3   4
ATOM      4  C   UNL     1     -27.710  -3.264  13.889  1.00  0.00     0.000 C 
ATOM      5  C   UNL     1     -26.203  -3.443  14.072  1.00  0.00     0.004 C 
ENDBRANCH   3   4
BRANCH   3   6
ATOM      6  C   UNL     1     -30.053  -4.391  14.101  1.00  0.00    -0.014 C 
ATOM      7  C   UNL     1     -30.647  -2.986  13.875  1.00  0.00     0.007 C 
ATOM      8  C   UNL     1     -30.955  -5.223  15.037  1.00  0.00     0.007 C 
ENDBRANCH   3   6
ENDBRANCH   2   3
ENDBRANCH   1   2
BRANCH   1   9
ATOM      9  C   UNL     1     -29.018  -2.581  18.010  1.00  0.00    -0.011 C 
ATOM     10  C   UNL     1     -28.997  -3.928  18.776  1.00  0.00     0.008 C 
BRANCH   9  11
ATOM     11  C   UNL     1     -28.331  -1.375  18.751  1.00  0.00    -0.002 C 
ATOM     12  C   UNL     1     -26.795  -1.555  18.917  1.00  0.00     0.005 C 
ATOM     13  C   UNL     1     -28.824  -0.971  20.185  1.00  0.00    -0.026 C 
ATOM     14  C   UNL     1     -26.503  -1.654  20.427  1.00  0.00     0.005 C 
ATOM     15  C   UNL     1     -27.879  -1.778  21.077  1.00  0.00    -0.001 C 
ATOM     16  C   UNL     1     -30.288  -1.341  20.558  1.00  0.00     0.007 C 
ATOM     17  C   UNL     1     -28.613   0.579  20.306  1.00  0.00     0.012 C 
ATOM     18  C   UNL     1     -28.039  -1.585  22.613  1.00  0.00     0.000 C 
ATOM     19  C   UNL     1     -30.605  -1.315  22.084  1.00  0.00     0.005 C 
ATOM     20  C   UNL     1     -29.413  -0.989  23.037  1.00  0.00     0.003 C 
ATOM     21  C   UNL     1     -26.933  -0.781  23.309  1.00  0.00     0.031 C 
ATOM     22  C   UNL     1     -29.659  -1.284  24.558  1.00  0.00    -0.008 C 
ATOM     23  C   UNL     1     -27.201  -0.654  24.795  1.00  0.00    -0.027 C 
ATOM     24  C   UNL     1     -28.432  -0.795  25.358  1.00  0.00    -0.065 C 
ATOM     25  C   UNL     1     -30.916  -0.491  25.033  1.00  0.00     0.014 C 
ATOM     26  C   UNL     1     -29.849  -2.817  24.827  1.00  0.00     0.016 C 
ATOM     27  C   UNL     1     -28.569  -0.650  26.858  1.00  0.00     0.063 C 
ATOM     28  C   UNL     1     -31.058  -0.404  26.561  1.00  0.00     0.033 C 
ATOM     29  C   UNL     1     -29.802   0.186  27.216  1.00  0.00     0.118 C 
BRANCH  29  30
ATOM     30  O   UNL     1     -29.624   1.518  26.796  1.00  0.00    -0.393 OA
ATOM     31  H   UNL     1     -30.288   2.065  27.286  1.00  0.00     0.210 HD
ENDBRANCH  29  30
ENDBRANCH   9  11
ENDBRANCH   1   9
TORSDOF 7
ENDMDL
MODEL 4
REMARK VINA RESULT:    -3.937      3.551     11.299
REMARK INTER + INTRA:          -6.338
REMARK INTER:                  -5.381
REMARK INTRA:                  -0.957
REMARK UNBOUND:                -0.905
REMARK SMILES CC[C@@H](CC[C@@H](C)[C@@H]1CC[C@H]2[C@H]3CC=C4C[C@@H](O)CC[C@@]4(C)[C@@H]3CC[C@@]21C)C(C)C
REMARK SMILES IDX 5 1 4 2 3 3 2 4 1 5 28 6 29 7 30 8 6 9 7 10 8 11 9 12 26 13
REMARK SMILES IDX 10 14 11 15 25 16 27 17 12 18 24 19 23 20 13 21 21 22 14 23
REMARK SMILES IDX 15 24 20 25 22 26 16 27 19 28 17 29 18 30
REMARK H PARENT 18 31
REMARK Flexibility Score: inf
ROOT
ATOM      1  C   UNL     1     -29.649   1.037  30.305  1.00  0.00     0.004 C 
ENDROOT
BRANCH   1   2
ATOM      2  C   UNL     1     -30.023   2.452  30.791  1.00  0.00     0.004 C 
BRANCH   2   3
ATOM      3  C   UNL     1     -29.759   2.636  32.320  1.00  0.00    -0.009 C 
BRANCH   3   4
ATOM      4  C   UNL     1     -28.630   1.670  32.773  1.00  0.00     0.000 C 
ATOM      5  C   UNL     1     -27.273   2.348  32.959  1.00  0.00     0.004 C 
ENDBRANCH   3   4
BRANCH   3   6
ATOM      6  C   UNL     1     -31.061   2.521  33.185  1.00  0.00    -0.014 C 
ATOM      7  C   UNL     1     -31.065   1.299  34.125  1.00  0.00     0.007 C 
ATOM      8  C   UNL     1     -32.341   2.555  32.324  1.00  0.00     0.007 C 
ENDBRANCH   3   6
ENDBRANCH   2   3
ENDBRANCH   1   2
BRANCH   1   9
ATOM      9  C   UNL     1     -30.022   0.799  28.814  1.00  0.00    -0.011 C 
ATOM     10  C   UNL     1     -30.438   2.140  28.156  1.00  0.00     0.008 C 
BRANCH   9  11
ATOM     11  C   UNL     1     -28.871   0.019  28.078  1.00  0.00    -0.002 C 
ATOM     12  C   UNL     1     -27.551   0.833  27.973  1.00  0.00     0.005 C 
ATOM     13  C   UNL     1     -29.109  -0.511  26.621  1.00  0.00    -0.026 C 
ATOM     14  C   UNL     1     -27.287   1.093  26.477  1.00  0.00     0.005 C 
ATOM     15  C   UNL     1     -28.570   0.645  25.778  1.00  0.00    -0.001 C 
ATOM     16  C   UNL     1     -30.581  -0.781  26.200  1.00  0.00     0.007 C 
ATOM     17  C   UNL     1     -28.260  -1.823  26.482  1.00  0.00     0.012 C 
ATOM     18  C   UNL     1     -28.591   0.451  24.234  1.00  0.00     0.000 C 
ATOM     19  C   UNL     1     -30.817  -0.891  24.662  1.00  0.00     0.005 C 
ATOM     20  C   UNL     1     -29.573  -0.656  23.750  1.00  0.00     0.003 C 
ATOM     21  C   UNL     1     -27.231   0.209  23.567  1.00  0.00     0.031 C 
ATOM     22  C   UNL     1     -29.880  -0.445  22.225  1.00  0.00    -0.008 C 
ATOM     23  C   UNL     1     -27.381   0.027  22.070  1.00  0.00    -0.027 C 
ATOM     24  C   UNL     1     -28.540  -0.347  21.464  1.00  0.00    -0.065 C 
ATOM     25  C   UNL     1     -30.672  -1.678  21.691  1.00  0.00     0.014 C 
ATOM     26  C   UNL     1     -30.692   0.873  21.975  1.00  0.00     0.016 C 
ATOM     27  C   UNL     1     -28.563  -0.490  19.957  1.00  0.00     0.063 C 
ATOM     28  C   UNL     1     -30.723  -1.770  20.157  1.00  0.00     0.033 C 
ATOM     29  C   UNL     1     -29.318  -1.756  19.540  1.00  0.00     0.118 C 
BRANCH  29  30
ATOM     30  O   UNL     1     -28.606  -2.901  19.944  1.00  0.00    -0.393 OA
ATOM     31  H   UNL     1     -28.584  -2.891  20.934  1.00  0.00     0.210 HD
ENDBRANCH  29  30
ENDBRANCH   9  11
ENDBRANCH   1   9
TORSDOF 7
ENDMDL
MODEL 5
REMARK VINA RESULT:    -3.776      3.578     11.353
REMARK INTER + INTRA:          -6.116
REMARK INTER:                  -5.419
REMARK INTRA:                  -0.698
REMARK UNBOUND:                -0.905
REMARK SMILES CC[C@@H](CC[C@@H](C)[C@@H]1CC[C@H]2[C@H]3CC=C4C[C@@H](O)CC[C@@]4(C)[C@@H]3CC[C@@]21C)C(C)C
REMARK SMILES IDX 5 1 4 2 3 3 2 4 1 5 28 6 29 7 30 8 6 9 7 10 8 11 9 12 26 13
REMARK SMILES IDX 10 14 11 15 25 16 27 17 12 18 24 19 23 20 13 21 21 22 14 23
REMARK SMILES IDX 15 24 20 25 22 26 16 27 19 28 17 29 18 30
REMARK H PARENT 18 31
REMARK Flexibility Score: inf
ROOT
ATOM      1  C   UNL     1     -29.733   1.143  30.297  1.00  0.00     0.004 C 
ENDROOT
BRANCH   1   2
ATOM      2  C   UNL     1     -28.823   0.939  31.525  1.00  0.00     0.004 C 
BRANCH   2   3
ATOM      3  C   UNL     1     -29.275   1.809  32.742  1.00  0.00    -0.009 C 
BRANCH   3   4
ATOM      4  C   UNL     1     -30.431   2.752  32.305  1.00  0.00     0.000 C 
ATOM      5  C   UNL     1     -31.721   2.557  33.100  1.00  0.00     0.004 C 
ENDBRANCH   3   4
BRANCH   3   6
ATOM      6  C   UNL     1     -28.087   2.561  33.434  1.00  0.00    -0.014 C 
ATOM      7  C   UNL     1     -28.407   4.030  33.774  1.00  0.00     0.007 C 
ATOM      8  C   UNL     1     -26.778   2.459  32.623  1.00  0.00     0.007 C 
ENDBRANCH   3   6
ENDBRANCH   2   3
ENDBRANCH   1   2
BRANCH   1   9
ATOM      9  C   UNL     1     -29.004   0.838  28.957  1.00  0.00    -0.011 C 
ATOM     10  C   UNL     1     -28.377  -0.578  29.009  1.00  0.00     0.008 C 
BRANCH   9  11
ATOM     11  C   UNL     1     -29.964   1.103  27.739  1.00  0.00    -0.002 C 
ATOM     12  C   UNL     1     -31.304   0.320  27.835  1.00  0.00     0.005 C 
ATOM     13  C   UNL     1     -29.457   0.814  26.282  1.00  0.00    -0.026 C 
ATOM     14  C   UNL     1     -31.340  -0.677  26.660  1.00  0.00     0.005 C 
ATOM     15  C   UNL     1     -29.934  -0.623  26.067  1.00  0.00    -0.001 C 
ATOM     16  C   UNL     1     -27.921   0.863  26.047  1.00  0.00     0.007 C 
ATOM     17  C   UNL     1     -30.178   1.849  25.348  1.00  0.00     0.012 C 
ATOM     18  C   UNL     1     -29.649  -1.249  24.671  1.00  0.00     0.000 C 
ATOM     19  C   UNL     1     -27.433   0.173  24.737  1.00  0.00     0.005 C 
ATOM     20  C   UNL     1     -28.527  -0.526  23.870  1.00  0.00     0.003 C 
ATOM     21  C   UNL     1     -30.864  -1.416  23.748  1.00  0.00     0.031 C 
ATOM     22  C   UNL     1     -27.993  -1.484  22.747  1.00  0.00    -0.008 C 
ATOM     23  C   UNL     1     -30.462  -2.025  22.420  1.00  0.00    -0.027 C 
ATOM     24  C   UNL     1     -29.196  -1.990  21.921  1.00  0.00    -0.065 C 
ATOM     25  C   UNL     1     -27.041  -0.682  21.807  1.00  0.00     0.014 C 
ATOM     26  C   UNL     1     -27.247  -2.723  23.349  1.00  0.00     0.016 C 
ATOM     27  C   UNL     1     -28.920  -2.640  20.583  1.00  0.00     0.063 C 
ATOM     28  C   UNL     1     -26.737  -1.390  20.476  1.00  0.00     0.033 C 
ATOM     29  C   UNL     1     -28.021  -1.752  19.718  1.00  0.00     0.118 C 
BRANCH  29  30
ATOM     30  O   UNL     1     -28.707  -0.578  19.351  1.00  0.00    -0.393 OA
ATOM     31  H   UNL     1     -29.664  -0.819  19.268  1.00  0.00     0.210 HD
ENDBRANCH  29  30
ENDBRANCH   9  11
ENDBRANCH   1   9
TORSDOF 7
ENDMDL
MODEL 6
REMARK VINA RESULT:    -1.983      2.851      8.913
REMARK INTER + INTRA:          -3.641
REMARK INTER:                  -2.047
REMARK INTRA:                  -1.594
REMARK UNBOUND:                -0.905
REMARK SMILES CC[C@@H](CC[C@@H](C)[C@@H]1CC[C@H]2[C@H]3CC=C4C[C@@H](O)CC[C@@]4(C)[C@@H]3CC[C@@]21C)C(C)C
REMARK SMILES IDX 5 1 4 2 3 3 2 4 1 5 28 6 29 7 30 8 6 9 7 10 8 11 9 12 26 13
REMARK SMILES IDX 10 14 11 15 25 16 27 17 12 18 24 19 23 20 13 21 21 22 14 23
REMARK SMILES IDX 15 24 20 25 22 26 16 27 19 28 17 29 18 30
REMARK H PARENT 18 31
REMARK Flexibility Score: inf
ROOT
ATOM      1  C   UNL     1     -30.103  -2.078  24.066  1.00  0.00     0.004 C 
ENDROOT
BRANCH   1   2
ATOM      2  C   UNL     1     -28.615  -2.394  24.316  1.00  0.00     0.004 C 
BRANCH   2   3
ATOM      3  C   UNL     1     -27.971  -1.410  25.346  1.00  0.00    -0.009 C 
BRANCH   3   4
ATOM      4  C   UNL     1     -29.067  -0.469  25.920  1.00  0.00     0.000 C 
ATOM      5  C   UNL     1     -28.772   0.034  27.333  1.00  0.00     0.004 C 
ENDBRANCH   3   4
BRANCH   3   6
ATOM      6  C   UNL     1     -26.733  -0.642  24.770  1.00  0.00    -0.014 C 
ATOM      7  C   UNL     1     -27.077   0.763  24.236  1.00  0.00     0.007 C 
ATOM      8  C   UNL     1     -25.979  -1.464  23.702  1.00  0.00     0.007 C 
ENDBRANCH   3   6
ENDBRANCH   2   3
ENDBRANCH   1   2
BRANCH   1   9
ATOM      9  C   UNL     1     -30.360  -1.498  22.645  1.00  0.00    -0.011 C 
ATOM     10  C   UNL     1     -31.416  -0.367  22.723  1.00  0.00     0.008 C 
BRANCH   9  11
ATOM     11  C   UNL     1     -29.000  -1.102  21.961  1.00  0.00    -0.002 C 
ATOM     12  C   UNL     1     -28.902   0.414  21.629  1.00  0.00     0.005 C 
ATOM     13  C   UNL     1     -28.572  -1.813  20.629  1.00  0.00    -0.026 C 
ATOM     14  C   UNL     1     -28.828   0.545  20.095  1.00  0.00     0.005 C 
ATOM     15  C   UNL     1     -29.133  -0.858  19.574  1.00  0.00    -0.001 C 
ATOM     16  C   UNL     1     -29.155  -3.231  20.368  1.00  0.00     0.007 C 
ATOM     17  C   UNL     1     -27.004  -1.868  20.640  1.00  0.00     0.012 C 
ATOM     18  C   UNL     1     -28.847  -1.219  18.087  1.00  0.00     0.000 C 
ATOM     19  C   UNL     1     -29.061  -3.719  18.890  1.00  0.00     0.005 C 
ATOM     20  C   UNL     1     -28.461  -2.710  17.861  1.00  0.00     0.003 C 
ATOM     21  C   UNL     1     -27.814  -0.342  17.368  1.00  0.00     0.031 C 
ATOM     22  C   UNL     1     -28.672  -3.076  16.350  1.00  0.00    -0.008 C 
ATOM     23  C   UNL     1     -27.616  -0.795  15.936  1.00  0.00    -0.027 C 
ATOM     24  C   UNL     1     -27.919  -2.042  15.485  1.00  0.00    -0.065 C 
ATOM     25  C   UNL     1     -28.069  -4.490  16.081  1.00  0.00     0.014 C 
ATOM     26  C   UNL     1     -30.188  -3.046  15.953  1.00  0.00     0.016 C 
ATOM     27  C   UNL     1     -27.679  -2.370  14.027  1.00  0.00     0.063 C 
ATOM     28  C   UNL     1     -27.885  -4.816  14.589  1.00  0.00     0.033 C 
ATOM     29  C   UNL     1     -27.039  -3.753  13.875  1.00  0.00     0.118 C 
BRANCH  29  30
ATOM     30  O   UNL     1     -25.735  -3.745  14.404  1.00  0.00    -0.393 OA
ATOM     31  H   UNL     1     -25.749  -3.151  15.195  1.00  0.00     0.210 HD
ENDBRANCH  29  30
ENDBRANCH   9  11
ENDBRANCH   1   9
TORSDOF 7
ENDMDL
MODEL 7
REMARK VINA RESULT:    -1.599      2.937      9.001
REMARK INTER + INTRA:          -3.112
REMARK INTER:                  -1.067
REMARK INTRA:                  -2.044
REMARK UNBOUND:                -0.905
REMARK SMILES CC[C@@H](CC[C@@H](C)[C@@H]1CC[C@H]2[C@H]3CC=C4C[C@@H](O)CC[C@@]4(C)[C@@H]3CC[C@@]21C)C(C)C
REMARK SMILES IDX 5 1 4 2 3 3 2 4 1 5 28 6 29 7 30 8 6 9 7 10 8 11 9 12 26 13
REMARK SMILES IDX 10 14 11 15 25 16 27 17 12 18 24 19 23 20 13 21 21 22 14 23
REMARK SMILES IDX 15 24 20 25 22 26 16 27 19 28 17 29 18 30
REMARK H PARENT 18 31
REMARK Flexibility Score: inf
ROOT
ATOM      1  C   UNL     1     -30.766   0.045  23.061  1.00  0.00     0.004 C 
ENDROOT
BRANCH   1   2
ATOM      2  C   UNL     1     -30.504  -1.294  23.780  1.00  0.00     0.004 C 
BRANCH   2   3
ATOM      3  C   UNL     1     -29.906  -1.085  25.208  1.00  0.00    -0.009 C 
BRANCH   3   4
ATOM      4  C   UNL     1     -30.193   0.366  25.685  1.00  0.00     0.000 C 
ATOM      5  C   UNL     1     -30.204   0.527  27.205  1.00  0.00     0.004 C 
ENDBRANCH   3   4
BRANCH   3   6
ATOM      6  C   UNL     1     -28.393  -1.483  25.305  1.00  0.00    -0.014 C 
ATOM      7  C   UNL     1     -27.432  -0.317  24.998  1.00  0.00     0.007 C 
ATOM      8  C   UNL     1     -28.055  -2.714  24.437  1.00  0.00     0.007 C 
ENDBRANCH   3   6
ENDBRANCH   2   3
ENDBRANCH   1   2
BRANCH   1   9
ATOM      9  C   UNL     1     -29.698   0.358  21.974  1.00  0.00    -0.011 C 
ATOM     10  C   UNL     1     -28.865   1.595  22.398  1.00  0.00     0.008 C 
BRANCH   9  11
ATOM     11  C   UNL     1     -28.862  -0.932  21.639  1.00  0.00    -0.002 C 
ATOM     12  C   UNL     1     -27.337  -0.658  21.519  1.00  0.00     0.005 C 
ATOM     13  C   UNL     1     -29.204  -1.757  20.349  1.00  0.00    -0.026 C 
ATOM     14  C   UNL     1     -26.930  -0.946  20.060  1.00  0.00     0.005 C 
ATOM     15  C   UNL     1     -28.254  -1.137  19.323  1.00  0.00    -0.001 C 
ATOM     16  C   UNL     1     -30.656  -1.645  19.804  1.00  0.00     0.007 C 
ATOM     17  C   UNL     1     -28.866  -3.253  20.677  1.00  0.00     0.012 C 
ATOM     18  C   UNL     1     -28.272  -1.756  17.895  1.00  0.00     0.000 C 
ATOM     19  C   UNL     1     -30.845  -2.116  18.330  1.00  0.00     0.005 C 
ATOM     20  C   UNL     1     -29.557  -2.574  17.576  1.00  0.00     0.003 C 
ATOM     21  C   UNL     1     -27.054  -2.609  17.516  1.00  0.00     0.031 C 
ATOM     22  C   UNL     1     -29.699  -2.730  16.021  1.00  0.00    -0.008 C 
ATOM     23  C   UNL     1     -27.190  -3.161  16.112  1.00  0.00    -0.027 C 
ATOM     24  C   UNL     1     -28.377  -3.298  15.461  1.00  0.00    -0.065 C 
ATOM     25  C   UNL     1     -30.849  -3.739  15.715  1.00  0.00     0.014 C 
ATOM     26  C   UNL     1     -29.983  -1.354  15.326  1.00  0.00     0.016 C 
ATOM     27  C   UNL     1     -28.380  -3.859  14.056  1.00  0.00     0.063 C 
ATOM     28  C   UNL     1     -30.858  -4.252  14.266  1.00  0.00     0.033 C 
ATOM     29  C   UNL     1     -29.511  -4.875  13.875  1.00  0.00     0.118 C 
BRANCH  29  30
ATOM     30  O   UNL     1     -29.267  -6.019  14.659  1.00  0.00    -0.393 OA
ATOM     31  H   UNL     1     -29.757  -5.893  15.510  1.00  0.00     0.210 HD
ENDBRANCH  29  30
ENDBRANCH   9  11
ENDBRANCH   1   9
TORSDOF 7
ENDMDL
