MODEL 1
REMARK VINA RESULT:    -3.293      0.000      0.000
REMARK INTER + INTRA:          -3.900
REMARK INTER:                  -3.870
REMARK INTRA:                  -0.030
REMARK UNBOUND:                -0.030
REMARK SMILES CCCCC(=O)[O-]
REMARK SMILES IDX 4 1 5 2 6 3 7 4 3 5 2 6 1 7
REMARK H PARENT
REMARK Flexibility Score: inf
ROOT
ATOM      1  C   UNL     1     -43.761 -35.471  36.126  1.00  0.00     0.053 C 
ENDROOT
BRANCH   1   2
ATOM      2  C   UNL     1     -44.813 -36.349  36.725  1.00  0.00     0.041 C 
ATOM      3  O   UNL     1     -45.773 -35.843  37.366  1.00  0.00    -0.550 OA
ATOM      4  O   UNL     1     -44.763 -37.725  36.535  1.00  0.00    -0.550 OA
ENDBRANCH   1   2
BRANCH   1   5
ATOM      5  C   UNL     1     -42.475 -35.532  36.955  1.00  0.00     0.006 C 
BRANCH   5   6
ATOM      6  C   UNL     1     -41.255 -35.770  36.058  1.00  0.00    -0.003 C 
ATOM      7  C   UNL     1     -39.954 -35.524  36.819  1.00  0.00     0.004 C 
ENDBRANCH   5   6
ENDBRANCH   1   5
TORSDOF 3
ENDMDL
MODEL 2
REMARK VINA RESULT:    -3.290      0.961      1.791
REMARK INTER + INTRA:          -3.897
REMARK INTER:                  -3.861
REMARK INTRA:                  -0.036
REMARK UNBOUND:                -0.030
REMARK SMILES CCCCC(=O)[O-]
REMARK SMILES IDX 4 1 5 2 6 3 7 4 3 5 2 6 1 7
REMARK H PARENT
REMARK Flexibility Score: inf
ROOT
ATOM      1  C   UNL     1     -42.510 -35.421  37.075  1.00  0.00     0.053 C 
ENDROOT
BRANCH   1   2
ATOM      2  C   UNL     1     -43.886 -35.734  36.576  1.00  0.00     0.041 C 
ATOM      3  O   UNL     1     -44.270 -36.929  36.482  1.00  0.00    -0.550 OA
ATOM      4  O   UNL     1     -44.763 -34.703  36.263  1.00  0.00    -0.550 OA
ENDBRANCH   1   2
BRANCH   1   5
ATOM      5  C   UNL     1     -41.463 -35.773  36.015  1.00  0.00     0.006 C 
BRANCH   5   6
ATOM      6  C   UNL     1     -40.050 -35.739  36.606  1.00  0.00    -0.003 C 
ATOM      7  C   UNL     1     -40.059 -35.182  38.027  1.00  0.00     0.004 C 
ENDBRANCH   5   6
ENDBRANCH   1   5
TORSDOF 3
ENDMDL
MODEL 3
REMARK VINA RESULT:    -3.173      3.130      4.264
REMARK INTER + INTRA:          -3.759
REMARK INTER:                  -3.739
REMARK INTRA:                  -0.021
REMARK UNBOUND:                -0.030
REMARK SMILES CCCCC(=O)[O-]
REMARK SMILES IDX 4 1 5 2 6 3 7 4 3 5 2 6 1 7
REMARK H PARENT
REMARK Flexibility Score: inf
ROOT
ATOM      1  C   UNL     1     -41.577 -35.576  36.225  1.00  0.00     0.053 C 
ENDROOT
BRANCH   1   2
ATOM      2  C   UNL     1     -40.345 -35.099  36.925  1.00  0.00     0.041 C 
ATOM      3  O   UNL     1     -40.367 -34.031  37.593  1.00  0.00    -0.550 OA
ATOM      4  O   UNL     1     -39.182 -35.859  36.883  1.00  0.00    -0.550 OA
ENDBRANCH   1   2
BRANCH   1   5
ATOM      5  C   UNL     1     -42.797 -35.452  37.142  1.00  0.00     0.006 C 
BRANCH   5   6
ATOM      6  C   UNL     1     -44.097 -35.660  36.358  1.00  0.00    -0.003 C 
ATOM      7  C   UNL     1     -44.771 -36.973  36.746  1.00  0.00     0.004 C 
ENDBRANCH   5   6
ENDBRANCH   1   5
TORSDOF 3
ENDMDL
MODEL 4
REMARK VINA RESULT:    -3.090      3.731      4.798
REMARK INTER + INTRA:          -3.661
REMARK INTER:                  -3.625
REMARK INTRA:                  -0.037
REMARK UNBOUND:                -0.030
REMARK SMILES CCCCC(=O)[O-]
REMARK SMILES IDX 4 1 5 2 6 3 7 4 3 5 2 6 1 7
REMARK H PARENT
REMARK Flexibility Score: inf
ROOT
ATOM      1  C   UNL     1     -39.318 -35.872  37.556  1.00  0.00     0.053 C 
ENDROOT
BRANCH   1   2
ATOM      2  C   UNL     1     -39.280 -35.746  39.046  1.00  0.00     0.041 C 
ATOM      3  O   UNL     1     -39.671 -34.686  39.603  1.00  0.00    -0.550 OA
ATOM      4  O   UNL     1     -38.861 -36.818  39.825  1.00  0.00    -0.550 OA
ENDBRANCH   1   2
BRANCH   1   5
ATOM      5  C   UNL     1     -40.424 -34.990  36.970  1.00  0.00     0.006 C 
BRANCH   5   6
ATOM      6  C   UNL     1     -41.368 -35.809  36.083  1.00  0.00    -0.003 C 
ATOM      7  C   UNL     1     -42.821 -35.637  36.517  1.00  0.00     0.004 C 
ENDBRANCH   5   6
ENDBRANCH   1   5
TORSDOF 3
ENDMDL
MODEL 5
REMARK VINA RESULT:    -3.077      3.272      4.376
REMARK INTER + INTRA:          -3.646
REMARK INTER:                  -3.618
REMARK INTRA:                  -0.028
REMARK UNBOUND:                -0.030
REMARK SMILES CCCCC(=O)[O-]
REMARK SMILES IDX 4 1 5 2 6 3 7 4 3 5 2 6 1 7
REMARK H PARENT
REMARK Flexibility Score: inf
ROOT
ATOM      1  C   UNL     1     -39.563 -35.585  37.629  1.00  0.00     0.053 C 
ENDROOT
BRANCH   1   2
ATOM      2  C   UNL     1     -40.892 -35.403  36.968  1.00  0.00     0.041 C 
ATOM      3  O   UNL     1     -41.055 -35.745  35.767  1.00  0.00    -0.550 OA
ATOM      4  O   UNL     1     -41.967 -34.902  37.692  1.00  0.00    -0.550 OA
ENDBRANCH   1   2
BRANCH   1   5
ATOM      5  C   UNL     1     -39.678 -35.351  39.138  1.00  0.00     0.006 C 
BRANCH   5   6
ATOM      6  C   UNL     1     -38.928 -36.434  39.921  1.00  0.00    -0.003 C 
ATOM      7  C   UNL     1     -38.657 -35.991  41.356  1.00  0.00     0.004 C 
ENDBRANCH   5   6
ENDBRANCH   1   5
TORSDOF 3
ENDMDL
MODEL 6
REMARK VINA RESULT:    -3.068      2.503      3.765
REMARK INTER + INTRA:          -3.636
REMARK INTER:                  -3.548
REMARK INTRA:                  -0.088
REMARK UNBOUND:                -0.030
REMARK SMILES CCCCC(=O)[O-]
REMARK SMILES IDX 4 1 5 2 6 3 7 4 3 5 2 6 1 7
REMARK H PARENT
REMARK Flexibility Score: inf
ROOT
ATOM      1  C   UNL     1     -43.791 -35.633  36.794  1.00  0.00     0.053 C 
ENDROOT
BRANCH   1   2
ATOM      2  C   UNL     1     -43.112 -35.128  38.027  1.00  0.00     0.041 C 
ATOM      3  O   UNL     1     -43.648 -35.284  39.156  1.00  0.00    -0.550 OA
ATOM      4  O   UNL     1     -41.861 -34.529  37.936  1.00  0.00    -0.550 OA
ENDBRANCH   1   2
BRANCH   1   5
ATOM      5  C   UNL     1     -45.312 -35.521  36.935  1.00  0.00     0.006 C 
BRANCH   5   6
ATOM      6  C   UNL     1     -45.958 -36.907  37.035  1.00  0.00    -0.003 C 
ATOM      7  C   UNL     1     -44.996 -37.999  36.576  1.00  0.00     0.004 C 
ENDBRANCH   5   6
ENDBRANCH   1   5
TORSDOF 3
ENDMDL
MODEL 7
REMARK VINA RESULT:    -3.062      2.919      3.956
REMARK INTER + INTRA:          -3.628
REMARK INTER:                  -3.566
REMARK INTRA:                  -0.062
REMARK UNBOUND:                -0.030
REMARK SMILES CCCCC(=O)[O-]
REMARK SMILES IDX 4 1 5 2 6 3 7 4 3 5 2 6 1 7
REMARK H PARENT
REMARK Flexibility Score: inf
ROOT
ATOM      1  C   UNL     1     -45.250 -35.150  36.843  1.00  0.00     0.053 C 
ENDROOT
BRANCH   1   2
ATOM      2  C   UNL     1     -44.571 -34.019  37.548  1.00  0.00     0.041 C 
ATOM      3  O   UNL     1     -43.519 -34.224  38.210  1.00  0.00    -0.550 OA
ATOM      4  O   UNL     1     -45.070 -32.727  37.435  1.00  0.00    -0.550 OA
ENDBRANCH   1   2
BRANCH   1   5
ATOM      5  C   UNL     1     -44.277 -36.314  36.636  1.00  0.00     0.006 C 
BRANCH   5   6
ATOM      6  C   UNL     1     -45.009 -37.659  36.699  1.00  0.00    -0.003 C 
ATOM      7  C   UNL     1     -46.229 -37.582  37.613  1.00  0.00     0.004 C 
ENDBRANCH   5   6
ENDBRANCH   1   5
TORSDOF 3
ENDMDL
MODEL 8
REMARK VINA RESULT:    -3.050      2.996      3.979
REMARK INTER + INTRA:          -3.615
REMARK INTER:                  -3.512
REMARK INTRA:                  -0.103
REMARK UNBOUND:                -0.030
REMARK SMILES CCCCC(=O)[O-]
REMARK SMILES IDX 4 1 5 2 6 3 7 4 3 5 2 6 1 7
REMARK H PARENT
REMARK Flexibility Score: inf
ROOT
ATOM      1  C   UNL     1     -40.429 -33.784  38.455  1.00  0.00     0.053 C 
ENDROOT
BRANCH   1   2
ATOM      2  C   UNL     1     -41.773 -33.692  39.105  1.00  0.00     0.041 C 
ATOM      3  O   UNL     1     -42.814 -33.963  38.451  1.00  0.00    -0.550 OA
ATOM      4  O   UNL     1     -41.874 -33.355  40.450  1.00  0.00    -0.550 OA
ENDBRANCH   1   2
BRANCH   1   5
ATOM      5  C   UNL     1     -39.973 -35.243  38.370  1.00  0.00     0.006 C 
BRANCH   5   6
ATOM      6  C   UNL     1     -39.637 -35.631  36.926  1.00  0.00    -0.003 C 
ATOM      7  C   UNL     1     -40.904 -35.866  36.108  1.00  0.00     0.004 C 
ENDBRANCH   5   6
ENDBRANCH   1   5
TORSDOF 3
ENDMDL
MODEL 9
REMARK VINA RESULT:    -3.014     15.815     16.459
REMARK INTER + INTRA:          -3.573
REMARK INTER:                  -3.493
REMARK INTRA:                  -0.080
REMARK UNBOUND:                -0.030
REMARK SMILES CCCCC(=O)[O-]
REMARK SMILES IDX 4 1 5 2 6 3 7 4 3 5 2 6 1 7
REMARK H PARENT
REMARK Flexibility Score: inf
ROOT
ATOM      1  C   UNL     1     -50.675 -23.577  45.803  1.00  0.00     0.053 C 
ENDROOT
BRANCH   1   2
ATOM      2  C   UNL     1     -50.475 -24.629  44.758  1.00  0.00     0.041 C 
ATOM      3  O   UNL     1     -50.570 -25.848  45.060  1.00  0.00    -0.550 OA
ATOM      4  O   UNL     1     -50.235 -24.264  43.439  1.00  0.00    -0.550 OA
ENDBRANCH   1   2
BRANCH   1   5
ATOM      5  C   UNL     1     -49.543 -22.548  45.750  1.00  0.00     0.006 C 
BRANCH   5   6
ATOM      6  C   UNL     1     -48.227 -23.152  46.251  1.00  0.00    -0.003 C 
ATOM      7  C   UNL     1     -47.234 -22.063  46.648  1.00  0.00     0.004 C 
ENDBRANCH   5   6
ENDBRANCH   1   5
TORSDOF 3
ENDMDL
