MODEL 1
REMARK VINA RESULT:    -6.464      0.000      0.000
REMARK INTER + INTRA:          -7.311
REMARK INTER:                  -7.031
REMARK INTRA:                  -0.280
REMARK UNBOUND:                -0.280
REMARK SMILES C=C1C[C@@]2(O)O[C@@]3(C[C@@H]2C(C)C)[C@H](C)CC[C@H]13
REMARK SMILES IDX 14 1 13 2 15 3 16 4 17 5 7 6 8 7 9 8 4 9 6 10 3 11 2 12 1 13
REMARK SMILES IDX 10 14 11 15 12 16 5 17
REMARK H PARENT 5 18
REMARK Flexibility Score: inf
ROOT
ATOM      1  C   UNL     1      52.162 -31.883  -6.516  1.00  0.00     0.011 C 
ATOM      2  C   UNL     1      51.499 -33.064  -7.241  1.00  0.00     0.019 C 
ATOM      3  C   UNL     1      49.960 -33.091  -7.085  1.00  0.00     0.007 C 
ATOM      4  C   UNL     1      49.538 -34.574  -7.126  1.00  0.00     0.011 C 
ATOM      5  C   UNL     1      50.825 -35.313  -7.473  1.00  0.00     0.047 C 
ATOM      6  C   UNL     1      51.934 -34.478  -6.815  1.00  0.00     0.081 C 
ATOM      7  C   UNL     1      52.057 -34.684  -5.285  1.00  0.00     0.046 C 
ATOM      8  C   UNL     1      53.051 -35.842  -5.142  1.00  0.00     0.054 C 
ATOM      9  C   UNL     1      53.400 -36.127  -6.636  1.00  0.00     0.173 C 
ATOM     10  O   UNL     1      53.156 -34.917  -7.346  1.00  0.00    -0.342 OA
ATOM     11  C   UNL     1      52.454 -37.255  -7.167  1.00  0.00     0.096 C 
ATOM     12  C   UNL     1      51.012 -36.773  -7.143  1.00  0.00    -0.066 C 
ATOM     13  C   UNL     1      49.988 -37.632  -7.059  1.00  0.00     0.008 C 
ENDROOT
BRANCH   8  14
ATOM     14  C   UNL     1      54.280 -35.551  -4.210  1.00  0.00    -0.009 C 
ATOM     15  C   UNL     1      54.301 -36.525  -3.013  1.00  0.00     0.008 C 
ATOM     16  C   UNL     1      54.269 -34.117  -3.638  1.00  0.00     0.008 C 
ENDBRANCH   8  14
BRANCH   9  17
ATOM     17  O   UNL     1      54.740 -36.506  -6.812  1.00  0.00    -0.365 OA
ATOM     18  H   UNL     1      54.976 -37.108  -6.058  1.00  0.00     0.214 HD
ENDBRANCH   9  17
TORSDOF 2
ENDMDL
MODEL 2
REMARK VINA RESULT:    -6.416     15.804     18.454
REMARK INTER + INTRA:          -7.258
REMARK INTER:                  -6.957
REMARK INTRA:                  -0.302
REMARK UNBOUND:                -0.280
REMARK SMILES C=C1C[C@@]2(O)O[C@@]3(C[C@@H]2C(C)C)[C@H](C)CC[C@H]13
REMARK SMILES IDX 14 1 13 2 15 3 16 4 17 5 7 6 8 7 9 8 4 9 6 10 3 11 2 12 1 13
REMARK SMILES IDX 10 14 11 15 12 16 5 17
REMARK H PARENT 5 18
REMARK Flexibility Score: inf
ROOT
ATOM      1  C   UNL     1      36.628 -24.766  -5.137  1.00  0.00     0.011 C 
ATOM      2  C   UNL     1      37.919 -25.260  -5.809  1.00  0.00     0.019 C 
ATOM      3  C   UNL     1      39.100 -25.419  -4.823  1.00  0.00     0.007 C 
ATOM      4  C   UNL     1      40.387 -25.138  -5.625  1.00  0.00     0.011 C 
ATOM      5  C   UNL     1      39.900 -25.000  -7.063  1.00  0.00     0.047 C 
ATOM      6  C   UNL     1      38.500 -24.385  -6.935  1.00  0.00     0.081 C 
ATOM      7  C   UNL     1      38.502 -22.865  -6.637  1.00  0.00     0.046 C 
ATOM      8  C   UNL     1      38.498 -22.211  -8.024  1.00  0.00     0.054 C 
ATOM      9  C   UNL     1      38.457 -23.467  -8.948  1.00  0.00     0.173 C 
ATOM     10  O   UNL     1      37.872 -24.515  -8.182  1.00  0.00    -0.342 OA
ATOM     11  C   UNL     1      39.922 -23.851  -9.342  1.00  0.00     0.096 C 
ATOM     12  C   UNL     1      40.701 -24.253  -8.100  1.00  0.00    -0.066 C 
ATOM     13  C   UNL     1      42.035 -24.147  -8.046  1.00  0.00     0.008 C 
ENDROOT
BRANCH   8  14
ATOM     14  C   UNL     1      37.353 -21.164  -8.261  1.00  0.00    -0.009 C 
ATOM     15  C   UNL     1      37.792 -19.759  -7.798  1.00  0.00     0.008 C 
ATOM     16  C   UNL     1      36.055 -21.516  -7.503  1.00  0.00     0.008 C 
ENDBRANCH   8  14
BRANCH   9  17
ATOM     17  O   UNL     1      37.692 -23.256 -10.107  1.00  0.00    -0.365 OA
ATOM     18  H   UNL     1      37.926 -23.976 -10.748  1.00  0.00     0.214 HD
ENDBRANCH   9  17
TORSDOF 2
ENDMDL
MODEL 3
REMARK VINA RESULT:    -6.227      1.818      4.216
REMARK INTER + INTRA:          -7.053
REMARK INTER:                  -6.812
REMARK INTRA:                  -0.241
REMARK UNBOUND:                -0.280
REMARK SMILES C=C1C[C@@]2(O)O[C@@]3(C[C@@H]2C(C)C)[C@H](C)CC[C@H]13
REMARK SMILES IDX 14 1 13 2 15 3 16 4 17 5 7 6 8 7 9 8 4 9 6 10 3 11 2 12 1 13
REMARK SMILES IDX 10 14 11 15 12 16 5 17
REMARK H PARENT 5 18
REMARK Flexibility Score: inf
ROOT
ATOM      1  C   UNL     1      54.873 -33.948  -6.198  1.00  0.00     0.011 C 
ATOM      2  C   UNL     1      54.151 -35.300  -6.096  1.00  0.00     0.019 C 
ATOM      3  C   UNL     1      54.674 -36.350  -7.107  1.00  0.00     0.007 C 
ATOM      4  C   UNL     1      53.479 -37.263  -7.453  1.00  0.00     0.011 C 
ATOM      5  C   UNL     1      52.379 -36.804  -6.502  1.00  0.00     0.047 C 
ATOM      6  C   UNL     1      52.629 -35.300  -6.326  1.00  0.00     0.081 C 
ATOM      7  C   UNL     1      52.155 -34.436  -7.522  1.00  0.00     0.046 C 
ATOM      8  C   UNL     1      50.704 -34.083  -7.177  1.00  0.00     0.054 C 
ATOM      9  C   UNL     1      50.548 -34.774  -5.787  1.00  0.00     0.173 C 
ATOM     10  O   UNL     1      51.857 -34.874  -5.235  1.00  0.00    -0.342 OA
ATOM     11  C   UNL     1      49.950 -36.204  -5.999  1.00  0.00     0.096 C 
ATOM     12  C   UNL     1      50.922 -37.056  -6.799  1.00  0.00    -0.066 C 
ATOM     13  C   UNL     1      50.503 -38.095  -7.533  1.00  0.00     0.008 C 
ENDROOT
BRANCH   8  14
ATOM     14  C   UNL     1      50.368 -32.550  -7.207  1.00  0.00    -0.009 C 
ATOM     15  C   UNL     1      49.025 -32.298  -7.924  1.00  0.00     0.008 C 
ATOM     16  C   UNL     1      51.445 -31.717  -7.936  1.00  0.00     0.008 C 
ENDBRANCH   8  14
BRANCH   9  17
ATOM     17  O   UNL     1      49.730 -34.041  -4.912  1.00  0.00    -0.365 OA
ATOM     18  H   UNL     1      49.682 -33.113  -5.263  1.00  0.00     0.214 HD
ENDBRANCH   9  17
TORSDOF 2
ENDMDL
MODEL 4
REMARK VINA RESULT:    -6.192     13.836     15.570
REMARK INTER + INTRA:          -7.014
REMARK INTER:                  -6.706
REMARK INTRA:                  -0.309
REMARK UNBOUND:                -0.280
REMARK SMILES C=C1C[C@@]2(O)O[C@@]3(C[C@@H]2C(C)C)[C@H](C)CC[C@H]13
REMARK SMILES IDX 14 1 13 2 15 3 16 4 17 5 7 6 8 7 9 8 4 9 6 10 3 11 2 12 1 13
REMARK SMILES IDX 10 14 11 15 12 16 5 17
REMARK H PARENT 5 18
REMARK Flexibility Score: inf
ROOT
ATOM      1  C   UNL     1      50.512 -26.385   9.386  1.00  0.00     0.011 C 
ATOM      2  C   UNL     1      49.120 -26.296   8.743  1.00  0.00     0.019 C 
ATOM      3  C   UNL     1      48.025 -27.030   9.552  1.00  0.00     0.007 C 
ATOM      4  C   UNL     1      46.984 -27.534   8.531  1.00  0.00     0.011 C 
ATOM      5  C   UNL     1      47.439 -26.922   7.211  1.00  0.00     0.047 C 
ATOM      6  C   UNL     1      48.969 -26.869   7.322  1.00  0.00     0.081 C 
ATOM      7  C   UNL     1      49.667 -28.234   7.097  1.00  0.00     0.046 C 
ATOM      8  C   UNL     1      49.927 -28.276   5.587  1.00  0.00     0.054 C 
ATOM      9  C   UNL     1      49.367 -26.889   5.145  1.00  0.00     0.173 C 
ATOM     10  O   UNL     1      49.433 -26.043   6.288  1.00  0.00    -0.342 OA
ATOM     11  C   UNL     1      47.876 -27.066   4.700  1.00  0.00     0.096 C 
ATOM     12  C   UNL     1      47.035 -27.516   5.885  1.00  0.00    -0.066 C 
ATOM     13  C   UNL     1      45.898 -28.202   5.715  1.00  0.00     0.008 C 
ENDROOT
BRANCH   8  14
ATOM     14  C   UNL     1      51.415 -28.560   5.177  1.00  0.00    -0.009 C 
ATOM     15  C   UNL     1      51.637 -30.068   4.930  1.00  0.00     0.008 C 
ATOM     16  C   UNL     1      52.427 -28.115   6.256  1.00  0.00     0.008 C 
ENDBRANCH   8  14
BRANCH   9  17
ATOM     17  O   UNL     1      50.110 -26.317   4.100  1.00  0.00    -0.365 OA
ATOM     18  H   UNL     1      49.710 -25.429   3.907  1.00  0.00     0.214 HD
ENDBRANCH   9  17
TORSDOF 2
ENDMDL
MODEL 5
REMARK VINA RESULT:    -6.136      1.589      4.182
REMARK INTER + INTRA:          -6.954
REMARK INTER:                  -6.717
REMARK INTRA:                  -0.236
REMARK UNBOUND:                -0.280
REMARK SMILES C=C1C[C@@]2(O)O[C@@]3(C[C@@H]2C(C)C)[C@H](C)CC[C@H]13
REMARK SMILES IDX 14 1 13 2 15 3 16 4 17 5 7 6 8 7 9 8 4 9 6 10 3 11 2 12 1 13
REMARK SMILES IDX 10 14 11 15 12 16 5 17
REMARK H PARENT 5 18
REMARK Flexibility Score: inf
ROOT
ATOM      1  C   UNL     1      54.124 -36.515  -3.074  1.00  0.00     0.011 C 
ATOM      2  C   UNL     1      54.461 -35.509  -4.185  1.00  0.00     0.019 C 
ATOM      3  C   UNL     1      54.208 -34.038  -3.775  1.00  0.00     0.007 C 
ATOM      4  C   UNL     1      53.820 -33.281  -5.062  1.00  0.00     0.011 C 
ATOM      5  C   UNL     1      54.033 -34.307  -6.169  1.00  0.00     0.047 C 
ATOM      6  C   UNL     1      53.696 -35.653  -5.513  1.00  0.00     0.081 C 
ATOM      7  C   UNL     1      52.178 -35.919  -5.360  1.00  0.00     0.046 C 
ATOM      8  C   UNL     1      51.788 -36.627  -6.663  1.00  0.00     0.054 C 
ATOM      9  C   UNL     1      53.168 -36.706  -7.387  1.00  0.00     0.173 C 
ATOM     10  O   UNL     1      54.163 -36.662  -6.369  1.00  0.00    -0.342 OA
ATOM     11  C   UNL     1      53.316 -35.464  -8.328  1.00  0.00     0.096 C 
ATOM     12  C   UNL     1      53.333 -34.189  -7.500  1.00  0.00    -0.066 C 
ATOM     13  C   UNL     1      52.957 -33.013  -8.018  1.00  0.00     0.008 C 
ENDROOT
BRANCH   8  14
ATOM     14  C   UNL     1      51.047 -37.998  -6.479  1.00  0.00    -0.009 C 
ATOM     15  C   UNL     1      49.856 -38.112  -7.454  1.00  0.00     0.008 C 
ATOM     16  C   UNL     1      50.494 -38.190  -5.050  1.00  0.00     0.008 C 
ENDBRANCH   8  14
BRANCH   9  17
ATOM     17  O   UNL     1      53.317 -37.887  -8.131  1.00  0.00    -0.365 OA
ATOM     18  H   UNL     1      52.844 -38.607  -7.637  1.00  0.00     0.214 HD
ENDBRANCH   9  17
TORSDOF 2
ENDMDL
MODEL 6
REMARK VINA RESULT:    -6.006     16.840     19.530
REMARK INTER + INTRA:          -6.812
REMARK INTER:                  -6.580
REMARK INTRA:                  -0.233
REMARK UNBOUND:                -0.280
REMARK SMILES C=C1C[C@@]2(O)O[C@@]3(C[C@@H]2C(C)C)[C@H](C)CC[C@H]13
REMARK SMILES IDX 14 1 13 2 15 3 16 4 17 5 7 6 8 7 9 8 4 9 6 10 3 11 2 12 1 13
REMARK SMILES IDX 10 14 11 15 12 16 5 17
REMARK H PARENT 5 18
REMARK Flexibility Score: inf
ROOT
ATOM      1  C   UNL     1      37.381 -24.489  -9.007  1.00  0.00     0.011 C 
ATOM      2  C   UNL     1      36.734 -23.218  -8.435  1.00  0.00     0.019 C 
ATOM      3  C   UNL     1      37.178 -21.926  -9.160  1.00  0.00     0.007 C 
ATOM      4  C   UNL     1      37.141 -20.795  -8.111  1.00  0.00     0.011 C 
ATOM      5  C   UNL     1      36.517 -21.452  -6.886  1.00  0.00     0.047 C 
ATOM      6  C   UNL     1      36.994 -22.910  -6.949  1.00  0.00     0.081 C 
ATOM      7  C   UNL     1      38.460 -23.116  -6.493  1.00  0.00     0.046 C 
ATOM      8  C   UNL     1      38.350 -23.374  -4.985  1.00  0.00     0.054 C 
ATOM      9  C   UNL     1      36.805 -23.318  -4.782  1.00  0.00     0.173 C 
ATOM     10  O   UNL     1      36.218 -23.642  -6.038  1.00  0.00    -0.342 OA
ATOM     11  C   UNL     1      36.404 -21.862  -4.369  1.00  0.00     0.096 C 
ATOM     12  C   UNL     1      36.727 -20.898  -5.499  1.00  0.00    -0.066 C 
ATOM     13  C   UNL     1      36.960 -19.600  -5.267  1.00  0.00     0.008 C 
ENDROOT
BRANCH   8  14
ATOM     14  C   UNL     1      39.046 -24.689  -4.485  1.00  0.00    -0.009 C 
ATOM     15  C   UNL     1      39.813 -24.436  -3.170  1.00  0.00     0.008 C 
ATOM     16  C   UNL     1      40.055 -25.257  -5.507  1.00  0.00     0.008 C 
ENDBRANCH   8  14
BRANCH   9  17
ATOM     17  O   UNL     1      36.357 -24.228  -3.812  1.00  0.00    -0.365 OA
ATOM     18  H   UNL     1      36.546 -25.140  -4.156  1.00  0.00     0.214 HD
ENDBRANCH   9  17
TORSDOF 2
ENDMDL
MODEL 7
REMARK VINA RESULT:    -5.995      1.915      5.292
REMARK INTER + INTRA:          -6.801
REMARK INTER:                  -6.505
REMARK INTRA:                  -0.296
REMARK UNBOUND:                -0.280
REMARK SMILES C=C1C[C@@]2(O)O[C@@]3(C[C@@H]2C(C)C)[C@H](C)CC[C@H]13
REMARK SMILES IDX 14 1 13 2 15 3 16 4 17 5 7 6 8 7 9 8 4 9 6 10 3 11 2 12 1 13
REMARK SMILES IDX 10 14 11 15 12 16 5 17
REMARK H PARENT 5 18
REMARK Flexibility Score: inf
ROOT
ATOM      1  C   UNL     1      53.142 -35.771  -5.151  1.00  0.00     0.011 C 
ATOM      2  C   UNL     1      54.123 -34.707  -5.667  1.00  0.00     0.019 C 
ATOM      3  C   UNL     1      54.738 -33.844  -4.539  1.00  0.00     0.007 C 
ATOM      4  C   UNL     1      55.011 -32.452  -5.147  1.00  0.00     0.011 C 
ATOM      5  C   UNL     1      54.701 -32.632  -6.628  1.00  0.00     0.047 C 
ATOM      6  C   UNL     1      53.570 -33.669  -6.659  1.00  0.00     0.081 C 
ATOM      7  C   UNL     1      52.178 -33.097  -6.289  1.00  0.00     0.046 C 
ATOM      8  C   UNL     1      51.593 -32.639  -7.630  1.00  0.00     0.054 C 
ATOM      9  C   UNL     1      52.733 -33.050  -8.613  1.00  0.00     0.173 C 
ATOM     10  O   UNL     1      53.446 -34.111  -7.985  1.00  0.00    -0.342 OA
ATOM     11  C   UNL     1      53.682 -31.824  -8.825  1.00  0.00     0.096 C 
ATOM     12  C   UNL     1      54.354 -31.459  -7.510  1.00  0.00    -0.066 C 
ATOM     13  C   UNL     1      54.797 -30.218  -7.272  1.00  0.00     0.008 C 
ENDROOT
BRANCH   8  14
ATOM     14  C   UNL     1      50.174 -33.219  -7.968  1.00  0.00    -0.009 C 
ATOM     15  C   UNL     1      49.097 -32.117  -7.876  1.00  0.00     0.008 C 
ATOM     16  C   UNL     1      49.752 -34.359  -7.016  1.00  0.00     0.008 C 
ENDBRANCH   8  14
BRANCH   9  17
ATOM     17  O   UNL     1      52.241 -33.491  -9.852  1.00  0.00    -0.365 OA
ATOM     18  H   UNL     1      52.289 -34.483  -9.851  1.00  0.00     0.214 HD
ENDBRANCH   9  17
TORSDOF 2
ENDMDL
MODEL 8
REMARK VINA RESULT:    -5.930      1.876      2.863
REMARK INTER + INTRA:          -6.730
REMARK INTER:                  -6.435
REMARK INTRA:                  -0.295
REMARK UNBOUND:                -0.280
REMARK SMILES C=C1C[C@@]2(O)O[C@@]3(C[C@@H]2C(C)C)[C@H](C)CC[C@H]13
REMARK SMILES IDX 14 1 13 2 15 3 16 4 17 5 7 6 8 7 9 8 4 9 6 10 3 11 2 12 1 13
REMARK SMILES IDX 10 14 11 15 12 16 5 17
REMARK H PARENT 5 18
REMARK Flexibility Score: inf
ROOT
ATOM      1  C   UNL     1      54.556 -33.657  -9.685  1.00  0.00     0.011 C 
ATOM      2  C   UNL     1      53.028 -33.507  -9.629  1.00  0.00     0.019 C 
ATOM      3  C   UNL     1      52.560 -32.033  -9.558  1.00  0.00     0.007 C 
ATOM      4  C   UNL     1      51.242 -32.026  -8.757  1.00  0.00     0.011 C 
ATOM      5  C   UNL     1      50.927 -33.504  -8.555  1.00  0.00     0.047 C 
ATOM      6  C   UNL     1      52.303 -34.176  -8.447  1.00  0.00     0.081 C 
ATOM      7  C   UNL     1      52.993 -33.987  -7.073  1.00  0.00     0.046 C 
ATOM      8  C   UNL     1      52.510 -35.182  -6.243  1.00  0.00     0.054 C 
ATOM      9  C   UNL     1      51.620 -35.931  -7.283  1.00  0.00     0.173 C 
ATOM     10  O   UNL     1      52.102 -35.559  -8.571  1.00  0.00    -0.342 OA
ATOM     11  C   UNL     1      50.139 -35.457  -7.112  1.00  0.00     0.096 C 
ATOM     12  C   UNL     1      50.031 -33.975  -7.437  1.00  0.00    -0.066 C 
ATOM     13  C   UNL     1      49.056 -33.215  -6.922  1.00  0.00     0.008 C 
ENDROOT
BRANCH   8  14
ATOM     14  C   UNL     1      53.650 -36.042  -5.592  1.00  0.00    -0.009 C 
ATOM     15  C   UNL     1      54.073 -35.449  -4.231  1.00  0.00     0.008 C 
ATOM     16  C   UNL     1      54.915 -36.123  -6.474  1.00  0.00     0.008 C 
ENDBRANCH   8  14
BRANCH   9  17
ATOM     17  O   UNL     1      51.693 -37.326  -7.146  1.00  0.00    -0.365 OA
ATOM     18  H   UNL     1      52.421 -37.642  -7.742  1.00  0.00     0.214 HD
ENDBRANCH   9  17
TORSDOF 2
ENDMDL
MODEL 9
REMARK VINA RESULT:    -5.911      1.951      3.912
REMARK INTER + INTRA:          -6.709
REMARK INTER:                  -6.412
REMARK INTRA:                  -0.298
REMARK UNBOUND:                -0.280
REMARK SMILES C=C1C[C@@]2(O)O[C@@]3(C[C@@H]2C(C)C)[C@H](C)CC[C@H]13
REMARK SMILES IDX 14 1 13 2 15 3 16 4 17 5 7 6 8 7 9 8 4 9 6 10 3 11 2 12 1 13
REMARK SMILES IDX 10 14 11 15 12 16 5 17
REMARK H PARENT 5 18
REMARK Flexibility Score: inf
ROOT
ATOM      1  C   UNL     1      49.760 -32.372  -7.925  1.00  0.00     0.011 C 
ATOM      2  C   UNL     1      51.286 -32.193  -7.927  1.00  0.00     0.019 C 
ATOM      3  C   UNL     1      51.838 -31.660  -9.271  1.00  0.00     0.007 C 
ATOM      4  C   UNL     1      53.257 -32.245  -9.429  1.00  0.00     0.011 C 
ATOM      5  C   UNL     1      53.517 -32.940  -8.098  1.00  0.00     0.047 C 
ATOM      6  C   UNL     1      52.137 -33.447  -7.655  1.00  0.00     0.081 C 
ATOM      7  C   UNL     1      51.664 -34.723  -8.396  1.00  0.00     0.046 C 
ATOM      8  C   UNL     1      52.197 -35.874  -7.534  1.00  0.00     0.054 C 
ATOM      9  C   UNL     1      52.885 -35.090  -6.375  1.00  0.00     0.173 C 
ATOM     10  O   UNL     1      52.243 -33.820  -6.307  1.00  0.00    -0.342 OA
ATOM     11  C   UNL     1      54.399 -34.902  -6.722  1.00  0.00     0.096 C 
ATOM     12  C   UNL     1      54.539 -34.042  -7.969  1.00  0.00    -0.066 C 
ATOM     13  C   UNL     1      55.617 -34.125  -8.759  1.00  0.00     0.008 C 
ENDROOT
BRANCH   8  14
ATOM     14  C   UNL     1      51.118 -36.923  -7.088  1.00  0.00    -0.009 C 
ATOM     15  C   UNL     1      50.942 -38.018  -8.162  1.00  0.00     0.008 C 
ATOM     16  C   UNL     1      49.732 -36.288  -6.844  1.00  0.00     0.008 C 
ENDBRANCH   8  14
BRANCH   9  17
ATOM     17  O   UNL     1      52.758 -35.740  -5.137  1.00  0.00    -0.365 OA
ATOM     18  H   UNL     1      52.525 -36.687  -5.325  1.00  0.00     0.214 HD
ENDBRANCH   9  17
TORSDOF 2
ENDMDL
