MODEL 1
REMARK VINA RESULT:    -3.852      0.000      0.000
REMARK INTER + INTRA:          -4.588
REMARK INTER:                  -4.527
REMARK INTRA:                  -0.061
REMARK UNBOUND:                -0.061
REMARK SMILES CCCCC(=O)[O-]
REMARK SMILES IDX 4 1 5 2 6 3 7 4 3 5 2 6 1 7
REMARK H PARENT
REMARK Flexibility Score: inf
ROOT
ATOM      1  C   UNL     1       2.451  21.801 -19.506  1.00  0.00     0.053 C 
ENDROOT
BRANCH   1   2
ATOM      2  C   UNL     1       2.316  22.269 -18.091  1.00  0.00     0.041 C 
ATOM      3  O   UNL     1       3.086  23.159 -17.642  1.00  0.00    -0.550 OA
ATOM      4  O   UNL     1       1.375  21.687 -17.253  1.00  0.00    -0.550 OA
ENDBRANCH   1   2
BRANCH   1   5
ATOM      5  C   UNL     1       1.476  20.651 -19.785  1.00  0.00     0.006 C 
BRANCH   5   6
ATOM      6  C   UNL     1       2.187  19.381 -20.277  1.00  0.00    -0.003 C 
ATOM      7  C   UNL     1       3.503  19.681 -20.996  1.00  0.00     0.004 C 
ENDBRANCH   5   6
ENDBRANCH   1   5
TORSDOF 3
ENDMDL
MODEL 2
REMARK VINA RESULT:    -3.793      2.276      3.462
REMARK INTER + INTRA:          -4.520
REMARK INTER:                  -4.407
REMARK INTRA:                  -0.112
REMARK UNBOUND:                -0.061
REMARK SMILES CCCCC(=O)[O-]
REMARK SMILES IDX 4 1 5 2 6 3 7 4 3 5 2 6 1 7
REMARK H PARENT
REMARK Flexibility Score: inf
ROOT
ATOM      1  C   UNL     1       1.223  20.945 -19.498  1.00  0.00     0.053 C 
ENDROOT
BRANCH   1   2
ATOM      2  C   UNL     1       2.459  20.635 -20.282  1.00  0.00     0.041 C 
ATOM      3  O   UNL     1       3.199  21.568 -20.693  1.00  0.00    -0.550 OA
ATOM      4  O   UNL     1       2.768  19.320 -20.602  1.00  0.00    -0.550 OA
ENDBRANCH   1   2
BRANCH   1   5
ATOM      5  C   UNL     1       1.368  22.291 -18.777  1.00  0.00     0.006 C 
BRANCH   5   6
ATOM      6  C   UNL     1       1.840  22.133 -17.324  1.00  0.00    -0.003 C 
ATOM      7  C   UNL     1       3.291  22.572 -17.122  1.00  0.00     0.004 C 
ENDBRANCH   5   6
ENDBRANCH   1   5
TORSDOF 3
ENDMDL
MODEL 3
REMARK VINA RESULT:    -3.790      2.223      3.581
REMARK INTER + INTRA:          -4.515
REMARK INTER:                  -4.395
REMARK INTRA:                  -0.120
REMARK UNBOUND:                -0.061
REMARK SMILES CCCCC(=O)[O-]
REMARK SMILES IDX 4 1 5 2 6 3 7 4 3 5 2 6 1 7
REMARK H PARENT
REMARK Flexibility Score: inf
ROOT
ATOM      1  C   UNL     1       1.131  20.840 -19.530  1.00  0.00     0.053 C 
ENDROOT
BRANCH   1   2
ATOM      2  C   UNL     1       2.416  20.599 -20.257  1.00  0.00     0.041 C 
ATOM      3  O   UNL     1       2.777  19.424 -20.533  1.00  0.00    -0.550 OA
ATOM      4  O   UNL     1       3.241  21.667 -20.583  1.00  0.00    -0.550 OA
ENDBRANCH   1   2
BRANCH   1   5
ATOM      5  C   UNL     1       1.218  22.127 -18.701  1.00  0.00     0.006 C 
BRANCH   5   6
ATOM      6  C   UNL     1       1.753  21.879 -17.282  1.00  0.00    -0.003 C 
ATOM      7  C   UNL     1       3.120  22.522 -17.045  1.00  0.00     0.004 C 
ENDBRANCH   5   6
ENDBRANCH   1   5
TORSDOF 3
ENDMDL
MODEL 4
REMARK VINA RESULT:    -3.615      9.140     10.157
REMARK INTER + INTRA:          -4.310
REMARK INTER:                  -4.227
REMARK INTRA:                  -0.082
REMARK UNBOUND:                -0.061
REMARK SMILES CCCCC(=O)[O-]
REMARK SMILES IDX 4 1 5 2 6 3 7 4 3 5 2 6 1 7
REMARK H PARENT
REMARK Flexibility Score: inf
ROOT
ATOM      1  C   UNL     1       8.566  25.469 -12.374  1.00  0.00     0.053 C 
ENDROOT
BRANCH   1   2
ATOM      2  C   UNL     1       7.151  25.750 -12.772  1.00  0.00     0.041 C 
ATOM      3  O   UNL     1       6.826  26.892 -13.193  1.00  0.00    -0.550 OA
ATOM      4  O   UNL     1       6.181  24.768 -12.629  1.00  0.00    -0.550 OA
ENDBRANCH   1   2
BRANCH   1   5
ATOM      5  C   UNL     1       8.673  24.088 -11.717  1.00  0.00     0.006 C 
BRANCH   5   6
ATOM      6  C   UNL     1       8.625  24.159 -10.183  1.00  0.00    -0.003 C 
ATOM      7  C   UNL     1       7.758  23.060  -9.567  1.00  0.00     0.004 C 
ENDBRANCH   5   6
ENDBRANCH   1   5
TORSDOF 3
ENDMDL
MODEL 5
REMARK VINA RESULT:    -3.473     13.327     14.234
REMARK INTER + INTRA:          -4.143
REMARK INTER:                  -4.120
REMARK INTRA:                  -0.022
REMARK UNBOUND:                -0.061
REMARK SMILES CCCCC(=O)[O-]
REMARK SMILES IDX 4 1 5 2 6 3 7 4 3 5 2 6 1 7
REMARK H PARENT
REMARK Flexibility Score: inf
ROOT
ATOM      1  C   UNL     1      -5.892  32.141 -16.682  1.00  0.00     0.053 C 
ENDROOT
BRANCH   1   2
ATOM      2  C   UNL     1      -7.236  32.577 -16.188  1.00  0.00     0.041 C 
ATOM      3  O   UNL     1      -7.606  32.288 -15.020  1.00  0.00    -0.550 OA
ATOM      4  O   UNL     1      -8.100  33.257 -17.035  1.00  0.00    -0.550 OA
ENDBRANCH   1   2
BRANCH   1   5
ATOM      5  C   UNL     1      -5.924  31.924 -18.200  1.00  0.00     0.006 C 
BRANCH   5   6
ATOM      6  C   UNL     1      -4.547  31.551 -18.771  1.00  0.00    -0.003 C 
ATOM      7  C   UNL     1      -3.542  32.701 -18.693  1.00  0.00     0.004 C 
ENDBRANCH   5   6
ENDBRANCH   1   5
TORSDOF 3
ENDMDL
MODEL 6
REMARK VINA RESULT:    -3.393     12.421     13.607
REMARK INTER + INTRA:          -4.049
REMARK INTER:                  -3.965
REMARK INTRA:                  -0.085
REMARK UNBOUND:                -0.061
REMARK SMILES CCCCC(=O)[O-]
REMARK SMILES IDX 4 1 5 2 6 3 7 4 3 5 2 6 1 7
REMARK H PARENT
REMARK Flexibility Score: inf
ROOT
ATOM      1  C   UNL     1      -4.552  31.536 -18.864  1.00  0.00     0.053 C 
ENDROOT
BRANCH   1   2
ATOM      2  C   UNL     1      -3.534  32.594 -18.574  1.00  0.00     0.041 C 
ATOM      3  O   UNL     1      -2.428  32.283 -18.058  1.00  0.00    -0.550 OA
ATOM      4  O   UNL     1      -3.826  33.928 -18.825  1.00  0.00    -0.550 OA
ENDBRANCH   1   2
BRANCH   1   5
ATOM      5  C   UNL     1      -5.909  31.920 -18.261  1.00  0.00     0.006 C 
BRANCH   5   6
ATOM      6  C   UNL     1      -5.934  31.785 -16.731  1.00  0.00    -0.003 C 
ATOM      7  C   UNL     1      -7.122  32.507 -16.093  1.00  0.00     0.004 C 
ENDBRANCH   5   6
ENDBRANCH   1   5
TORSDOF 3
ENDMDL
MODEL 7
REMARK VINA RESULT:    -3.304      9.015     10.613
REMARK INTER + INTRA:          -3.944
REMARK INTER:                  -3.926
REMARK INTRA:                  -0.018
REMARK UNBOUND:                -0.061
REMARK SMILES CCCCC(=O)[O-]
REMARK SMILES IDX 4 1 5 2 6 3 7 4 3 5 2 6 1 7
REMARK H PARENT
REMARK Flexibility Score: inf
ROOT
ATOM      1  C   UNL     1       6.914  26.825 -13.071  1.00  0.00     0.053 C 
ENDROOT
BRANCH   1   2
ATOM      2  C   UNL     1       7.032  25.368 -12.753  1.00  0.00     0.041 C 
ATOM      3  O   UNL     1       8.057  24.724 -13.100  1.00  0.00    -0.550 OA
ATOM      4  O   UNL     1       5.987  24.708 -12.119  1.00  0.00    -0.550 OA
ENDBRANCH   1   2
BRANCH   1   5
ATOM      5  C   UNL     1       8.225  27.552 -12.748  1.00  0.00     0.006 C 
BRANCH   5   6
ATOM      6  C   UNL     1       8.047  29.075 -12.653  1.00  0.00    -0.003 C 
ATOM      7  C   UNL     1       9.379  29.824 -12.601  1.00  0.00     0.004 C 
ENDBRANCH   5   6
ENDBRANCH   1   5
TORSDOF 3
ENDMDL
MODEL 8
REMARK VINA RESULT:    -3.302      9.602     10.361
REMARK INTER + INTRA:          -3.942
REMARK INTER:                  -3.890
REMARK INTRA:                  -0.052
REMARK UNBOUND:                -0.061
REMARK SMILES CCCCC(=O)[O-]
REMARK SMILES IDX 4 1 5 2 6 3 7 4 3 5 2 6 1 7
REMARK H PARENT
REMARK Flexibility Score: inf
ROOT
ATOM      1  C   UNL     1       8.526  25.704 -12.160  1.00  0.00     0.053 C 
ENDROOT
BRANCH   1   2
ATOM      2  C   UNL     1       8.913  24.331 -12.611  1.00  0.00     0.041 C 
ATOM      3  O   UNL     1       9.254  24.128 -13.806  1.00  0.00    -0.550 OA
ATOM      4  O   UNL     1       8.848  23.265 -11.724  1.00  0.00    -0.550 OA
ENDBRANCH   1   2
BRANCH   1   5
ATOM      5  C   UNL     1       7.248  26.162 -12.875  1.00  0.00     0.006 C 
BRANCH   5   6
ATOM      6  C   UNL     1       7.245  27.670 -13.167  1.00  0.00    -0.003 C 
ATOM      7  C   UNL     1       8.547  28.357 -12.749  1.00  0.00     0.004 C 
ENDBRANCH   5   6
ENDBRANCH   1   5
TORSDOF 3
ENDMDL
MODEL 9
REMARK VINA RESULT:    -3.279      9.843     10.622
REMARK INTER + INTRA:          -3.915
REMARK INTER:                  -3.870
REMARK INTRA:                  -0.045
REMARK UNBOUND:                -0.061
REMARK SMILES CCCCC(=O)[O-]
REMARK SMILES IDX 4 1 5 2 6 3 7 4 3 5 2 6 1 7
REMARK H PARENT
REMARK Flexibility Score: inf
ROOT
ATOM      1  C   UNL     1       8.517  25.562 -12.207  1.00  0.00     0.053 C 
ENDROOT
BRANCH   1   2
ATOM      2  C   UNL     1       9.269  25.167 -13.439  1.00  0.00     0.041 C 
ATOM      3  O   UNL     1       9.278  23.966 -13.818  1.00  0.00    -0.550 OA
ATOM      4  O   UNL     1      10.003  26.115 -14.139  1.00  0.00    -0.550 OA
ENDBRANCH   1   2
BRANCH   1   5
ATOM      5  C   UNL     1       7.895  24.329 -11.541  1.00  0.00     0.006 C 
BRANCH   5   6
ATOM      6  C   UNL     1       8.487  24.048 -10.151  1.00  0.00    -0.003 C 
ATOM      7  C   UNL     1       7.732  22.953  -9.397  1.00  0.00     0.004 C 
ENDBRANCH   5   6
ENDBRANCH   1   5
TORSDOF 3
ENDMDL
