MODEL 1
REMARK VINA RESULT:    -4.386      0.000      0.000
REMARK INTER + INTRA:          -9.839
REMARK INTER:                  -8.232
REMARK INTRA:                  -1.607
REMARK UNBOUND:                -1.607
REMARK SMILES O=C([O-])CCCCCCCCCCCCCCC(=O)[O-]
REMARK SMILES IDX 10 1 9 2 8 3 7 4 6 5 5 6 4 7 2 8 1 9 3 10 11 11 12 12 13 13
REMARK SMILES IDX 14 14 15 15 16 16 17 17 18 18 19 19 20 20
REMARK H PARENT
REMARK Flexibility Score: inf
ROOT
ATOM      1  C   UNL     1     -44.861 -37.407  36.770  1.00  0.00     0.000 C 
ENDROOT
BRANCH   1   2
ATOM      2  C   UNL     1     -44.494 -35.919  36.602  1.00  0.00     0.000 C 
BRANCH   2   3
ATOM      3  C   UNL     1     -43.047 -35.554  36.979  1.00  0.00     0.000 C 
BRANCH   3   4
ATOM      4  C   UNL     1     -42.032 -35.931  35.885  1.00  0.00     0.000 C 
BRANCH   4   5
ATOM      5  C   UNL     1     -40.577 -35.723  36.332  1.00  0.00     0.000 C 
BRANCH   5   6
ATOM      6  C   UNL     1     -40.458 -34.823  37.572  1.00  0.00     0.006 C 
BRANCH   6   7
ATOM      7  C   UNL     1     -39.637 -35.507  38.670  1.00  0.00     0.053 C 
BRANCH   7   8
ATOM      8  C   UNL     1     -39.921 -34.887  40.001  1.00  0.00     0.041 C 
ATOM      9  O   UNL     1     -40.863 -34.061  40.126  1.00  0.00    -0.550 OA
ATOM     10  O   UNL     1     -39.118 -35.185  41.093  1.00  0.00    -0.550 OA
ENDBRANCH   7   8
ENDBRANCH   6   7
ENDBRANCH   5   6
ENDBRANCH   4   5
ENDBRANCH   3   4
ENDBRANCH   2   3
ENDBRANCH   1   2
BRANCH   1  11
ATOM     11  C   UNL     1     -45.972 -37.694  37.800  1.00  0.00     0.000 C 
BRANCH  11  12
ATOM     12  C   UNL     1     -46.793 -36.461  38.228  1.00  0.00     0.000 C 
BRANCH  12  13
ATOM     13  C   UNL     1     -46.407 -35.865  39.595  1.00  0.00     0.000 C 
BRANCH  13  14
ATOM     14  C   UNL     1     -46.084 -34.358  39.583  1.00  0.00     0.000 C 
BRANCH  14  15
ATOM     15  C   UNL     1     -46.980 -33.507  38.665  1.00  0.00     0.000 C 
BRANCH  15  16
ATOM     16  C   UNL     1     -46.213 -32.890  37.486  1.00  0.00     0.006 C 
BRANCH  16  17
ATOM     17  C   UNL     1     -44.860 -32.338  37.943  1.00  0.00     0.053 C 
BRANCH  17  18
ATOM     18  C   UNL     1     -44.962 -30.876  38.242  1.00  0.00     0.041 C 
ATOM     19  O   UNL     1     -45.357 -30.487  39.373  1.00  0.00    -0.550 OA
ATOM     20  O   UNL     1     -44.670 -29.942  37.258  1.00  0.00    -0.550 OA
ENDBRANCH  17  18
ENDBRANCH  16  17
ENDBRANCH  15  16
ENDBRANCH  14  15
ENDBRANCH  13  14
ENDBRANCH  12  13
ENDBRANCH  11  12
ENDBRANCH   1  11
TORSDOF 15
ENDMDL
MODEL 2
REMARK VINA RESULT:    -4.299      2.951      5.955
REMARK INTER + INTRA:          -9.676
REMARK INTER:                  -7.528
REMARK INTRA:                  -2.148
REMARK UNBOUND:                -1.607
REMARK SMILES O=C([O-])CCCCCCCCCCCCCCC(=O)[O-]
REMARK SMILES IDX 10 1 9 2 8 3 7 4 6 5 5 6 4 7 2 8 1 9 3 10 11 11 12 12 13 13
REMARK SMILES IDX 14 14 15 15 16 16 17 17 18 18 19 19 20 20
REMARK H PARENT
REMARK Flexibility Score: inf
ROOT
ATOM      1  C   UNL     1     -40.750 -34.520  38.305  1.00  0.00     0.000 C 
ENDROOT
BRANCH   1   2
ATOM      2  C   UNL     1     -40.381 -33.024  38.340  1.00  0.00     0.000 C 
BRANCH   2   3
ATOM      3  C   UNL     1     -41.492 -32.086  38.845  1.00  0.00     0.000 C 
BRANCH   3   4
ATOM      4  C   UNL     1     -42.880 -32.751  38.846  1.00  0.00     0.000 C 
BRANCH   4   5
ATOM      5  C   UNL     1     -43.384 -33.062  40.264  1.00  0.00     0.000 C 
BRANCH   5   6
ATOM      6  C   UNL     1     -44.754 -32.430  40.559  1.00  0.00     0.006 C 
BRANCH   6   7
ATOM      7  C   UNL     1     -45.382 -31.863  39.283  1.00  0.00     0.053 C 
BRANCH   7   8
ATOM      8  C   UNL     1     -46.855 -32.126  39.262  1.00  0.00     0.041 C 
ATOM      9  O   UNL     1     -47.501 -32.193  40.340  1.00  0.00    -0.550 OA
ATOM     10  O   UNL     1     -47.505 -32.344  38.055  1.00  0.00    -0.550 OA
ENDBRANCH   7   8
ENDBRANCH   6   7
ENDBRANCH   5   6
ENDBRANCH   4   5
ENDBRANCH   3   4
ENDBRANCH   2   3
ENDBRANCH   1   2
BRANCH   1  11
ATOM     11  C   UNL     1     -40.326 -35.268  37.025  1.00  0.00     0.000 C 
BRANCH  11  12
ATOM     12  C   UNL     1     -41.488 -35.664  36.091  1.00  0.00     0.000 C 
BRANCH  12  13
ATOM     13  C   UNL     1     -42.856 -35.815  36.783  1.00  0.00     0.000 C 
BRANCH  13  14
ATOM     14  C   UNL     1     -44.051 -35.229  36.005  1.00  0.00     0.000 C 
BRANCH  14  15
ATOM     15  C   UNL     1     -45.235 -34.774  36.877  1.00  0.00     0.000 C 
BRANCH  15  16
ATOM     16  C   UNL     1     -45.287 -35.491  38.234  1.00  0.00     0.006 C 
BRANCH  16  17
ATOM     17  C   UNL     1     -46.734 -35.754  38.659  1.00  0.00     0.053 C 
BRANCH  17  18
ATOM     18  C   UNL     1     -47.070 -37.205  38.511  1.00  0.00     0.041 C 
ATOM     19  O   UNL     1     -48.142 -37.658  38.991  1.00  0.00    -0.550 OA
ATOM     20  O   UNL     1     -46.177 -38.066  37.888  1.00  0.00    -0.550 OA
ENDBRANCH  17  18
ENDBRANCH  16  17
ENDBRANCH  15  16
ENDBRANCH  14  15
ENDBRANCH  13  14
ENDBRANCH  12  13
ENDBRANCH  11  12
ENDBRANCH   1  11
TORSDOF 15
ENDMDL
MODEL 3
REMARK VINA RESULT:    -4.298      2.046      3.705
REMARK INTER + INTRA:          -9.674
REMARK INTER:                  -7.712
REMARK INTRA:                  -1.961
REMARK UNBOUND:                -1.607
REMARK SMILES O=C([O-])CCCCCCCCCCCCCCC(=O)[O-]
REMARK SMILES IDX 10 1 9 2 8 3 7 4 6 5 5 6 4 7 2 8 1 9 3 10 11 11 12 12 13 13
REMARK SMILES IDX 14 14 15 15 16 16 17 17 18 18 19 19 20 20
REMARK H PARENT
REMARK Flexibility Score: inf
ROOT
ATOM      1  C   UNL     1     -42.506 -36.072  36.300  1.00  0.00     0.000 C 
ENDROOT
BRANCH   1   2
ATOM      2  C   UNL     1     -41.118 -35.427  36.115  1.00  0.00     0.000 C 
BRANCH   2   3
ATOM      3  C   UNL     1     -40.180 -35.529  37.332  1.00  0.00     0.000 C 
BRANCH   3   4
ATOM      4  C   UNL     1     -40.080 -34.212  38.120  1.00  0.00     0.000 C 
BRANCH   4   5
ATOM      5  C   UNL     1     -40.603 -34.343  39.559  1.00  0.00     0.000 C 
BRANCH   5   6
ATOM      6  C   UNL     1     -41.806 -33.429  39.840  1.00  0.00     0.006 C 
BRANCH   6   7
ATOM      7  C   UNL     1     -41.909 -32.320  38.788  1.00  0.00     0.053 C 
BRANCH   7   8
ATOM      8  C   UNL     1     -43.112 -31.468  39.040  1.00  0.00     0.041 C 
ATOM      9  O   UNL     1     -43.794 -31.034  38.075  1.00  0.00    -0.550 OA
ATOM     10  O   UNL     1     -43.454 -31.114  40.338  1.00  0.00    -0.550 OA
ENDBRANCH   7   8
ENDBRANCH   6   7
ENDBRANCH   5   6
ENDBRANCH   4   5
ENDBRANCH   3   4
ENDBRANCH   2   3
ENDBRANCH   1   2
BRANCH   1  11
ATOM     11  C   UNL     1     -43.509 -35.240  37.123  1.00  0.00     0.000 C 
BRANCH  11  12
ATOM     12  C   UNL     1     -44.984 -35.403  36.704  1.00  0.00     0.000 C 
BRANCH  12  13
ATOM     13  C   UNL     1     -45.550 -36.828  36.858  1.00  0.00     0.000 C 
BRANCH  13  14
ATOM     14  C   UNL     1     -45.937 -37.226  38.296  1.00  0.00     0.000 C 
BRANCH  14  15
ATOM     15  C   UNL     1     -47.383 -36.884  38.700  1.00  0.00     0.000 C 
BRANCH  15  16
ATOM     16  C   UNL     1     -47.459 -35.804  39.789  1.00  0.00     0.006 C 
BRANCH  16  17
ATOM     17  C   UNL     1     -47.520 -34.405  39.169  1.00  0.00     0.053 C 
BRANCH  17  18
ATOM     18  C   UNL     1     -46.390 -33.560  39.666  1.00  0.00     0.041 C 
ATOM     19  O   UNL     1     -45.305 -34.096  40.018  1.00  0.00    -0.550 OA
ATOM     20  O   UNL     1     -46.549 -32.187  39.788  1.00  0.00    -0.550 OA
ENDBRANCH  17  18
ENDBRANCH  16  17
ENDBRANCH  15  16
ENDBRANCH  14  15
ENDBRANCH  13  14
ENDBRANCH  12  13
ENDBRANCH  11  12
ENDBRANCH   1  11
TORSDOF 15
ENDMDL
MODEL 4
REMARK VINA RESULT:    -4.274      2.259      6.010
REMARK INTER + INTRA:          -9.630
REMARK INTER:                  -7.583
REMARK INTRA:                  -2.047
REMARK UNBOUND:                -1.607
REMARK SMILES O=C([O-])CCCCCCCCCCCCCCC(=O)[O-]
REMARK SMILES IDX 10 1 9 2 8 3 7 4 6 5 5 6 4 7 2 8 1 9 3 10 11 11 12 12 13 13
REMARK SMILES IDX 14 14 15 15 16 16 17 17 18 18 19 19 20 20
REMARK H PARENT
REMARK Flexibility Score: inf
ROOT
ATOM      1  C   UNL     1     -46.472 -37.253  38.729  1.00  0.00     0.000 C 
ENDROOT
BRANCH   1   2
ATOM      2  C   UNL     1     -47.872 -36.886  39.259  1.00  0.00     0.000 C 
BRANCH   2   3
ATOM      3  C   UNL     1     -47.935 -35.607  40.115  1.00  0.00     0.000 C 
BRANCH   3   4
ATOM      4  C   UNL     1     -46.591 -34.861  40.173  1.00  0.00     0.000 C 
BRANCH   4   5
ATOM      5  C   UNL     1     -46.739 -33.355  39.909  1.00  0.00     0.000 C 
BRANCH   5   6
ATOM      6  C   UNL     1     -47.853 -33.036  38.900  1.00  0.00     0.006 C 
BRANCH   6   7
ATOM      7  C   UNL     1     -47.272 -32.766  37.509  1.00  0.00     0.053 C 
BRANCH   7   8
ATOM      8  C   UNL     1     -48.065 -31.712  36.804  1.00  0.00     0.041 C 
ATOM      9  O   UNL     1     -49.227 -31.426  37.196  1.00  0.00    -0.550 OA
ATOM     10  O   UNL     1     -47.541 -31.077  35.686  1.00  0.00    -0.550 OA
ENDBRANCH   7   8
ENDBRANCH   6   7
ENDBRANCH   5   6
ENDBRANCH   4   5
ENDBRANCH   3   4
ENDBRANCH   2   3
ENDBRANCH   1   2
BRANCH   1  11
ATOM     11  C   UNL     1     -46.336 -37.263  37.194  1.00  0.00     0.000 C 
BRANCH  11  12
ATOM     12  C   UNL     1     -44.960 -37.720  36.668  1.00  0.00     0.000 C 
BRANCH  12  13
ATOM     13  C   UNL     1     -43.931 -36.590  36.471  1.00  0.00     0.000 C 
BRANCH  13  14
ATOM     14  C   UNL     1     -44.519 -35.165  36.462  1.00  0.00     0.000 C 
BRANCH  14  15
ATOM     15  C   UNL     1     -44.020 -34.248  37.594  1.00  0.00     0.000 C 
BRANCH  15  16
ATOM     16  C   UNL     1     -43.069 -34.962  38.566  1.00  0.00     0.006 C 
BRANCH  16  17
ATOM     17  C   UNL     1     -42.413 -33.963  39.522  1.00  0.00     0.053 C 
BRANCH  17  18
ATOM     18  C   UNL     1     -41.284 -33.252  38.844  1.00  0.00     0.041 C 
ATOM     19  O   UNL     1     -41.323 -32.003  38.690  1.00  0.00    -0.550 OA
ATOM     20  O   UNL     1     -40.210 -33.973  38.339  1.00  0.00    -0.550 OA
ENDBRANCH  17  18
ENDBRANCH  16  17
ENDBRANCH  15  16
ENDBRANCH  14  15
ENDBRANCH  13  14
ENDBRANCH  12  13
ENDBRANCH  11  12
ENDBRANCH   1  11
TORSDOF 15
ENDMDL
MODEL 5
REMARK VINA RESULT:    -4.271      2.882      4.975
REMARK INTER + INTRA:          -9.623
REMARK INTER:                  -7.786
REMARK INTRA:                  -1.837
REMARK UNBOUND:                -1.607
REMARK SMILES O=C([O-])CCCCCCCCCCCCCCC(=O)[O-]
REMARK SMILES IDX 10 1 9 2 8 3 7 4 6 5 5 6 4 7 2 8 1 9 3 10 11 11 12 12 13 13
REMARK SMILES IDX 14 14 15 15 16 16 17 17 18 18 19 19 20 20
REMARK H PARENT
REMARK Flexibility Score: inf
ROOT
ATOM      1  C   UNL     1     -40.742 -34.589  38.252  1.00  0.00     0.000 C 
ENDROOT
BRANCH   1   2
ATOM      2  C   UNL     1     -40.575 -35.168  36.833  1.00  0.00     0.000 C 
BRANCH   2   3
ATOM      3  C   UNL     1     -41.861 -35.729  36.198  1.00  0.00     0.000 C 
BRANCH   3   4
ATOM      4  C   UNL     1     -43.080 -35.632  37.132  1.00  0.00     0.000 C 
BRANCH   4   5
ATOM      5  C   UNL     1     -44.386 -35.356  36.373  1.00  0.00     0.000 C 
BRANCH   5   6
ATOM      6  C   UNL     1     -45.545 -36.252  36.839  1.00  0.00     0.006 C 
BRANCH   6   7
ATOM      7  C   UNL     1     -45.544 -36.401  38.363  1.00  0.00     0.053 C 
BRANCH   7   8
ATOM      8  C   UNL     1     -46.944 -36.491  38.882  1.00  0.00     0.041 C 
ATOM      9  O   UNL     1     -47.319 -35.742  39.822  1.00  0.00    -0.550 OA
ATOM     10  O   UNL     1     -47.820 -37.433  38.361  1.00  0.00    -0.550 OA
ENDBRANCH   7   8
ENDBRANCH   6   7
ENDBRANCH   5   6
ENDBRANCH   4   5
ENDBRANCH   3   4
ENDBRANCH   2   3
ENDBRANCH   1   2
BRANCH   1  11
ATOM     11  C   UNL     1     -40.457 -33.080  38.380  1.00  0.00     0.000 C 
BRANCH  11  12
ATOM     12  C   UNL     1     -41.656 -32.231  38.849  1.00  0.00     0.000 C 
BRANCH  12  13
ATOM     13  C   UNL     1     -42.885 -33.039  39.308  1.00  0.00     0.000 C 
BRANCH  13  14
ATOM     14  C   UNL     1     -44.205 -32.246  39.367  1.00  0.00     0.000 C 
BRANCH  14  15
ATOM     15  C   UNL     1     -44.512 -31.398  38.119  1.00  0.00     0.000 C 
BRANCH  15  16
ATOM     16  C   UNL     1     -45.599 -32.019  37.229  1.00  0.00     0.006 C 
BRANCH  16  17
ATOM     17  C   UNL     1     -46.565 -32.869  38.057  1.00  0.00     0.053 C 
BRANCH  17  18
ATOM     18  C   UNL     1     -47.919 -32.234  38.103  1.00  0.00     0.041 C 
ATOM     19  O   UNL     1     -48.558 -32.183  39.186  1.00  0.00    -0.550 OA
ATOM     20  O   UNL     1     -48.497 -31.744  36.939  1.00  0.00    -0.550 OA
ENDBRANCH  17  18
ENDBRANCH  16  17
ENDBRANCH  15  16
ENDBRANCH  14  15
ENDBRANCH  13  14
ENDBRANCH  12  13
ENDBRANCH  11  12
ENDBRANCH   1  11
TORSDOF 15
ENDMDL
MODEL 6
REMARK VINA RESULT:    -4.271      2.241      6.280
REMARK INTER + INTRA:          -9.623
REMARK INTER:                  -7.879
REMARK INTRA:                  -1.743
REMARK UNBOUND:                -1.607
REMARK SMILES O=C([O-])CCCCCCCCCCCCCCC(=O)[O-]
REMARK SMILES IDX 10 1 9 2 8 3 7 4 6 5 5 6 4 7 2 8 1 9 3 10 11 11 12 12 13 13
REMARK SMILES IDX 14 14 15 15 16 16 17 17 18 18 19 19 20 20
REMARK H PARENT
REMARK Flexibility Score: inf
ROOT
ATOM      1  C   UNL     1     -43.988 -35.198  36.148  1.00  0.00     0.000 C 
ENDROOT
BRANCH   1   2
ATOM      2  C   UNL     1     -44.916 -34.733  37.289  1.00  0.00     0.000 C 
BRANCH   2   3
ATOM      3  C   UNL     1     -45.712 -33.446  37.003  1.00  0.00     0.000 C 
BRANCH   3   4
ATOM      4  C   UNL     1     -46.637 -33.046  38.165  1.00  0.00     0.000 C 
BRANCH   4   5
ATOM      5  C   UNL     1     -47.819 -32.176  37.708  1.00  0.00     0.000 C 
BRANCH   5   6
ATOM      6  C   UNL     1     -47.603 -31.566  36.314  1.00  0.00     0.006 C 
BRANCH   6   7
ATOM      7  C   UNL     1     -47.457 -30.044  36.399  1.00  0.00     0.053 C 
BRANCH   7   8
ATOM      8  C   UNL     1     -46.044 -29.636  36.128  1.00  0.00     0.041 C 
ATOM      9  O   UNL     1     -45.129 -29.950  36.933  1.00  0.00    -0.550 OA
ATOM     10  O   UNL     1     -45.743 -28.869  35.010  1.00  0.00    -0.550 OA
ENDBRANCH   7   8
ENDBRANCH   6   7
ENDBRANCH   5   6
ENDBRANCH   4   5
ENDBRANCH   3   4
ENDBRANCH   2   3
ENDBRANCH   1   2
BRANCH   1  11
ATOM     11  C   UNL     1     -42.717 -35.941  36.602  1.00  0.00     0.000 C 
BRANCH  11  12
ATOM     12  C   UNL     1     -41.401 -35.394  36.012  1.00  0.00     0.000 C 
BRANCH  12  13
ATOM     13  C   UNL     1     -40.157 -35.597  36.899  1.00  0.00     0.000 C 
BRANCH  13  14
ATOM     14  C   UNL     1     -40.129 -34.752  38.189  1.00  0.00     0.000 C 
BRANCH  14  15
ATOM     15  C   UNL     1     -40.264 -33.234  37.976  1.00  0.00     0.000 C 
BRANCH  15  16
ATOM     16  C   UNL     1     -41.417 -32.617  38.782  1.00  0.00     0.006 C 
BRANCH  16  17
ATOM     17  C   UNL     1     -42.189 -33.697  39.546  1.00  0.00     0.053 C 
BRANCH  17  18
ATOM     18  C   UNL     1     -43.432 -33.125  40.150  1.00  0.00     0.041 C 
ATOM     19  O   UNL     1     -43.734 -31.918  39.957  1.00  0.00    -0.550 OA
ATOM     20  O   UNL     1     -44.234 -33.911  40.967  1.00  0.00    -0.550 OA
ENDBRANCH  17  18
ENDBRANCH  16  17
ENDBRANCH  15  16
ENDBRANCH  14  15
ENDBRANCH  13  14
ENDBRANCH  12  13
ENDBRANCH  11  12
ENDBRANCH   1  11
TORSDOF 15
ENDMDL
MODEL 7
REMARK VINA RESULT:    -4.246      2.563      4.952
REMARK INTER + INTRA:          -9.576
REMARK INTER:                  -7.763
REMARK INTRA:                  -1.812
REMARK UNBOUND:                -1.607
REMARK SMILES O=C([O-])CCCCCCCCCCCCCCC(=O)[O-]
REMARK SMILES IDX 10 1 9 2 8 3 7 4 6 5 5 6 4 7 2 8 1 9 3 10 11 11 12 12 13 13
REMARK SMILES IDX 14 14 15 15 16 16 17 17 18 18 19 19 20 20
REMARK H PARENT
REMARK Flexibility Score: inf
ROOT
ATOM      1  C   UNL     1     -40.421 -34.922  38.271  1.00  0.00     0.000 C 
ENDROOT
BRANCH   1   2
ATOM      2  C   UNL     1     -40.079 -33.428  38.446  1.00  0.00     0.000 C 
BRANCH   2   3
ATOM      3  C   UNL     1     -41.281 -32.510  38.734  1.00  0.00     0.000 C 
BRANCH   3   4
ATOM      4  C   UNL     1     -42.218 -33.074  39.817  1.00  0.00     0.000 C 
BRANCH   4   5
ATOM      5  C   UNL     1     -43.502 -32.247  39.977  1.00  0.00     0.000 C 
BRANCH   5   6
ATOM      6  C   UNL     1     -43.628 -31.135  38.923  1.00  0.00     0.006 C 
BRANCH   6   7
ATOM      7  C   UNL     1     -43.842 -29.772  39.588  1.00  0.00     0.053 C 
BRANCH   7   8
ATOM      8  C   UNL     1     -42.558 -29.259  40.158  1.00  0.00     0.041 C 
ATOM      9  O   UNL     1     -42.455 -29.044  41.394  1.00  0.00    -0.550 OA
ATOM     10  O   UNL     1     -41.489 -28.974  39.319  1.00  0.00    -0.550 OA
ENDBRANCH   7   8
ENDBRANCH   6   7
ENDBRANCH   5   6
ENDBRANCH   4   5
ENDBRANCH   3   4
ENDBRANCH   2   3
ENDBRANCH   1   2
BRANCH   1  11
ATOM     11  C   UNL     1     -40.068 -35.516  36.893  1.00  0.00     0.000 C 
BRANCH  11  12
ATOM     12  C   UNL     1     -41.282 -35.884  36.016  1.00  0.00     0.000 C 
BRANCH  12  13
ATOM     13  C   UNL     1     -42.634 -35.343  36.518  1.00  0.00     0.000 C 
BRANCH  13  14
ATOM     14  C   UNL     1     -43.754 -36.396  36.640  1.00  0.00     0.000 C 
BRANCH  14  15
ATOM     15  C   UNL     1     -45.181 -35.822  36.713  1.00  0.00     0.000 C 
BRANCH  15  16
ATOM     16  C   UNL     1     -45.308 -34.661  37.710  1.00  0.00     0.006 C 
BRANCH  16  17
ATOM     17  C   UNL     1     -45.742 -33.376  37.001  1.00  0.00     0.053 C 
BRANCH  17  18
ATOM     18  C   UNL     1     -46.898 -32.748  37.713  1.00  0.00     0.041 C 
ATOM     19  O   UNL     1     -47.439 -33.337  38.686  1.00  0.00    -0.550 OA
ATOM     20  O   UNL     1     -47.413 -31.536  37.271  1.00  0.00    -0.550 OA
ENDBRANCH  17  18
ENDBRANCH  16  17
ENDBRANCH  15  16
ENDBRANCH  14  15
ENDBRANCH  13  14
ENDBRANCH  12  13
ENDBRANCH  11  12
ENDBRANCH   1  11
TORSDOF 15
ENDMDL
MODEL 8
REMARK VINA RESULT:    -4.240      1.953      5.502
REMARK INTER + INTRA:          -9.564
REMARK INTER:                  -7.280
REMARK INTRA:                  -2.285
REMARK UNBOUND:                -1.607
REMARK SMILES O=C([O-])CCCCCCCCCCCCCCC(=O)[O-]
REMARK SMILES IDX 10 1 9 2 8 3 7 4 6 5 5 6 4 7 2 8 1 9 3 10 11 11 12 12 13 13
REMARK SMILES IDX 14 14 15 15 16 16 17 17 18 18 19 19 20 20
REMARK H PARENT
REMARK Flexibility Score: inf
ROOT
ATOM      1  C   UNL     1     -45.575 -36.169  36.935  1.00  0.00     0.000 C 
ENDROOT
BRANCH   1   2
ATOM      2  C   UNL     1     -45.986 -36.567  38.367  1.00  0.00     0.000 C 
BRANCH   2   3
ATOM      3  C   UNL     1     -46.301 -35.391  39.310  1.00  0.00     0.000 C 
BRANCH   3   4
ATOM      4  C   UNL     1     -45.103 -34.446  39.505  1.00  0.00     0.000 C 
BRANCH   4   5
ATOM      5  C   UNL     1     -45.455 -32.978  39.217  1.00  0.00     0.000 C 
BRANCH   5   6
ATOM      6  C   UNL     1     -45.071 -32.543  37.794  1.00  0.00     0.006 C 
BRANCH   6   7
ATOM      7  C   UNL     1     -46.305 -32.474  36.890  1.00  0.00     0.053 C 
BRANCH   7   8
ATOM      8  C   UNL     1     -46.465 -31.099  36.324  1.00  0.00     0.041 C 
ATOM      9  O   UNL     1     -47.314 -30.881  35.420  1.00  0.00    -0.550 OA
ATOM     10  O   UNL     1     -45.645 -30.067  36.760  1.00  0.00    -0.550 OA
ENDBRANCH   7   8
ENDBRANCH   6   7
ENDBRANCH   5   6
ENDBRANCH   4   5
ENDBRANCH   3   4
ENDBRANCH   2   3
ENDBRANCH   1   2
BRANCH   1  11
ATOM     11  C   UNL     1     -44.133 -36.546  36.540  1.00  0.00     0.000 C 
BRANCH  11  12
ATOM     12  C   UNL     1     -43.179 -35.349  36.353  1.00  0.00     0.000 C 
BRANCH  12  13
ATOM     13  C   UNL     1     -41.684 -35.716  36.278  1.00  0.00     0.000 C 
BRANCH  13  14
ATOM     14  C   UNL     1     -40.814 -35.151  37.418  1.00  0.00     0.000 C 
BRANCH  14  15
ATOM     15  C   UNL     1     -41.535 -34.990  38.769  1.00  0.00     0.000 C 
BRANCH  15  16
ATOM     16  C   UNL     1     -41.330 -33.602  39.394  1.00  0.00     0.006 C 
BRANCH  16  17
ATOM     17  C   UNL     1     -41.518 -32.499  38.350  1.00  0.00     0.053 C 
BRANCH  17  18
ATOM     18  C   UNL     1     -41.552 -31.155  39.006  1.00  0.00     0.041 C 
ATOM     19  O   UNL     1     -42.499 -30.850  39.778  1.00  0.00    -0.550 OA
ATOM     20  O   UNL     1     -40.565 -30.219  38.728  1.00  0.00    -0.550 OA
ENDBRANCH  17  18
ENDBRANCH  16  17
ENDBRANCH  15  16
ENDBRANCH  14  15
ENDBRANCH  13  14
ENDBRANCH  12  13
ENDBRANCH  11  12
ENDBRANCH   1  11
TORSDOF 15
ENDMDL
MODEL 9
REMARK VINA RESULT:    -4.200      1.636      2.227
REMARK INTER + INTRA:          -9.489
REMARK INTER:                  -7.510
REMARK INTRA:                  -1.980
REMARK UNBOUND:                -1.607
REMARK SMILES O=C([O-])CCCCCCCCCCCCCCC(=O)[O-]
REMARK SMILES IDX 10 1 9 2 8 3 7 4 6 5 5 6 4 7 2 8 1 9 3 10 11 11 12 12 13 13
REMARK SMILES IDX 14 14 15 15 16 16 17 17 18 18 19 19 20 20
REMARK H PARENT
REMARK Flexibility Score: inf
ROOT
ATOM      1  C   UNL     1     -46.342 -36.991  37.245  1.00  0.00     0.000 C 
ENDROOT
BRANCH   1   2
ATOM      2  C   UNL     1     -44.926 -37.415  36.805  1.00  0.00     0.000 C 
BRANCH   2   3
ATOM      3  C   UNL     1     -43.961 -36.255  36.499  1.00  0.00     0.000 C 
BRANCH   3   4
ATOM      4  C   UNL     1     -44.209 -35.022  37.384  1.00  0.00     0.000 C 
BRANCH   4   5
ATOM      5  C   UNL     1     -43.425 -35.074  38.705  1.00  0.00     0.000 C 
BRANCH   5   6
ATOM      6  C   UNL     1     -42.296 -34.034  38.767  1.00  0.00     0.006 C 
BRANCH   6   7
ATOM      7  C   UNL     1     -40.991 -34.670  39.255  1.00  0.00     0.053 C 
BRANCH   7   8
ATOM      8  C   UNL     1     -40.196 -35.189  38.099  1.00  0.00     0.041 C 
ATOM      9  O   UNL     1     -39.193 -35.923  38.299  1.00  0.00    -0.550 OA
ATOM     10  O   UNL     1     -40.534 -34.825  36.803  1.00  0.00    -0.550 OA
ENDBRANCH   7   8
ENDBRANCH   6   7
ENDBRANCH   5   6
ENDBRANCH   4   5
ENDBRANCH   3   4
ENDBRANCH   2   3
ENDBRANCH   1   2
BRANCH   1  11
ATOM     11  C   UNL     1     -46.803 -37.562  38.601  1.00  0.00     0.000 C 
BRANCH  11  12
ATOM     12  C   UNL     1     -47.695 -36.618  39.432  1.00  0.00     0.000 C 
BRANCH  12  13
ATOM     13  C   UNL     1     -47.002 -35.330  39.918  1.00  0.00     0.000 C 
BRANCH  13  14
ATOM     14  C   UNL     1     -47.414 -34.045  39.174  1.00  0.00     0.000 C 
BRANCH  14  15
ATOM     15  C   UNL     1     -47.053 -32.732  39.892  1.00  0.00     0.000 C 
BRANCH  15  16
ATOM     16  C   UNL     1     -45.605 -32.711  40.406  1.00  0.00     0.006 C 
BRANCH  16  17
ATOM     17  C   UNL     1     -44.986 -31.321  40.240  1.00  0.00     0.053 C 
BRANCH  17  18
ATOM     18  C   UNL     1     -45.176 -30.824  38.842  1.00  0.00     0.041 C 
ATOM     19  O   UNL     1     -45.833 -29.771  38.628  1.00  0.00    -0.550 OA
ATOM     20  O   UNL     1     -44.671 -31.549  37.771  1.00  0.00    -0.550 OA
ENDBRANCH  17  18
ENDBRANCH  16  17
ENDBRANCH  15  16
ENDBRANCH  14  15
ENDBRANCH  13  14
ENDBRANCH  12  13
ENDBRANCH  11  12
ENDBRANCH   1  11
TORSDOF 15
ENDMDL
