MODEL 1
REMARK VINA RESULT:    -6.097      0.000      0.000
REMARK INTER + INTRA:          -6.097
REMARK INTER:                  -6.097
REMARK INTRA:                   0.000
REMARK UNBOUND:                 0.000
REMARK SMILES O=c1ccc2ccc3occc3c2o1
REMARK SMILES IDX 6 1 7 2 8 3 12 4 11 5 10 6 9 7 13 8 5 9 4 10 3 11 2 12 1 13
REMARK SMILES IDX 14 14
REMARK H PARENT
REMARK Flexibility Score: inf
ROOT
ATOM      1  C   UNL     1      70.702  49.219   6.690  1.00  0.00     0.016 A 
ATOM      2  C   UNL     1      69.985  49.977   5.745  1.00  0.00     0.048 A 
ATOM      3  C   UNL     1      70.258  49.769   4.394  1.00  0.00     0.137 A 
ATOM      4  C   UNL     1      71.194  48.861   3.976  1.00  0.00     0.064 A 
ATOM      5  C   UNL     1      71.212  48.908   2.601  1.00  0.00     0.054 A 
ATOM      6  C   UNL     1      70.261  49.868   2.272  1.00  0.00     0.196 A 
ATOM      7  O   UNL     1      69.708  50.365   3.365  1.00  0.00    -0.464 OA
ATOM      8  C   UNL     1      71.924  48.092   4.879  1.00  0.00     0.149 A 
ATOM      9  C   UNL     1      71.671  48.278   6.263  1.00  0.00     0.018 A 
ATOM     10  C   UNL     1      72.401  47.509   7.174  1.00  0.00     0.019 A 
ATOM     11  C   UNL     1      73.343  46.595   6.700  1.00  0.00     0.094 A 
ATOM     12  C   UNL     1      73.537  46.469   5.319  1.00  0.00     0.336 A 
ATOM     13  O   UNL     1      74.383  45.650   4.875  1.00  0.00    -0.246 OA
ATOM     14  O   UNL     1      72.832  47.211   4.468  1.00  0.00    -0.422 OA
ENDROOT
TORSDOF 0
ENDMDL
MODEL 2
REMARK VINA RESULT:    -6.045      1.336      4.265
REMARK INTER + INTRA:          -6.045
REMARK INTER:                  -6.045
REMARK INTRA:                   0.000
REMARK UNBOUND:                 0.000
REMARK SMILES O=c1ccc2ccc3occc3c2o1
REMARK SMILES IDX 6 1 7 2 8 3 12 4 11 5 10 6 9 7 13 8 5 9 4 10 3 11 2 12 1 13
REMARK SMILES IDX 14 14
REMARK H PARENT
REMARK Flexibility Score: inf
ROOT
ATOM      1  C   UNL     1      70.719  48.465   6.748  1.00  0.00     0.016 A 
ATOM      2  C   UNL     1      71.509  47.349   7.084  1.00  0.00     0.048 A 
ATOM      3  C   UNL     1      72.212  46.711   6.064  1.00  0.00     0.137 A 
ATOM      4  C   UNL     1      72.149  47.139   4.765  1.00  0.00     0.064 A 
ATOM      5  C   UNL     1      72.950  46.297   4.027  1.00  0.00     0.054 A 
ATOM      6  C   UNL     1      73.456  45.393   4.955  1.00  0.00     0.196 A 
ATOM      7  O   UNL     1      72.997  45.667   6.164  1.00  0.00    -0.464 OA
ATOM      8  C   UNL     1      71.380  48.238   4.390  1.00  0.00     0.149 A 
ATOM      9  C   UNL     1      70.651  48.911   5.405  1.00  0.00     0.018 A 
ATOM     10  C   UNL     1      69.876  50.015   5.036  1.00  0.00     0.019 A 
ATOM     11  C   UNL     1      69.845  50.414   3.699  1.00  0.00     0.094 A 
ATOM     12  C   UNL     1      70.591  49.697   2.755  1.00  0.00     0.336 A 
ATOM     13  O   UNL     1      70.573  50.044   1.545  1.00  0.00    -0.246 OA
ATOM     14  O   UNL     1      71.322  48.648   3.127  1.00  0.00    -0.422 OA
ENDROOT
TORSDOF 0
ENDMDL
MODEL 3
REMARK VINA RESULT:    -5.987      2.397      4.135
REMARK INTER + INTRA:          -5.987
REMARK INTER:                  -5.987
REMARK INTRA:                   0.000
REMARK UNBOUND:                 0.000
REMARK SMILES O=c1ccc2ccc3occc3c2o1
REMARK SMILES IDX 6 1 7 2 8 3 12 4 11 5 10 6 9 7 13 8 5 9 4 10 3 11 2 12 1 13
REMARK SMILES IDX 14 14
REMARK H PARENT
REMARK Flexibility Score: inf
ROOT
ATOM      1  C   UNL     1      73.636  48.491   7.870  1.00  0.00     0.016 A 
ATOM      2  C   UNL     1      72.879  48.821   9.009  1.00  0.00     0.048 A 
ATOM      3  C   UNL     1      71.509  49.028   8.850  1.00  0.00     0.137 A 
ATOM      4  C   UNL     1      70.898  48.920   7.629  1.00  0.00     0.064 A 
ATOM      5  C   UNL     1      69.562  49.184   7.826  1.00  0.00     0.054 A 
ATOM      6  C   UNL     1      69.453  49.442   9.188  1.00  0.00     0.196 A 
ATOM      7  O   UNL     1      70.634  49.341   9.773  1.00  0.00    -0.464 OA
ATOM      8  C   UNL     1      71.612  48.594   6.478  1.00  0.00     0.149 A 
ATOM      9  C   UNL     1      73.008  48.377   6.605  1.00  0.00     0.018 A 
ATOM     10  C   UNL     1      73.730  48.050   5.453  1.00  0.00     0.019 A 
ATOM     11  C   UNL     1      73.062  47.950   4.231  1.00  0.00     0.094 A 
ATOM     12  C   UNL     1      71.682  48.180   4.187  1.00  0.00     0.336 A 
ATOM     13  O   UNL     1      71.065  48.094   3.093  1.00  0.00    -0.246 OA
ATOM     14  O   UNL     1      71.013  48.490   5.296  1.00  0.00    -0.422 OA
ENDROOT
TORSDOF 0
ENDMDL
MODEL 4
REMARK VINA RESULT:    -5.857      1.879      4.525
REMARK INTER + INTRA:          -5.857
REMARK INTER:                  -5.857
REMARK INTRA:                   0.000
REMARK UNBOUND:                 0.000
REMARK SMILES O=c1ccc2ccc3occc3c2o1
REMARK SMILES IDX 6 1 7 2 8 3 12 4 11 5 10 6 9 7 13 8 5 9 4 10 3 11 2 12 1 13
REMARK SMILES IDX 14 14
REMARK H PARENT
REMARK Flexibility Score: inf
ROOT
ATOM      1  C   UNL     1      70.755  49.671   8.224  1.00  0.00     0.016 A 
ATOM      2  C   UNL     1      71.668  49.094   9.126  1.00  0.00     0.048 A 
ATOM      3  C   UNL     1      72.639  48.234   8.616  1.00  0.00     0.137 A 
ATOM      4  C   UNL     1      72.719  47.943   7.281  1.00  0.00     0.064 A 
ATOM      5  C   UNL     1      73.775  47.074   7.123  1.00  0.00     0.054 A 
ATOM      6  C   UNL     1      74.274  46.893   8.408  1.00  0.00     0.196 A 
ATOM      7  O   UNL     1      73.574  47.600   9.279  1.00  0.00    -0.464 OA
ATOM      8  C   UNL     1      71.835  48.493   6.356  1.00  0.00     0.149 A 
ATOM      9  C   UNL     1      70.833  49.373   6.841  1.00  0.00     0.018 A 
ATOM     10  C   UNL     1      69.942  49.929   5.917  1.00  0.00     0.019 A 
ATOM     11  C   UNL     1      70.065  49.603   4.566  1.00  0.00     0.094 A 
ATOM     12  C   UNL     1      71.079  48.724   4.164  1.00  0.00     0.336 A 
ATOM     13  O   UNL     1      71.203  48.421   2.949  1.00  0.00    -0.246 OA
ATOM     14  O   UNL     1      71.917  48.207   5.060  1.00  0.00    -0.422 OA
ENDROOT
TORSDOF 0
ENDMDL
MODEL 5
REMARK VINA RESULT:    -5.838      2.193      3.409
REMARK INTER + INTRA:          -5.838
REMARK INTER:                  -5.838
REMARK INTRA:                   0.000
REMARK UNBOUND:                 0.000
REMARK SMILES O=c1ccc2ccc3occc3c2o1
REMARK SMILES IDX 6 1 7 2 8 3 12 4 11 5 10 6 9 7 13 8 5 9 4 10 3 11 2 12 1 13
REMARK SMILES IDX 14 14
REMARK H PARENT
REMARK Flexibility Score: inf
ROOT
ATOM      1  C   UNL     1      72.358  47.089   5.469  1.00  0.00     0.016 A 
ATOM      2  C   UNL     1      72.273  47.500   4.126  1.00  0.00     0.048 A 
ATOM      3  C   UNL     1      71.387  48.528   3.809  1.00  0.00     0.137 A 
ATOM      4  C   UNL     1      70.610  49.133   4.761  1.00  0.00     0.064 A 
ATOM      5  C   UNL     1      69.861  50.092   4.116  1.00  0.00     0.054 A 
ATOM      6  C   UNL     1      70.246  49.998   2.783  1.00  0.00     0.196 A 
ATOM      7  O   UNL     1      71.159  49.054   2.631  1.00  0.00    -0.464 OA
ATOM      8  C   UNL     1      70.665  48.756   6.100  1.00  0.00     0.149 A 
ATOM      9  C   UNL     1      71.557  47.712   6.458  1.00  0.00     0.018 A 
ATOM     10  C   UNL     1      71.616  47.329   7.801  1.00  0.00     0.019 A 
ATOM     11  C   UNL     1      70.806  47.976   8.735  1.00  0.00     0.094 A 
ATOM     12  C   UNL     1      69.949  48.998   8.304  1.00  0.00     0.336 A 
ATOM     13  O   UNL     1      69.213  49.592   9.134  1.00  0.00    -0.246 OA
ATOM     14  O   UNL     1      69.909  49.348   7.020  1.00  0.00    -0.422 OA
ENDROOT
TORSDOF 0
ENDMDL
MODEL 6
REMARK VINA RESULT:    -5.756      2.282      3.209
REMARK INTER + INTRA:          -5.756
REMARK INTER:                  -5.756
REMARK INTRA:                   0.000
REMARK UNBOUND:                 0.000
REMARK SMILES O=c1ccc2ccc3occc3c2o1
REMARK SMILES IDX 6 1 7 2 8 3 12 4 11 5 10 6 9 7 13 8 5 9 4 10 3 11 2 12 1 13
REMARK SMILES IDX 14 14
REMARK H PARENT
REMARK Flexibility Score: inf
ROOT
ATOM      1  C   UNL     1      70.106  49.966   6.296  1.00  0.00     0.016 A 
ATOM      2  C   UNL     1      70.215  49.511   4.968  1.00  0.00     0.048 A 
ATOM      3  C   UNL     1      71.115  48.481   4.699  1.00  0.00     0.137 A 
ATOM      4  C   UNL     1      71.882  47.915   5.683  1.00  0.00     0.064 A 
ATOM      5  C   UNL     1      72.649  46.943   5.082  1.00  0.00     0.054 A 
ATOM      6  C   UNL     1      72.285  46.989   3.740  1.00  0.00     0.196 A 
ATOM      7  O   UNL     1      71.366  47.919   3.543  1.00  0.00    -0.464 OA
ATOM      8  C   UNL     1      71.803  48.336   7.008  1.00  0.00     0.149 A 
ATOM      9  C   UNL     1      70.897  49.383   7.317  1.00  0.00     0.018 A 
ATOM     10  C   UNL     1      70.813  49.810   8.645  1.00  0.00     0.019 A 
ATOM     11  C   UNL     1      71.614  49.202   9.612  1.00  0.00     0.094 A 
ATOM     12  C   UNL     1      72.486  48.175   9.229  1.00  0.00     0.336 A 
ATOM     13  O   UNL     1      73.215  47.616  10.090  1.00  0.00    -0.246 OA
ATOM     14  O   UNL     1      72.550  47.783   7.959  1.00  0.00    -0.422 OA
ENDROOT
TORSDOF 0
ENDMDL
MODEL 7
REMARK VINA RESULT:    -5.748      2.575      4.118
REMARK INTER + INTRA:          -5.748
REMARK INTER:                  -5.748
REMARK INTRA:                   0.000
REMARK UNBOUND:                 0.000
REMARK SMILES O=c1ccc2ccc3occc3c2o1
REMARK SMILES IDX 6 1 7 2 8 3 12 4 11 5 10 6 9 7 13 8 5 9 4 10 3 11 2 12 1 13
REMARK SMILES IDX 14 14
REMARK H PARENT
REMARK Flexibility Score: inf
ROOT
ATOM      1  C   UNL     1      73.783  48.110   7.678  1.00  0.00     0.016 A 
ATOM      2  C   UNL     1      73.982  47.906   6.300  1.00  0.00     0.048 A 
ATOM      3  C   UNL     1      72.907  48.132   5.441  1.00  0.00     0.137 A 
ATOM      4  C   UNL     1      71.685  48.540   5.904  1.00  0.00     0.064 A 
ATOM      5  C   UNL     1      70.863  48.666   4.807  1.00  0.00     0.054 A 
ATOM      6  C   UNL     1      71.666  48.317   3.727  1.00  0.00     0.196 A 
ATOM      7  O   UNL     1      72.882  48.003   4.138  1.00  0.00    -0.464 OA
ATOM      8  C   UNL     1      71.447  48.753   7.260  1.00  0.00     0.149 A 
ATOM      9  C   UNL     1      72.520  48.532   8.162  1.00  0.00     0.018 A 
ATOM     10  C   UNL     1      72.289  48.744   9.525  1.00  0.00     0.019 A 
ATOM     11  C   UNL     1      71.026  49.160   9.948  1.00  0.00     0.094 A 
ATOM     12  C   UNL     1      70.017  49.356   8.997  1.00  0.00     0.336 A 
ATOM     13  O   UNL     1      68.873  49.731   9.363  1.00  0.00    -0.246 OA
ATOM     14  O   UNL     1      70.258  49.149   7.704  1.00  0.00    -0.422 OA
ENDROOT
TORSDOF 0
ENDMDL
MODEL 8
REMARK VINA RESULT:    -5.640      2.010      4.731
REMARK INTER + INTRA:          -5.640
REMARK INTER:                  -5.640
REMARK INTRA:                   0.000
REMARK UNBOUND:                 0.000
REMARK SMILES O=c1ccc2ccc3occc3c2o1
REMARK SMILES IDX 6 1 7 2 8 3 12 4 11 5 10 6 9 7 13 8 5 9 4 10 3 11 2 12 1 13
REMARK SMILES IDX 14 14
REMARK H PARENT
REMARK Flexibility Score: inf
ROOT
ATOM      1  C   UNL     1      72.975  47.148   6.304  1.00  0.00     0.016 A 
ATOM      2  C   UNL     1      72.923  47.223   7.708  1.00  0.00     0.048 A 
ATOM      3  C   UNL     1      72.022  48.117   8.285  1.00  0.00     0.137 A 
ATOM      4  C   UNL     1      71.204  48.910   7.526  1.00  0.00     0.064 A 
ATOM      5  C   UNL     1      70.453  49.663   8.400  1.00  0.00     0.054 A 
ATOM      6  C   UNL     1      70.880  49.263   9.662  1.00  0.00     0.196 A 
ATOM      7  O   UNL     1      71.819  48.338   9.560  1.00  0.00    -0.464 OA
ATOM      8  C   UNL     1      71.225  48.866   6.134  1.00  0.00     0.149 A 
ATOM      9  C   UNL     1      72.130  47.967   5.514  1.00  0.00     0.018 A 
ATOM     10  C   UNL     1      72.156  47.918   4.117  1.00  0.00     0.019 A 
ATOM     11  C   UNL     1      71.302  48.745   3.386  1.00  0.00     0.094 A 
ATOM     12  C   UNL     1      70.437  49.608   4.071  1.00  0.00     0.336 A 
ATOM     13  O   UNL     1      69.660  50.360   3.427  1.00  0.00    -0.246 OA
ATOM     14  O   UNL     1      70.428  49.639   5.402  1.00  0.00    -0.422 OA
ENDROOT
TORSDOF 0
ENDMDL
MODEL 9
REMARK VINA RESULT:    -5.338      1.958      3.536
REMARK INTER + INTRA:          -5.338
REMARK INTER:                  -5.338
REMARK INTRA:                   0.000
REMARK UNBOUND:                 0.000
REMARK SMILES O=c1ccc2ccc3occc3c2o1
REMARK SMILES IDX 6 1 7 2 8 3 12 4 11 5 10 6 9 7 13 8 5 9 4 10 3 11 2 12 1 13
REMARK SMILES IDX 14 14
REMARK H PARENT
REMARK Flexibility Score: inf
ROOT
ATOM      1  C   UNL     1      70.284  49.289   5.186  1.00  0.00     0.016 A 
ATOM      2  C   UNL     1      69.991  49.876   6.431  1.00  0.00     0.048 A 
ATOM      3  C   UNL     1      70.758  49.498   7.532  1.00  0.00     0.137 A 
ATOM      4  C   UNL     1      71.771  48.583   7.428  1.00  0.00     0.064 A 
ATOM      5  C   UNL     1      72.314  48.442   8.685  1.00  0.00     0.054 A 
ATOM      6  C   UNL     1      71.572  49.304   9.485  1.00  0.00     0.196 A 
ATOM      7  O   UNL     1      70.649  49.921   8.767  1.00  0.00    -0.464 OA
ATOM      8  C   UNL     1      72.093  47.980   6.214  1.00  0.00     0.149 A 
ATOM      9  C   UNL     1      71.332  48.342   5.073  1.00  0.00     0.018 A 
ATOM     10  C   UNL     1      71.650  47.740   3.852  1.00  0.00     0.019 A 
ATOM     11  C   UNL     1      72.692  46.813   3.796  1.00  0.00     0.094 A 
ATOM     12  C   UNL     1      73.397  46.507   4.967  1.00  0.00     0.336 A 
ATOM     13  O   UNL     1      74.340  45.674   4.932  1.00  0.00    -0.246 OA
ATOM     14  O   UNL     1      73.078  47.092   6.119  1.00  0.00    -0.422 OA
ENDROOT
TORSDOF 0
ENDMDL
