MODEL 1
REMARK VINA RESULT:    -4.540      0.000      0.000
REMARK INTER + INTRA:          -5.923
REMARK INTER:                  -5.469
REMARK INTRA:                  -0.454
REMARK UNBOUND:                -0.454
REMARK SMILES NC(=O)C[C@@H]([NH3+])C(=O)[O-]
REMARK SMILES IDX 4 1 5 2 6 3 7 7 8 8 9 9 2 10 3 11 1 12
REMARK H PARENT 6 4 6 5 6 6 1 13 1 14
REMARK Flexibility Score: inf
ROOT
ATOM      1  C   UNL     1      21.116  -3.358  16.024  1.00  0.00     0.171 C 
ENDROOT
BRANCH   1   2
ATOM      2  C   UNL     1      20.400  -3.771  14.722  1.00  0.00     0.237 C 
BRANCH   2   3
ATOM      3  N   UNL     1      21.200  -4.734  13.950  1.00  0.00    -0.350 N 
ATOM      4  H   UNL     1      22.208  -4.454  13.970  1.00  0.00     0.345 HD
ATOM      5  H   UNL     1      20.875  -4.773  12.955  1.00  0.00     0.345 HD
ATOM      6  H   UNL     1      21.124  -5.686  14.374  1.00  0.00     0.345 HD
ENDBRANCH   2   3
BRANCH   2   7
ATOM      7  C   UNL     1      19.051  -4.354  15.043  1.00  0.00     0.100 C 
ATOM      8  O   UNL     1      18.037  -3.611  15.126  1.00  0.00    -0.544 OA
ATOM      9  O   UNL     1      18.913  -5.723  15.233  1.00  0.00    -0.544 OA
ENDBRANCH   2   7
ENDBRANCH   1   2
BRANCH   1  10
ATOM     10  C   UNL     1      21.811  -4.521  16.669  1.00  0.00     0.223 C 
ATOM     11  O   UNL     1      23.011  -4.774  16.377  1.00  0.00    -0.275 OA
ATOM     12  N   UNL     1      21.114  -5.366  17.585  1.00  0.00    -0.369 N 
ATOM     13  H   UNL     1      20.114  -5.186  17.821  1.00  0.00     0.159 HD
ATOM     14  H   UNL     1      21.599  -6.180  18.024  1.00  0.00     0.159 HD
ENDBRANCH   1  10
TORSDOF 4
ENDMDL
MODEL 2
REMARK VINA RESULT:    -4.373      1.915      2.342
REMARK INTER + INTRA:          -5.722
REMARK INTER:                  -5.314
REMARK INTRA:                  -0.407
REMARK UNBOUND:                -0.454
REMARK SMILES NC(=O)C[C@@H]([NH3+])C(=O)[O-]
REMARK SMILES IDX 4 1 5 2 6 3 7 7 8 8 9 9 2 10 3 11 1 12
REMARK H PARENT 6 4 6 5 6 6 1 13 1 14
REMARK Flexibility Score: inf
ROOT
ATOM      1  C   UNL     1      21.838  -5.318  16.698  1.00  0.00     0.171 C 
ENDROOT
BRANCH   1   2
ATOM      2  C   UNL     1      22.026  -4.584  15.355  1.00  0.00     0.237 C 
BRANCH   2   3
ATOM      3  N   UNL     1      22.320  -5.526  14.264  1.00  0.00    -0.350 N 
ATOM      4  H   UNL     1      23.260  -5.959  14.413  1.00  0.00     0.345 HD
ATOM      5  H   UNL     1      22.309  -5.036  13.339  1.00  0.00     0.345 HD
ATOM      6  H   UNL     1      21.612  -6.295  14.254  1.00  0.00     0.345 HD
ENDBRANCH   2   3
BRANCH   2   7
ATOM      7  C   UNL     1      20.795  -3.782  15.034  1.00  0.00     0.100 C 
ATOM      8  O   UNL     1      20.279  -3.835  13.886  1.00  0.00    -0.544 OA
ATOM      9  O   UNL     1      20.207  -2.990  16.012  1.00  0.00    -0.544 OA
ENDBRANCH   2   7
ENDBRANCH   1   2
BRANCH   1  10
ATOM     10  C   UNL     1      20.621  -6.196  16.687  1.00  0.00     0.223 C 
ATOM     11  O   UNL     1      20.589  -7.211  15.940  1.00  0.00    -0.275 OA
ATOM     12  N   UNL     1      19.485  -5.872  17.488  1.00  0.00    -0.369 N 
ATOM     13  H   UNL     1      19.485  -5.023  18.095  1.00  0.00     0.159 HD
ATOM     14  H   UNL     1      18.636  -6.480  17.469  1.00  0.00     0.159 HD
ENDBRANCH   1  10
TORSDOF 4
ENDMDL
MODEL 3
REMARK VINA RESULT:    -4.354      1.720      3.452
REMARK INTER + INTRA:          -5.699
REMARK INTER:                  -5.225
REMARK INTRA:                  -0.475
REMARK UNBOUND:                -0.454
REMARK SMILES NC(=O)C[C@@H]([NH3+])C(=O)[O-]
REMARK SMILES IDX 4 1 5 2 6 3 7 7 8 8 9 9 2 10 3 11 1 12
REMARK H PARENT 6 4 6 5 6 6 1 13 1 14
REMARK Flexibility Score: inf
ROOT
ATOM      1  C   UNL     1      18.424  -4.573  15.351  1.00  0.00     0.171 C 
ENDROOT
BRANCH   1   2
ATOM      2  C   UNL     1      19.096  -3.988  16.610  1.00  0.00     0.237 C 
BRANCH   2   3
ATOM      3  N   UNL     1      19.421  -5.040  17.585  1.00  0.00    -0.350 N 
ATOM      4  H   UNL     1      18.550  -5.549  17.860  1.00  0.00     0.345 HD
ATOM      5  H   UNL     1      19.865  -4.629  18.439  1.00  0.00     0.345 HD
ATOM      6  H   UNL     1      20.075  -5.735  17.158  1.00  0.00     0.345 HD
ENDBRANCH   2   3
BRANCH   2   7
ATOM      7  C   UNL     1      20.340  -3.235  16.222  1.00  0.00     0.100 C 
ATOM      8  O   UNL     1      20.281  -2.010  15.935  1.00  0.00    -0.544 OA
ATOM      9  O   UNL     1      21.567  -3.886  16.196  1.00  0.00    -0.544 OA
ENDBRANCH   2   7
ENDBRANCH   1   2
BRANCH   1  10
ATOM     10  C   UNL     1      18.975  -5.925  15.004  1.00  0.00     0.223 C 
ATOM     11  O   UNL     1      18.415  -6.962  15.451  1.00  0.00    -0.275 OA
ATOM     12  N   UNL     1      20.149  -6.046  14.200  1.00  0.00    -0.369 N 
ATOM     13  H   UNL     1      20.639  -5.198  13.841  1.00  0.00     0.159 HD
ATOM     14  H   UNL     1      20.534  -6.989  13.970  1.00  0.00     0.159 HD
ENDBRANCH   1  10
TORSDOF 4
ENDMDL
MODEL 4
REMARK VINA RESULT:    -4.345      2.241      2.934
REMARK INTER + INTRA:          -5.688
REMARK INTER:                  -5.389
REMARK INTRA:                  -0.299
REMARK UNBOUND:                -0.454
REMARK SMILES NC(=O)C[C@@H]([NH3+])C(=O)[O-]
REMARK SMILES IDX 4 1 5 2 6 3 7 7 8 8 9 9 2 10 3 11 1 12
REMARK H PARENT 6 4 6 5 6 6 1 13 1 14
REMARK Flexibility Score: inf
ROOT
ATOM      1  C   UNL     1      19.135  -6.292  16.013  1.00  0.00     0.171 C 
ENDROOT
BRANCH   1   2
ATOM      2  C   UNL     1      19.462  -5.137  16.981  1.00  0.00     0.237 C 
BRANCH   2   3
ATOM      3  N   UNL     1      20.816  -5.269  17.539  1.00  0.00    -0.350 N 
ATOM      4  H   UNL     1      21.524  -4.991  16.821  1.00  0.00     0.345 HD
ATOM      5  H   UNL     1      20.999  -6.255  17.838  1.00  0.00     0.345 HD
ATOM      6  H   UNL     1      20.929  -4.634  18.361  1.00  0.00     0.345 HD
ENDBRANCH   2   3
BRANCH   2   7
ATOM      7  C   UNL     1      19.318  -3.818  16.271  1.00  0.00     0.100 C 
ATOM      8  O   UNL     1      20.222  -2.945  16.355  1.00  0.00    -0.544 OA
ATOM      9  O   UNL     1      18.190  -3.565  15.500  1.00  0.00    -0.544 OA
ENDBRANCH   2   7
ENDBRANCH   1   2
BRANCH   1  10
ATOM     10  C   UNL     1      20.379  -6.904  15.438  1.00  0.00     0.223 C 
ATOM     11  O   UNL     1      21.208  -6.179  14.825  1.00  0.00    -0.275 OA
ATOM     12  N   UNL     1      20.616  -8.308  15.550  1.00  0.00    -0.369 N 
ATOM     13  H   UNL     1      19.929  -8.927  16.035  1.00  0.00     0.159 HD
ATOM     14  H   UNL     1      21.477  -8.731  15.140  1.00  0.00     0.159 HD
ENDBRANCH   1  10
TORSDOF 4
ENDMDL
MODEL 5
REMARK VINA RESULT:    -4.340      1.762      2.093
REMARK INTER + INTRA:          -5.683
REMARK INTER:                  -5.264
REMARK INTRA:                  -0.419
REMARK UNBOUND:                -0.454
REMARK SMILES NC(=O)C[C@@H]([NH3+])C(=O)[O-]
REMARK SMILES IDX 4 1 5 2 6 3 7 7 8 8 9 9 2 10 3 11 1 12
REMARK H PARENT 6 4 6 5 6 6 1 13 1 14
REMARK Flexibility Score: inf
ROOT
ATOM      1  C   UNL     1      21.039  -5.253  16.559  1.00  0.00     0.171 C 
ENDROOT
BRANCH   1   2
ATOM      2  C   UNL     1      20.420  -4.269  15.547  1.00  0.00     0.237 C 
BRANCH   2   3
ATOM      3  N   UNL     1      20.495  -4.790  14.174  1.00  0.00    -0.350 N 
ATOM      4  H   UNL     1      20.738  -5.808  14.194  1.00  0.00     0.345 HD
ATOM      5  H   UNL     1      21.219  -4.275  13.621  1.00  0.00     0.345 HD
ATOM      6  H   UNL     1      19.568  -4.693  13.702  1.00  0.00     0.345 HD
ENDBRANCH   2   3
BRANCH   2   7
ATOM      7  C   UNL     1      18.989  -3.986  15.919  1.00  0.00     0.100 C 
ATOM      8  O   UNL     1      18.098  -3.925  15.031  1.00  0.00    -0.544 OA
ATOM      9  O   UNL     1      18.641  -3.809  17.252  1.00  0.00    -0.544 OA
ENDBRANCH   2   7
ENDBRANCH   1   2
BRANCH   1  10
ATOM     10  C   UNL     1      20.353  -6.587  16.530  1.00  0.00     0.223 C 
ATOM     11  O   UNL     1      20.522  -7.357  15.546  1.00  0.00    -0.275 OA
ATOM     12  N   UNL     1      19.481  -6.978  17.591  1.00  0.00    -0.369 N 
ATOM     13  H   UNL     1      19.311  -6.344  18.402  1.00  0.00     0.159 HD
ATOM     14  H   UNL     1      18.998  -7.903  17.561  1.00  0.00     0.159 HD
ENDBRANCH   1  10
TORSDOF 4
ENDMDL
MODEL 6
REMARK VINA RESULT:    -4.328      1.823      3.248
REMARK INTER + INTRA:          -5.668
REMARK INTER:                  -5.260
REMARK INTRA:                  -0.408
REMARK UNBOUND:                -0.454
REMARK SMILES NC(=O)C[C@@H]([NH3+])C(=O)[O-]
REMARK SMILES IDX 4 1 5 2 6 3 7 7 8 8 9 9 2 10 3 11 1 12
REMARK H PARENT 6 4 6 5 6 6 1 13 1 14
REMARK Flexibility Score: inf
ROOT
ATOM      1  C   UNL     1      19.798  -4.658  15.424  1.00  0.00     0.171 C 
ENDROOT
BRANCH   1   2
ATOM      2  C   UNL     1      20.985  -3.677  15.342  1.00  0.00     0.237 C 
BRANCH   2   3
ATOM      3  N   UNL     1      20.618  -2.345  15.846  1.00  0.00    -0.350 N 
ATOM      4  H   UNL     1      21.325  -2.024  16.547  1.00  0.00     0.345 HD
ATOM      5  H   UNL     1      19.673  -2.367  16.296  1.00  0.00     0.345 HD
ATOM      6  H   UNL     1      20.609  -1.655  15.061  1.00  0.00     0.345 HD
ENDBRANCH   2   3
BRANCH   2   7
ATOM      7  C   UNL     1      22.154  -4.223  16.117  1.00  0.00     0.100 C 
ATOM      8  O   UNL     1      22.928  -3.446  16.737  1.00  0.00    -0.544 OA
ATOM      9  O   UNL     1      22.374  -5.593  16.167  1.00  0.00    -0.544 OA
ENDBRANCH   2   7
ENDBRANCH   1   2
BRANCH   1  10
ATOM     10  C   UNL     1      19.261  -4.766  16.821  1.00  0.00     0.223 C 
ATOM     11  O   UNL     1      18.645  -3.792  17.332  1.00  0.00    -0.275 OA
ATOM     12  N   UNL     1      19.473  -5.950  17.591  1.00  0.00    -0.369 N 
ATOM     13  H   UNL     1      20.001  -6.757  17.193  1.00  0.00     0.159 HD
ATOM     14  H   UNL     1      19.107  -6.016  18.566  1.00  0.00     0.159 HD
ENDBRANCH   1  10
TORSDOF 4
ENDMDL
MODEL 7
REMARK VINA RESULT:    -4.325      1.665      2.693
REMARK INTER + INTRA:          -5.664
REMARK INTER:                  -5.288
REMARK INTRA:                  -0.376
REMARK UNBOUND:                -0.454
REMARK SMILES NC(=O)C[C@@H]([NH3+])C(=O)[O-]
REMARK SMILES IDX 4 1 5 2 6 3 7 7 8 8 9 9 2 10 3 11 1 12
REMARK H PARENT 6 4 6 5 6 6 1 13 1 14
REMARK Flexibility Score: inf
ROOT
ATOM      1  C   UNL     1      20.898  -6.428  15.390  1.00  0.00     0.171 C 
ENDROOT
BRANCH   1   2
ATOM      2  C   UNL     1      20.211  -5.980  16.696  1.00  0.00     0.237 C 
BRANCH   2   3
ATOM      3  N   UNL     1      21.178  -5.405  17.643  1.00  0.00    -0.350 N 
ATOM      4  H   UNL     1      20.741  -4.602  18.152  1.00  0.00     0.345 HD
ATOM      5  H   UNL     1      22.034  -5.069  17.141  1.00  0.00     0.345 HD
ATOM      6  H   UNL     1      21.455  -6.120  18.352  1.00  0.00     0.345 HD
ENDBRANCH   2   3
BRANCH   2   7
ATOM      7  C   UNL     1      19.127  -4.983  16.388  1.00  0.00     0.100 C 
ATOM      8  O   UNL     1      18.489  -5.048  15.303  1.00  0.00    -0.544 OA
ATOM      9  O   UNL     1      18.811  -3.994  17.309  1.00  0.00    -0.544 OA
ENDBRANCH   2   7
ENDBRANCH   1   2
BRANCH   1  10
ATOM     10  C   UNL     1      21.746  -5.336  14.805  1.00  0.00     0.223 C 
ATOM     11  O   UNL     1      22.931  -5.181  15.207  1.00  0.00    -0.275 OA
ATOM     12  N   UNL     1      21.212  -4.449  13.822  1.00  0.00    -0.369 N 
ATOM     13  H   UNL     1      20.226  -4.548  13.495  1.00  0.00     0.159 HD
ATOM     14  H   UNL     1      21.802  -3.685  13.426  1.00  0.00     0.159 HD
ENDBRANCH   1  10
TORSDOF 4
ENDMDL
MODEL 8
REMARK VINA RESULT:    -4.274      2.137      2.623
REMARK INTER + INTRA:          -5.603
REMARK INTER:                  -5.342
REMARK INTRA:                  -0.261
REMARK UNBOUND:                -0.454
REMARK SMILES NC(=O)C[C@@H]([NH3+])C(=O)[O-]
REMARK SMILES IDX 4 1 5 2 6 3 7 7 8 8 9 9 2 10 3 11 1 12
REMARK H PARENT 6 4 6 5 6 6 1 13 1 14
REMARK Flexibility Score: inf
ROOT
ATOM      1  C   UNL     1      19.319  -5.846  15.265  1.00  0.00     0.171 C 
ENDROOT
BRANCH   1   2
ATOM      2  C   UNL     1      20.345  -4.695  15.298  1.00  0.00     0.237 C 
BRANCH   2   3
ATOM      3  N   UNL     1      20.697  -4.248  13.942  1.00  0.00    -0.350 N 
ATOM      4  H   UNL     1      21.687  -4.510  13.729  1.00  0.00     0.345 HD
ATOM      5  H   UNL     1      20.588  -3.211  13.855  1.00  0.00     0.345 HD
ATOM      6  H   UNL     1      20.083  -4.719  13.239  1.00  0.00     0.345 HD
ENDBRANCH   2   3
BRANCH   2   7
ATOM      7  C   UNL     1      19.799  -3.546  16.101  1.00  0.00     0.100 C 
ATOM      8  O   UNL     1      20.147  -2.363  15.842  1.00  0.00    -0.544 OA
ATOM      9  O   UNL     1      18.889  -3.783  17.123  1.00  0.00    -0.544 OA
ENDBRANCH   2   7
ENDBRANCH   1   2
BRANCH   1  10
ATOM     10  C   UNL     1      19.731  -6.984  16.152  1.00  0.00     0.223 C 
ATOM     11  O   UNL     1      20.325  -7.980  15.658  1.00  0.00    -0.275 OA
ATOM     12  N   UNL     1      19.426  -6.964  17.547  1.00  0.00    -0.369 N 
ATOM     13  H   UNL     1      18.915  -6.159  17.970  1.00  0.00     0.159 HD
ATOM     14  H   UNL     1      19.706  -7.763  18.158  1.00  0.00     0.159 HD
ENDBRANCH   1  10
TORSDOF 4
ENDMDL
MODEL 9
REMARK VINA RESULT:    -4.266      1.642      3.183
REMARK INTER + INTRA:          -5.593
REMARK INTER:                  -5.242
REMARK INTRA:                  -0.351
REMARK UNBOUND:                -0.454
REMARK SMILES NC(=O)C[C@@H]([NH3+])C(=O)[O-]
REMARK SMILES IDX 4 1 5 2 6 3 7 7 8 8 9 9 2 10 3 11 1 12
REMARK H PARENT 6 4 6 5 6 6 1 13 1 14
REMARK Flexibility Score: inf
ROOT
ATOM      1  C   UNL     1      21.080  -6.220  15.667  1.00  0.00     0.171 C 
ENDROOT
BRANCH   1   2
ATOM      2  C   UNL     1      21.736  -4.991  15.005  1.00  0.00     0.237 C 
BRANCH   2   3
ATOM      3  N   UNL     1      20.936  -4.500  13.873  1.00  0.00    -0.350 N 
ATOM      4  H   UNL     1      21.314  -4.887  12.978  1.00  0.00     0.345 HD
ATOM      5  H   UNL     1      20.957  -3.454  13.831  1.00  0.00     0.345 HD
ATOM      6  H   UNL     1      19.946  -4.820  13.967  1.00  0.00     0.345 HD
ENDBRANCH   2   3
BRANCH   2   7
ATOM      7  C   UNL     1      21.923  -3.900  16.024  1.00  0.00     0.100 C 
ATOM      8  O   UNL     1      22.850  -3.973  16.874  1.00  0.00    -0.544 OA
ATOM      9  O   UNL     1      21.082  -2.795  16.020  1.00  0.00    -0.544 OA
ENDBRANCH   2   7
ENDBRANCH   1   2
BRANCH   1  10
ATOM     10  C   UNL     1      19.694  -5.915  16.155  1.00  0.00     0.223 C 
ATOM     11  O   UNL     1      18.773  -5.690  15.324  1.00  0.00    -0.275 OA
ATOM     12  N   UNL     1      19.416  -5.844  17.554  1.00  0.00    -0.369 N 
ATOM     13  H   UNL     1      20.171  -6.006  18.256  1.00  0.00     0.159 HD
ATOM     14  H   UNL     1      18.453  -5.622  17.889  1.00  0.00     0.159 HD
ENDBRANCH   1  10
TORSDOF 4
ENDMDL
