MODEL 1
REMARK VINA RESULT:    -6.356      0.000      0.000
REMARK INTER + INTRA:         -11.178
REMARK INTER:                  -9.886
REMARK INTRA:                  -1.292
REMARK UNBOUND:                -1.292
REMARK SMILES C[C@]12C[C@]3(O)O[C@H](O1)[C@@]1(COC(=O)c4ccccc4)[C@@H]3C[C@]12O[C@@H]1O[C@@H](CO)[C@@H](O)[C@H](O)[C@H]1O
REMARK SMILES IDX 1 1 2 2 3 3 4 4 20 5 21 6 22 7 9 8 7 9 8 10 6 11 23 12 24 13
REMARK SMILES IDX 33 14 25 15 31 16 26 17 29 18 34 19 32 21 27 23 28 24 30 26
REMARK SMILES IDX 5 28 10 30 11 31 12 32 13 33 14 34 15 35 19 36 16 37 18 38
REMARK SMILES IDX 17 39
REMARK H PARENT 34 20 32 22 28 25 30 27 5 29
REMARK Flexibility Score: inf
ROOT
ATOM      1  C   UNL     1      28.743  32.704 -12.040  1.00  0.00     0.046 C 
ATOM      2  C   UNL     1      29.293  31.293 -12.244  1.00  0.00     0.104 C 
ATOM      3  C   UNL     1      28.151  30.284 -12.632  1.00  0.00     0.104 C 
ATOM      4  C   UNL     1      28.916  28.928 -12.845  1.00  0.00     0.175 C 
ATOM      5  C   UNL     1      30.155  29.132 -13.773  1.00  0.00     0.070 C 
ATOM      6  C   UNL     1      30.077  30.425 -14.593  1.00  0.00     0.050 C 
ATOM      7  C   UNL     1      30.465  31.166 -13.294  1.00  0.00     0.115 C 
ATOM      8  C   UNL     1      31.064  29.852 -12.780  1.00  0.00     0.096 C 
ATOM      9  C   UNL     1      30.466  29.594 -11.408  1.00  0.00     0.267 C 
ATOM     10  O   UNL     1      29.839  30.808 -11.032  1.00  0.00    -0.342 OA
ATOM     11  O   UNL     1      29.475  28.595 -11.593  1.00  0.00    -0.320 OA
ENDROOT
BRANCH   7  12
ATOM     12  O   UNL     1      31.402  32.232 -13.365  1.00  0.00    -0.339 OA
BRANCH  12  13
ATOM     13  C   UNL     1      31.444  32.819 -14.660  1.00  0.00     0.282 C 
ATOM     14  C   UNL     1      30.855  34.248 -14.618  1.00  0.00     0.202 C 
ATOM     15  O   UNL     1      32.769  32.790 -15.177  1.00  0.00    -0.341 OA
ATOM     16  C   UNL     1      31.707  35.189 -13.735  1.00  0.00     0.179 C 
ATOM     17  C   UNL     1      33.648  33.810 -14.703  1.00  0.00     0.178 C 
ATOM     18  C   UNL     1      33.124  34.629 -13.491  1.00  0.00     0.177 C 
BRANCH  14  19
ATOM     19  O   UNL     1      30.776  34.773 -15.919  1.00  0.00    -0.385 OA
ATOM     20  H   UNL     1      30.320  34.094 -16.482  1.00  0.00     0.211 HD
ENDBRANCH  14  19
BRANCH  16  21
ATOM     21  O   UNL     1      31.077  35.373 -12.491  1.00  0.00    -0.387 OA
ATOM     22  H   UNL     1      31.631  36.015 -11.977  1.00  0.00     0.211 HD
ENDBRANCH  16  21
BRANCH  17  23
ATOM     23  C   UNL     1      34.072  34.691 -15.890  1.00  0.00     0.191 C 
BRANCH  23  24
ATOM     24  O   UNL     1      33.497  34.223 -17.079  1.00  0.00    -0.394 OA
ATOM     25  H   UNL     1      32.854  34.918 -17.368  1.00  0.00     0.210 HD
ENDBRANCH  23  24
ENDBRANCH  17  23
BRANCH  18  26
ATOM     26  O   UNL     1      34.011  35.675 -13.181  1.00  0.00    -0.387 OA
ATOM     27  H   UNL     1      34.428  35.453 -12.306  1.00  0.00     0.211 HD
ENDBRANCH  18  26
ENDBRANCH  12  13
ENDBRANCH   7  12
BRANCH   4  28
ATOM     28  O   UNL     1      28.080  27.908 -13.320  1.00  0.00    -0.365 OA
ATOM     29  H   UNL     1      27.485  28.319 -14.001  1.00  0.00     0.214 HD
ENDBRANCH   4  28
BRANCH   8  30
ATOM     30  C   UNL     1      32.575  29.577 -12.975  1.00  0.00     0.249 C 
BRANCH  30  31
ATOM     31  O   UNL     1      33.346  29.957 -11.836  1.00  0.00    -0.461 OA
BRANCH  31  32
ATOM     32  C   UNL     1      34.334  30.951 -11.830  1.00  0.00     0.338 C 
ATOM     33  O   UNL     1      34.880  31.326 -12.904  1.00  0.00    -0.246 OA
BRANCH  32  34
ATOM     34  C   UNL     1      34.731  31.573 -10.553  1.00  0.00     0.060 A 
ATOM     35  C   UNL     1      35.661  30.944  -9.708  1.00  0.00     0.015 A 
ATOM     36  C   UNL     1      34.192  32.812 -10.177  1.00  0.00     0.015 A 
ATOM     37  C   UNL     1      36.025  31.541  -8.494  1.00  0.00     0.001 A 
ATOM     38  C   UNL     1      34.558  33.406  -8.966  1.00  0.00     0.001 A 
ATOM     39  C   UNL     1      35.470  32.768  -8.122  1.00  0.00     0.000 A 
ENDBRANCH  32  34
ENDBRANCH  31  32
ENDBRANCH  30  31
ENDBRANCH   8  30
TORSDOF 12
ENDMDL
MODEL 2
REMARK VINA RESULT:    -6.226      1.109      1.325
REMARK INTER + INTRA:         -10.975
REMARK INTER:                  -9.924
REMARK INTRA:                  -1.052
REMARK UNBOUND:                -1.292
REMARK SMILES C[C@]12C[C@]3(O)O[C@H](O1)[C@@]1(COC(=O)c4ccccc4)[C@@H]3C[C@]12O[C@@H]1O[C@@H](CO)[C@@H](O)[C@H](O)[C@H]1O
REMARK SMILES IDX 1 1 2 2 3 3 4 4 20 5 21 6 22 7 9 8 7 9 8 10 6 11 23 12 24 13
REMARK SMILES IDX 33 14 25 15 31 16 26 17 29 18 34 19 32 21 27 23 28 24 30 26
REMARK SMILES IDX 5 28 10 30 11 31 12 32 13 33 14 34 15 35 19 36 16 37 18 38
REMARK SMILES IDX 17 39
REMARK H PARENT 34 20 32 22 28 25 30 27 5 29
REMARK Flexibility Score: inf
ROOT
ATOM      1  C   UNL     1      28.978  31.940 -12.085  1.00  0.00     0.046 C 
ATOM      2  C   UNL     1      29.957  30.775 -11.940  1.00  0.00     0.104 C 
ATOM      3  C   UNL     1      29.264  29.401 -12.259  1.00  0.00     0.104 C 
ATOM      4  C   UNL     1      30.429  28.357 -12.108  1.00  0.00     0.175 C 
ATOM      5  C   UNL     1      31.693  28.821 -12.898  1.00  0.00     0.070 C 
ATOM      6  C   UNL     1      31.374  29.881 -13.959  1.00  0.00     0.050 C 
ATOM      7  C   UNL     1      31.281  30.890 -12.792  1.00  0.00     0.115 C 
ATOM      8  C   UNL     1      32.147  29.937 -11.961  1.00  0.00     0.096 C 
ATOM      9  C   UNL     1      31.420  29.699 -10.649  1.00  0.00     0.267 C 
ATOM     10  O   UNL     1      30.399  30.680 -10.598  1.00  0.00    -0.342 OA
ATOM     11  O   UNL     1      30.829  28.414 -10.755  1.00  0.00    -0.320 OA
ENDROOT
BRANCH   7  12
ATOM     12  O   UNL     1      31.848  32.182 -12.955  1.00  0.00    -0.339 OA
BRANCH  12  13
ATOM     13  C   UNL     1      31.918  32.565 -14.323  1.00  0.00     0.282 C 
ATOM     14  C   UNL     1      31.232  33.935 -14.531  1.00  0.00     0.202 C 
ATOM     15  O   UNL     1      33.267  32.558 -14.774  1.00  0.00    -0.341 OA
ATOM     16  C   UNL     1      31.970  35.063 -13.773  1.00  0.00     0.179 C 
ATOM     17  C   UNL     1      34.048  33.701 -14.429  1.00  0.00     0.178 C 
ATOM     18  C   UNL     1      33.407  34.655 -13.384  1.00  0.00     0.177 C 
BRANCH  14  19
ATOM     19  O   UNL     1      31.187  34.246 -15.901  1.00  0.00    -0.385 OA
ATOM     20  H   UNL     1      30.808  33.456 -16.368  1.00  0.00     0.211 HD
ENDBRANCH  14  19
BRANCH  16  21
ATOM     21  O   UNL     1      31.264  35.387 -12.600  1.00  0.00    -0.387 OA
ATOM     22  H   UNL     1      31.745  36.141 -12.170  1.00  0.00     0.211 HD
ENDBRANCH  16  21
BRANCH  17  23
ATOM     23  C   UNL     1      34.474  34.419 -15.722  1.00  0.00     0.191 C 
BRANCH  23  24
ATOM     24  O   UNL     1      33.988  33.737 -16.845  1.00  0.00    -0.394 OA
ATOM     25  H   UNL     1      33.317  34.333 -17.263  1.00  0.00     0.210 HD
ENDBRANCH  23  24
ENDBRANCH  17  23
BRANCH  18  26
ATOM     26  O   UNL     1      34.203  35.800 -13.206  1.00  0.00    -0.387 OA
ATOM     27  H   UNL     1      33.584  36.570 -13.090  1.00  0.00     0.211 HD
ENDBRANCH  18  26
ENDBRANCH  12  13
ENDBRANCH   7  12
BRANCH   4  28
ATOM     28  O   UNL     1      30.041  27.060 -12.472  1.00  0.00    -0.365 OA
ATOM     29  H   UNL     1      29.835  26.576 -11.630  1.00  0.00     0.214 HD
ENDBRANCH   4  28
BRANCH   8  30
ATOM     30  C   UNL     1      33.681  30.150 -11.912  1.00  0.00     0.249 C 
BRANCH  30  31
ATOM     31  O   UNL     1      34.226  29.860 -10.625  1.00  0.00    -0.461 OA
BRANCH  31  32
ATOM     32  C   UNL     1      35.486  30.277 -10.175  1.00  0.00     0.338 C 
ATOM     33  O   UNL     1      36.539  29.729 -10.600  1.00  0.00    -0.246 OA
BRANCH  32  34
ATOM     34  C   UNL     1      35.580  31.380  -9.200  1.00  0.00     0.060 A 
ATOM     35  C   UNL     1      36.451  31.291  -8.100  1.00  0.00     0.015 A 
ATOM     36  C   UNL     1      34.808  32.539  -9.371  1.00  0.00     0.015 A 
ATOM     37  C   UNL     1      36.527  32.341  -7.176  1.00  0.00     0.001 A 
ATOM     38  C   UNL     1      34.888  33.586  -8.448  1.00  0.00     0.001 A 
ATOM     39  C   UNL     1      35.743  33.485  -7.348  1.00  0.00     0.000 A 
ENDBRANCH  32  34
ENDBRANCH  31  32
ENDBRANCH  30  31
ENDBRANCH   8  30
TORSDOF 12
ENDMDL
MODEL 3
REMARK VINA RESULT:    -6.025      2.623      6.336
REMARK INTER + INTRA:         -10.663
REMARK INTER:                  -9.595
REMARK INTRA:                  -1.068
REMARK UNBOUND:                -1.292
REMARK SMILES C[C@]12C[C@]3(O)O[C@H](O1)[C@@]1(COC(=O)c4ccccc4)[C@@H]3C[C@]12O[C@@H]1O[C@@H](CO)[C@@H](O)[C@H](O)[C@H]1O
REMARK SMILES IDX 1 1 2 2 3 3 4 4 20 5 21 6 22 7 9 8 7 9 8 10 6 11 23 12 24 13
REMARK SMILES IDX 33 14 25 15 31 16 26 17 29 18 34 19 32 21 27 23 28 24 30 26
REMARK SMILES IDX 5 28 10 30 11 31 12 32 13 33 14 34 15 35 19 36 16 37 18 38
REMARK SMILES IDX 17 39
REMARK H PARENT 34 20 32 22 28 25 30 27 5 29
REMARK Flexibility Score: inf
ROOT
ATOM      1  C   UNL     1      27.652  28.659 -13.229  1.00  0.00     0.046 C 
ATOM      2  C   UNL     1      28.793  29.669 -13.113  1.00  0.00     0.104 C 
ATOM      3  C   UNL     1      28.258  31.094 -12.721  1.00  0.00     0.104 C 
ATOM      4  C   UNL     1      29.566  31.958 -12.603  1.00  0.00     0.175 C 
ATOM      5  C   UNL     1      30.631  31.231 -11.723  1.00  0.00     0.070 C 
ATOM      6  C   UNL     1      30.024  30.131 -10.843  1.00  0.00     0.050 C 
ATOM      7  C   UNL     1      29.955  29.269 -12.123  1.00  0.00     0.115 C 
ATOM      8  C   UNL     1      31.053  30.156 -12.722  1.00  0.00     0.096 C 
ATOM      9  C   UNL     1      30.556  30.631 -14.076  1.00  0.00     0.267 C 
ATOM     10  O   UNL     1      29.426  29.828 -14.369  1.00  0.00    -0.342 OA
ATOM     11  O   UNL     1      30.139  31.975 -13.893  1.00  0.00    -0.320 OA
ENDROOT
BRANCH   7  12
ATOM     12  O   UNL     1      30.310  27.896 -12.046  1.00  0.00    -0.339 OA
BRANCH  12  13
ATOM     13  C   UNL     1      30.218  27.396 -10.718  1.00  0.00     0.282 C 
ATOM     14  C   UNL     1      29.030  26.412 -10.598  1.00  0.00     0.202 C 
ATOM     15  O   UNL     1      31.451  26.811 -10.319  1.00  0.00    -0.341 OA
ATOM     16  C   UNL     1      29.242  25.155 -11.474  1.00  0.00     0.179 C 
ATOM     17  C   UNL     1      31.695  25.485 -10.785  1.00  0.00     0.178 C 
ATOM     18  C   UNL     1      30.719  24.975 -11.880  1.00  0.00     0.177 C 
BRANCH  14  19
ATOM     19  O   UNL     1      28.862  26.024  -9.258  1.00  0.00    -0.385 OA
ATOM     20  H   UNL     1      29.062  25.052  -9.207  1.00  0.00     0.211 HD
ENDBRANCH  14  19
BRANCH  16  21
ATOM     21  O   UNL     1      28.464  25.255 -12.642  1.00  0.00    -0.387 OA
ATOM     22  H   UNL     1      28.595  26.170 -13.001  1.00  0.00     0.211 HD
ENDBRANCH  16  21
BRANCH  17  23
ATOM     23  C   UNL     1      31.790  24.542  -9.573  1.00  0.00     0.191 C 
BRANCH  23  24
ATOM     24  O   UNL     1      32.464  23.364  -9.920  1.00  0.00    -0.394 OA
ATOM     25  H   UNL     1      32.859  23.013  -9.082  1.00  0.00     0.210 HD
ENDBRANCH  23  24
ENDBRANCH  17  23
BRANCH  18  26
ATOM     26  O   UNL     1      30.977  23.626 -12.183  1.00  0.00    -0.387 OA
ATOM     27  H   UNL     1      30.173  23.273 -12.650  1.00  0.00     0.211 HD
ENDBRANCH  18  26
ENDBRANCH  12  13
ENDBRANCH   7  12
BRANCH   4  28
ATOM     28  O   UNL     1      29.314  33.256 -12.138  1.00  0.00    -0.365 OA
ATOM     29  H   UNL     1      29.577  33.877 -12.867  1.00  0.00     0.214 HD
ENDBRANCH   4  28
BRANCH   8  30
ATOM     30  C   UNL     1      32.534  29.717 -12.606  1.00  0.00     0.249 C 
BRANCH  30  31
ATOM     31  O   UNL     1      33.384  30.443 -13.492  1.00  0.00    -0.461 OA
BRANCH  31  32
ATOM     32  C   UNL     1      34.193  31.526 -13.122  1.00  0.00     0.338 C 
ATOM     33  O   UNL     1      34.687  32.294 -13.993  1.00  0.00    -0.246 OA
BRANCH  32  34
ATOM     34  C   UNL     1      34.460  31.777 -11.693  1.00  0.00     0.060 A 
ATOM     35  C   UNL     1      35.239  30.879 -10.941  1.00  0.00     0.015 A 
ATOM     36  C   UNL     1      33.950  32.927 -11.073  1.00  0.00     0.015 A 
ATOM     37  C   UNL     1      35.481  31.124  -9.583  1.00  0.00     0.001 A 
ATOM     38  C   UNL     1      34.195  33.170  -9.718  1.00  0.00     0.001 A 
ATOM     39  C   UNL     1      34.955  32.266  -8.973  1.00  0.00     0.000 A 
ENDBRANCH  32  34
ENDBRANCH  31  32
ENDBRANCH  30  31
ENDBRANCH   8  30
TORSDOF 12
ENDMDL
MODEL 4
REMARK VINA RESULT:    -5.981     11.698     13.792
REMARK INTER + INTRA:         -10.595
REMARK INTER:                  -9.507
REMARK INTRA:                  -1.088
REMARK UNBOUND:                -1.292
REMARK SMILES C[C@]12C[C@]3(O)O[C@H](O1)[C@@]1(COC(=O)c4ccccc4)[C@@H]3C[C@]12O[C@@H]1O[C@@H](CO)[C@@H](O)[C@H](O)[C@H]1O
REMARK SMILES IDX 1 1 2 2 3 3 4 4 20 5 21 6 22 7 9 8 7 9 8 10 6 11 23 12 24 13
REMARK SMILES IDX 33 14 25 15 31 16 26 17 29 18 34 19 32 21 27 23 28 24 30 26
REMARK SMILES IDX 5 28 10 30 11 31 12 32 13 33 14 34 15 35 19 36 16 37 18 38
REMARK SMILES IDX 17 39
REMARK H PARENT 34 20 32 22 28 25 30 27 5 29
REMARK Flexibility Score: inf
ROOT
ATOM      1  C   UNL     1      28.816  21.866 -17.810  1.00  0.00     0.046 C 
ATOM      2  C   UNL     1      29.758  21.067 -18.710  1.00  0.00     0.104 C 
ATOM      3  C   UNL     1      29.902  19.583 -18.213  1.00  0.00     0.104 C 
ATOM      4  C   UNL     1      30.851  18.928 -19.282  1.00  0.00     0.175 C 
ATOM      5  C   UNL     1      30.357  19.246 -20.728  1.00  0.00     0.070 C 
ATOM      6  C   UNL     1      28.891  19.694 -20.770  1.00  0.00     0.050 C 
ATOM      7  C   UNL     1      29.387  21.059 -20.244  1.00  0.00     0.115 C 
ATOM      8  C   UNL     1      30.776  20.712 -20.792  1.00  0.00     0.096 C 
ATOM      9  C   UNL     1      31.767  20.910 -19.659  1.00  0.00     0.267 C 
ATOM     10  O   UNL     1      31.061  21.618 -18.655  1.00  0.00    -0.342 OA
ATOM     11  O   UNL     1      32.082  19.611 -19.180  1.00  0.00    -0.320 OA
ENDROOT
BRANCH   7  12
ATOM     12  O   UNL     1      28.837  22.248 -20.794  1.00  0.00    -0.339 OA
BRANCH  12  13
ATOM     13  C   UNL     1      27.533  22.038 -21.321  1.00  0.00     0.282 C 
ATOM     14  C   UNL     1      26.512  22.949 -20.601  1.00  0.00     0.202 C 
ATOM     15  O   UNL     1      27.530  22.224 -22.731  1.00  0.00    -0.341 OA
ATOM     16  C   UNL     1      26.801  24.446 -20.862  1.00  0.00     0.179 C 
ATOM     17  C   UNL     1      27.478  23.576 -23.184  1.00  0.00     0.178 C 
ATOM     18  C   UNL     1      27.713  24.653 -22.090  1.00  0.00     0.177 C 
BRANCH  14  19
ATOM     19  O   UNL     1      25.209  22.644 -21.031  1.00  0.00    -0.385 OA
ATOM     20  H   UNL     1      25.256  22.470 -22.007  1.00  0.00     0.211 HD
ENDBRANCH  14  19
BRANCH  16  21
ATOM     21  O   UNL     1      27.428  25.012 -19.737  1.00  0.00    -0.387 OA
ATOM     22  H   UNL     1      28.319  24.582 -19.654  1.00  0.00     0.211 HD
ENDBRANCH  16  21
BRANCH  17  23
ATOM     23  C   UNL     1      26.172  23.787 -23.969  1.00  0.00     0.191 C 
BRANCH  23  24
ATOM     24  O   UNL     1      25.403  22.616 -23.966  1.00  0.00    -0.394 OA
ATOM     25  H   UNL     1      25.766  22.044 -24.690  1.00  0.00     0.210 HD
ENDBRANCH  23  24
ENDBRANCH  17  23
BRANCH  18  26
ATOM     26  O   UNL     1      27.527  25.943 -22.618  1.00  0.00    -0.387 OA
ATOM     27  H   UNL     1      28.349  26.464 -22.412  1.00  0.00     0.211 HD
ENDBRANCH  18  26
ENDBRANCH  12  13
ENDBRANCH   7  12
BRANCH   4  28
ATOM     28  O   UNL     1      31.013  17.549 -19.084  1.00  0.00    -0.365 OA
ATOM     29  H   UNL     1      31.951  17.334 -19.333  1.00  0.00     0.214 HD
ENDBRANCH   4  28
BRANCH   8  30
ATOM     30  C   UNL     1      31.182  21.204 -22.204  1.00  0.00     0.249 C 
BRANCH  30  31
ATOM     31  O   UNL     1      32.456  21.846 -22.208  1.00  0.00    -0.461 OA
BRANCH  31  32
ATOM     32  C   UNL     1      33.040  22.465 -23.321  1.00  0.00     0.338 C 
ATOM     33  O   UNL     1      33.459  21.783 -24.296  1.00  0.00    -0.246 OA
BRANCH  32  34
ATOM     34  C   UNL     1      33.153  23.936 -23.357  1.00  0.00     0.060 A 
ATOM     35  C   UNL     1      32.064  24.747 -22.993  1.00  0.00     0.015 A 
ATOM     36  C   UNL     1      34.359  24.540 -23.742  1.00  0.00     0.015 A 
ATOM     37  C   UNL     1      32.180  26.142 -23.038  1.00  0.00     0.001 A 
ATOM     38  C   UNL     1      34.472  25.933 -23.783  1.00  0.00     0.001 A 
ATOM     39  C   UNL     1      33.381  26.733 -23.437  1.00  0.00     0.000 A 
ENDBRANCH  32  34
ENDBRANCH  31  32
ENDBRANCH  30  31
ENDBRANCH   8  30
TORSDOF 12
ENDMDL
MODEL 5
REMARK VINA RESULT:    -5.964      3.097      6.744
REMARK INTER + INTRA:         -10.569
REMARK INTER:                  -9.320
REMARK INTRA:                  -1.249
REMARK UNBOUND:                -1.292
REMARK SMILES C[C@]12C[C@]3(O)O[C@H](O1)[C@@]1(COC(=O)c4ccccc4)[C@@H]3C[C@]12O[C@@H]1O[C@@H](CO)[C@@H](O)[C@H](O)[C@H]1O
REMARK SMILES IDX 1 1 2 2 3 3 4 4 20 5 21 6 22 7 9 8 7 9 8 10 6 11 23 12 24 13
REMARK SMILES IDX 33 14 25 15 31 16 26 17 29 18 34 19 32 21 27 23 28 24 30 26
REMARK SMILES IDX 5 28 10 30 11 31 12 32 13 33 14 34 15 35 19 36 16 37 18 38
REMARK SMILES IDX 17 39
REMARK H PARENT 34 20 32 22 28 25 30 27 5 29
REMARK Flexibility Score: inf
ROOT
ATOM      1  C   UNL     1      28.633  29.424 -11.998  1.00  0.00     0.046 C 
ATOM      2  C   UNL     1      29.873  30.076 -11.385  1.00  0.00     0.104 C 
ATOM      3  C   UNL     1      29.500  31.380 -10.592  1.00  0.00     0.104 C 
ATOM      4  C   UNL     1      30.878  31.861 -10.007  1.00  0.00     0.175 C 
ATOM      5  C   UNL     1      31.622  30.682  -9.307  1.00  0.00     0.070 C 
ATOM      6  C   UNL     1      30.691  29.515  -8.956  1.00  0.00     0.050 C 
ATOM      7  C   UNL     1      30.741  29.143 -10.455  1.00  0.00     0.115 C 
ATOM      8  C   UNL     1      32.059  29.918 -10.554  1.00  0.00     0.096 C 
ATOM      9  C   UNL     1      31.919  30.896 -11.708  1.00  0.00     0.267 C 
ATOM     10  O   UNL     1      30.757  30.489 -12.410  1.00  0.00    -0.342 OA
ATOM     11  O   UNL     1      31.688  32.167 -11.121  1.00  0.00    -0.320 OA
ENDROOT
BRANCH   7  12
ATOM     12  O   UNL     1      30.856  27.774 -10.819  1.00  0.00    -0.339 OA
BRANCH  12  13
ATOM     13  C   UNL     1      30.418  26.908  -9.780  1.00  0.00     0.282 C 
ATOM     14  C   UNL     1      29.123  26.177 -10.203  1.00  0.00     0.202 C 
ATOM     15  O   UNL     1      31.456  26.007  -9.411  1.00  0.00    -0.341 OA
ATOM     16  C   UNL     1      29.364  25.244 -11.412  1.00  0.00     0.179 C 
ATOM     17  C   UNL     1      31.632  24.874 -10.260  1.00  0.00     0.178 C 
ATOM     18  C   UNL     1      30.862  24.927 -11.608  1.00  0.00     0.177 C 
BRANCH  14  19
ATOM     19  O   UNL     1      28.622  25.426  -9.126  1.00  0.00    -0.385 OA
ATOM     20  H   UNL     1      27.712  25.769  -8.927  1.00  0.00     0.211 HD
ENDBRANCH  14  19
BRANCH  16  21
ATOM     21  O   UNL     1      28.876  25.849 -12.584  1.00  0.00    -0.387 OA
ATOM     22  H   UNL     1      28.022  25.399 -12.810  1.00  0.00     0.211 HD
ENDBRANCH  16  21
BRANCH  17  23
ATOM     23  C   UNL     1      31.346  23.598  -9.451  1.00  0.00     0.191 C 
BRANCH  23  24
ATOM     24  O   UNL     1      32.118  22.530  -9.930  1.00  0.00    -0.394 OA
ATOM     25  H   UNL     1      32.667  22.895 -10.669  1.00  0.00     0.210 HD
ENDBRANCH  23  24
ENDBRANCH  17  23
BRANCH  18  26
ATOM     26  O   UNL     1      31.012  23.719 -12.312  1.00  0.00    -0.387 OA
ATOM     27  H   UNL     1      31.910  23.740 -12.738  1.00  0.00     0.211 HD
ENDBRANCH  18  26
ENDBRANCH  12  13
ENDBRANCH   7  12
BRANCH   4  28
ATOM     28  O   UNL     1      30.744  32.965  -9.153  1.00  0.00    -0.365 OA
ATOM     29  H   UNL     1      31.528  33.552  -9.320  1.00  0.00     0.214 HD
ENDBRANCH   4  28
BRANCH   8  30
ATOM     30  C   UNL     1      33.402  29.161 -10.406  1.00  0.00     0.249 C 
BRANCH  30  31
ATOM     31  O   UNL     1      34.494  29.876 -10.984  1.00  0.00    -0.461 OA
BRANCH  31  32
ATOM     32  C   UNL     1      35.656  30.256 -10.300  1.00  0.00     0.338 C 
ATOM     33  O   UNL     1      36.751  29.661 -10.504  1.00  0.00    -0.246 OA
BRANCH  32  34
ATOM     34  C   UNL     1      35.601  31.373  -9.339  1.00  0.00     0.060 A 
ATOM     35  C   UNL     1      36.371  31.345  -8.163  1.00  0.00     0.015 A 
ATOM     36  C   UNL     1      34.788  32.486  -9.599  1.00  0.00     0.015 A 
ATOM     37  C   UNL     1      36.306  32.408  -7.253  1.00  0.00     0.001 A 
ATOM     38  C   UNL     1      34.726  33.546  -8.690  1.00  0.00     0.001 A 
ATOM     39  C   UNL     1      35.480  33.505  -7.515  1.00  0.00     0.000 A 
ENDBRANCH  32  34
ENDBRANCH  31  32
ENDBRANCH  30  31
ENDBRANCH   8  30
TORSDOF 12
ENDMDL
MODEL 6
REMARK VINA RESULT:    -5.949      3.575      5.175
REMARK INTER + INTRA:         -10.544
REMARK INTER:                  -9.145
REMARK INTRA:                  -1.399
REMARK UNBOUND:                -1.292
REMARK SMILES C[C@]12C[C@]3(O)O[C@H](O1)[C@@]1(COC(=O)c4ccccc4)[C@@H]3C[C@]12O[C@@H]1O[C@@H](CO)[C@@H](O)[C@H](O)[C@H]1O
REMARK SMILES IDX 1 1 2 2 3 3 4 4 20 5 21 6 22 7 9 8 7 9 8 10 6 11 23 12 24 13
REMARK SMILES IDX 33 14 25 15 31 16 26 17 29 18 34 19 32 21 27 23 28 24 30 26
REMARK SMILES IDX 5 28 10 30 11 31 12 32 13 33 14 34 15 35 19 36 16 37 18 38
REMARK SMILES IDX 17 39
REMARK H PARENT 34 20 32 22 28 25 30 27 5 29
REMARK Flexibility Score: inf
ROOT
ATOM      1  C   UNL     1      26.857  31.758 -14.720  1.00  0.00     0.046 C 
ATOM      2  C   UNL     1      28.358  31.830 -14.443  1.00  0.00     0.104 C 
ATOM      3  C   UNL     1      28.772  30.863 -13.275  1.00  0.00     0.104 C 
ATOM      4  C   UNL     1      30.331  31.042 -13.184  1.00  0.00     0.175 C 
ATOM      5  C   UNL     1      30.985  30.920 -14.596  1.00  0.00     0.070 C 
ATOM      6  C   UNL     1      30.073  30.226 -15.615  1.00  0.00     0.050 C 
ATOM      7  C   UNL     1      29.291  31.558 -15.687  1.00  0.00     0.115 C 
ATOM      8  C   UNL     1      30.546  32.267 -15.165  1.00  0.00     0.096 C 
ATOM      9  C   UNL     1      30.124  33.104 -13.970  1.00  0.00     0.267 C 
ATOM     10  O   UNL     1      28.707  33.130 -14.007  1.00  0.00    -0.342 OA
ATOM     11  O   UNL     1      30.547  32.389 -12.819  1.00  0.00    -0.320 OA
ENDROOT
BRANCH   7  12
ATOM     12  O   UNL     1      28.854  32.030 -16.953  1.00  0.00    -0.339 OA
BRANCH  12  13
ATOM     13  C   UNL     1      28.801  30.989 -17.920  1.00  0.00     0.282 C 
ATOM     14  C   UNL     1      27.332  30.608 -18.216  1.00  0.00     0.202 C 
ATOM     15  O   UNL     1      29.514  31.362 -19.094  1.00  0.00    -0.341 OA
ATOM     16  C   UNL     1      26.559  31.781 -18.863  1.00  0.00     0.179 C 
ATOM     17  C   UNL     1      28.821  32.219 -20.000  1.00  0.00     0.178 C 
ATOM     18  C   UNL     1      27.508  32.844 -19.454  1.00  0.00     0.177 C 
BRANCH  14  19
ATOM     19  O   UNL     1      27.287  29.493 -19.070  1.00  0.00    -0.385 OA
ATOM     20  H   UNL     1      26.708  28.814 -18.635  1.00  0.00     0.211 HD
ENDBRANCH  14  19
BRANCH  16  21
ATOM     21  O   UNL     1      25.739  32.397 -17.900  1.00  0.00    -0.387 OA
ATOM     22  H   UNL     1      24.802  32.153 -18.117  1.00  0.00     0.211 HD
ENDBRANCH  16  21
BRANCH  17  23
ATOM     23  C   UNL     1      28.628  31.478 -21.335  1.00  0.00     0.191 C 
BRANCH  23  24
ATOM     24  O   UNL     1      28.477  32.393 -22.386  1.00  0.00    -0.394 OA
ATOM     25  H   UNL     1      28.157  33.236 -21.976  1.00  0.00     0.210 HD
ENDBRANCH  23  24
ENDBRANCH  17  23
BRANCH  18  26
ATOM     26  O   UNL     1      26.851  33.573 -20.461  1.00  0.00    -0.387 OA
ATOM     27  H   UNL     1      26.165  32.972 -20.856  1.00  0.00     0.211 HD
ENDBRANCH  18  26
ENDBRANCH  12  13
ENDBRANCH   7  12
BRANCH   4  28
ATOM     28  O   UNL     1      30.921  30.162 -12.265  1.00  0.00    -0.365 OA
ATOM     29  H   UNL     1      30.599  30.432 -11.365  1.00  0.00     0.214 HD
ENDBRANCH   4  28
BRANCH   8  30
ATOM     30  C   UNL     1      31.541  32.894 -16.173  1.00  0.00     0.249 C 
BRANCH  30  31
ATOM     31  O   UNL     1      32.484  33.757 -15.537  1.00  0.00    -0.461 OA
BRANCH  31  32
ATOM     32  C   UNL     1      33.751  33.367 -15.084  1.00  0.00     0.338 C 
ATOM     33  O   UNL     1      34.748  33.384 -15.858  1.00  0.00    -0.246 OA
BRANCH  32  34
ATOM     34  C   UNL     1      33.923  32.944 -13.682  1.00  0.00     0.060 A 
ATOM     35  C   UNL     1      34.354  31.642 -13.374  1.00  0.00     0.015 A 
ATOM     36  C   UNL     1      33.670  33.847 -12.638  1.00  0.00     0.015 A 
ATOM     37  C   UNL     1      34.507  31.248 -12.039  1.00  0.00     0.001 A 
ATOM     38  C   UNL     1      33.826  33.451 -11.306  1.00  0.00     0.001 A 
ATOM     39  C   UNL     1      34.238  32.151 -11.007  1.00  0.00     0.000 A 
ENDBRANCH  32  34
ENDBRANCH  31  32
ENDBRANCH  30  31
ENDBRANCH   8  30
TORSDOF 12
ENDMDL
MODEL 7
REMARK VINA RESULT:    -5.922      1.621      5.412
REMARK INTER + INTRA:         -10.503
REMARK INTER:                  -9.606
REMARK INTRA:                  -0.896
REMARK UNBOUND:                -1.292
REMARK SMILES C[C@]12C[C@]3(O)O[C@H](O1)[C@@]1(COC(=O)c4ccccc4)[C@@H]3C[C@]12O[C@@H]1O[C@@H](CO)[C@@H](O)[C@H](O)[C@H]1O
REMARK SMILES IDX 1 1 2 2 3 3 4 4 20 5 21 6 22 7 9 8 7 9 8 10 6 11 23 12 24 13
REMARK SMILES IDX 33 14 25 15 31 16 26 17 29 18 34 19 32 21 27 23 28 24 30 26
REMARK SMILES IDX 5 28 10 30 11 31 12 32 13 33 14 34 15 35 19 36 16 37 18 38
REMARK SMILES IDX 17 39
REMARK H PARENT 34 20 32 22 28 25 30 27 5 29
REMARK Flexibility Score: inf
ROOT
ATOM      1  C   UNL     1      31.158  33.680 -16.021  1.00  0.00     0.046 C 
ATOM      2  C   UNL     1      32.277  33.633 -14.982  1.00  0.00     0.104 C 
ATOM      3  C   UNL     1      32.869  35.064 -14.713  1.00  0.00     0.104 C 
ATOM      4  C   UNL     1      33.948  34.812 -13.598  1.00  0.00     0.175 C 
ATOM      5  C   UNL     1      33.352  33.960 -12.434  1.00  0.00     0.070 C 
ATOM      6  C   UNL     1      31.818  33.964 -12.420  1.00  0.00     0.050 C 
ATOM      7  C   UNL     1      31.894  32.971 -13.601  1.00  0.00     0.115 C 
ATOM      8  C   UNL     1      33.311  32.608 -13.143  1.00  0.00     0.096 C 
ATOM      9  C   UNL     1      34.221  32.746 -14.351  1.00  0.00     0.267 C 
ATOM     10  O   UNL     1      33.356  32.856 -15.468  1.00  0.00    -0.342 OA
ATOM     11  O   UNL     1      34.920  33.970 -14.179  1.00  0.00    -0.320 OA
ENDROOT
BRANCH   7  12
ATOM     12  O   UNL     1      31.002  31.865 -13.627  1.00  0.00    -0.339 OA
BRANCH  12  13
ATOM     13  C   UNL     1      29.735  32.190 -13.068  1.00  0.00     0.282 C 
ATOM     14  C   UNL     1      28.621  32.004 -14.125  1.00  0.00     0.202 C 
ATOM     15  O   UNL     1      29.500  31.428 -11.890  1.00  0.00    -0.341 OA
ATOM     16  C   UNL     1      28.488  30.526 -14.559  1.00  0.00     0.179 C 
ATOM     17  C   UNL     1      29.052  30.089 -12.090  1.00  0.00     0.178 C 
ATOM     18  C   UNL     1      29.150  29.565 -13.549  1.00  0.00     0.177 C 
BRANCH  14  19
ATOM     19  O   UNL     1      27.392  32.451 -13.611  1.00  0.00    -0.385 OA
ATOM     20  H   UNL     1      27.574  32.846 -12.717  1.00  0.00     0.211 HD
ENDBRANCH  14  19
BRANCH  16  21
ATOM     21  O   UNL     1      29.095  30.344 -15.815  1.00  0.00    -0.387 OA
ATOM     22  H   UNL     1      28.489  29.769 -16.350  1.00  0.00     0.211 HD
ENDBRANCH  16  21
BRANCH  17  23
ATOM     23  C   UNL     1      27.643  29.941 -11.488  1.00  0.00     0.191 C 
BRANCH  23  24
ATOM     24  O   UNL     1      27.204  31.163 -10.962  1.00  0.00    -0.394 OA
ATOM     25  H   UNL     1      28.014  31.724 -10.850  1.00  0.00     0.210 HD
ENDBRANCH  23  24
ENDBRANCH  17  23
BRANCH  18  26
ATOM     26  O   UNL     1      28.579  28.284 -13.654  1.00  0.00    -0.387 OA
ATOM     27  H   UNL     1      27.887  28.215 -12.943  1.00  0.00     0.211 HD
ENDBRANCH  18  26
ENDBRANCH  12  13
ENDBRANCH   7  12
BRANCH   4  28
ATOM     28  O   UNL     1      34.519  36.002 -13.124  1.00  0.00    -0.365 OA
ATOM     29  H   UNL     1      34.317  36.704 -13.797  1.00  0.00     0.214 HD
ENDBRANCH   4  28
BRANCH   8  30
ATOM     30  C   UNL     1      33.521  31.388 -12.213  1.00  0.00     0.249 C 
BRANCH  30  31
ATOM     31  O   UNL     1      34.868  31.284 -11.752  1.00  0.00    -0.461 OA
BRANCH  31  32
ATOM     32  C   UNL     1      35.257  30.728 -10.527  1.00  0.00     0.338 C 
ATOM     33  O   UNL     1      35.433  29.485 -10.407  1.00  0.00    -0.246 OA
BRANCH  32  34
ATOM     34  C   UNL     1      35.476  31.611  -9.366  1.00  0.00     0.060 A 
ATOM     35  C   UNL     1      34.765  32.817  -9.239  1.00  0.00     0.015 A 
ATOM     36  C   UNL     1      36.389  31.246  -8.365  1.00  0.00     0.015 A 
ATOM     37  C   UNL     1      34.985  33.652  -8.135  1.00  0.00     0.001 A 
ATOM     38  C   UNL     1      36.605  32.080  -7.264  1.00  0.00     0.001 A 
ATOM     39  C   UNL     1      35.908  33.284  -7.152  1.00  0.00     0.000 A 
ENDBRANCH  32  34
ENDBRANCH  31  32
ENDBRANCH  30  31
ENDBRANCH   8  30
TORSDOF 12
ENDMDL
MODEL 8
REMARK VINA RESULT:    -5.905     11.824     14.257
REMARK INTER + INTRA:         -10.476
REMARK INTER:                  -9.291
REMARK INTRA:                  -1.185
REMARK UNBOUND:                -1.292
REMARK SMILES C[C@]12C[C@]3(O)O[C@H](O1)[C@@]1(COC(=O)c4ccccc4)[C@@H]3C[C@]12O[C@@H]1O[C@@H](CO)[C@@H](O)[C@H](O)[C@H]1O
REMARK SMILES IDX 1 1 2 2 3 3 4 4 20 5 21 6 22 7 9 8 7 9 8 10 6 11 23 12 24 13
REMARK SMILES IDX 33 14 25 15 31 16 26 17 29 18 34 19 32 21 27 23 28 24 30 26
REMARK SMILES IDX 5 28 10 30 11 31 12 32 13 33 14 34 15 35 19 36 16 37 18 38
REMARK SMILES IDX 17 39
REMARK H PARENT 34 20 32 22 28 25 30 27 5 29
REMARK Flexibility Score: inf
ROOT
ATOM      1  C   UNL     1      25.862  17.976 -14.617  1.00  0.00     0.046 C 
ATOM      2  C   UNL     1      26.208  19.410 -15.014  1.00  0.00     0.104 C 
ATOM      3  C   UNL     1      25.064  20.409 -14.609  1.00  0.00     0.104 C 
ATOM      4  C   UNL     1      25.626  21.810 -15.048  1.00  0.00     0.175 C 
ATOM      5  C   UNL     1      27.085  22.007 -14.528  1.00  0.00     0.070 C 
ATOM      6  C   UNL     1      27.441  21.053 -13.382  1.00  0.00     0.050 C 
ATOM      7  C   UNL     1      27.582  19.955 -14.460  1.00  0.00     0.115 C 
ATOM      8  C   UNL     1      27.798  21.066 -15.494  1.00  0.00     0.096 C 
ATOM      9  C   UNL     1      26.820  20.817 -16.629  1.00  0.00     0.267 C 
ATOM     10  O   UNL     1      26.322  19.507 -16.421  1.00  0.00    -0.342 OA
ATOM     11  O   UNL     1      25.766  21.751 -16.451  1.00  0.00    -0.320 OA
ENDROOT
BRANCH   7  12
ATOM     12  O   UNL     1      28.665  19.040 -14.370  1.00  0.00    -0.339 OA
BRANCH  12  13
ATOM     13  C   UNL     1      28.794  18.494 -13.064  1.00  0.00     0.282 C 
ATOM     14  C   UNL     1      28.988  16.961 -13.141  1.00  0.00     0.202 C 
ATOM     15  O   UNL     1      29.845  19.140 -12.355  1.00  0.00    -0.341 OA
ATOM     16  C   UNL     1      30.310  16.590 -13.851  1.00  0.00     0.179 C 
ATOM     17  C   UNL     1      31.167  18.697 -12.655  1.00  0.00     0.178 C 
ATOM     18  C   UNL     1      31.294  17.777 -13.901  1.00  0.00     0.177 C 
BRANCH  14  19
ATOM     19  O   UNL     1      28.982  16.411 -11.848  1.00  0.00    -0.385 OA
ATOM     20  H   UNL     1      29.047  17.167 -11.208  1.00  0.00     0.211 HD
ENDBRANCH  14  19
BRANCH  16  21
ATOM     21  O   UNL     1      30.041  16.175 -15.169  1.00  0.00    -0.387 OA
ATOM     22  H   UNL     1      29.643  15.268 -15.112  1.00  0.00     0.211 HD
ENDBRANCH  16  21
BRANCH  17  23
ATOM     23  C   UNL     1      31.785  18.084 -11.387  1.00  0.00     0.191 C 
BRANCH  23  24
ATOM     24  O   UNL     1      30.878  18.145 -10.320  1.00  0.00    -0.394 OA
ATOM     25  H   UNL     1      31.306  17.669  -9.565  1.00  0.00     0.210 HD
ENDBRANCH  23  24
ENDBRANCH  17  23
BRANCH  18  26
ATOM     26  O   UNL     1      32.613  17.308 -14.037  1.00  0.00    -0.387 OA
ATOM     27  H   UNL     1      33.172  18.084 -14.307  1.00  0.00     0.211 HD
ENDBRANCH  18  26
ENDBRANCH  12  13
ENDBRANCH   7  12
BRANCH   4  28
ATOM     28  O   UNL     1      24.793  22.869 -14.661  1.00  0.00    -0.365 OA
ATOM     29  H   UNL     1      24.104  22.964 -15.369  1.00  0.00     0.214 HD
ENDBRANCH   4  28
BRANCH   8  30
ATOM     30  C   UNL     1      29.241  21.494 -15.861  1.00  0.00     0.249 C 
BRANCH  30  31
ATOM     31  O   UNL     1      29.624  21.044 -17.160  1.00  0.00    -0.461 OA
BRANCH  31  32
ATOM     32  C   UNL     1      30.352  19.876 -17.423  1.00  0.00     0.338 C 
ATOM     33  O   UNL     1      29.949  18.755 -17.008  1.00  0.00    -0.246 OA
BRANCH  32  34
ATOM     34  C   UNL     1      31.599  19.959 -18.206  1.00  0.00     0.060 A 
ATOM     35  C   UNL     1      31.661  20.737 -19.375  1.00  0.00     0.015 A 
ATOM     36  C   UNL     1      32.745  19.269 -17.781  1.00  0.00     0.015 A 
ATOM     37  C   UNL     1      32.849  20.803 -20.115  1.00  0.00     0.001 A 
ATOM     38  C   UNL     1      33.929  19.338 -18.520  1.00  0.00     0.001 A 
ATOM     39  C   UNL     1      33.979  20.100 -19.690  1.00  0.00     0.000 A 
ENDBRANCH  32  34
ENDBRANCH  31  32
ENDBRANCH  30  31
ENDBRANCH   8  30
TORSDOF 12
ENDMDL
MODEL 9
REMARK VINA RESULT:    -5.854     12.082     14.873
REMARK INTER + INTRA:         -10.396
REMARK INTER:                  -9.115
REMARK INTRA:                  -1.282
REMARK UNBOUND:                -1.292
REMARK SMILES C[C@]12C[C@]3(O)O[C@H](O1)[C@@]1(COC(=O)c4ccccc4)[C@@H]3C[C@]12O[C@@H]1O[C@@H](CO)[C@@H](O)[C@H](O)[C@H]1O
REMARK SMILES IDX 1 1 2 2 3 3 4 4 20 5 21 6 22 7 9 8 7 9 8 10 6 11 23 12 24 13
REMARK SMILES IDX 33 14 25 15 31 16 26 17 29 18 34 19 32 21 27 23 28 24 30 26
REMARK SMILES IDX 5 28 10 30 11 31 12 32 13 33 14 34 15 35 19 36 16 37 18 38
REMARK SMILES IDX 17 39
REMARK H PARENT 34 20 32 22 28 25 30 27 5 29
REMARK Flexibility Score: inf
ROOT
ATOM      1  C   UNL     1      31.051  19.182 -20.857  1.00  0.00     0.046 C 
ATOM      2  C   UNL     1      30.625  19.026 -19.398  1.00  0.00     0.104 C 
ATOM      3  C   UNL     1      31.870  18.859 -18.453  1.00  0.00     0.104 C 
ATOM      4  C   UNL     1      31.233  18.769 -17.018  1.00  0.00     0.175 C 
ATOM      5  C   UNL     1      30.206  19.924 -16.796  1.00  0.00     0.070 C 
ATOM      6  C   UNL     1      30.391  21.082 -17.784  1.00  0.00     0.050 C 
ATOM      7  C   UNL     1      29.705  20.178 -18.833  1.00  0.00     0.115 C 
ATOM      8  C   UNL     1      29.077  19.394 -17.675  1.00  0.00     0.096 C 
ATOM      9  C   UNL     1      29.387  17.925 -17.908  1.00  0.00     0.267 C 
ATOM     10  O   UNL     1      29.862  17.845 -19.241  1.00  0.00    -0.342 OA
ATOM     11  O   UNL     1      30.442  17.600 -17.016  1.00  0.00    -0.320 OA
ENDROOT
BRANCH   7  12
ATOM     12  O   UNL     1      28.753  20.752 -19.716  1.00  0.00    -0.339 OA
BRANCH  12  13
ATOM     13  C   UNL     1      28.985  22.141 -19.920  1.00  0.00     0.282 C 
ATOM     14  C   UNL     1      29.391  22.404 -21.389  1.00  0.00     0.202 C 
ATOM     15  O   UNL     1      27.849  22.899 -19.525  1.00  0.00    -0.341 OA
ATOM     16  C   UNL     1      28.248  22.053 -22.368  1.00  0.00     0.179 C 
ATOM     17  C   UNL     1      26.776  22.956 -20.465  1.00  0.00     0.178 C 
ATOM     18  C   UNL     1      26.882  21.964 -21.655  1.00  0.00     0.177 C 
BRANCH  14  19
ATOM     19  O   UNL     1      29.748  23.754 -21.553  1.00  0.00    -0.385 OA
ATOM     20  H   UNL     1      30.674  23.771 -21.911  1.00  0.00     0.211 HD
ENDBRANCH  14  19
BRANCH  16  21
ATOM     21  O   UNL     1      28.513  20.816 -22.984  1.00  0.00    -0.387 OA
ATOM     22  H   UNL     1      29.361  20.919 -23.489  1.00  0.00     0.211 HD
ENDBRANCH  16  21
BRANCH  17  23
ATOM     23  C   UNL     1      26.583  24.416 -20.910  1.00  0.00     0.191 C 
BRANCH  23  24
ATOM     24  O   UNL     1      27.403  25.270 -20.161  1.00  0.00    -0.394 OA
ATOM     25  H   UNL     1      28.301  24.852 -20.149  1.00  0.00     0.210 HD
ENDBRANCH  23  24
ENDBRANCH  17  23
BRANCH  18  26
ATOM     26  O   UNL     1      25.841  22.183 -22.575  1.00  0.00    -0.387 OA
ATOM     27  H   UNL     1      25.196  22.803 -22.142  1.00  0.00     0.211 HD
ENDBRANCH  18  26
ENDBRANCH  12  13
ENDBRANCH   7  12
BRANCH   4  28
ATOM     28  O   UNL     1      32.198  18.735 -16.002  1.00  0.00    -0.365 OA
ATOM     29  H   UNL     1      32.735  17.912 -16.145  1.00  0.00     0.214 HD
ENDBRANCH   4  28
BRANCH   8  30
ATOM     30  C   UNL     1      27.654  19.765 -17.188  1.00  0.00     0.249 C 
BRANCH  30  31
ATOM     31  O   UNL     1      26.662  18.861 -17.674  1.00  0.00    -0.461 OA
BRANCH  31  32
ATOM     32  C   UNL     1      25.689  19.176 -18.631  1.00  0.00     0.338 C 
ATOM     33  O   UNL     1      25.932  19.063 -19.864  1.00  0.00    -0.246 OA
BRANCH  32  34
ATOM     34  C   UNL     1      24.358  19.635 -18.189  1.00  0.00     0.060 A 
ATOM     35  C   UNL     1      23.553  20.417 -19.035  1.00  0.00     0.015 A 
ATOM     36  C   UNL     1      23.876  19.280 -16.920  1.00  0.00     0.015 A 
ATOM     37  C   UNL     1      22.293  20.852 -18.604  1.00  0.00     0.001 A 
ATOM     38  C   UNL     1      22.619  19.715 -16.492  1.00  0.00     0.001 A 
ATOM     39  C   UNL     1      21.830  20.506 -17.332  1.00  0.00     0.000 A 
ENDBRANCH  32  34
ENDBRANCH  31  32
ENDBRANCH  30  31
ENDBRANCH   8  30
TORSDOF 12
ENDMDL
