MODEL 1
REMARK VINA RESULT:    -0.697      0.000      0.000
REMARK INTER + INTRA:          -2.015
REMARK INTER:                  -1.227
REMARK INTRA:                  -0.788
REMARK UNBOUND:                -0.788
REMARK SMILES CCCCCCC=CCCCCCCCC(=O)[O-]
REMARK SMILES IDX 10 1 11 2 12 3 13 4 14 5 15 6 16 7 17 8 18 9 9 10 8 11 7 12
REMARK SMILES IDX 6 13 5 14 4 15 3 16 2 17 1 18
REMARK H PARENT
REMARK Flexibility Score: inf
ROOT
ATOM      1  C   UNL     1     -10.991  -8.618  23.656  1.00  0.00     0.004 C 
ENDROOT
BRANCH   1   2
ATOM      2  C   UNL     1      -9.620  -8.909  23.025  1.00  0.00     0.000 C 
BRANCH   2   3
ATOM      3  C   UNL     1      -9.427  -8.201  21.673  1.00  0.00     0.000 C 
BRANCH   3   4
ATOM      4  C   UNL     1      -9.163  -9.185  20.522  1.00  0.00     0.000 C 
BRANCH   4   5
ATOM      5  C   UNL     1      -8.674  -8.483  19.243  1.00  0.00     0.006 C 
BRANCH   5   6
ATOM      6  C   UNL     1      -7.448  -9.179  18.635  1.00  0.00     0.053 C 
BRANCH   6   7
ATOM      7  C   UNL     1      -6.180  -8.438  18.931  1.00  0.00     0.041 C 
ATOM      8  O   UNL     1      -5.339  -8.232  18.017  1.00  0.00    -0.550 OA
ATOM      9  O   UNL     1      -5.943  -7.947  20.209  1.00  0.00    -0.550 OA
ENDBRANCH   6   7
ENDBRANCH   5   6
ENDBRANCH   4   5
ENDBRANCH   3   4
ENDBRANCH   2   3
ENDBRANCH   1   2
BRANCH   1  10
ATOM     10  C   UNL     1     -10.880  -8.085  25.093  1.00  0.00     0.027 C 
BRANCH  10  11
ATOM     11  C   UNL     1      -9.752  -7.092  25.226  1.00  0.00    -0.031 C 
ATOM     12  C   UNL     1      -9.831  -5.904  25.856  1.00  0.00    -0.031 C 
BRANCH  12  13
ATOM     13  C   UNL     1     -11.068  -5.348  26.525  1.00  0.00     0.027 C 
BRANCH  13  14
ATOM     14  C   UNL     1     -10.835  -5.043  28.015  1.00  0.00     0.004 C 
BRANCH  14  15
ATOM     15  C   UNL     1      -9.819  -5.962  28.718  1.00  0.00     0.000 C 
BRANCH  15  16
ATOM     16  C   UNL     1     -10.476  -7.188  29.377  1.00  0.00    -0.000 C 
BRANCH  16  17
ATOM     17  C   UNL     1     -11.556  -7.824  28.488  1.00  0.00    -0.003 C 
ATOM     18  C   UNL     1     -12.083  -9.144  29.048  1.00  0.00     0.004 C 
ENDBRANCH  16  17
ENDBRANCH  15  16
ENDBRANCH  14  15
ENDBRANCH  13  14
ENDBRANCH  12  13
ENDBRANCH  10  11
ENDBRANCH   1  10
TORSDOF 13
ENDMDL
MODEL 2
REMARK VINA RESULT:    -0.437     11.906     14.525
REMARK INTER + INTRA:          -1.557
REMARK INTER:                  -0.828
REMARK INTRA:                  -0.729
REMARK UNBOUND:                -0.788
REMARK SMILES CCCCCCC=CCCCCCCCC(=O)[O-]
REMARK SMILES IDX 10 1 11 2 12 3 13 4 14 5 15 6 16 7 17 8 18 9 9 10 8 11 7 12
REMARK SMILES IDX 6 13 5 14 4 15 3 16 2 17 1 18
REMARK H PARENT
REMARK Flexibility Score: inf
ROOT
ATOM      1  C   UNL     1      -7.632   0.946  13.563  1.00  0.00     0.004 C 
ENDROOT
BRANCH   1   2
ATOM      2  C   UNL     1      -8.994   0.312  13.243  1.00  0.00     0.000 C 
BRANCH   2   3
ATOM      3  C   UNL     1      -9.251  -0.978  14.041  1.00  0.00     0.000 C 
BRANCH   3   4
ATOM      4  C   UNL     1      -9.469  -2.200  13.135  1.00  0.00     0.000 C 
BRANCH   4   5
ATOM      5  C   UNL     1     -10.010  -3.418  13.904  1.00  0.00     0.006 C 
BRANCH   5   6
ATOM      6  C   UNL     1     -11.235  -4.038  13.216  1.00  0.00     0.053 C 
BRANCH   6   7
ATOM      7  C   UNL     1     -12.501  -3.750  13.965  1.00  0.00     0.041 C 
ATOM      8  O   UNL     1     -13.281  -4.689  14.274  1.00  0.00    -0.550 OA
ATOM      9  O   UNL     1     -12.803  -2.450  14.349  1.00  0.00    -0.550 OA
ENDBRANCH   6   7
ENDBRANCH   5   6
ENDBRANCH   4   5
ENDBRANCH   3   4
ENDBRANCH   2   3
ENDBRANCH   1   2
BRANCH   1  10
ATOM     10  C   UNL     1      -7.750   2.414  14.004  1.00  0.00     0.027 C 
BRANCH  10  11
ATOM     11  C   UNL     1      -8.847   2.596  15.022  1.00  0.00    -0.031 C 
ATOM     12  C   UNL     1      -8.767   3.370  16.122  1.00  0.00    -0.031 C 
BRANCH  12  13
ATOM     13  C   UNL     1      -7.559   4.178  16.538  1.00  0.00     0.027 C 
BRANCH  13  14
ATOM     14  C   UNL     1      -7.893   5.669  16.721  1.00  0.00     0.004 C 
BRANCH  14  15
ATOM     15  C   UNL     1      -8.843   6.260  15.661  1.00  0.00     0.000 C 
BRANCH  15  16
ATOM     16  C   UNL     1      -8.101   6.802  14.427  1.00  0.00    -0.000 C 
BRANCH  16  17
ATOM     17  C   UNL     1      -7.043   5.818  13.900  1.00  0.00    -0.003 C 
ATOM     18  C   UNL     1      -6.335   6.327  12.645  1.00  0.00     0.004 C 
ENDBRANCH  16  17
ENDBRANCH  15  16
ENDBRANCH  14  15
ENDBRANCH  13  14
ENDBRANCH  12  13
ENDBRANCH  10  11
ENDBRANCH   1  10
TORSDOF 13
ENDMDL
MODEL 3
REMARK VINA RESULT:    -0.152      3.592      8.745
REMARK INTER + INTRA:          -1.056
REMARK INTER:                  -1.007
REMARK INTRA:                  -0.049
REMARK UNBOUND:                -0.788
REMARK SMILES CCCCCCC=CCCCCCCCC(=O)[O-]
REMARK SMILES IDX 10 1 11 2 12 3 13 4 14 5 15 6 16 7 17 8 18 9 9 10 8 11 7 12
REMARK SMILES IDX 6 13 5 14 4 15 3 16 2 17 1 18
REMARK H PARENT
REMARK Flexibility Score: inf
ROOT
ATOM      1  C   UNL     1      -9.646  -6.757  25.571  1.00  0.00     0.004 C 
ENDROOT
BRANCH   1   2
ATOM      2  C   UNL     1      -9.856  -5.283  25.952  1.00  0.00     0.000 C 
BRANCH   2   3
ATOM      3  C   UNL     1     -11.031  -5.083  26.925  1.00  0.00     0.000 C 
BRANCH   3   4
ATOM      4  C   UNL     1     -10.590  -5.106  28.397  1.00  0.00     0.000 C 
BRANCH   4   5
ATOM      5  C   UNL     1      -9.849  -6.401  28.774  1.00  0.00     0.006 C 
BRANCH   5   6
ATOM      6  C   UNL     1     -10.724  -7.347  29.607  1.00  0.00     0.053 C 
BRANCH   6   7
ATOM      7  C   UNL     1     -11.578  -8.224  28.744  1.00  0.00     0.041 C 
ATOM      8  O   UNL     1     -11.959  -7.822  27.613  1.00  0.00    -0.550 OA
ATOM      9  O   UNL     1     -11.927  -9.498  29.174  1.00  0.00    -0.550 OA
ENDBRANCH   6   7
ENDBRANCH   5   6
ENDBRANCH   4   5
ENDBRANCH   3   4
ENDBRANCH   2   3
ENDBRANCH   1   2
BRANCH   1  10
ATOM     10  C   UNL     1     -10.552  -7.205  24.414  1.00  0.00     0.027 C 
BRANCH  10  11
ATOM     11  C   UNL     1     -10.344  -8.662  24.083  1.00  0.00    -0.031 C 
ATOM     12  C   UNL     1      -9.837  -9.133  22.927  1.00  0.00    -0.031 C 
BRANCH  12  13
ATOM     13  C   UNL     1      -9.406  -8.286  21.751  1.00  0.00     0.027 C 
BRANCH  13  14
ATOM     14  C   UNL     1      -9.291  -9.108  20.455  1.00  0.00     0.004 C 
BRANCH  14  15
ATOM     15  C   UNL     1      -8.590  -8.389  19.286  1.00  0.00     0.000 C 
BRANCH  15  16
ATOM     16  C   UNL     1      -7.515  -9.256  18.608  1.00  0.00    -0.000 C 
BRANCH  16  17
ATOM     17  C   UNL     1      -6.145  -8.561  18.558  1.00  0.00    -0.003 C 
ATOM     18  C   UNL     1      -5.773  -7.891  19.880  1.00  0.00     0.004 C 
ENDBRANCH  16  17
ENDBRANCH  15  16
ENDBRANCH  14  15
ENDBRANCH  13  14
ENDBRANCH  12  13
ENDBRANCH  10  11
ENDBRANCH   1  10
TORSDOF 13
ENDMDL
MODEL 4
REMARK VINA RESULT:     0.094     12.589     15.395
REMARK INTER + INTRA:          -0.622
REMARK INTER:                   0.274
REMARK INTRA:                  -0.896
REMARK UNBOUND:                -0.788
REMARK SMILES CCCCCCC=CCCCCCCCC(=O)[O-]
REMARK SMILES IDX 10 1 11 2 12 3 13 4 14 5 15 6 16 7 17 8 18 9 9 10 8 11 7 12
REMARK SMILES IDX 6 13 5 14 4 15 3 16 2 17 1 18
REMARK H PARENT
REMARK Flexibility Score: inf
ROOT
ATOM      1  C   UNL     1      -8.648   3.308  16.554  1.00  0.00     0.004 C 
ENDROOT
BRANCH   1   2
ATOM      2  C   UNL     1      -7.495   4.312  16.403  1.00  0.00     0.000 C 
BRANCH   2   3
ATOM      3  C   UNL     1      -7.871   5.724  16.883  1.00  0.00     0.000 C 
BRANCH   3   4
ATOM      4  C   UNL     1      -8.883   6.416  15.954  1.00  0.00     0.000 C 
BRANCH   4   5
ATOM      5  C   UNL     1      -8.212   7.093  14.747  1.00  0.00     0.006 C 
BRANCH   5   6
ATOM      6  C   UNL     1      -7.880   6.090  13.633  1.00  0.00     0.053 C 
BRANCH   6   7
ATOM      7  C   UNL     1      -6.432   6.140  13.250  1.00  0.00     0.041 C 
ATOM      8  O   UNL     1      -5.570   5.551  13.955  1.00  0.00    -0.550 OA
ATOM      9  O   UNL     1      -6.038   6.809  12.098  1.00  0.00    -0.550 OA
ENDBRANCH   6   7
ENDBRANCH   5   6
ENDBRANCH   4   5
ENDBRANCH   3   4
ENDBRANCH   2   3
ENDBRANCH   1   2
BRANCH   1  10
ATOM     10  C   UNL     1      -9.052   2.665  15.218  1.00  0.00     0.027 C 
BRANCH  10  11
ATOM     11  C   UNL     1      -7.843   2.318  14.386  1.00  0.00    -0.031 C 
ATOM     12  C   UNL     1      -7.804   1.373  13.427  1.00  0.00    -0.031 C 
BRANCH  12  13
ATOM     13  C   UNL     1      -8.958   0.482  13.027  1.00  0.00     0.027 C 
BRANCH  13  14
ATOM     14  C   UNL     1      -8.985  -0.830  13.832  1.00  0.00     0.004 C 
BRANCH  14  15
ATOM     15  C   UNL     1      -9.336  -2.089  13.017  1.00  0.00     0.000 C 
BRANCH  15  16
ATOM     16  C   UNL     1      -9.925  -3.217  13.881  1.00  0.00    -0.000 C 
BRANCH  16  17
ATOM     17  C   UNL     1     -10.967  -4.055  13.123  1.00  0.00    -0.003 C 
ATOM     18  C   UNL     1     -12.304  -4.145  13.858  1.00  0.00     0.004 C 
ENDBRANCH  16  17
ENDBRANCH  15  16
ENDBRANCH  14  15
ENDBRANCH  13  14
ENDBRANCH  12  13
ENDBRANCH  10  11
ENDBRANCH   1  10
TORSDOF 13
ENDMDL
MODEL 5
REMARK VINA RESULT:     0.134      3.911      8.607
REMARK INTER + INTRA:          -0.552
REMARK INTER:                   0.258
REMARK INTRA:                  -0.810
REMARK UNBOUND:                -0.788
REMARK SMILES CCCCCCC=CCCCCCCCC(=O)[O-]
REMARK SMILES IDX 10 1 11 2 12 3 13 4 14 5 15 6 16 7 17 8 18 9 9 10 8 11 7 12
REMARK SMILES IDX 6 13 5 14 4 15 3 16 2 17 1 18
REMARK H PARENT
REMARK Flexibility Score: inf
ROOT
ATOM      1  C   UNL     1     -10.601  -9.024  24.035  1.00  0.00     0.004 C 
ENDROOT
BRANCH   1   2
ATOM      2  C   UNL     1     -10.743  -7.529  24.360  1.00  0.00     0.000 C 
BRANCH   2   3
ATOM      3  C   UNL     1      -9.713  -7.048  25.397  1.00  0.00     0.000 C 
BRANCH   3   4
ATOM      4  C   UNL     1     -10.021  -5.638  25.926  1.00  0.00     0.000 C 
BRANCH   4   5
ATOM      5  C   UNL     1     -10.900  -5.657  27.188  1.00  0.00     0.006 C 
BRANCH   5   6
ATOM      6  C   UNL     1     -11.567  -7.022  27.407  1.00  0.00     0.053 C 
BRANCH   6   7
ATOM      7  C   UNL     1     -11.145  -7.649  28.700  1.00  0.00     0.041 C 
ATOM      8  O   UNL     1     -11.647  -8.744  29.067  1.00  0.00    -0.550 OA
ATOM      9  O   UNL     1     -10.173  -7.040  29.485  1.00  0.00    -0.550 OA
ENDBRANCH   6   7
ENDBRANCH   5   6
ENDBRANCH   4   5
ENDBRANCH   3   4
ENDBRANCH   2   3
ENDBRANCH   1   2
BRANCH   1  10
ATOM     10  C   UNL     1      -9.718  -9.281  22.803  1.00  0.00     0.027 C 
BRANCH  10  11
ATOM     11  C   UNL     1      -9.686  -8.081  21.889  1.00  0.00    -0.031 C 
ATOM     12  C   UNL     1      -9.314  -8.099  20.595  1.00  0.00    -0.031 C 
BRANCH  12  13
ATOM     13  C   UNL     1      -8.846  -9.319  19.835  1.00  0.00     0.027 C 
BRANCH  13  14
ATOM     14  C   UNL     1      -8.080  -8.947  18.553  1.00  0.00     0.004 C 
BRANCH  14  15
ATOM     15  C   UNL     1      -6.554  -9.154  18.621  1.00  0.00     0.000 C 
BRANCH  15  16
ATOM     16  C   UNL     1      -5.777  -7.836  18.781  1.00  0.00    -0.000 C 
BRANCH  16  17
ATOM     17  C   UNL     1      -4.896  -7.822  20.040  1.00  0.00    -0.003 C 
ATOM     18  C   UNL     1      -5.672  -7.445  21.302  1.00  0.00     0.004 C 
ENDBRANCH  16  17
ENDBRANCH  15  16
ENDBRANCH  14  15
ENDBRANCH  13  14
ENDBRANCH  12  13
ENDBRANCH  10  11
ENDBRANCH   1  10
TORSDOF 13
ENDMDL
MODEL 6
REMARK VINA RESULT:     0.293      0.676      1.598
REMARK INTER + INTRA:          -0.272
REMARK INTER:                   0.359
REMARK INTRA:                  -0.631
REMARK UNBOUND:                -0.788
REMARK SMILES CCCCCCC=CCCCCCCCC(=O)[O-]
REMARK SMILES IDX 10 1 11 2 12 3 13 4 14 5 15 6 16 7 17 8 18 9 9 10 8 11 7 12
REMARK SMILES IDX 6 13 5 14 4 15 3 16 2 17 1 18
REMARK H PARENT
REMARK Flexibility Score: inf
ROOT
ATOM      1  C   UNL     1      -9.239  -9.172  23.014  1.00  0.00     0.004 C 
ENDROOT
BRANCH   1   2
ATOM      2  C   UNL     1      -9.943  -8.245  22.010  1.00  0.00     0.000 C 
BRANCH   2   3
ATOM      3  C   UNL     1      -9.075  -7.937  20.778  1.00  0.00     0.000 C 
BRANCH   3   4
ATOM      4  C   UNL     1      -9.075  -9.084  19.754  1.00  0.00     0.000 C 
BRANCH   4   5
ATOM      5  C   UNL     1      -8.296  -8.734  18.473  1.00  0.00     0.006 C 
BRANCH   5   6
ATOM      6  C   UNL     1      -6.896  -9.364  18.458  1.00  0.00     0.053 C 
BRANCH   6   7
ATOM      7  C   UNL     1      -5.828  -8.357  18.757  1.00  0.00     0.041 C 
ATOM      8  O   UNL     1      -5.124  -7.884  17.826  1.00  0.00    -0.550 OA
ATOM      9  O   UNL     1      -5.630  -7.918  20.061  1.00  0.00    -0.550 OA
ENDBRANCH   6   7
ENDBRANCH   5   6
ENDBRANCH   4   5
ENDBRANCH   3   4
ENDBRANCH   2   3
ENDBRANCH   1   2
BRANCH   1  10
ATOM     10  C   UNL     1     -10.196  -9.722  24.084  1.00  0.00     0.027 C 
BRANCH  10  11
ATOM     11  C   UNL     1     -11.265  -8.717  24.435  1.00  0.00    -0.031 C 
ATOM     12  C   UNL     1     -11.043  -7.500  24.968  1.00  0.00    -0.031 C 
BRANCH  12  13
ATOM     13  C   UNL     1      -9.688  -6.933  25.324  1.00  0.00     0.027 C 
BRANCH  13  14
ATOM     14  C   UNL     1      -9.798  -5.598  26.083  1.00  0.00     0.004 C 
BRANCH  14  15
ATOM     15  C   UNL     1     -10.947  -5.522  27.107  1.00  0.00     0.000 C 
BRANCH  15  16
ATOM     16  C   UNL     1     -10.454  -5.569  28.564  1.00  0.00    -0.000 C 
BRANCH  16  17
ATOM     17  C   UNL     1     -10.437  -6.997  29.133  1.00  0.00    -0.003 C 
ATOM     18  C   UNL     1     -11.517  -7.890  28.523  1.00  0.00     0.004 C 
ENDBRANCH  16  17
ENDBRANCH  15  16
ENDBRANCH  14  15
ENDBRANCH  13  14
ENDBRANCH  12  13
ENDBRANCH  10  11
ENDBRANCH   1  10
TORSDOF 13
ENDMDL
MODEL 7
REMARK VINA RESULT:     0.711      3.026      8.464
REMARK INTER + INTRA:           0.464
REMARK INTER:                   1.069
REMARK INTRA:                  -0.605
REMARK UNBOUND:                -0.788
REMARK SMILES CCCCCCC=CCCCCCCCC(=O)[O-]
REMARK SMILES IDX 10 1 11 2 12 3 13 4 14 5 15 6 16 7 17 8 18 9 9 10 8 11 7 12
REMARK SMILES IDX 6 13 5 14 4 15 3 16 2 17 1 18
REMARK H PARENT
REMARK Flexibility Score: inf
ROOT
ATOM      1  C   UNL     1     -11.104  -9.368  24.201  1.00  0.00     0.004 C 
ENDROOT
BRANCH   1   2
ATOM      2  C   UNL     1     -11.185  -8.163  25.151  1.00  0.00     0.000 C 
BRANCH   2   3
ATOM      3  C   UNL     1     -11.249  -8.578  26.631  1.00  0.00     0.000 C 
BRANCH   3   4
ATOM      4  C   UNL     1     -11.703  -7.430  27.547  1.00  0.00     0.000 C 
BRANCH   4   5
ATOM      5  C   UNL     1     -10.655  -7.075  28.616  1.00  0.00     0.006 C 
BRANCH   5   6
ATOM      6  C   UNL     1     -10.245  -5.597  28.556  1.00  0.00     0.053 C 
BRANCH   6   7
ATOM      7  C   UNL     1     -10.451  -5.016  27.190  1.00  0.00     0.041 C 
ATOM      8  O   UNL     1     -11.266  -4.071  27.020  1.00  0.00    -0.550 OA
ATOM      9  O   UNL     1      -9.720  -5.497  26.111  1.00  0.00    -0.550 OA
ENDBRANCH   6   7
ENDBRANCH   5   6
ENDBRANCH   4   5
ENDBRANCH   3   4
ENDBRANCH   2   3
ENDBRANCH   1   2
BRANCH   1  10
ATOM     10  C   UNL     1      -9.801  -9.392  23.385  1.00  0.00     0.027 C 
BRANCH  10  11
ATOM     11  C   UNL     1      -9.604  -8.105  22.624  1.00  0.00    -0.031 C 
ATOM     12  C   UNL     1      -9.389  -8.011  21.297  1.00  0.00    -0.031 C 
BRANCH  12  13
ATOM     13  C   UNL     1      -9.290  -9.178  20.341  1.00  0.00     0.027 C 
BRANCH  13  14
ATOM     14  C   UNL     1      -8.754  -8.754  18.962  1.00  0.00     0.004 C 
BRANCH  14  15
ATOM     15  C   UNL     1      -7.362  -9.310  18.603  1.00  0.00     0.000 C 
BRANCH  15  16
ATOM     16  C   UNL     1      -6.345  -8.205  18.270  1.00  0.00    -0.000 C 
BRANCH  16  17
ATOM     17  C   UNL     1      -5.211  -8.120  19.304  1.00  0.00    -0.003 C 
ATOM     18  C   UNL     1      -5.685  -7.605  20.662  1.00  0.00     0.004 C 
ENDBRANCH  16  17
ENDBRANCH  15  16
ENDBRANCH  14  15
ENDBRANCH  13  14
ENDBRANCH  12  13
ENDBRANCH  10  11
ENDBRANCH   1  10
TORSDOF 13
ENDMDL
MODEL 8
REMARK VINA RESULT:     0.721     12.112     14.511
REMARK INTER + INTRA:           0.481
REMARK INTER:                   1.602
REMARK INTRA:                  -1.120
REMARK UNBOUND:                -0.788
REMARK SMILES CCCCCCC=CCCCCCCCC(=O)[O-]
REMARK SMILES IDX 10 1 11 2 12 3 13 4 14 5 15 6 16 7 17 8 18 9 9 10 8 11 7 12
REMARK SMILES IDX 6 13 5 14 4 15 3 16 2 17 1 18
REMARK H PARENT
REMARK Flexibility Score: inf
ROOT
ATOM      1  C   UNL     1      -7.821   1.081  13.038  1.00  0.00     0.004 C 
ENDROOT
BRANCH   1   2
ATOM      2  C   UNL     1      -7.671   1.739  14.418  1.00  0.00     0.000 C 
BRANCH   2   3
ATOM      3  C   UNL     1      -8.881   2.612  14.794  1.00  0.00     0.000 C 
BRANCH   3   4
ATOM      4  C   UNL     1      -8.742   3.249  16.186  1.00  0.00     0.000 C 
BRANCH   4   5
ATOM      5  C   UNL     1      -7.645   4.327  16.237  1.00  0.00     0.006 C 
BRANCH   5   6
ATOM      6  C   UNL     1      -8.067   5.616  15.519  1.00  0.00     0.053 C 
BRANCH   6   7
ATOM      7  C   UNL     1      -7.244   5.868  14.293  1.00  0.00     0.041 C 
ATOM      8  O   UNL     1      -6.171   5.235  14.109  1.00  0.00    -0.550 OA
ATOM      9  O   UNL     1      -7.677   6.779  13.337  1.00  0.00    -0.550 OA
ENDBRANCH   6   7
ENDBRANCH   5   6
ENDBRANCH   4   5
ENDBRANCH   3   4
ENDBRANCH   2   3
ENDBRANCH   1   2
BRANCH   1  10
ATOM     10  C   UNL     1      -9.103   0.242  12.918  1.00  0.00     0.027 C 
BRANCH  10  11
ATOM     11  C   UNL     1      -9.196  -0.781  14.023  1.00  0.00    -0.031 C 
ATOM     12  C   UNL     1      -9.396  -2.102  13.845  1.00  0.00    -0.031 C 
BRANCH  12  13
ATOM     13  C   UNL     1      -9.580  -2.788  12.511  1.00  0.00     0.027 C 
BRANCH  13  14
ATOM     14  C   UNL     1     -10.564  -3.968  12.595  1.00  0.00     0.004 C 
BRANCH  14  15
ATOM     15  C   UNL     1     -11.290  -4.116  13.946  1.00  0.00     0.000 C 
BRANCH  15  16
ATOM     16  C   UNL     1     -12.818  -4.226  13.796  1.00  0.00    -0.000 C 
BRANCH  16  17
ATOM     17  C   UNL     1     -13.570  -3.265  14.731  1.00  0.00    -0.003 C 
ATOM     18  C   UNL     1     -13.133  -1.811  14.563  1.00  0.00     0.004 C 
ENDBRANCH  16  17
ENDBRANCH  15  16
ENDBRANCH  14  15
ENDBRANCH  13  14
ENDBRANCH  12  13
ENDBRANCH  10  11
ENDBRANCH   1  10
TORSDOF 13
ENDMDL
MODEL 9
REMARK VINA RESULT:     1.393     11.821     14.633
REMARK INTER + INTRA:           1.664
REMARK INTER:                   2.269
REMARK INTRA:                  -0.605
REMARK UNBOUND:                -0.788
REMARK SMILES CCCCCCC=CCCCCCCCC(=O)[O-]
REMARK SMILES IDX 10 1 11 2 12 3 13 4 14 5 15 6 16 7 17 8 18 9 9 10 8 11 7 12
REMARK SMILES IDX 6 13 5 14 4 15 3 16 2 17 1 18
REMARK H PARENT
REMARK Flexibility Score: inf
ROOT
ATOM      1  C   UNL     1      -7.474   1.728  12.762  1.00  0.00     0.004 C 
ENDROOT
BRANCH   1   2
ATOM      2  C   UNL     1      -7.570   2.830  13.829  1.00  0.00     0.000 C 
BRANCH   2   3
ATOM      3  C   UNL     1      -7.189   4.218  13.284  1.00  0.00     0.000 C 
BRANCH   3   4
ATOM      4  C   UNL     1      -6.873   5.225  14.402  1.00  0.00     0.000 C 
BRANCH   4   5
ATOM      5  C   UNL     1      -8.118   5.996  14.874  1.00  0.00     0.006 C 
BRANCH   5   6
ATOM      6  C   UNL     1      -8.244   6.010  16.404  1.00  0.00     0.053 C 
BRANCH   6   7
ATOM      7  C   UNL     1      -8.087   4.640  16.989  1.00  0.00     0.041 C 
ATOM      8  O   UNL     1      -7.275   4.443  17.931  1.00  0.00    -0.550 OA
ATOM      9  O   UNL     1      -8.860   3.587  16.516  1.00  0.00    -0.550 OA
ENDBRANCH   6   7
ENDBRANCH   5   6
ENDBRANCH   4   5
ENDBRANCH   3   4
ENDBRANCH   2   3
ENDBRANCH   1   2
BRANCH   1  10
ATOM     10  C   UNL     1      -8.681   0.777  12.783  1.00  0.00     0.027 C 
BRANCH  10  11
ATOM     11  C   UNL     1      -8.757   0.012  14.081  1.00  0.00    -0.031 C 
ATOM     12  C   UNL     1      -9.104  -1.284  14.201  1.00  0.00    -0.031 C 
BRANCH  12  13
ATOM     13  C   UNL     1      -9.496  -2.195  13.060  1.00  0.00     0.027 C 
BRANCH  13  14
ATOM     14  C   UNL     1      -9.844  -3.614  13.543  1.00  0.00     0.004 C 
BRANCH  14  15
ATOM     15  C   UNL     1     -11.203  -4.154  13.057  1.00  0.00     0.000 C 
BRANCH  15  16
ATOM     16  C   UNL     1     -12.139  -4.548  14.213  1.00  0.00    -0.000 C 
BRANCH  16  17
ATOM     17  C   UNL     1     -13.406  -3.678  14.264  1.00  0.00    -0.003 C 
ATOM     18  C   UNL     1     -13.106  -2.213  14.576  1.00  0.00     0.004 C 
ENDBRANCH  16  17
ENDBRANCH  15  16
ENDBRANCH  14  15
ENDBRANCH  13  14
ENDBRANCH  12  13
ENDBRANCH  10  11
ENDBRANCH   1  10
TORSDOF 13
ENDMDL
