MODEL 1
REMARK VINA RESULT:    -4.613      0.000      0.000
REMARK INTER + INTRA:          -5.025
REMARK INTER:                  -4.882
REMARK INTRA:                  -0.142
REMARK UNBOUND:                -0.142
REMARK SMILES CC1=CCC(C(C)C)=CC1
REMARK SMILES IDX 1 1 2 2 3 3 4 4 5 5 9 6 10 7 6 8 7 9 8 10
REMARK H PARENT
REMARK Flexibility Score: inf
ROOT
ATOM      1  C   UNL     1      32.353  11.350  27.075  1.00  0.00     0.039 C 
ATOM      2  C   UNL     1      32.129  11.143  28.546  1.00  0.00    -0.073 C 
ATOM      3  C   UNL     1      31.679   9.957  28.996  1.00  0.00    -0.023 C 
ATOM      4  C   UNL     1      31.411   9.745  30.466  1.00  0.00     0.058 C 
ATOM      5  C   UNL     1      32.374  10.549  31.325  1.00  0.00    -0.068 C 
ATOM      6  C   UNL     1      32.825  11.736  30.865  1.00  0.00    -0.023 C 
ATOM      7  C   UNL     1      32.376  12.270  29.527  1.00  0.00     0.057 C 
ENDROOT
BRANCH   5   8
ATOM      8  C   UNL     1      32.850  10.020  32.669  1.00  0.00     0.009 C 
ATOM      9  C   UNL     1      32.029   8.798  33.093  1.00  0.00     0.012 C 
ATOM     10  C   UNL     1      32.806  11.114  33.744  1.00  0.00     0.012 C 
ENDBRANCH   5   8
TORSDOF 1
ENDMDL
MODEL 2
REMARK VINA RESULT:    -4.487      2.476      6.143
REMARK INTER + INTRA:          -4.892
REMARK INTER:                  -4.749
REMARK INTRA:                  -0.143
REMARK UNBOUND:                -0.142
REMARK SMILES CC1=CCC(C(C)C)=CC1
REMARK SMILES IDX 1 1 2 2 3 3 4 4 5 5 9 6 10 7 6 8 7 9 8 10
REMARK H PARENT
REMARK Flexibility Score: inf
ROOT
ATOM      1  C   UNL     1      30.752   6.164  36.939  1.00  0.00     0.039 C 
ATOM      2  C   UNL     1      30.850   7.124  35.787  1.00  0.00    -0.073 C 
ATOM      3  C   UNL     1      31.239   8.395  36.002  1.00  0.00    -0.023 C 
ATOM      4  C   UNL     1      31.304   9.382  34.863  1.00  0.00     0.058 C 
ATOM      5  C   UNL     1      31.689   8.698  33.561  1.00  0.00    -0.068 C 
ATOM      6  C   UNL     1      31.299   7.421  33.353  1.00  0.00    -0.023 C 
ATOM      7  C   UNL     1      30.483   6.682  34.385  1.00  0.00     0.057 C 
ENDROOT
BRANCH   5   8
ATOM      8  C   UNL     1      32.523   9.420  32.515  1.00  0.00     0.009 C 
ATOM      9  C   UNL     1      33.100  10.721  33.085  1.00  0.00     0.012 C 
ATOM     10  C   UNL     1      31.710   9.689  31.243  1.00  0.00     0.012 C 
ENDBRANCH   5   8
TORSDOF 1
ENDMDL
MODEL 3
REMARK VINA RESULT:    -4.344      2.499      4.187
REMARK INTER + INTRA:          -4.740
REMARK INTER:                  -4.564
REMARK INTRA:                  -0.176
REMARK UNBOUND:                -0.142
REMARK SMILES CC1=CCC(C(C)C)=CC1
REMARK SMILES IDX 1 1 2 2 3 3 4 4 5 5 9 6 10 7 6 8 7 9 8 10
REMARK H PARENT
REMARK Flexibility Score: inf
ROOT
ATOM      1  C   UNL     1      33.105  11.503  31.721  1.00  0.00     0.039 C 
ATOM      2  C   UNL     1      32.266  10.591  32.571  1.00  0.00    -0.073 C 
ATOM      3  C   UNL     1      32.552   9.277  32.630  1.00  0.00    -0.023 C 
ATOM      4  C   UNL     1      31.696   8.340  33.446  1.00  0.00     0.058 C 
ATOM      5  C   UNL     1      31.138   9.035  34.679  1.00  0.00    -0.068 C 
ATOM      6  C   UNL     1      30.858  10.355  34.614  1.00  0.00    -0.023 C 
ATOM      7  C   UNL     1      31.080  11.133  33.340  1.00  0.00     0.057 C 
ENDROOT
BRANCH   5   8
ATOM      8  C   UNL     1      30.923   8.272  35.975  1.00  0.00     0.009 C 
ATOM      9  C   UNL     1      31.380   9.104  37.178  1.00  0.00     0.012 C 
ATOM     10  C   UNL     1      31.631   6.911  35.945  1.00  0.00     0.012 C 
ENDBRANCH   5   8
TORSDOF 1
ENDMDL
MODEL 4
REMARK VINA RESULT:    -4.294      0.928      4.480
REMARK INTER + INTRA:          -4.688
REMARK INTER:                  -4.512
REMARK INTRA:                  -0.176
REMARK UNBOUND:                -0.142
REMARK SMILES CC1=CCC(C(C)C)=CC1
REMARK SMILES IDX 1 1 2 2 3 3 4 4 5 5 9 6 10 7 6 8 7 9 8 10
REMARK H PARENT
REMARK Flexibility Score: inf
ROOT
ATOM      1  C   UNL     1      33.089  10.448  33.021  1.00  0.00     0.039 C 
ATOM      2  C   UNL     1      32.419  10.701  31.700  1.00  0.00    -0.073 C 
ATOM      3  C   UNL     1      32.855  11.697  30.905  1.00  0.00    -0.023 C 
ATOM      4  C   UNL     1      32.167  11.991  29.595  1.00  0.00     0.058 C 
ATOM      5  C   UNL     1      31.618  10.721  28.963  1.00  0.00    -0.068 C 
ATOM      6  C   UNL     1      31.187   9.725  29.766  1.00  0.00    -0.023 C 
ATOM      7  C   UNL     1      31.232   9.865  31.268  1.00  0.00     0.057 C 
ENDROOT
BRANCH   5   8
ATOM      8  C   UNL     1      31.578  10.555  27.452  1.00  0.00     0.009 C 
ATOM      9  C   UNL     1      32.028   9.147  27.048  1.00  0.00     0.012 C 
ATOM     10  C   UNL     1      32.424  11.626  26.752  1.00  0.00     0.012 C 
ENDBRANCH   5   8
TORSDOF 1
ENDMDL
MODEL 5
REMARK VINA RESULT:    -4.270      1.302      4.618
REMARK INTER + INTRA:          -4.662
REMARK INTER:                  -4.484
REMARK INTRA:                  -0.179
REMARK UNBOUND:                -0.142
REMARK SMILES CC1=CCC(C(C)C)=CC1
REMARK SMILES IDX 1 1 2 2 3 3 4 4 5 5 9 6 10 7 6 8 7 9 8 10
REMARK H PARENT
REMARK Flexibility Score: inf
ROOT
ATOM      1  C   UNL     1      31.473  10.421  35.808  1.00  0.00     0.039 C 
ATOM      2  C   UNL     1      31.974  10.311  34.396  1.00  0.00    -0.073 C 
ATOM      3  C   UNL     1      31.576   9.285  33.620  1.00  0.00    -0.023 C 
ATOM      4  C   UNL     1      32.101   9.137  32.214  1.00  0.00     0.058 C 
ATOM      5  C   UNL     1      32.362  10.493  31.576  1.00  0.00    -0.068 C 
ATOM      6  C   UNL     1      32.756  11.518  32.361  1.00  0.00    -0.023 C 
ATOM      7  C   UNL     1      32.950  11.329  33.846  1.00  0.00     0.057 C 
ENDROOT
BRANCH   5   8
ATOM      8  C   UNL     1      32.157  10.707  30.085  1.00  0.00     0.009 C 
ATOM      9  C   UNL     1      32.266  12.194  29.730  1.00  0.00     0.012 C 
ATOM     10  C   UNL     1      30.817  10.126  29.618  1.00  0.00     0.012 C 
ENDBRANCH   5   8
TORSDOF 1
ENDMDL
MODEL 6
REMARK VINA RESULT:    -4.267      2.051      3.962
REMARK INTER + INTRA:          -4.659
REMARK INTER:                  -4.518
REMARK INTRA:                  -0.141
REMARK UNBOUND:                -0.142
REMARK SMILES CC1=CCC(C(C)C)=CC1
REMARK SMILES IDX 1 1 2 2 3 3 4 4 5 5 9 6 10 7 6 8 7 9 8 10
REMARK H PARENT
REMARK Flexibility Score: inf
ROOT
ATOM      1  C   UNL     1      32.008  10.789  30.414  1.00  0.00     0.039 C 
ATOM      2  C   UNL     1      32.138  10.430  31.867  1.00  0.00    -0.073 C 
ATOM      3  C   UNL     1      32.225  11.402  32.794  1.00  0.00    -0.023 C 
ATOM      4  C   UNL     1      32.396  11.058  34.253  1.00  0.00     0.058 C 
ATOM      5  C   UNL     1      31.685   9.760  34.602  1.00  0.00    -0.068 C 
ATOM      6  C   UNL     1      31.598   8.791  33.666  1.00  0.00    -0.023 C 
ATOM      7  C   UNL     1      32.204   8.979  32.296  1.00  0.00     0.057 C 
ENDROOT
BRANCH   5   8
ATOM      8  C   UNL     1      31.055   9.558  35.971  1.00  0.00     0.009 C 
ATOM      9  C   UNL     1      31.696  10.486  37.007  1.00  0.00     0.012 C 
ATOM     10  C   UNL     1      31.145   8.092  36.414  1.00  0.00     0.012 C 
ENDBRANCH   5   8
TORSDOF 1
ENDMDL
MODEL 7
REMARK VINA RESULT:    -4.234      1.123      4.617
REMARK INTER + INTRA:          -4.624
REMARK INTER:                  -4.485
REMARK INTRA:                  -0.139
REMARK UNBOUND:                -0.142
REMARK SMILES CC1=CCC(C(C)C)=CC1
REMARK SMILES IDX 1 1 2 2 3 3 4 4 5 5 9 6 10 7 6 8 7 9 8 10
REMARK H PARENT
REMARK Flexibility Score: inf
ROOT
ATOM      1  C   UNL     1      31.998   7.378  33.375  1.00  0.00     0.039 C 
ATOM      2  C   UNL     1      31.783   8.500  32.398  1.00  0.00    -0.073 C 
ATOM      3  C   UNL     1      32.579   9.584  32.435  1.00  0.00    -0.023 C 
ATOM      4  C   UNL     1      32.351  10.737  31.488  1.00  0.00     0.058 C 
ATOM      5  C   UNL     1      31.814  10.254  30.150  1.00  0.00    -0.068 C 
ATOM      6  C   UNL     1      31.020   9.162  30.120  1.00  0.00    -0.023 C 
ATOM      7  C   UNL     1      30.654   8.434  31.391  1.00  0.00     0.057 C 
ENDROOT
BRANCH   5   8
ATOM      8  C   UNL     1      32.183  10.965  28.857  1.00  0.00     0.009 C 
ATOM      9  C   UNL     1      31.348  12.237  28.680  1.00  0.00     0.012 C 
ATOM     10  C   UNL     1      32.033  10.033  27.648  1.00  0.00     0.012 C 
ENDBRANCH   5   8
TORSDOF 1
ENDMDL
MODEL 8
REMARK VINA RESULT:    -4.229      1.432      4.851
REMARK INTER + INTRA:          -4.619
REMARK INTER:                  -4.443
REMARK INTRA:                  -0.176
REMARK UNBOUND:                -0.142
REMARK SMILES CC1=CCC(C(C)C)=CC1
REMARK SMILES IDX 1 1 2 2 3 3 4 4 5 5 9 6 10 7 6 8 7 9 8 10
REMARK H PARENT
REMARK Flexibility Score: inf
ROOT
ATOM      1  C   UNL     1      30.269   8.950  35.784  1.00  0.00     0.039 C 
ATOM      2  C   UNL     1      31.219   9.396  34.709  1.00  0.00    -0.073 C 
ATOM      3  C   UNL     1      31.507   8.573  33.683  1.00  0.00    -0.023 C 
ATOM      4  C   UNL     1      32.490   8.989  32.617  1.00  0.00     0.058 C 
ATOM      5  C   UNL     1      32.438  10.490  32.374  1.00  0.00    -0.068 C 
ATOM      6  C   UNL     1      32.144  11.309  33.407  1.00  0.00    -0.023 C 
ATOM      7  C   UNL     1      31.882  10.755  34.786  1.00  0.00     0.057 C 
ENDROOT
BRANCH   5   8
ATOM      8  C   UNL     1      32.684  11.066  30.989  1.00  0.00     0.009 C 
ATOM      9  C   UNL     1      32.747  12.596  31.040  1.00  0.00     0.012 C 
ATOM     10  C   UNL     1      31.619  10.591  29.992  1.00  0.00     0.012 C 
ENDBRANCH   5   8
TORSDOF 1
ENDMDL
MODEL 9
REMARK VINA RESULT:    -4.208      1.220      4.221
REMARK INTER + INTRA:          -4.596
REMARK INTER:                  -4.459
REMARK INTRA:                  -0.138
REMARK UNBOUND:                -0.142
REMARK SMILES CC1=CCC(C(C)C)=CC1
REMARK SMILES IDX 1 1 2 2 3 3 4 4 5 5 9 6 10 7 6 8 7 9 8 10
REMARK H PARENT
REMARK Flexibility Score: inf
ROOT
ATOM      1  C   UNL     1      30.698   7.015  33.733  1.00  0.00     0.039 C 
ATOM      2  C   UNL     1      31.270   7.924  32.681  1.00  0.00    -0.073 C 
ATOM      3  C   UNL     1      30.640   8.065  31.500  1.00  0.00    -0.023 C 
ATOM      4  C   UNL     1      31.223   8.941  30.419  1.00  0.00     0.058 C 
ATOM      5  C   UNL     1      31.966  10.128  31.010  1.00  0.00    -0.068 C 
ATOM      6  C   UNL     1      32.592   9.980  32.198  1.00  0.00    -0.023 C 
ATOM      7  C   UNL     1      32.571   8.659  32.927  1.00  0.00     0.057 C 
ENDROOT
BRANCH   5   8
ATOM      8  C   UNL     1      31.987  11.471  30.299  1.00  0.00     0.009 C 
ATOM      9  C   UNL     1      32.332  11.295  28.816  1.00  0.00     0.012 C 
ATOM     10  C   UNL     1      32.956  12.447  30.978  1.00  0.00     0.012 C 
ENDBRANCH   5   8
TORSDOF 1
ENDMDL
