MODEL 1
REMARK VINA RESULT:    -6.289      0.000      0.000
REMARK INTER + INTRA:          -7.663
REMARK INTER:                  -7.392
REMARK INTRA:                  -0.271
REMARK UNBOUND:                -0.271
REMARK SMILES O=c1c(O)c(-c2ccc(O)cc2)oc2cc(O)cc(O)c12
REMARK SMILES IDX 5 1 3 2 2 3 1 4 21 5 19 6 18 7 16 8 15 9 14 10 13 11 6 12
REMARK SMILES IDX 7 13 8 14 9 15 12 16 11 17 10 18 4 20 20 22 17 24
REMARK H PARENT 10 19 4 21 20 23 17 25
REMARK Flexibility Score: inf
ROOT
ATOM      1  C   UNL     1      -9.575   8.630   5.973  1.00  0.00     0.180 A 
ATOM      2  C   UNL     1     -10.840   9.187   5.716  1.00  0.00     0.208 A 
ATOM      3  C   UNL     1     -11.958   8.340   5.653  1.00  0.00     0.238 A 
ATOM      4  O   UNL     1     -13.078   8.837   5.369  1.00  0.00    -0.285 OA
ATOM      5  C   UNL     1     -11.800   6.948   5.863  1.00  0.00     0.111 A 
ATOM      6  C   UNL     1     -12.868   6.002   5.862  1.00  0.00     0.134 A 
ATOM      7  C   UNL     1     -12.580   4.635   5.951  1.00  0.00     0.093 A 
ATOM      8  C   UNL     1     -11.266   4.184   6.107  1.00  0.00     0.123 A 
ATOM      9  C   UNL     1     -10.222   5.104   6.168  1.00  0.00     0.094 A 
ATOM     10  C   UNL     1     -10.475   6.472   6.046  1.00  0.00     0.146 A 
ATOM     11  O   UNL     1      -9.450   7.314   6.100  1.00  0.00    -0.452 OA
ENDROOT
BRANCH   1  12
ATOM     12  C   UNL     1      -8.354   9.461   6.078  1.00  0.00     0.021 A 
ATOM     13  C   UNL     1      -7.834   9.844   7.329  1.00  0.00     0.016 A 
ATOM     14  C   UNL     1      -6.666  10.608   7.404  1.00  0.00     0.047 A 
ATOM     15  C   UNL     1      -5.996  10.989   6.235  1.00  0.00     0.115 A 
ATOM     16  C   UNL     1      -7.665   9.829   4.911  1.00  0.00     0.016 A 
ATOM     17  C   UNL     1      -6.497  10.595   4.990  1.00  0.00     0.047 A 
BRANCH  15  18
ATOM     18  O   UNL     1      -4.833  11.751   6.297  1.00  0.00    -0.508 OA
ATOM     19  H   UNL     1      -3.922  11.320   6.403  1.00  0.00     0.293 HD
ENDBRANCH  15  18
ENDBRANCH   1  12
BRANCH   2  20
ATOM     20  O   UNL     1     -10.970  10.560   5.490  1.00  0.00    -0.502 OA
ATOM     21  H   UNL     1     -11.820  10.973   5.125  1.00  0.00     0.293 HD
ENDBRANCH   2  20
BRANCH   6  22
ATOM     22  O   UNL     1     -14.220   6.352   5.805  1.00  0.00    -0.507 OA
ATOM     23  H   UNL     1     -14.986   5.698   5.853  1.00  0.00     0.293 HD
ENDBRANCH   6  22
BRANCH   8  24
ATOM     24  O   UNL     1     -10.989   2.823   6.210  1.00  0.00    -0.508 OA
ATOM     25  H   UNL     1     -11.486   2.137   5.652  1.00  0.00     0.293 HD
ENDBRANCH   8  24
TORSDOF 5
ENDMDL
MODEL 2
REMARK VINA RESULT:    -5.942      1.713      6.522
REMARK INTER + INTRA:          -7.255
REMARK INTER:                  -6.999
REMARK INTRA:                  -0.256
REMARK UNBOUND:                -0.271
REMARK SMILES O=c1c(O)c(-c2ccc(O)cc2)oc2cc(O)cc(O)c12
REMARK SMILES IDX 5 1 3 2 2 3 1 4 21 5 19 6 18 7 16 8 15 9 14 10 13 11 6 12
REMARK SMILES IDX 7 13 8 14 9 15 12 16 11 17 10 18 4 20 20 22 17 24
REMARK H PARENT 10 19 4 21 20 23 17 25
REMARK Flexibility Score: inf
ROOT
ATOM      1  C   UNL     1      -9.708   7.822   6.711  1.00  0.00     0.180 A 
ATOM      2  C   UNL     1     -10.426   8.814   6.020  1.00  0.00     0.208 A 
ATOM      3  C   UNL     1      -9.739   9.939   5.535  1.00  0.00     0.238 A 
ATOM      4  O   UNL     1     -10.395  10.850   4.966  1.00  0.00    -0.285 OA
ATOM      5  C   UNL     1      -8.341  10.050   5.733  1.00  0.00     0.111 A 
ATOM      6  C   UNL     1      -7.537  11.126   5.250  1.00  0.00     0.134 A 
ATOM      7  C   UNL     1      -6.188  11.199   5.616  1.00  0.00     0.093 A 
ATOM      8  C   UNL     1      -5.598  10.199   6.394  1.00  0.00     0.123 A 
ATOM      9  C   UNL     1      -6.360   9.114   6.820  1.00  0.00     0.094 A 
ATOM     10  C   UNL     1      -7.718   9.033   6.502  1.00  0.00     0.146 A 
ATOM     11  O   UNL     1      -8.410   7.987   6.937  1.00  0.00    -0.452 OA
ENDROOT
BRANCH   1  12
ATOM     12  C   UNL     1     -10.358   6.598   7.230  1.00  0.00     0.021 A 
ATOM     13  C   UNL     1     -10.706   5.535   6.376  1.00  0.00     0.016 A 
ATOM     14  C   UNL     1     -11.296   4.377   6.893  1.00  0.00     0.047 A 
ATOM     15  C   UNL     1     -11.534   4.261   8.268  1.00  0.00     0.115 A 
ATOM     16  C   UNL     1     -10.581   6.465   8.611  1.00  0.00     0.016 A 
ATOM     17  C   UNL     1     -11.172   5.306   9.124  1.00  0.00     0.047 A 
BRANCH  15  18
ATOM     18  O   UNL     1     -12.122   3.114   8.794  1.00  0.00    -0.508 OA
ATOM     19  H   UNL     1     -13.127   3.037   8.903  1.00  0.00     0.293 HD
ENDBRANCH  15  18
ENDBRANCH   1  12
BRANCH   2  20
ATOM     20  O   UNL     1     -11.808   8.696   5.855  1.00  0.00    -0.502 OA
ATOM     21  H   UNL     1     -12.259   8.788   4.953  1.00  0.00     0.293 HD
ENDBRANCH   2  20
BRANCH   6  22
ATOM     22  O   UNL     1      -8.005  12.125   4.391  1.00  0.00    -0.507 OA
ATOM     23  H   UNL     1      -8.162  12.007   3.402  1.00  0.00     0.293 HD
ENDBRANCH   6  22
BRANCH   8  24
ATOM     24  O   UNL     1      -4.251  10.270   6.741  1.00  0.00    -0.508 OA
ATOM     25  H   UNL     1      -3.520  10.223   6.040  1.00  0.00     0.293 HD
ENDBRANCH   8  24
TORSDOF 5
ENDMDL
MODEL 3
REMARK VINA RESULT:    -5.377     17.642     19.670
REMARK INTER + INTRA:          -6.590
REMARK INTER:                  -7.098
REMARK INTRA:                   0.508
REMARK UNBOUND:                -0.271
REMARK SMILES O=c1c(O)c(-c2ccc(O)cc2)oc2cc(O)cc(O)c12
REMARK SMILES IDX 5 1 3 2 2 3 1 4 21 5 19 6 18 7 16 8 15 9 14 10 13 11 6 12
REMARK SMILES IDX 7 13 8 14 9 15 12 16 11 17 10 18 4 20 20 22 17 24
REMARK H PARENT 10 19 4 21 20 23 17 25
REMARK Flexibility Score: inf
ROOT
ATOM      1  C   UNL     1     -11.918  -2.608  -9.556  1.00  0.00     0.180 A 
ATOM      2  C   UNL     1     -10.537  -2.864  -9.498  1.00  0.00     0.208 A 
ATOM      3  C   UNL     1     -10.095  -4.187  -9.337  1.00  0.00     0.238 A 
ATOM      4  O   UNL     1      -8.860  -4.403  -9.232  1.00  0.00    -0.285 OA
ATOM      5  C   UNL     1     -11.039  -5.239  -9.250  1.00  0.00     0.111 A 
ATOM      6  C   UNL     1     -10.703  -6.621  -9.126  1.00  0.00     0.134 A 
ATOM      7  C   UNL     1     -11.718  -7.563  -8.918  1.00  0.00     0.093 A 
ATOM      8  C   UNL     1     -13.062  -7.180  -8.894  1.00  0.00     0.123 A 
ATOM      9  C   UNL     1     -13.403  -5.841  -9.074  1.00  0.00     0.094 A 
ATOM     10  C   UNL     1     -12.410  -4.874  -9.248  1.00  0.00     0.146 A 
ATOM     11  O   UNL     1     -12.778  -3.609  -9.406  1.00  0.00    -0.452 OA
ENDROOT
BRANCH   1  12
ATOM     12  C   UNL     1     -12.459  -1.244  -9.749  1.00  0.00     0.021 A 
ATOM     13  C   UNL     1     -13.803  -1.033 -10.113  1.00  0.00     0.016 A 
ATOM     14  C   UNL     1     -14.298   0.265 -10.265  1.00  0.00     0.047 A 
ATOM     15  C   UNL     1     -13.463   1.368 -10.045  1.00  0.00     0.115 A 
ATOM     16  C   UNL     1     -11.635  -0.132  -9.510  1.00  0.00     0.016 A 
ATOM     17  C   UNL     1     -12.133   1.165  -9.664  1.00  0.00     0.047 A 
BRANCH  15  18
ATOM     18  O   UNL     1     -13.945   2.666 -10.196  1.00  0.00    -0.508 OA
ATOM     19  H   UNL     1     -14.528   2.926 -10.984  1.00  0.00     0.293 HD
ENDBRANCH  15  18
ENDBRANCH   1  12
BRANCH   2  20
ATOM     20  O   UNL     1      -9.623  -1.809  -9.564  1.00  0.00    -0.502 OA
ATOM     21  H   UNL     1      -9.376  -1.251  -8.755  1.00  0.00     0.293 HD
ENDBRANCH   2  20
BRANCH   6  22
ATOM     22  O   UNL     1      -9.401  -7.119  -9.227  1.00  0.00    -0.507 OA
ATOM     23  H   UNL     1      -9.144  -8.087  -9.104  1.00  0.00     0.293 HD
ENDBRANCH   6  22
BRANCH   8  24
ATOM     24  O   UNL     1     -14.067  -8.125  -8.702  1.00  0.00    -0.508 OA
ATOM     25  H   UNL     1     -14.934  -7.889  -8.233  1.00  0.00     0.293 HD
ENDBRANCH   8  24
TORSDOF 5
ENDMDL
MODEL 4
REMARK VINA RESULT:    -5.257     16.386     18.127
REMARK INTER + INTRA:          -6.450
REMARK INTER:                  -6.691
REMARK INTRA:                   0.241
REMARK UNBOUND:                -0.271
REMARK SMILES O=c1c(O)c(-c2ccc(O)cc2)oc2cc(O)cc(O)c12
REMARK SMILES IDX 5 1 3 2 2 3 1 4 21 5 19 6 18 7 16 8 15 9 14 10 13 11 6 12
REMARK SMILES IDX 7 13 8 14 9 15 12 16 11 17 10 18 4 20 20 22 17 24
REMARK H PARENT 10 19 4 21 20 23 17 25
REMARK Flexibility Score: inf
ROOT
ATOM      1  C   UNL     1     -12.054  -0.100  -9.441  1.00  0.00     0.180 A 
ATOM      2  C   UNL     1     -12.827  -0.997 -10.198  1.00  0.00     0.208 A 
ATOM      3  C   UNL     1     -12.418  -2.336 -10.296  1.00  0.00     0.238 A 
ATOM      4  O   UNL     1     -13.084  -3.121 -11.019  1.00  0.00    -0.285 OA
ATOM      5  C   UNL     1     -11.249  -2.766  -9.621  1.00  0.00     0.111 A 
ATOM      6  C   UNL     1     -10.763  -4.108  -9.617  1.00  0.00     0.134 A 
ATOM      7  C   UNL     1      -9.527  -4.394  -9.025  1.00  0.00     0.093 A 
ATOM      8  C   UNL     1      -8.791  -3.397  -8.379  1.00  0.00     0.123 A 
ATOM      9  C   UNL     1      -9.286  -2.095  -8.327  1.00  0.00     0.094 A 
ATOM     10  C   UNL     1     -10.498  -1.773  -8.940  1.00  0.00     0.146 A 
ATOM     11  O   UNL     1     -10.928  -0.519  -8.875  1.00  0.00    -0.452 OA
ENDROOT
BRANCH   1  12
ATOM     12  C   UNL     1     -12.435   1.321  -9.272  1.00  0.00     0.021 A 
ATOM     13  C   UNL     1     -13.784   1.719  -9.234  1.00  0.00     0.016 A 
ATOM     14  C   UNL     1     -14.119   3.063  -9.048  1.00  0.00     0.047 A 
ATOM     15  C   UNL     1     -13.114   4.024  -8.885  1.00  0.00     0.115 A 
ATOM     16  C   UNL     1     -11.433   2.288  -9.088  1.00  0.00     0.016 A 
ATOM     17  C   UNL     1     -11.772   3.632  -8.903  1.00  0.00     0.047 A 
BRANCH  15  18
ATOM     18  O   UNL     1     -13.436   5.366  -8.702  1.00  0.00    -0.508 OA
ATOM     19  H   UNL     1     -14.084   5.844  -9.317  1.00  0.00     0.293 HD
ENDBRANCH  15  18
ENDBRANCH   1  12
BRANCH   2  20
ATOM     20  O   UNL     1     -13.965  -0.547 -10.874  1.00  0.00    -0.502 OA
ATOM     21  H   UNL     1     -14.170   0.437 -11.001  1.00  0.00     0.293 HD
ENDBRANCH   2  20
BRANCH   6  22
ATOM     22  O   UNL     1     -11.464  -5.193 -10.152  1.00  0.00    -0.507 OA
ATOM     23  H   UNL     1     -12.449  -5.363 -10.020  1.00  0.00     0.293 HD
ENDBRANCH   6  22
BRANCH   8  24
ATOM     24  O   UNL     1      -7.569  -3.692  -7.779  1.00  0.00    -0.508 OA
ATOM     25  H   UNL     1      -7.455  -4.500  -7.178  1.00  0.00     0.293 HD
ENDBRANCH   8  24
TORSDOF 5
ENDMDL
MODEL 5
REMARK VINA RESULT:    -4.953     17.697     19.717
REMARK INTER + INTRA:          -6.093
REMARK INTER:                  -6.448
REMARK INTRA:                   0.355
REMARK UNBOUND:                -0.271
REMARK SMILES O=c1c(O)c(-c2ccc(O)cc2)oc2cc(O)cc(O)c12
REMARK SMILES IDX 5 1 3 2 2 3 1 4 21 5 19 6 18 7 16 8 15 9 14 10 13 11 6 12
REMARK SMILES IDX 7 13 8 14 9 15 12 16 11 17 10 18 4 20 20 22 17 24
REMARK H PARENT 10 19 4 21 20 23 17 25
REMARK Flexibility Score: inf
ROOT
ATOM      1  C   UNL     1     -12.923  -2.539  -9.837  1.00  0.00     0.180 A 
ATOM      2  C   UNL     1     -14.063  -3.179 -10.353  1.00  0.00     0.208 A 
ATOM      3  C   UNL     1     -14.125  -4.581 -10.335  1.00  0.00     0.238 A 
ATOM      4  O   UNL     1     -15.124  -5.149 -10.849  1.00  0.00    -0.285 OA
ATOM      5  C   UNL     1     -13.054  -5.327  -9.787  1.00  0.00     0.111 A 
ATOM      6  C   UNL     1     -13.027  -6.750  -9.680  1.00  0.00     0.134 A 
ATOM      7  C   UNL     1     -11.861  -7.388  -9.240  1.00  0.00     0.093 A 
ATOM      8  C   UNL     1     -10.743  -6.651  -8.841  1.00  0.00     0.123 A 
ATOM      9  C   UNL     1     -10.781  -5.259  -8.885  1.00  0.00     0.094 A 
ATOM     10  C   UNL     1     -11.917  -4.595  -9.354  1.00  0.00     0.146 A 
ATOM     11  O   UNL     1     -11.907  -3.268  -9.389  1.00  0.00    -0.452 OA
ENDROOT
BRANCH   1  12
ATOM     12  C   UNL     1     -12.795  -1.065  -9.799  1.00  0.00     0.021 A 
ATOM     13  C   UNL     1     -13.928  -0.230  -9.815  1.00  0.00     0.016 A 
ATOM     14  C   UNL     1     -13.784   1.159  -9.753  1.00  0.00     0.047 A 
ATOM     15  C   UNL     1     -12.509   1.731  -9.662  1.00  0.00     0.115 A 
ATOM     16  C   UNL     1     -11.521  -0.483  -9.686  1.00  0.00     0.016 A 
ATOM     17  C   UNL     1     -11.380   0.907  -9.625  1.00  0.00     0.047 A 
BRANCH  15  18
ATOM     18  O   UNL     1     -12.353   3.113  -9.601  1.00  0.00    -0.508 OA
ATOM     19  H   UNL     1     -12.999   3.740 -10.067  1.00  0.00     0.293 HD
ENDBRANCH  15  18
ENDBRANCH   1  12
BRANCH   2  20
ATOM     20  O   UNL     1     -15.100  -2.425 -10.910  1.00  0.00    -0.502 OA
ATOM     21  H   UNL     1     -16.041  -2.433 -10.536  1.00  0.00     0.293 HD
ENDBRANCH   2  20
BRANCH   6  22
ATOM     22  O   UNL     1     -14.120  -7.573  -9.965  1.00  0.00    -0.507 OA
ATOM     23  H   UNL     1     -14.969  -7.268 -10.415  1.00  0.00     0.293 HD
ENDBRANCH   6  22
BRANCH   8  24
ATOM     24  O   UNL     1      -9.593  -7.293  -8.389  1.00  0.00    -0.508 OA
ATOM     25  H   UNL     1      -8.796  -6.771  -8.042  1.00  0.00     0.293 HD
ENDBRANCH   8  24
TORSDOF 5
ENDMDL
MODEL 6
REMARK VINA RESULT:    -4.672      4.247      5.072
REMARK INTER + INTRA:          -5.762
REMARK INTER:                  -5.719
REMARK INTRA:                  -0.043
REMARK UNBOUND:                -0.271
REMARK SMILES O=c1c(O)c(-c2ccc(O)cc2)oc2cc(O)cc(O)c12
REMARK SMILES IDX 5 1 3 2 2 3 1 4 21 5 19 6 18 7 16 8 15 9 14 10 13 11 6 12
REMARK SMILES IDX 7 13 8 14 9 15 12 16 11 17 10 18 4 20 20 22 17 24
REMARK H PARENT 10 19 4 21 20 23 17 25
REMARK Flexibility Score: inf
ROOT
ATOM      1  C   UNL     1      -9.998  11.388   5.674  1.00  0.00     0.180 A 
ATOM      2  C   UNL     1     -10.942  11.624   6.688  1.00  0.00     0.208 A 
ATOM      3  C   UNL     1     -12.281  11.854   6.334  1.00  0.00     0.238 A 
ATOM      4  O   UNL     1     -13.111  12.118   7.243  1.00  0.00    -0.285 OA
ATOM      5  C   UNL     1     -12.662  11.831   4.970  1.00  0.00     0.111 A 
ATOM      6  C   UNL     1     -13.997  12.012   4.499  1.00  0.00     0.134 A 
ATOM      7  C   UNL     1     -14.238  12.100   3.122  1.00  0.00     0.093 A 
ATOM      8  C   UNL     1     -13.200  11.947   2.198  1.00  0.00     0.123 A 
ATOM      9  C   UNL     1     -11.903  11.711   2.648  1.00  0.00     0.094 A 
ATOM     10  C   UNL     1     -11.627  11.655   4.016  1.00  0.00     0.146 A 
ATOM     11  O   UNL     1     -10.375  11.438   4.401  1.00  0.00    -0.452 OA
ENDROOT
BRANCH   1  12
ATOM     12  C   UNL     1      -8.574  11.113   5.971  1.00  0.00     0.021 A 
ATOM     13  C   UNL     1      -7.791  12.019   6.711  1.00  0.00     0.016 A 
ATOM     14  C   UNL     1      -6.455  11.725   7.000  1.00  0.00     0.047 A 
ATOM     15  C   UNL     1      -5.888  10.521   6.566  1.00  0.00     0.115 A 
ATOM     16  C   UNL     1      -8.003   9.898   5.557  1.00  0.00     0.016 A 
ATOM     17  C   UNL     1      -6.666   9.608   5.847  1.00  0.00     0.047 A 
BRANCH  15  18
ATOM     18  O   UNL     1      -4.558  10.219   6.847  1.00  0.00    -0.508 OA
ATOM     19  H   UNL     1      -4.152   9.326   6.590  1.00  0.00     0.293 HD
ENDBRANCH  15  18
ENDBRANCH   1  12
BRANCH   2  20
ATOM     20  O   UNL     1     -10.541  11.664   8.027  1.00  0.00    -0.502 OA
ATOM     21  H   UNL     1      -9.629  12.000   8.312  1.00  0.00     0.293 HD
ENDBRANCH   2  20
BRANCH   6  22
ATOM     22  O   UNL     1     -15.116  12.083   5.333  1.00  0.00    -0.507 OA
ATOM     23  H   UNL     1     -15.086  12.292   6.320  1.00  0.00     0.293 HD
ENDBRANCH   6  22
BRANCH   8  24
ATOM     24  O   UNL     1     -13.450  12.020   0.830  1.00  0.00    -0.508 OA
ATOM     25  H   UNL     1     -13.808  11.225   0.314  1.00  0.00     0.293 HD
ENDBRANCH   8  24
TORSDOF 5
ENDMDL
MODEL 7
REMARK VINA RESULT:    -3.833     18.837     19.504
REMARK INTER + INTRA:          -4.776
REMARK INTER:                  -4.886
REMARK INTRA:                   0.111
REMARK UNBOUND:                -0.271
REMARK SMILES O=c1c(O)c(-c2ccc(O)cc2)oc2cc(O)cc(O)c12
REMARK SMILES IDX 5 1 3 2 2 3 1 4 21 5 19 6 18 7 16 8 15 9 14 10 13 11 6 12
REMARK SMILES IDX 7 13 8 14 9 15 12 16 11 17 10 18 4 20 20 22 17 24
REMARK H PARENT 10 19 4 21 20 23 17 25
REMARK Flexibility Score: inf
ROOT
ATOM      1  C   UNL     1     -11.761  -4.632  -8.591  1.00  0.00     0.180 A 
ATOM      2  C   UNL     1     -12.979  -5.127  -9.087  1.00  0.00     0.208 A 
ATOM      3  C   UNL     1     -13.645  -6.137  -8.373  1.00  0.00     0.238 A 
ATOM      4  O   UNL     1     -14.708  -6.614  -8.851  1.00  0.00    -0.285 OA
ATOM      5  C   UNL     1     -13.093  -6.627  -7.166  1.00  0.00     0.111 A 
ATOM      6  C   UNL     1     -13.701  -7.620  -6.340  1.00  0.00     0.134 A 
ATOM      7  C   UNL     1     -13.003  -8.123  -5.236  1.00  0.00     0.093 A 
ATOM      8  C   UNL     1     -11.745  -7.622  -4.890  1.00  0.00     0.123 A 
ATOM      9  C   UNL     1     -11.169  -6.611  -5.655  1.00  0.00     0.094 A 
ATOM     10  C   UNL     1     -11.826  -6.115  -6.784  1.00  0.00     0.146 A 
ATOM     11  O   UNL     1     -11.237  -5.158  -7.491  1.00  0.00    -0.452 OA
ENDROOT
BRANCH   1  12
ATOM     12  C   UNL     1     -11.014  -3.551  -9.274  1.00  0.00     0.021 A 
ATOM     13  C   UNL     1     -11.672  -2.427  -9.805  1.00  0.00     0.016 A 
ATOM     14  C   UNL     1     -10.943  -1.407 -10.423  1.00  0.00     0.047 A 
ATOM     15  C   UNL     1      -9.547  -1.491 -10.508  1.00  0.00     0.115 A 
ATOM     16  C   UNL     1      -9.612  -3.618  -9.345  1.00  0.00     0.016 A 
ATOM     17  C   UNL     1      -8.886  -2.596  -9.965  1.00  0.00     0.047 A 
BRANCH  15  18
ATOM     18  O   UNL     1      -8.810  -0.482 -11.123  1.00  0.00    -0.508 OA
ATOM     19  H   UNL     1      -9.264   0.298 -11.585  1.00  0.00     0.293 HD
ENDBRANCH  15  18
ENDBRANCH   1  12
BRANCH   2  20
ATOM     20  O   UNL     1     -13.497  -4.645 -10.292  1.00  0.00    -0.502 OA
ATOM     21  H   UNL     1     -14.188  -3.906 -10.332  1.00  0.00     0.293 HD
ENDBRANCH   2  20
BRANCH   6  22
ATOM     22  O   UNL     1     -14.990  -8.120  -6.544  1.00  0.00    -0.507 OA
ATOM     23  H   UNL     1     -15.832  -7.564  -6.535  1.00  0.00     0.293 HD
ENDBRANCH   6  22
BRANCH   8  24
ATOM     24  O   UNL     1     -11.063  -8.117  -3.781  1.00  0.00    -0.508 OA
ATOM     25  H   UNL     1     -11.224  -7.747  -2.851  1.00  0.00     0.293 HD
ENDBRANCH   8  24
TORSDOF 5
ENDMDL
