MODEL 1
REMARK VINA RESULT:    -3.656      0.000      0.000
REMARK INTER + INTRA:          -4.663
REMARK INTER:                  -4.404
REMARK INTRA:                  -0.259
REMARK UNBOUND:                -0.259
REMARK SMILES NC(=O)C[C@@H]([NH3+])C(=O)[O-]
REMARK SMILES IDX 4 1 5 2 6 3 7 7 8 8 9 9 2 10 3 11 1 12
REMARK H PARENT 6 4 6 5 6 6 1 13 1 14
REMARK Flexibility Score: inf
ROOT
ATOM      1  C   UNL     1      63.558   1.554  -2.304  1.00  0.00     0.171 C 
ENDROOT
BRANCH   1   2
ATOM      2  C   UNL     1      62.625   2.613  -2.925  1.00  0.00     0.237 C 
BRANCH   2   3
ATOM      3  N   UNL     1      63.050   2.932  -4.293  1.00  0.00    -0.350 N 
ATOM      4  H   UNL     1      63.594   2.132  -4.690  1.00  0.00     0.345 HD
ATOM      5  H   UNL     1      63.667   3.776  -4.285  1.00  0.00     0.345 HD
ATOM      6  H   UNL     1      62.220   3.118  -4.904  1.00  0.00     0.345 HD
ENDBRANCH   2   3
BRANCH   2   7
ATOM      7  C   UNL     1      61.195   2.135  -2.926  1.00  0.00     0.100 C 
ATOM      8  O   UNL     1      60.719   1.562  -1.911  1.00  0.00    -0.544 OA
ATOM      9  O   UNL     1      60.397   2.311  -4.051  1.00  0.00    -0.544 OA
ENDBRANCH   2   7
ENDBRANCH   1   2
BRANCH   1  10
ATOM     10  C   UNL     1      64.847   2.163  -1.830  1.00  0.00     0.223 C 
ATOM     11  O   UNL     1      65.294   3.199  -2.393  1.00  0.00    -0.275 OA
ATOM     12  N   UNL     1      65.550   1.601  -0.722  1.00  0.00    -0.369 N 
ATOM     13  H   UNL     1      65.185   0.755  -0.232  1.00  0.00     0.159 HD
ATOM     14  H   UNL     1      66.438   2.036  -0.387  1.00  0.00     0.159 HD
ENDBRANCH   1  10
TORSDOF 4
ENDMDL
MODEL 2
REMARK VINA RESULT:    -3.654      2.569      3.189
REMARK INTER + INTRA:          -4.660
REMARK INTER:                  -4.538
REMARK INTRA:                  -0.122
REMARK UNBOUND:                -0.259
REMARK SMILES NC(=O)C[C@@H]([NH3+])C(=O)[O-]
REMARK SMILES IDX 4 1 5 2 6 3 7 7 8 8 9 9 2 10 3 11 1 12
REMARK H PARENT 6 4 6 5 6 6 1 13 1 14
REMARK Flexibility Score: inf
ROOT
ATOM      1  C   UNL     1      64.881   4.518  -2.572  1.00  0.00     0.171 C 
ENDROOT
BRANCH   1   2
ATOM      2  C   UNL     1      64.858   2.976  -2.561  1.00  0.00     0.237 C 
BRANCH   2   3
ATOM      3  N   UNL     1      65.189   2.468  -1.224  1.00  0.00    -0.350 N 
ATOM      4  H   UNL     1      64.407   1.871  -0.869  1.00  0.00     0.345 HD
ATOM      5  H   UNL     1      65.316   3.268  -0.562  1.00  0.00     0.345 HD
ATOM      6  H   UNL     1      66.068   1.900  -1.251  1.00  0.00     0.345 HD
ENDBRANCH   2   3
BRANCH   2   7
ATOM      7  C   UNL     1      63.511   2.455  -2.993  1.00  0.00     0.100 C 
ATOM      8  O   UNL     1      62.883   1.644  -2.265  1.00  0.00    -0.544 OA
ATOM      9  O   UNL     1      62.961   2.857  -4.205  1.00  0.00    -0.544 OA
ENDBRANCH   2   7
ENDBRANCH   1   2
BRANCH   1  10
ATOM     10  C   UNL     1      66.019   5.048  -3.396  1.00  0.00     0.223 C 
ATOM     11  O   UNL     1      66.379   6.249  -3.268  1.00  0.00    -0.275 OA
ATOM     12  N   UNL     1      66.722   4.191  -4.297  1.00  0.00    -0.369 N 
ATOM     13  H   UNL     1      66.450   3.189  -4.403  1.00  0.00     0.159 HD
ATOM     14  H   UNL     1      67.522   4.560  -4.858  1.00  0.00     0.159 HD
ENDBRANCH   1  10
TORSDOF 4
ENDMDL
MODEL 3
REMARK VINA RESULT:    -3.547      5.615      6.728
REMARK INTER + INTRA:          -4.532
REMARK INTER:                  -4.034
REMARK INTRA:                  -0.497
REMARK UNBOUND:                -0.259
REMARK SMILES NC(=O)C[C@@H]([NH3+])C(=O)[O-]
REMARK SMILES IDX 4 1 5 2 6 3 7 7 8 8 9 9 2 10 3 11 1 12
REMARK H PARENT 6 4 6 5 6 6 1 13 1 14
REMARK Flexibility Score: inf
ROOT
ATOM      1  C   UNL     1      57.753  -0.650   0.066  1.00  0.00     0.171 C 
ENDROOT
BRANCH   1   2
ATOM      2  C   UNL     1      58.524  -0.637   1.401  1.00  0.00     0.237 C 
BRANCH   2   3
ATOM      3  N   UNL     1      59.408  -1.805   1.494  1.00  0.00    -0.350 N 
ATOM      4  H   UNL     1      58.837  -2.682   1.493  1.00  0.00     0.345 HD
ATOM      5  H   UNL     1      59.950  -1.769   2.388  1.00  0.00     0.345 HD
ATOM      6  H   UNL     1      60.075  -1.830   0.687  1.00  0.00     0.345 HD
ENDBRANCH   2   3
BRANCH   2   7
ATOM      7  C   UNL     1      59.326   0.631   1.547  1.00  0.00     0.100 C 
ATOM      8  O   UNL     1      58.860   1.604   2.196  1.00  0.00    -0.544 OA
ATOM      9  O   UNL     1      60.580   0.739   0.955  1.00  0.00    -0.544 OA
ENDBRANCH   2   7
ENDBRANCH   1   2
BRANCH   1  10
ATOM     10  C   UNL     1      58.575  -1.246  -1.041  1.00  0.00     0.223 C 
ATOM     11  O   UNL     1      58.494  -2.480  -1.286  1.00  0.00    -0.275 OA
ATOM     12  N   UNL     1      59.417  -0.419  -1.845  1.00  0.00    -0.369 N 
ATOM     13  H   UNL     1      59.481   0.608  -1.669  1.00  0.00     0.159 HD
ATOM     14  H   UNL     1      59.975  -0.835  -2.623  1.00  0.00     0.159 HD
ENDBRANCH   1  10
TORSDOF 4
ENDMDL
MODEL 4
REMARK VINA RESULT:    -3.533      2.723      4.228
REMARK INTER + INTRA:          -4.515
REMARK INTER:                  -4.423
REMARK INTRA:                  -0.092
REMARK UNBOUND:                -0.259
REMARK SMILES NC(=O)C[C@@H]([NH3+])C(=O)[O-]
REMARK SMILES IDX 4 1 5 2 6 3 7 7 8 8 9 9 2 10 3 11 1 12
REMARK H PARENT 6 4 6 5 6 6 1 13 1 14
REMARK Flexibility Score: inf
ROOT
ATOM      1  C   UNL     1      64.233   3.479  -3.008  1.00  0.00     0.171 C 
ENDROOT
BRANCH   1   2
ATOM      2  C   UNL     1      65.639   4.106  -3.092  1.00  0.00     0.237 C 
BRANCH   2   3
ATOM      3  N   UNL     1      66.402   3.509  -4.194  1.00  0.00    -0.350 N 
ATOM      4  H   UNL     1      66.051   3.877  -5.108  1.00  0.00     0.345 HD
ATOM      5  H   UNL     1      66.277   2.470  -4.190  1.00  0.00     0.345 HD
ATOM      6  H   UNL     1      67.421   3.734  -4.104  1.00  0.00     0.345 HD
ENDBRANCH   2   3
BRANCH   2   7
ATOM      7  C   UNL     1      65.552   5.600  -3.273  1.00  0.00     0.100 C 
ATOM      8  O   UNL     1      64.431   6.156  -3.412  1.00  0.00    -0.544 OA
ATOM      9  O   UNL     1      66.708   6.372  -3.302  1.00  0.00    -0.544 OA
ENDBRANCH   2   7
ENDBRANCH   1   2
BRANCH   1  10
ATOM     10  C   UNL     1      64.224   2.257  -2.136  1.00  0.00     0.223 C 
ATOM     11  O   UNL     1      63.334   1.378  -2.298  1.00  0.00    -0.275 OA
ATOM     12  N   UNL     1      65.238   2.062  -1.149  1.00  0.00    -0.369 N 
ATOM     13  H   UNL     1      65.993   2.770  -1.014  1.00  0.00     0.159 HD
ATOM     14  H   UNL     1      65.236   1.204  -0.555  1.00  0.00     0.159 HD
ENDBRANCH   1  10
TORSDOF 4
ENDMDL
MODEL 5
REMARK VINA RESULT:    -3.444      1.885      4.078
REMARK INTER + INTRA:          -4.408
REMARK INTER:                  -4.145
REMARK INTRA:                  -0.263
REMARK UNBOUND:                -0.259
REMARK SMILES NC(=O)C[C@@H]([NH3+])C(=O)[O-]
REMARK SMILES IDX 4 1 5 2 6 3 7 7 8 8 9 9 2 10 3 11 1 12
REMARK H PARENT 6 4 6 5 6 6 1 13 1 14
REMARK Flexibility Score: inf
ROOT
ATOM      1  C   UNL     1      61.936   1.696  -1.721  1.00  0.00     0.171 C 
ENDROOT
BRANCH   1   2
ATOM      2  C   UNL     1      63.139   1.820  -2.678  1.00  0.00     0.237 C 
BRANCH   2   3
ATOM      3  N   UNL     1      63.017   3.029  -3.501  1.00  0.00    -0.350 N 
ATOM      4  H   UNL     1      62.568   2.791  -4.415  1.00  0.00     0.345 HD
ATOM      5  H   UNL     1      63.966   3.423  -3.696  1.00  0.00     0.345 HD
ATOM      6  H   UNL     1      62.438   3.752  -3.014  1.00  0.00     0.345 HD
ENDBRANCH   2   3
BRANCH   2   7
ATOM      7  C   UNL     1      64.436   1.847  -1.909  1.00  0.00     0.100 C 
ATOM      8  O   UNL     1      65.072   2.926  -1.778  1.00  0.00    -0.544 OA
ATOM      9  O   UNL     1      64.945   0.679  -1.352  1.00  0.00    -0.544 OA
ENDBRANCH   2   7
ENDBRANCH   1   2
BRANCH   1  10
ATOM     10  C   UNL     1      60.636   1.649  -2.472  1.00  0.00     0.223 C 
ATOM     11  O   UNL     1      60.116   2.718  -2.891  1.00  0.00    -0.275 OA
ATOM     12  N   UNL     1      60.003   0.399  -2.748  1.00  0.00    -0.369 N 
ATOM     13  H   UNL     1      60.429  -0.498  -2.426  1.00  0.00     0.159 HD
ATOM     14  H   UNL     1      59.107   0.370  -3.283  1.00  0.00     0.159 HD
ENDBRANCH   1  10
TORSDOF 4
ENDMDL
MODEL 6
REMARK VINA RESULT:    -3.421      6.560      7.450
REMARK INTER + INTRA:          -4.380
REMARK INTER:                  -3.897
REMARK INTRA:                  -0.482
REMARK UNBOUND:                -0.259
REMARK SMILES NC(=O)C[C@@H]([NH3+])C(=O)[O-]
REMARK SMILES IDX 4 1 5 2 6 3 7 7 8 8 9 9 2 10 3 11 1 12
REMARK H PARENT 6 4 6 5 6 6 1 13 1 14
REMARK Flexibility Score: inf
ROOT
ATOM      1  C   UNL     1      57.731  -0.884   1.694  1.00  0.00     0.171 C 
ENDROOT
BRANCH   1   2
ATOM      2  C   UNL     1      56.871  -0.755   0.421  1.00  0.00     0.237 C 
BRANCH   2   3
ATOM      3  N   UNL     1      57.718  -0.465  -0.742  1.00  0.00    -0.350 N 
ATOM      4  H   UNL     1      57.391  -1.020  -1.566  1.00  0.00     0.345 HD
ATOM      5  H   UNL     1      58.707  -0.736  -0.537  1.00  0.00     0.345 HD
ATOM      6  H   UNL     1      57.683   0.554  -0.981  1.00  0.00     0.345 HD
ENDBRANCH   2   3
BRANCH   2   7
ATOM      7  C   UNL     1      56.075  -2.012   0.180  1.00  0.00     0.100 C 
ATOM      8  O   UNL     1      55.165  -2.028  -0.690  1.00  0.00    -0.544 OA
ATOM      9  O   UNL     1      56.330  -3.158   0.925  1.00  0.00    -0.544 OA
ENDBRANCH   2   7
ENDBRANCH   1   2
BRANCH   1  10
ATOM     10  C   UNL     1      59.149  -1.258   1.369  1.00  0.00     0.223 C 
ATOM     11  O   UNL     1      60.007  -0.355   1.180  1.00  0.00    -0.275 OA
ATOM     12  N   UNL     1      59.541  -2.630   1.310  1.00  0.00    -0.369 N 
ATOM     13  H   UNL     1      58.848  -3.391   1.482  1.00  0.00     0.159 HD
ATOM     14  H   UNL     1      60.531  -2.886   1.097  1.00  0.00     0.159 HD
ENDBRANCH   1  10
TORSDOF 4
ENDMDL
MODEL 7
REMARK VINA RESULT:    -3.395      2.567      3.337
REMARK INTER + INTRA:          -4.348
REMARK INTER:                  -4.220
REMARK INTRA:                  -0.128
REMARK UNBOUND:                -0.259
REMARK SMILES NC(=O)C[C@@H]([NH3+])C(=O)[O-]
REMARK SMILES IDX 4 1 5 2 6 3 7 7 8 8 9 9 2 10 3 11 1 12
REMARK H PARENT 6 4 6 5 6 6 1 13 1 14
REMARK Flexibility Score: inf
ROOT
ATOM      1  C   UNL     1      65.204   4.168  -2.842  1.00  0.00     0.171 C 
ENDROOT
BRANCH   1   2
ATOM      2  C   UNL     1      64.863   2.687  -2.578  1.00  0.00     0.237 C 
BRANCH   2   3
ATOM      3  N   UNL     1      65.191   2.324  -1.195  1.00  0.00    -0.350 N 
ATOM      4  H   UNL     1      64.600   2.878  -0.533  1.00  0.00     0.345 HD
ATOM      5  H   UNL     1      66.195   2.543  -0.999  1.00  0.00     0.345 HD
ATOM      6  H   UNL     1      65.024   1.303  -1.030  1.00  0.00     0.345 HD
ENDBRANCH   2   3
BRANCH   2   7
ATOM      7  C   UNL     1      63.407   2.413  -2.854  1.00  0.00     0.100 C 
ATOM      8  O   UNL     1      62.826   2.984  -3.813  1.00  0.00    -0.544 OA
ATOM      9  O   UNL     1      62.692   1.539  -2.042  1.00  0.00    -0.544 OA
ENDBRANCH   2   7
ENDBRANCH   1   2
BRANCH   1  10
ATOM     10  C   UNL     1      66.101   4.325  -4.036  1.00  0.00     0.223 C 
ATOM     11  O   UNL     1      65.875   3.656  -5.080  1.00  0.00    -0.275 OA
ATOM     12  N   UNL     1      67.184   5.255  -4.012  1.00  0.00    -0.369 N 
ATOM     13  H   UNL     1      67.374   5.830  -3.163  1.00  0.00     0.159 HD
ATOM     14  H   UNL     1      67.796   5.371  -4.850  1.00  0.00     0.159 HD
ENDBRANCH   1  10
TORSDOF 4
ENDMDL
MODEL 8
REMARK VINA RESULT:    -3.360      3.931      5.161
REMARK INTER + INTRA:          -4.307
REMARK INTER:                  -4.026
REMARK INTRA:                  -0.281
REMARK UNBOUND:                -0.259
REMARK SMILES NC(=O)C[C@@H]([NH3+])C(=O)[O-]
REMARK SMILES IDX 4 1 5 2 6 3 7 7 8 8 9 9 2 10 3 11 1 12
REMARK H PARENT 6 4 6 5 6 6 1 13 1 14
REMARK Flexibility Score: inf
ROOT
ATOM      1  C   UNL     1      60.118   1.027  -0.666  1.00  0.00     0.171 C 
ENDROOT
BRANCH   1   2
ATOM      2  C   UNL     1      58.912   0.066  -0.708  1.00  0.00     0.237 C 
BRANCH   2   3
ATOM      3  N   UNL     1      59.128  -0.982  -1.712  1.00  0.00    -0.350 N 
ATOM      4  H   UNL     1      60.123  -0.968  -2.032  1.00  0.00     0.345 HD
ATOM      5  H   UNL     1      58.515  -0.810  -2.542  1.00  0.00     0.345 HD
ATOM      6  H   UNL     1      58.910  -1.926  -1.314  1.00  0.00     0.345 HD
ENDBRANCH   2   3
BRANCH   2   7
ATOM      7  C   UNL     1      58.671  -0.554   0.644  1.00  0.00     0.100 C 
ATOM      8  O   UNL     1      57.548  -0.440   1.202  1.00  0.00    -0.544 OA
ATOM      9  O   UNL     1      59.690  -1.244   1.291  1.00  0.00    -0.544 OA
ENDBRANCH   2   7
ENDBRANCH   1   2
BRANCH   1  10
ATOM     10  C   UNL     1      60.490   1.508  -2.039  1.00  0.00     0.223 C 
ATOM     11  O   UNL     1      59.585   1.814  -2.861  1.00  0.00    -0.275 OA
ATOM     12  N   UNL     1      61.861   1.659  -2.408  1.00  0.00    -0.369 N 
ATOM     13  H   UNL     1      62.624   1.428  -1.733  1.00  0.00     0.159 HD
ATOM     14  H   UNL     1      62.115   2.008  -3.358  1.00  0.00     0.159 HD
ENDBRANCH   1  10
TORSDOF 4
ENDMDL
MODEL 9
REMARK VINA RESULT:    -3.313      6.493      7.943
REMARK INTER + INTRA:          -4.249
REMARK INTER:                  -4.024
REMARK INTRA:                  -0.226
REMARK UNBOUND:                -0.259
REMARK SMILES NC(=O)C[C@@H]([NH3+])C(=O)[O-]
REMARK SMILES IDX 4 1 5 2 6 3 7 7 8 8 9 9 2 10 3 11 1 12
REMARK H PARENT 6 4 6 5 6 6 1 13 1 14
REMARK Flexibility Score: inf
ROOT
ATOM      1  C   UNL     1      57.045  -0.838  -0.184  1.00  0.00     0.171 C 
ENDROOT
BRANCH   1   2
ATOM      2  C   UNL     1      58.444  -1.455  -0.386  1.00  0.00     0.237 C 
BRANCH   2   3
ATOM      3  N   UNL     1      59.129  -0.814  -1.514  1.00  0.00    -0.350 N 
ATOM      4  H   UNL     1      59.804  -0.098  -1.159  1.00  0.00     0.345 HD
ATOM      5  H   UNL     1      58.431  -0.330  -2.124  1.00  0.00     0.345 HD
ATOM      6  H   UNL     1      59.650  -1.523  -2.082  1.00  0.00     0.345 HD
ENDBRANCH   2   3
BRANCH   2   7
ATOM      7  C   UNL     1      59.275  -1.324   0.865  1.00  0.00     0.100 C 
ATOM      8  O   UNL     1      59.309  -2.263   1.703  1.00  0.00    -0.544 OA
ATOM      9  O   UNL     1      59.997  -0.161   1.109  1.00  0.00    -0.544 OA
ENDBRANCH   2   7
ENDBRANCH   1   2
BRANCH   1  10
ATOM     10  C   UNL     1      56.009  -1.891   0.084  1.00  0.00     0.223 C 
ATOM     11  O   UNL     1      55.072  -2.072  -0.740  1.00  0.00    -0.275 OA
ATOM     12  N   UNL     1      56.099  -2.717   1.245  1.00  0.00    -0.369 N 
ATOM     13  H   UNL     1      56.878  -2.594   1.929  1.00  0.00     0.159 HD
ATOM     14  H   UNL     1      55.385  -3.458   1.420  1.00  0.00     0.159 HD
ENDBRANCH   1  10
TORSDOF 4
ENDMDL
