MODEL 1
REMARK VINA RESULT:    -4.180      0.000      0.000
REMARK INTER + INTRA:          -9.503
REMARK INTER:                  -7.601
REMARK INTRA:                  -1.901
REMARK UNBOUND:                -1.901
REMARK SMILES CCCCCCCCCCCCCC[C@@H](C)C(=O)[O-]
REMARK SMILES IDX 9 1 10 2 11 3 12 4 13 5 14 6 15 7 16 8 17 9 18 10 19 11 8 12
REMARK SMILES IDX 7 13 6 14 5 15 4 16 3 17 2 18 1 19
REMARK H PARENT
REMARK Flexibility Score: inf
ROOT
ATOM      1  C   UNL     1      -4.077  -2.763   1.777  1.00  0.00     0.000 C 
ENDROOT
BRANCH   1   2
ATOM      2  C   UNL     1      -3.998  -4.296   1.663  1.00  0.00     0.000 C 
BRANCH   2   3
ATOM      3  C   UNL     1      -5.359  -5.008   1.541  1.00  0.00     0.000 C 
BRANCH   3   4
ATOM      4  C   UNL     1      -5.467  -5.933   0.309  1.00  0.00     0.000 C 
BRANCH   4   5
ATOM      5  C   UNL     1      -6.809  -5.782  -0.424  1.00  0.00     0.001 C 
BRANCH   5   6
ATOM      6  C   UNL     1      -7.505  -4.469  -0.034  1.00  0.00     0.009 C 
BRANCH   6   7
ATOM      7  C   UNL     1      -8.515  -3.991  -1.100  1.00  0.00     0.032 C 
ATOM      8  C   UNL     1      -8.201  -4.551  -2.494  1.00  0.00     0.014 C 
BRANCH   7   9
ATOM      9  C   UNL     1      -9.906  -4.394  -0.697  1.00  0.00     0.044 C 
ATOM     10  O   UNL     1     -10.830  -4.421  -1.552  1.00  0.00    -0.550 OA
ATOM     11  O   UNL     1     -10.182  -4.740   0.621  1.00  0.00    -0.550 OA
ENDBRANCH   7   9
ENDBRANCH   6   7
ENDBRANCH   5   6
ENDBRANCH   4   5
ENDBRANCH   3   4
ENDBRANCH   2   3
ENDBRANCH   1   2
BRANCH   1  12
ATOM     12  C   UNL     1      -2.792  -2.009   1.377  1.00  0.00     0.000 C 
BRANCH  12  13
ATOM     13  C   UNL     1      -1.498  -2.840   1.451  1.00  0.00    -0.000 C 
BRANCH  13  14
ATOM     14  C   UNL     1      -0.567  -2.608   0.252  1.00  0.00    -0.000 C 
BRANCH  14  15
ATOM     15  C   UNL     1      -1.146  -3.242  -1.022  1.00  0.00    -0.000 C 
BRANCH  15  16
ATOM     16  C   UNL     1      -0.783  -4.729  -1.159  1.00  0.00    -0.000 C 
BRANCH  16  17
ATOM     17  C   UNL     1      -2.024  -5.639  -1.201  1.00  0.00    -0.000 C 
BRANCH  17  18
ATOM     18  C   UNL     1      -1.901  -6.846  -0.257  1.00  0.00    -0.003 C 
ATOM     19  C   UNL     1      -1.168  -6.507   1.040  1.00  0.00     0.004 C 
ENDBRANCH  17  18
ENDBRANCH  16  17
ENDBRANCH  15  16
ENDBRANCH  14  15
ENDBRANCH  13  14
ENDBRANCH  12  13
ENDBRANCH   1  12
TORSDOF 14
ENDMDL
MODEL 2
REMARK VINA RESULT:    -4.178      3.423      7.743
REMARK INTER + INTRA:          -9.499
REMARK INTER:                  -8.169
REMARK INTRA:                  -1.330
REMARK UNBOUND:                -1.901
REMARK SMILES CCCCCCCCCCCCCC[C@@H](C)C(=O)[O-]
REMARK SMILES IDX 9 1 10 2 11 3 12 4 13 5 14 6 15 7 16 8 17 9 18 10 19 11 8 12
REMARK SMILES IDX 7 13 6 14 5 15 4 16 3 17 2 18 1 19
REMARK H PARENT
REMARK Flexibility Score: inf
ROOT
ATOM      1  C   UNL     1      -6.687  -5.628   1.595  1.00  0.00     0.000 C 
ENDROOT
BRANCH   1   2
ATOM      2  C   UNL     1      -5.320  -5.212   1.022  1.00  0.00     0.000 C 
BRANCH   2   3
ATOM      3  C   UNL     1      -4.480  -4.304   1.941  1.00  0.00     0.000 C 
BRANCH   3   4
ATOM      4  C   UNL     1      -4.529  -2.811   1.552  1.00  0.00     0.000 C 
BRANCH   4   5
ATOM      5  C   UNL     1      -3.139  -2.157   1.553  1.00  0.00     0.001 C 
BRANCH   5   6
ATOM      6  C   UNL     1      -2.030  -3.220   1.575  1.00  0.00     0.009 C 
BRANCH   6   7
ATOM      7  C   UNL     1      -0.802  -2.818   0.728  1.00  0.00     0.032 C 
ATOM      8  C   UNL     1       0.479  -3.530   1.184  1.00  0.00     0.014 C 
BRANCH   7   9
ATOM      9  C   UNL     1      -1.062  -3.129  -0.720  1.00  0.00     0.044 C 
ATOM     10  O   UNL     1      -1.158  -2.196  -1.560  1.00  0.00    -0.550 OA
ATOM     11  O   UNL     1      -1.198  -4.447  -1.141  1.00  0.00    -0.550 OA
ENDBRANCH   7   9
ENDBRANCH   6   7
ENDBRANCH   5   6
ENDBRANCH   4   5
ENDBRANCH   3   4
ENDBRANCH   2   3
ENDBRANCH   1   2
BRANCH   1  12
ATOM     12  C   UNL     1      -7.911  -5.114   0.808  1.00  0.00     0.000 C 
BRANCH  12  13
ATOM     13  C   UNL     1      -7.616  -3.978  -0.189  1.00  0.00    -0.000 C 
BRANCH  13  14
ATOM     14  C   UNL     1      -8.504  -4.034  -1.441  1.00  0.00    -0.000 C 
BRANCH  14  15
ATOM     15  C   UNL     1      -9.533  -5.169  -1.332  1.00  0.00    -0.000 C 
BRANCH  15  16
ATOM     16  C   UNL     1     -10.980  -4.668  -1.457  1.00  0.00    -0.000 C 
BRANCH  16  17
ATOM     17  C   UNL     1     -11.953  -5.434  -0.543  1.00  0.00    -0.000 C 
BRANCH  17  18
ATOM     18  C   UNL     1     -11.724  -5.132   0.946  1.00  0.00    -0.003 C 
ATOM     19  C   UNL     1     -11.281  -6.363   1.735  1.00  0.00     0.004 C 
ENDBRANCH  17  18
ENDBRANCH  16  17
ENDBRANCH  15  16
ENDBRANCH  14  15
ENDBRANCH  13  14
ENDBRANCH  12  13
ENDBRANCH   1  12
TORSDOF 14
ENDMDL
MODEL 3
REMARK VINA RESULT:    -4.065      1.772      2.613
REMARK INTER + INTRA:          -9.293
REMARK INTER:                  -8.257
REMARK INTRA:                  -1.036
REMARK UNBOUND:                -1.901
REMARK SMILES CCCCCCCCCCCCCC[C@@H](C)C(=O)[O-]
REMARK SMILES IDX 9 1 10 2 11 3 12 4 13 5 14 6 15 7 16 8 17 9 18 10 19 11 8 12
REMARK SMILES IDX 7 13 6 14 5 15 4 16 3 17 2 18 1 19
REMARK H PARENT
REMARK Flexibility Score: inf
ROOT
ATOM      1  C   UNL     1      -4.932  -4.499   1.666  1.00  0.00     0.000 C 
ENDROOT
BRANCH   1   2
ATOM      2  C   UNL     1      -5.483  -5.397   0.544  1.00  0.00     0.000 C 
BRANCH   2   3
ATOM      3  C   UNL     1      -6.957  -5.141   0.175  1.00  0.00     0.000 C 
BRANCH   3   4
ATOM      4  C   UNL     1      -7.271  -5.370  -1.320  1.00  0.00     0.000 C 
BRANCH   4   5
ATOM      5  C   UNL     1      -8.395  -4.457  -1.831  1.00  0.00     0.001 C 
BRANCH   5   6
ATOM      6  C   UNL     1      -9.227  -3.900  -0.666  1.00  0.00     0.009 C 
BRANCH   6   7
ATOM      7  C   UNL     1     -10.671  -4.446  -0.651  1.00  0.00     0.032 C 
ATOM      8  C   UNL     1     -11.105  -4.984  -2.021  1.00  0.00     0.014 C 
BRANCH   7   9
ATOM      9  C   UNL     1     -10.791  -5.535   0.379  1.00  0.00     0.044 C 
ATOM     10  O   UNL     1     -10.273  -6.663   0.170  1.00  0.00    -0.550 OA
ATOM     11  O   UNL     1     -11.475  -5.304   1.567  1.00  0.00    -0.550 OA
ENDBRANCH   7   9
ENDBRANCH   6   7
ENDBRANCH   5   6
ENDBRANCH   4   5
ENDBRANCH   3   4
ENDBRANCH   2   3
ENDBRANCH   1   2
BRANCH   1  12
ATOM     12  C   UNL     1      -5.059  -2.982   1.413  1.00  0.00     0.000 C 
BRANCH  12  13
ATOM     13  C   UNL     1      -3.835  -2.146   1.828  1.00  0.00    -0.000 C 
BRANCH  13  14
ATOM     14  C   UNL     1      -2.502  -2.815   1.464  1.00  0.00    -0.000 C 
BRANCH  14  15
ATOM     15  C   UNL     1      -1.802  -2.058   0.325  1.00  0.00    -0.000 C 
BRANCH  15  16
ATOM     16  C   UNL     1      -0.442  -2.671  -0.044  1.00  0.00    -0.000 C 
BRANCH  16  17
ATOM     17  C   UNL     1       0.357  -3.124   1.192  1.00  0.00    -0.000 C 
BRANCH  17  18
ATOM     18  C   UNL     1       0.731  -4.614   1.138  1.00  0.00    -0.003 C 
ATOM     19  C   UNL     1       2.177  -4.873   1.557  1.00  0.00     0.004 C 
ENDBRANCH  17  18
ENDBRANCH  16  17
ENDBRANCH  15  16
ENDBRANCH  14  15
ENDBRANCH  13  14
ENDBRANCH  12  13
ENDBRANCH   1  12
TORSDOF 14
ENDMDL
MODEL 4
REMARK VINA RESULT:    -4.051      2.183      3.949
REMARK INTER + INTRA:          -9.267
REMARK INTER:                  -8.028
REMARK INTRA:                  -1.239
REMARK UNBOUND:                -1.901
REMARK SMILES CCCCCCCCCCCCCC[C@@H](C)C(=O)[O-]
REMARK SMILES IDX 9 1 10 2 11 3 12 4 13 5 14 6 15 7 16 8 17 9 18 10 19 11 8 12
REMARK SMILES IDX 7 13 6 14 5 15 4 16 3 17 2 18 1 19
REMARK H PARENT
REMARK Flexibility Score: inf
ROOT
ATOM      1  C   UNL     1      -6.734  -5.789   1.298  1.00  0.00     0.000 C 
ENDROOT
BRANCH   1   2
ATOM      2  C   UNL     1      -8.045  -5.228   0.718  1.00  0.00     0.000 C 
BRANCH   2   3
ATOM      3  C   UNL     1      -7.867  -4.096  -0.311  1.00  0.00     0.000 C 
BRANCH   3   4
ATOM      4  C   UNL     1      -9.147  -3.783  -1.117  1.00  0.00     0.000 C 
BRANCH   4   5
ATOM      5  C   UNL     1     -10.422  -4.254  -0.403  1.00  0.00     0.001 C 
BRANCH   5   6
ATOM      6  C   UNL     1     -11.215  -5.235  -1.280  1.00  0.00     0.009 C 
BRANCH   6   7
ATOM      7  C   UNL     1     -10.315  -6.023  -2.257  1.00  0.00     0.032 C 
ATOM      8  C   UNL     1      -9.974  -7.425  -1.735  1.00  0.00     0.014 C 
BRANCH   7   9
ATOM      9  C   UNL     1     -10.994  -6.135  -3.594  1.00  0.00     0.044 C 
ATOM     10  O   UNL     1     -12.125  -5.613  -3.775  1.00  0.00    -0.550 OA
ATOM     11  O   UNL     1     -10.378  -6.816  -4.638  1.00  0.00    -0.550 OA
ENDBRANCH   7   9
ENDBRANCH   6   7
ENDBRANCH   5   6
ENDBRANCH   4   5
ENDBRANCH   3   4
ENDBRANCH   2   3
ENDBRANCH   1   2
BRANCH   1  12
ATOM     12  C   UNL     1      -5.445  -5.168   0.721  1.00  0.00     0.000 C 
BRANCH  12  13
ATOM     13  C   UNL     1      -4.656  -4.276   1.697  1.00  0.00    -0.000 C 
BRANCH  13  14
ATOM     14  C   UNL     1      -4.941  -2.779   1.505  1.00  0.00    -0.000 C 
BRANCH  14  15
ATOM     15  C   UNL     1      -3.714  -1.936   1.879  1.00  0.00    -0.000 C 
BRANCH  15  16
ATOM     16  C   UNL     1      -2.392  -2.691   1.670  1.00  0.00    -0.000 C 
BRANCH  16  17
ATOM     17  C   UNL     1      -1.658  -2.257   0.389  1.00  0.00    -0.000 C 
BRANCH  17  18
ATOM     18  C   UNL     1      -0.151  -2.556   0.443  1.00  0.00    -0.003 C 
ATOM     19  C   UNL     1       0.160  -3.893   1.116  1.00  0.00     0.004 C 
ENDBRANCH  17  18
ENDBRANCH  16  17
ENDBRANCH  15  16
ENDBRANCH  14  15
ENDBRANCH  13  14
ENDBRANCH  12  13
ENDBRANCH   1  12
TORSDOF 14
ENDMDL
MODEL 5
REMARK VINA RESULT:    -4.038      1.181      2.220
REMARK INTER + INTRA:          -9.244
REMARK INTER:                  -7.798
REMARK INTRA:                  -1.447
REMARK UNBOUND:                -1.901
REMARK SMILES CCCCCCCCCCCCCC[C@@H](C)C(=O)[O-]
REMARK SMILES IDX 9 1 10 2 11 3 12 4 13 5 14 6 15 7 16 8 17 9 18 10 19 11 8 12
REMARK SMILES IDX 7 13 6 14 5 15 4 16 3 17 2 18 1 19
REMARK H PARENT
REMARK Flexibility Score: inf
ROOT
ATOM      1  C   UNL     1      -4.320  -4.590   1.899  1.00  0.00     0.000 C 
ENDROOT
BRANCH   1   2
ATOM      2  C   UNL     1      -5.507  -5.550   1.702  1.00  0.00     0.000 C 
BRANCH   2   3
ATOM      3  C   UNL     1      -6.253  -5.392   0.363  1.00  0.00     0.000 C 
BRANCH   3   4
ATOM      4  C   UNL     1      -7.669  -4.793   0.509  1.00  0.00     0.000 C 
BRANCH   4   5
ATOM      5  C   UNL     1      -8.023  -3.833  -0.636  1.00  0.00     0.001 C 
BRANCH   5   6
ATOM      6  C   UNL     1      -9.532  -3.850  -0.924  1.00  0.00     0.009 C 
BRANCH   6   7
ATOM      7  C   UNL     1     -10.243  -5.072  -0.304  1.00  0.00     0.032 C 
ATOM      8  C   UNL     1     -11.354  -4.665   0.675  1.00  0.00     0.014 C 
BRANCH   7   9
ATOM      9  C   UNL     1     -10.823  -5.929  -1.395  1.00  0.00     0.044 C 
ATOM     10  O   UNL     1     -11.308  -5.396  -2.428  1.00  0.00    -0.550 OA
ATOM     11  O   UNL     1     -10.830  -7.313  -1.270  1.00  0.00    -0.550 OA
ENDBRANCH   7   9
ENDBRANCH   6   7
ENDBRANCH   5   6
ENDBRANCH   4   5
ENDBRANCH   3   4
ENDBRANCH   2   3
ENDBRANCH   1   2
BRANCH   1  12
ATOM     12  C   UNL     1      -4.612  -3.111   1.570  1.00  0.00     0.000 C 
BRANCH  12  13
ATOM     13  C   UNL     1      -3.425  -2.151   1.772  1.00  0.00    -0.000 C 
BRANCH  13  14
ATOM     14  C   UNL     1      -2.072  -2.791   1.431  1.00  0.00    -0.000 C 
BRANCH  14  15
ATOM     15  C   UNL     1      -1.438  -2.112   0.208  1.00  0.00    -0.000 C 
BRANCH  15  16
ATOM     16  C   UNL     1      -1.021  -3.118  -0.876  1.00  0.00    -0.000 C 
BRANCH  16  17
ATOM     17  C   UNL     1      -0.928  -4.558  -0.341  1.00  0.00    -0.000 C 
BRANCH  17  18
ATOM     18  C   UNL     1      -1.966  -5.493  -0.983  1.00  0.00    -0.003 C 
ATOM     19  C   UNL     1      -2.245  -6.733  -0.135  1.00  0.00     0.004 C 
ENDBRANCH  17  18
ENDBRANCH  16  17
ENDBRANCH  15  16
ENDBRANCH  14  15
ENDBRANCH  13  14
ENDBRANCH  12  13
ENDBRANCH   1  12
TORSDOF 14
ENDMDL
MODEL 6
REMARK VINA RESULT:    -4.013      2.151      4.763
REMARK INTER + INTRA:          -9.198
REMARK INTER:                  -7.858
REMARK INTRA:                  -1.339
REMARK UNBOUND:                -1.901
REMARK SMILES CCCCCCCCCCCCCC[C@@H](C)C(=O)[O-]
REMARK SMILES IDX 9 1 10 2 11 3 12 4 13 5 14 6 15 7 16 8 17 9 18 10 19 11 8 12
REMARK SMILES IDX 7 13 6 14 5 15 4 16 3 17 2 18 1 19
REMARK H PARENT
REMARK Flexibility Score: inf
ROOT
ATOM      1  C   UNL     1      -8.456  -5.111   0.292  1.00  0.00     0.000 C 
ENDROOT
BRANCH   1   2
ATOM      2  C   UNL     1      -9.617  -4.335  -0.356  1.00  0.00     0.000 C 
BRANCH   2   3
ATOM      3  C   UNL     1     -10.977  -4.491   0.352  1.00  0.00     0.000 C 
BRANCH   3   4
ATOM      4  C   UNL     1     -12.123  -4.914  -0.591  1.00  0.00     0.000 C 
BRANCH   4   5
ATOM      5  C   UNL     1     -11.720  -4.853  -2.072  1.00  0.00     0.001 C 
BRANCH   5   6
ATOM      6  C   UNL     1     -11.851  -6.232  -2.737  1.00  0.00     0.009 C 
BRANCH   6   7
ATOM      7  C   UNL     1     -10.502  -6.772  -3.259  1.00  0.00     0.032 C 
ATOM      8  C   UNL     1      -9.585  -5.653  -3.773  1.00  0.00     0.014 C 
BRANCH   7   9
ATOM      9  C   UNL     1      -9.803  -7.533  -2.166  1.00  0.00     0.044 C 
ATOM     10  O   UNL     1      -8.557  -7.708  -2.213  1.00  0.00    -0.550 OA
ATOM     11  O   UNL     1     -10.528  -8.049  -1.098  1.00  0.00    -0.550 OA
ENDBRANCH   7   9
ENDBRANCH   6   7
ENDBRANCH   5   6
ENDBRANCH   4   5
ENDBRANCH   3   4
ENDBRANCH   2   3
ENDBRANCH   1   2
BRANCH   1  12
ATOM     12  C   UNL     1      -7.135  -4.324   0.422  1.00  0.00     0.000 C 
BRANCH  12  13
ATOM     13  C   UNL     1      -6.001  -5.069   1.149  1.00  0.00    -0.000 C 
BRANCH  13  14
ATOM     14  C   UNL     1      -4.681  -4.285   1.162  1.00  0.00    -0.000 C 
BRANCH  14  15
ATOM     15  C   UNL     1      -4.912  -2.831   1.599  1.00  0.00    -0.000 C 
BRANCH  15  16
ATOM     16  C   UNL     1      -3.598  -2.070   1.837  1.00  0.00    -0.000 C 
BRANCH  16  17
ATOM     17  C   UNL     1      -2.355  -2.928   1.543  1.00  0.00    -0.000 C 
BRANCH  17  18
ATOM     18  C   UNL     1      -1.336  -2.203   0.649  1.00  0.00    -0.003 C 
ATOM     19  C   UNL     1      -0.916  -3.037  -0.560  1.00  0.00     0.004 C 
ENDBRANCH  17  18
ENDBRANCH  16  17
ENDBRANCH  15  16
ENDBRANCH  14  15
ENDBRANCH  13  14
ENDBRANCH  12  13
ENDBRANCH   1  12
TORSDOF 14
ENDMDL
MODEL 7
REMARK VINA RESULT:    -3.970      3.711      7.585
REMARK INTER + INTRA:          -9.120
REMARK INTER:                  -7.795
REMARK INTRA:                  -1.325
REMARK UNBOUND:                -1.901
REMARK SMILES CCCCCCCCCCCCCC[C@@H](C)C(=O)[O-]
REMARK SMILES IDX 9 1 10 2 11 3 12 4 13 5 14 6 15 7 16 8 17 9 18 10 19 11 8 12
REMARK SMILES IDX 7 13 6 14 5 15 4 16 3 17 2 18 1 19
REMARK H PARENT
REMARK Flexibility Score: inf
ROOT
ATOM      1  C   UNL     1      -3.961  -4.224   2.049  1.00  0.00     0.000 C 
ENDROOT
BRANCH   1   2
ATOM      2  C   UNL     1      -4.121  -2.700   1.900  1.00  0.00     0.000 C 
BRANCH   2   3
ATOM      3  C   UNL     1      -2.868  -1.962   1.392  1.00  0.00     0.000 C 
BRANCH   3   4
ATOM      4  C   UNL     1      -1.600  -2.844   1.356  1.00  0.00     0.000 C 
BRANCH   4   5
ATOM      5  C   UNL     1      -0.796  -2.665   0.060  1.00  0.00     0.001 C 
BRANCH   5   6
ATOM      6  C   UNL     1      -1.028  -3.842  -0.900  1.00  0.00     0.009 C 
BRANCH   6   7
ATOM      7  C   UNL     1      -1.296  -5.171  -0.160  1.00  0.00     0.032 C 
ATOM      8  C   UNL     1      -2.394  -6.003  -0.837  1.00  0.00     0.014 C 
BRANCH   7   9
ATOM      9  C   UNL     1      -0.028  -5.975  -0.088  1.00  0.00     0.044 C 
ATOM     10  O   UNL     1       0.275  -6.585   0.971  1.00  0.00    -0.550 OA
ATOM     11  O   UNL     1       0.819  -6.049  -1.188  1.00  0.00    -0.550 OA
ENDBRANCH   7   9
ENDBRANCH   6   7
ENDBRANCH   5   6
ENDBRANCH   4   5
ENDBRANCH   3   4
ENDBRANCH   2   3
ENDBRANCH   1   2
BRANCH   1  12
ATOM     12  C   UNL     1      -5.205  -5.054   1.668  1.00  0.00     0.000 C 
BRANCH  12  13
ATOM     13  C   UNL     1      -6.267  -4.299   0.848  1.00  0.00    -0.000 C 
BRANCH  13  14
ATOM     14  C   UNL     1      -7.435  -5.195   0.410  1.00  0.00    -0.000 C 
BRANCH  14  15
ATOM     15  C   UNL     1      -7.989  -4.747  -0.950  1.00  0.00    -0.000 C 
BRANCH  15  16
ATOM     16  C   UNL     1      -9.112  -3.706  -0.817  1.00  0.00    -0.000 C 
BRANCH  16  17
ATOM     17  C   UNL     1     -10.424  -4.316  -0.292  1.00  0.00    -0.000 C 
BRANCH  17  18
ATOM     18  C   UNL     1     -11.477  -4.489  -1.399  1.00  0.00    -0.003 C 
ATOM     19  C   UNL     1     -11.669  -5.950  -1.805  1.00  0.00     0.004 C 
ENDBRANCH  17  18
ENDBRANCH  16  17
ENDBRANCH  15  16
ENDBRANCH  14  15
ENDBRANCH  13  14
ENDBRANCH  12  13
ENDBRANCH   1  12
TORSDOF 14
ENDMDL
MODEL 8
REMARK VINA RESULT:    -3.893      3.572      8.048
REMARK INTER + INTRA:          -8.981
REMARK INTER:                  -6.992
REMARK INTRA:                  -1.989
REMARK UNBOUND:                -1.901
REMARK SMILES CCCCCCCCCCCCCC[C@@H](C)C(=O)[O-]
REMARK SMILES IDX 9 1 10 2 11 3 12 4 13 5 14 6 15 7 16 8 17 9 18 10 19 11 8 12
REMARK SMILES IDX 7 13 6 14 5 15 4 16 3 17 2 18 1 19
REMARK H PARENT
REMARK Flexibility Score: inf
ROOT
ATOM      1  C   UNL     1      -8.001  -6.452  -1.488  1.00  0.00     0.000 C 
ENDROOT
BRANCH   1   2
ATOM      2  C   UNL     1      -7.723  -4.941  -1.593  1.00  0.00     0.000 C 
BRANCH   2   3
ATOM      3  C   UNL     1      -7.694  -4.193  -0.246  1.00  0.00     0.000 C 
BRANCH   3   4
ATOM      4  C   UNL     1      -6.977  -4.967   0.880  1.00  0.00     0.000 C 
BRANCH   4   5
ATOM      5  C   UNL     1      -5.453  -5.001   0.692  1.00  0.00     0.001 C 
BRANCH   5   6
ATOM      6  C   UNL     1      -4.735  -4.374   1.897  1.00  0.00     0.009 C 
BRANCH   6   7
ATOM      7  C   UNL     1      -3.833  -3.185   1.501  1.00  0.00     0.032 C 
ATOM      8  C   UNL     1      -4.204  -1.897   2.250  1.00  0.00     0.014 C 
BRANCH   7   9
ATOM      9  C   UNL     1      -2.394  -3.528   1.772  1.00  0.00     0.044 C 
ATOM     10  O   UNL     1      -2.093  -4.638   2.284  1.00  0.00    -0.550 OA
ATOM     11  O   UNL     1      -1.387  -2.621   1.461  1.00  0.00    -0.550 OA
ENDBRANCH   7   9
ENDBRANCH   6   7
ENDBRANCH   5   6
ENDBRANCH   4   5
ENDBRANCH   3   4
ENDBRANCH   2   3
ENDBRANCH   1   2
BRANCH   1  12
ATOM     12  C   UNL     1      -9.341  -6.915  -2.098  1.00  0.00     0.000 C 
BRANCH  12  13
ATOM     13  C   UNL     1      -9.837  -6.080  -3.293  1.00  0.00    -0.000 C 
BRANCH  13  14
ATOM     14  C   UNL     1     -11.318  -5.689  -3.176  1.00  0.00    -0.000 C 
BRANCH  14  15
ATOM     15  C   UNL     1     -11.790  -5.761  -1.716  1.00  0.00    -0.000 C 
BRANCH  15  16
ATOM     16  C   UNL     1     -11.751  -4.395  -1.014  1.00  0.00    -0.000 C 
BRANCH  16  17
ATOM     17  C   UNL     1     -11.270  -4.492   0.444  1.00  0.00    -0.000 C 
BRANCH  17  18
ATOM     18  C   UNL     1     -11.523  -5.879   1.057  1.00  0.00    -0.003 C 
ATOM     19  C   UNL     1     -10.241  -6.547   1.552  1.00  0.00     0.004 C 
ENDBRANCH  17  18
ENDBRANCH  16  17
ENDBRANCH  15  16
ENDBRANCH  14  15
ENDBRANCH  13  14
ENDBRANCH  12  13
ENDBRANCH   1  12
TORSDOF 14
ENDMDL
MODEL 9
REMARK VINA RESULT:    -3.893      3.504      7.434
REMARK INTER + INTRA:          -8.981
REMARK INTER:                  -7.192
REMARK INTRA:                  -1.789
REMARK UNBOUND:                -1.901
REMARK SMILES CCCCCCCCCCCCCC[C@@H](C)C(=O)[O-]
REMARK SMILES IDX 9 1 10 2 11 3 12 4 13 5 14 6 15 7 16 8 17 9 18 10 19 11 8 12
REMARK SMILES IDX 7 13 6 14 5 15 4 16 3 17 2 18 1 19
REMARK H PARENT
REMARK Flexibility Score: inf
ROOT
ATOM      1  C   UNL     1      -6.523  -6.823   0.961  1.00  0.00     0.000 C 
ENDROOT
BRANCH   1   2
ATOM      2  C   UNL     1      -6.294  -5.414   1.537  1.00  0.00     0.000 C 
BRANCH   2   3
ATOM      3  C   UNL     1      -5.051  -4.684   0.992  1.00  0.00     0.000 C 
BRANCH   3   4
ATOM      4  C   UNL     1      -4.928  -3.222   1.474  1.00  0.00     0.000 C 
BRANCH   4   5
ATOM      5  C   UNL     1      -3.595  -2.948   2.186  1.00  0.00     0.001 C 
BRANCH   5   6
ATOM      6  C   UNL     1      -2.593  -2.269   1.239  1.00  0.00     0.009 C 
BRANCH   6   7
ATOM      7  C   UNL     1      -1.249  -3.024   1.154  1.00  0.00     0.032 C 
ATOM      8  C   UNL     1      -1.248  -4.310   1.991  1.00  0.00     0.014 C 
BRANCH   7   9
ATOM      9  C   UNL     1      -0.944  -3.357  -0.280  1.00  0.00     0.044 C 
ATOM     10  O   UNL     1      -0.587  -4.522  -0.598  1.00  0.00    -0.550 OA
ATOM     11  O   UNL     1      -1.054  -2.381  -1.264  1.00  0.00    -0.550 OA
ENDBRANCH   7   9
ENDBRANCH   6   7
ENDBRANCH   5   6
ENDBRANCH   4   5
ENDBRANCH   3   4
ENDBRANCH   2   3
ENDBRANCH   1   2
BRANCH   1  12
ATOM     12  C   UNL     1      -7.979  -7.330   1.029  1.00  0.00     0.000 C 
BRANCH  12  13
ATOM     13  C   UNL     1      -8.982  -6.351   1.665  1.00  0.00    -0.000 C 
BRANCH  13  14
ATOM     14  C   UNL     1     -10.282  -6.217   0.860  1.00  0.00    -0.000 C 
BRANCH  14  15
ATOM     15  C   UNL     1     -10.017  -5.559  -0.503  1.00  0.00    -0.000 C 
BRANCH  15  16
ATOM     16  C   UNL     1      -9.631  -4.076  -0.378  1.00  0.00    -0.000 C 
BRANCH  16  17
ATOM     17  C   UNL     1      -8.353  -3.730  -1.162  1.00  0.00    -0.000 C 
BRANCH  17  18
ATOM     18  C   UNL     1      -7.772  -4.942  -1.908  1.00  0.00    -0.003 C 
ATOM     19  C   UNL     1      -7.905  -4.819  -3.425  1.00  0.00     0.004 C 
ENDBRANCH  17  18
ENDBRANCH  16  17
ENDBRANCH  15  16
ENDBRANCH  14  15
ENDBRANCH  13  14
ENDBRANCH  12  13
ENDBRANCH   1  12
TORSDOF 14
ENDMDL
