MODEL 1
REMARK VINA RESULT:     1.594      0.000      0.000
REMARK INTER + INTRA:           7.254
REMARK INTER:                   3.644
REMARK INTRA:                   3.610
REMARK UNBOUND:                 3.610
REMARK SMILES CCCCCCCCCCCCCCCCCCCCCCCC(=O)[O-]
REMARK SMILES IDX 13 1 14 2 15 3 16 4 17 5 18 6 19 7 20 8 21 9 22 10 23 11
REMARK SMILES IDX 24 12 25 13 26 14 12 15 11 16 10 17 9 18 8 19 7 20 6 21 5 22
REMARK SMILES IDX 4 23 3 24 2 25 1 26
REMARK H PARENT
REMARK Flexibility Score: inf
ROOT
ATOM      1  C   UNL     1      -9.101  14.230 -14.693  1.00  0.00     0.000 C 
ENDROOT
BRANCH   1   2
ATOM      2  C   UNL     1      -9.357  13.238 -15.844  1.00  0.00     0.000 C 
BRANCH   2   3
ATOM      3  C   UNL     1      -8.302  12.128 -16.012  1.00  0.00     0.000 C 
BRANCH   3   4
ATOM      4  C   UNL     1      -6.860  12.662 -16.010  1.00  0.00     0.000 C 
BRANCH   4   5
ATOM      5  C   UNL     1      -6.423  13.187 -14.632  1.00  0.00     0.000 C 
BRANCH   5   6
ATOM      6  C   UNL     1      -5.875  12.089 -13.695  1.00  0.00     0.000 C 
BRANCH   6   7
ATOM      7  C   UNL     1      -6.614  12.057 -12.348  1.00  0.00     0.000 C 
BRANCH   7   8
ATOM      8  C   UNL     1      -7.796  13.034 -12.344  1.00  0.00     0.000 C 
BRANCH   8   9
ATOM      9  C   UNL     1      -7.628  14.096 -11.246  1.00  0.00     0.000 C 
BRANCH   9  10
ATOM     10  C   UNL     1      -7.943  15.521 -11.744  1.00  0.00     0.006 C 
BRANCH  10  11
ATOM     11  C   UNL     1      -9.439  15.769 -12.002  1.00  0.00     0.053 C 
BRANCH  11  12
ATOM     12  C   UNL     1      -9.715  17.158 -12.485  1.00  0.00     0.041 C 
ATOM     13  O   UNL     1      -9.362  18.150 -11.795  1.00  0.00    -0.550 OA
ATOM     14  O   UNL     1     -10.350  17.357 -13.705  1.00  0.00    -0.550 OA
ENDBRANCH  11  12
ENDBRANCH  10  11
ENDBRANCH   9  10
ENDBRANCH   8   9
ENDBRANCH   7   8
ENDBRANCH   6   7
ENDBRANCH   5   6
ENDBRANCH   4   5
ENDBRANCH   3   4
ENDBRANCH   2   3
ENDBRANCH   1   2
BRANCH   1  15
ATOM     15  C   UNL     1      -8.725  15.638 -15.184  1.00  0.00     0.000 C 
BRANCH  15  16
ATOM     16  C   UNL     1      -7.467  15.649 -16.071  1.00  0.00     0.000 C 
BRANCH  16  17
ATOM     17  C   UNL     1      -6.504  16.828 -15.833  1.00  0.00     0.000 C 
BRANCH  17  18
ATOM     18  C   UNL     1      -7.149  18.194 -16.124  1.00  0.00    -0.000 C 
BRANCH  18  19
ATOM     19  C   UNL     1      -6.280  19.372 -15.652  1.00  0.00    -0.000 C 
BRANCH  19  20
ATOM     20  C   UNL     1      -6.939  20.738 -15.914  1.00  0.00    -0.000 C 
BRANCH  20  21
ATOM     21  C   UNL     1      -8.400  20.785 -15.436  1.00  0.00    -0.000 C 
BRANCH  21  22
ATOM     22  C   UNL     1      -8.549  20.374 -13.960  1.00  0.00    -0.000 C 
BRANCH  22  23
ATOM     23  C   UNL     1      -7.538  21.081 -13.043  1.00  0.00    -0.000 C 
BRANCH  23  24
ATOM     24  C   UNL     1      -6.267  20.268 -12.733  1.00  0.00    -0.000 C 
BRANCH  24  25
ATOM     25  C   UNL     1      -6.549  18.822 -12.273  1.00  0.00    -0.003 C 
ATOM     26  C   UNL     1      -6.032  17.781 -13.265  1.00  0.00     0.004 C 
ENDBRANCH  24  25
ENDBRANCH  23  24
ENDBRANCH  22  23
ENDBRANCH  21  22
ENDBRANCH  20  21
ENDBRANCH  19  20
ENDBRANCH  18  19
ENDBRANCH  17  18
ENDBRANCH  16  17
ENDBRANCH  15  16
ENDBRANCH   1  15
TORSDOF 22
ENDMDL
MODEL 2
REMARK VINA RESULT:     4.399      4.323      8.069
REMARK INTER + INTRA:          13.665
REMARK INTER:                  15.571
REMARK INTRA:                  -1.906
REMARK UNBOUND:                 3.610
REMARK SMILES CCCCCCCCCCCCCCCCCCCCCCCC(=O)[O-]
REMARK SMILES IDX 13 1 14 2 15 3 16 4 17 5 18 6 19 7 20 8 21 9 22 10 23 11
REMARK SMILES IDX 24 12 25 13 26 14 12 15 11 16 10 17 9 18 8 19 7 20 6 21 5 22
REMARK SMILES IDX 4 23 3 24 2 25 1 26
REMARK H PARENT
REMARK Flexibility Score: inf
ROOT
ATOM      1  C   UNL     1      -9.832  15.623 -12.187  1.00  0.00     0.000 C 
ENDROOT
BRANCH   1   2
ATOM      2  C   UNL     1      -8.344  15.436 -12.538  1.00  0.00     0.000 C 
BRANCH   2   3
ATOM      3  C   UNL     1      -7.746  14.061 -12.185  1.00  0.00     0.000 C 
BRANCH   3   4
ATOM      4  C   UNL     1      -6.895  13.464 -13.319  1.00  0.00     0.000 C 
BRANCH   4   5
ATOM      5  C   UNL     1      -7.740  12.717 -14.365  1.00  0.00     0.000 C 
BRANCH   5   6
ATOM      6  C   UNL     1      -7.778  13.413 -15.742  1.00  0.00     0.000 C 
BRANCH   6   7
ATOM      7  C   UNL     1      -8.814  14.547 -15.789  1.00  0.00     0.000 C 
BRANCH   7   8
ATOM      8  C   UNL     1      -8.149  15.888 -16.121  1.00  0.00     0.000 C 
BRANCH   8   9
ATOM      9  C   UNL     1      -6.624  15.801 -15.960  1.00  0.00     0.000 C 
BRANCH   9  10
ATOM     10  C   UNL     1      -5.966  17.183 -15.772  1.00  0.00     0.006 C 
BRANCH  10  11
ATOM     11  C   UNL     1      -6.164  17.775 -14.367  1.00  0.00     0.053 C 
BRANCH  11  12
ATOM     12  C   UNL     1      -7.139  18.910 -14.356  1.00  0.00     0.041 C 
ATOM     13  O   UNL     1      -7.731  19.247 -15.415  1.00  0.00    -0.550 OA
ATOM     14  O   UNL     1      -7.405  19.587 -13.172  1.00  0.00    -0.550 OA
ENDBRANCH  11  12
ENDBRANCH  10  11
ENDBRANCH   9  10
ENDBRANCH   8   9
ENDBRANCH   7   8
ENDBRANCH   6   7
ENDBRANCH   5   6
ENDBRANCH   4   5
ENDBRANCH   3   4
ENDBRANCH   2   3
ENDBRANCH   1   2
BRANCH   1  15
ATOM     15  C   UNL     1     -10.068  15.920 -10.697  1.00  0.00     0.000 C 
BRANCH  15  16
ATOM     16  C   UNL     1     -10.890  14.827  -9.990  1.00  0.00     0.000 C 
BRANCH  16  17
ATOM     17  C   UNL     1     -12.066  15.336  -9.136  1.00  0.00     0.000 C 
BRANCH  17  18
ATOM     18  C   UNL     1     -12.104  14.704  -7.733  1.00  0.00    -0.000 C 
BRANCH  18  19
ATOM     19  C   UNL     1     -11.689  13.223  -7.739  1.00  0.00    -0.000 C 
BRANCH  19  20
ATOM     20  C   UNL     1     -10.448  12.952  -6.870  1.00  0.00    -0.000 C 
BRANCH  20  21
ATOM     21  C   UNL     1     -10.657  11.777  -5.900  1.00  0.00    -0.000 C 
BRANCH  21  22
ATOM     22  C   UNL     1      -9.346  11.035  -5.584  1.00  0.00    -0.000 C 
BRANCH  22  23
ATOM     23  C   UNL     1      -8.113  11.951  -5.656  1.00  0.00    -0.000 C 
BRANCH  23  24
ATOM     24  C   UNL     1      -7.111  11.779  -4.499  1.00  0.00    -0.000 C 
BRANCH  24  25
ATOM     25  C   UNL     1      -7.640  10.908  -3.340  1.00  0.00    -0.003 C 
ATOM     26  C   UNL     1      -6.702  10.905  -2.134  1.00  0.00     0.004 C 
ENDBRANCH  24  25
ENDBRANCH  23  24
ENDBRANCH  22  23
ENDBRANCH  21  22
ENDBRANCH  20  21
ENDBRANCH  19  20
ENDBRANCH  18  19
ENDBRANCH  17  18
ENDBRANCH  16  17
ENDBRANCH  15  16
ENDBRANCH   1  15
TORSDOF 22
ENDMDL
MODEL 3
REMARK VINA RESULT:     4.442      4.025      6.089
REMARK INTER + INTRA:          13.765
REMARK INTER:                  15.827
REMARK INTRA:                  -2.063
REMARK UNBOUND:                 3.610
REMARK SMILES CCCCCCCCCCCCCCCCCCCCCCCC(=O)[O-]
REMARK SMILES IDX 13 1 14 2 15 3 16 4 17 5 18 6 19 7 20 8 21 9 22 10 23 11
REMARK SMILES IDX 24 12 25 13 26 14 12 15 11 16 10 17 9 18 8 19 7 20 6 21 5 22
REMARK SMILES IDX 4 23 3 24 2 25 1 26
REMARK H PARENT
REMARK Flexibility Score: inf
ROOT
ATOM      1  C   UNL     1      -7.623  15.724 -12.383  1.00  0.00     0.000 C 
ENDROOT
BRANCH   1   2
ATOM      2  C   UNL     1      -8.996  16.415 -12.480  1.00  0.00     0.000 C 
BRANCH   2   3
ATOM      3  C   UNL     1     -10.212  15.525 -12.159  1.00  0.00     0.000 C 
BRANCH   3   4
ATOM      4  C   UNL     1     -10.986  15.987 -10.914  1.00  0.00     0.000 C 
BRANCH   4   5
ATOM      5  C   UNL     1     -11.046  14.909  -9.818  1.00  0.00     0.000 C 
BRANCH   5   6
ATOM      6  C   UNL     1     -12.152  15.154  -8.768  1.00  0.00     0.000 C 
BRANCH   6   7
ATOM      7  C   UNL     1     -12.247  14.006  -7.750  1.00  0.00     0.000 C 
BRANCH   7   8
ATOM      8  C   UNL     1     -11.036  13.073  -7.857  1.00  0.00     0.000 C 
BRANCH   8   9
ATOM      9  C   UNL     1     -10.447  12.775  -6.470  1.00  0.00     0.000 C 
BRANCH   9  10
ATOM     10  C   UNL     1     -10.001  11.306  -6.316  1.00  0.00     0.006 C 
BRANCH  10  11
ATOM     11  C   UNL     1      -9.051  11.070  -5.130  1.00  0.00     0.053 C 
BRANCH  11  12
ATOM     12  C   UNL     1      -7.821  11.919  -5.205  1.00  0.00     0.041 C 
ATOM     13  O   UNL     1      -7.263  12.319  -4.150  1.00  0.00    -0.550 OA
ATOM     14  O   UNL     1      -7.283  12.258  -6.440  1.00  0.00    -0.550 OA
ENDBRANCH  11  12
ENDBRANCH  10  11
ENDBRANCH   9  10
ENDBRANCH   8   9
ENDBRANCH   7   8
ENDBRANCH   6   7
ENDBRANCH   5   6
ENDBRANCH   4   5
ENDBRANCH   3   4
ENDBRANCH   2   3
ENDBRANCH   1   2
BRANCH   1  15
ATOM     15  C   UNL     1      -7.699  14.311 -11.780  1.00  0.00     0.000 C 
BRANCH  15  16
ATOM     16  C   UNL     1      -7.219  13.218 -12.751  1.00  0.00     0.000 C 
BRANCH  16  17
ATOM     17  C   UNL     1      -8.060  13.059 -14.032  1.00  0.00     0.000 C 
BRANCH  17  18
ATOM     18  C   UNL     1      -7.200  12.960 -15.304  1.00  0.00    -0.000 C 
BRANCH  18  19
ATOM     19  C   UNL     1      -5.963  13.872 -15.255  1.00  0.00    -0.000 C 
BRANCH  19  20
ATOM     20  C   UNL     1      -6.121  15.133 -16.124  1.00  0.00    -0.000 C 
BRANCH  20  21
ATOM     21  C   UNL     1      -5.875  16.426 -15.330  1.00  0.00    -0.000 C 
BRANCH  21  22
ATOM     22  C   UNL     1      -7.079  17.385 -15.380  1.00  0.00    -0.000 C 
BRANCH  22  23
ATOM     23  C   UNL     1      -6.669  18.859 -15.234  1.00  0.00    -0.000 C 
BRANCH  23  24
ATOM     24  C   UNL     1      -7.832  19.865 -15.317  1.00  0.00    -0.000 C 
BRANCH  24  25
ATOM     25  C   UNL     1      -8.397  20.279 -13.942  1.00  0.00    -0.003 C 
ATOM     26  C   UNL     1      -7.297  20.592 -12.927  1.00  0.00     0.004 C 
ENDBRANCH  24  25
ENDBRANCH  23  24
ENDBRANCH  22  23
ENDBRANCH  21  22
ENDBRANCH  20  21
ENDBRANCH  19  20
ENDBRANCH  18  19
ENDBRANCH  17  18
ENDBRANCH  16  17
ENDBRANCH  15  16
ENDBRANCH   1  15
TORSDOF 22
ENDMDL
