MODEL 1
REMARK VINA RESULT:    -4.285      0.000      0.000
REMARK INTER + INTRA:          -6.234
REMARK INTER:                  -5.788
REMARK INTRA:                  -0.446
REMARK UNBOUND:                -0.446
REMARK SMILES [NH3+]CCCC[C@H]([NH3+])C(=O)[O-]
REMARK SMILES IDX 4 1 3 2 2 3 1 4 5 8 6 9 7 10 8 14 9 15 10 16
REMARK H PARENT 1 5 1 6 1 7 7 11 7 12 7 13
REMARK Flexibility Score: inf
ROOT
ATOM      1  C   UNL     1      11.322  48.771  63.928  1.00  0.00     0.012 C 
ENDROOT
BRANCH   1   2
ATOM      2  C   UNL     1      10.797  47.336  63.764  1.00  0.00     0.061 C 
BRANCH   2   3
ATOM      3  C   UNL     1       9.286  47.285  63.486  1.00  0.00     0.258 C 
BRANCH   3   4
ATOM      4  N   UNL     1       8.988  46.362  62.391  1.00  0.00    -0.358 N 
ATOM      5  H   UNL     1       8.477  46.862  61.628  1.00  0.00     0.344 HD
ATOM      6  H   UNL     1       8.385  45.587  62.751  1.00  0.00     0.344 HD
ATOM      7  H   UNL     1       9.875  45.953  62.016  1.00  0.00     0.344 HD
ENDBRANCH   3   4
ENDBRANCH   2   3
ENDBRANCH   1   2
BRANCH   1   8
ATOM      8  C   UNL     1      12.285  49.180  62.797  1.00  0.00     0.072 C 
BRANCH   8   9
ATOM      9  C   UNL     1      12.227  48.261  61.553  1.00  0.00     0.227 C 
BRANCH   9  10
ATOM     10  N   UNL     1      13.555  48.052  60.962  1.00  0.00    -0.350 N 
ATOM     11  H   UNL     1      14.139  47.462  61.597  1.00  0.00     0.345 HD
ATOM     12  H   UNL     1      14.045  48.960  60.791  1.00  0.00     0.345 HD
ATOM     13  H   UNL     1      13.455  47.550  60.049  1.00  0.00     0.345 HD
ENDBRANCH   9  10
BRANCH   9  14
ATOM     14  C   UNL     1      11.243  48.775  60.531  1.00  0.00     0.099 C 
ATOM     15  O   UNL     1      10.411  47.986  60.011  1.00  0.00    -0.544 OA
ATOM     16  O   UNL     1      11.213  50.122  60.187  1.00  0.00    -0.544 OA
ENDBRANCH   9  14
ENDBRANCH   8   9
ENDBRANCH   1   8
TORSDOF 7
ENDMDL
MODEL 2
REMARK VINA RESULT:    -4.021      1.547      1.684
REMARK INTER + INTRA:          -5.878
REMARK INTER:                  -5.634
REMARK INTRA:                  -0.243
REMARK UNBOUND:                -0.446
REMARK SMILES [NH3+]CCCC[C@H]([NH3+])C(=O)[O-]
REMARK SMILES IDX 4 1 3 2 2 3 1 4 5 8 6 9 7 10 8 14 9 15 10 16
REMARK H PARENT 1 5 1 6 1 7 7 11 7 12 7 13
REMARK Flexibility Score: inf
ROOT
ATOM      1  C   UNL     1      10.601  49.243  63.767  1.00  0.00     0.012 C 
ENDROOT
BRANCH   1   2
ATOM      2  C   UNL     1       9.423  48.357  63.328  1.00  0.00     0.061 C 
BRANCH   2   3
ATOM      3  C   UNL     1       9.840  46.900  63.076  1.00  0.00     0.258 C 
BRANCH   3   4
ATOM      4  N   UNL     1       8.757  46.152  62.438  1.00  0.00    -0.358 N 
ATOM      5  H   UNL     1       7.918  46.130  63.062  1.00  0.00     0.344 HD
ATOM      6  H   UNL     1       9.074  45.170  62.264  1.00  0.00     0.344 HD
ATOM      7  H   UNL     1       8.507  46.593  61.523  1.00  0.00     0.344 HD
ENDBRANCH   3   4
ENDBRANCH   2   3
ENDBRANCH   1   2
BRANCH   1   8
ATOM      8  C   UNL     1      11.344  49.872  62.572  1.00  0.00     0.072 C 
BRANCH   8   9
ATOM      9  C   UNL     1      12.685  49.182  62.227  1.00  0.00     0.227 C 
BRANCH   9  10
ATOM     10  N   UNL     1      13.817  50.116  62.294  1.00  0.00    -0.350 N 
ATOM     11  H   UNL     1      13.744  50.819  61.522  1.00  0.00     0.345 HD
ATOM     12  H   UNL     1      14.731  49.615  62.216  1.00  0.00     0.345 HD
ATOM     13  H   UNL     1      13.792  50.629  63.206  1.00  0.00     0.345 HD
ENDBRANCH   9  10
BRANCH   9  14
ATOM     14  C   UNL     1      12.623  48.487  60.889  1.00  0.00     0.099 C 
ATOM     15  O   UNL     1      11.523  48.391  60.285  1.00  0.00    -0.544 OA
ATOM     16  O   UNL     1      13.775  47.989  60.292  1.00  0.00    -0.544 OA
ENDBRANCH   9  14
ENDBRANCH   8   9
ENDBRANCH   1   8
TORSDOF 7
ENDMDL
MODEL 3
REMARK VINA RESULT:    -3.902      2.326      4.241
REMARK INTER + INTRA:          -5.716
REMARK INTER:                  -5.241
REMARK INTRA:                  -0.475
REMARK UNBOUND:                -0.446
REMARK SMILES [NH3+]CCCC[C@H]([NH3+])C(=O)[O-]
REMARK SMILES IDX 4 1 3 2 2 3 1 4 5 8 6 9 7 10 8 14 9 15 10 16
REMARK H PARENT 1 5 1 6 1 7 7 11 7 12 7 13
REMARK Flexibility Score: inf
ROOT
ATOM      1  C   UNL     1      10.710  48.235  60.222  1.00  0.00     0.012 C 
ENDROOT
BRANCH   1   2
ATOM      2  C   UNL     1      11.545  49.412  60.752  1.00  0.00     0.061 C 
BRANCH   2   3
ATOM      3  C   UNL     1      12.884  48.963  61.359  1.00  0.00     0.258 C 
BRANCH   3   4
ATOM      4  N   UNL     1      13.039  49.481  62.718  1.00  0.00    -0.358 N 
ATOM      5  H   UNL     1      12.663  48.793  63.410  1.00  0.00     0.344 HD
ATOM      6  H   UNL     1      12.506  50.376  62.807  1.00  0.00     0.344 HD
ATOM      7  H   UNL     1      14.049  49.668  62.917  1.00  0.00     0.344 HD
ENDBRANCH   3   4
ENDBRANCH   2   3
ENDBRANCH   1   2
BRANCH   1   8
ATOM      8  C   UNL     1       9.440  47.988  61.060  1.00  0.00     0.072 C 
BRANCH   8   9
ATOM      9  C   UNL     1       9.634  46.985  62.222  1.00  0.00     0.227 C 
BRANCH   9  10
ATOM     10  N   UNL     1       8.514  46.041  62.326  1.00  0.00    -0.350 N 
ATOM     11  H   UNL     1       8.046  46.143  63.255  1.00  0.00     0.345 HD
ATOM     12  H   UNL     1       8.835  45.052  62.211  1.00  0.00     0.345 HD
ATOM     13  H   UNL     1       7.810  46.252  61.581  1.00  0.00     0.345 HD
ENDBRANCH   9  10
BRANCH   9  14
ATOM     14  C   UNL     1       9.878  47.695  63.531  1.00  0.00     0.099 C 
ATOM     15  O   UNL     1      10.983  47.560  64.119  1.00  0.00    -0.544 OA
ATOM     16  O   UNL     1       8.914  48.535  64.076  1.00  0.00    -0.544 OA
ENDBRANCH   9  14
ENDBRANCH   8   9
ENDBRANCH   1   8
TORSDOF 7
ENDMDL
MODEL 4
REMARK VINA RESULT:    -3.889      1.460      3.426
REMARK INTER + INTRA:          -5.699
REMARK INTER:                  -5.169
REMARK INTRA:                  -0.530
REMARK UNBOUND:                -0.446
REMARK SMILES [NH3+]CCCC[C@H]([NH3+])C(=O)[O-]
REMARK SMILES IDX 4 1 3 2 2 3 1 4 5 8 6 9 7 10 8 14 9 15 10 16
REMARK H PARENT 1 5 1 6 1 7 7 11 7 12 7 13
REMARK Flexibility Score: inf
ROOT
ATOM      1  C   UNL     1      11.440  48.839  63.598  1.00  0.00     0.012 C 
ENDROOT
BRANCH   1   2
ATOM      2  C   UNL     1      12.474  49.374  62.594  1.00  0.00     0.061 C 
BRANCH   2   3
ATOM      3  C   UNL     1      12.790  48.369  61.475  1.00  0.00     0.258 C 
BRANCH   3   4
ATOM      4  N   UNL     1      12.351  48.879  60.177  1.00  0.00    -0.358 N 
ATOM      5  H   UNL     1      11.612  48.256  59.777  1.00  0.00     0.344 HD
ATOM      6  H   UNL     1      13.167  48.899  59.522  1.00  0.00     0.344 HD
ATOM      7  H   UNL     1      11.978  49.851  60.281  1.00  0.00     0.344 HD
ENDBRANCH   3   4
ENDBRANCH   2   3
ENDBRANCH   1   2
BRANCH   1   8
ATOM      8  C   UNL     1      10.873  47.466  63.185  1.00  0.00     0.072 C 
BRANCH   8   9
ATOM      9  C   UNL     1       9.352  47.471  62.900  1.00  0.00     0.227 C 
BRANCH   9  10
ATOM     10  N   UNL     1       8.859  46.139  62.525  1.00  0.00    -0.350 N 
ATOM     11  H   UNL     1       7.833  46.073  62.713  1.00  0.00     0.345 HD
ATOM     12  H   UNL     1       9.354  45.385  63.054  1.00  0.00     0.345 HD
ATOM     13  H   UNL     1       9.014  45.986  61.501  1.00  0.00     0.345 HD
ENDBRANCH   9  10
BRANCH   9  14
ATOM     14  C   UNL     1       8.986  48.505  61.864  1.00  0.00     0.099 C 
ATOM     15  O   UNL     1       8.338  49.530  62.204  1.00  0.00    -0.544 OA
ATOM     16  O   UNL     1       9.396  48.365  60.543  1.00  0.00    -0.544 OA
ENDBRANCH   9  14
ENDBRANCH   8   9
ENDBRANCH   1   8
TORSDOF 7
ENDMDL
MODEL 5
REMARK VINA RESULT:    -3.863      2.007      3.591
REMARK INTER + INTRA:          -5.664
REMARK INTER:                  -5.207
REMARK INTRA:                  -0.457
REMARK UNBOUND:                -0.446
REMARK SMILES [NH3+]CCCC[C@H]([NH3+])C(=O)[O-]
REMARK SMILES IDX 4 1 3 2 2 3 1 4 5 8 6 9 7 10 8 14 9 15 10 16
REMARK H PARENT 1 5 1 6 1 7 7 11 7 12 7 13
REMARK Flexibility Score: inf
ROOT
ATOM      1  C   UNL     1      11.730  48.655  63.164  1.00  0.00     0.012 C 
ENDROOT
BRANCH   1   2
ATOM      2  C   UNL     1      12.674  48.972  61.993  1.00  0.00     0.061 C 
BRANCH   2   3
ATOM      3  C   UNL     1      12.197  48.362  60.666  1.00  0.00     0.258 C 
BRANCH   3   4
ATOM      4  N   UNL     1      11.232  49.241  60.005  1.00  0.00    -0.358 N 
ATOM      5  H   UNL     1      11.715  50.090  59.633  1.00  0.00     0.344 HD
ATOM      6  H   UNL     1      10.510  49.540  60.700  1.00  0.00     0.344 HD
ATOM      7  H   UNL     1      10.758  48.731  59.224  1.00  0.00     0.344 HD
ENDBRANCH   3   4
ENDBRANCH   2   3
ENDBRANCH   1   2
BRANCH   1   8
ATOM      8  C   UNL     1      11.038  47.286  63.011  1.00  0.00     0.072 C 
BRANCH   8   9
ATOM      9  C   UNL     1       9.507  47.323  63.231  1.00  0.00     0.227 C 
BRANCH   9  10
ATOM     10  N   UNL     1       8.825  46.226  62.534  1.00  0.00    -0.350 N 
ATOM     11  H   UNL     1       9.216  45.308  62.845  1.00  0.00     0.345 HD
ATOM     12  H   UNL     1       8.928  46.309  61.497  1.00  0.00     0.345 HD
ATOM     13  H   UNL     1       7.805  46.243  62.771  1.00  0.00     0.345 HD
ENDBRANCH   9  10
BRANCH   9  14
ATOM     14  C   UNL     1       8.925  48.663  62.852  1.00  0.00     0.099 C 
ATOM     15  O   UNL     1       8.740  48.944  61.639  1.00  0.00    -0.544 OA
ATOM     16  O   UNL     1       8.547  49.577  63.830  1.00  0.00    -0.544 OA
ENDBRANCH   9  14
ENDBRANCH   8   9
ENDBRANCH   1   8
TORSDOF 7
ENDMDL
MODEL 6
REMARK VINA RESULT:    -3.803      1.786      1.877
REMARK INTER + INTRA:          -5.583
REMARK INTER:                  -5.370
REMARK INTRA:                  -0.214
REMARK UNBOUND:                -0.446
REMARK SMILES [NH3+]CCCC[C@H]([NH3+])C(=O)[O-]
REMARK SMILES IDX 4 1 3 2 2 3 1 4 5 8 6 9 7 10 8 14 9 15 10 16
REMARK H PARENT 1 5 1 6 1 7 7 11 7 12 7 13
REMARK Flexibility Score: inf
ROOT
ATOM      1  C   UNL     1      11.472  48.692  63.131  1.00  0.00     0.012 C 
ENDROOT
BRANCH   1   2
ATOM      2  C   UNL     1      10.901  47.269  63.248  1.00  0.00     0.061 C 
BRANCH   2   3
ATOM      3  C   UNL     1       9.366  47.250  63.325  1.00  0.00     0.258 C 
BRANCH   3   4
ATOM      4  N   UNL     1       8.816  46.194  62.475  1.00  0.00    -0.358 N 
ATOM      5  H   UNL     1       7.782  46.316  62.374  1.00  0.00     0.344 HD
ATOM      6  H   UNL     1       9.004  45.265  62.918  1.00  0.00     0.344 HD
ATOM      7  H   UNL     1       9.269  46.218  61.533  1.00  0.00     0.344 HD
ENDBRANCH   3   4
ENDBRANCH   2   3
ENDBRANCH   1   2
BRANCH   1   8
ATOM      8  C   UNL     1      10.762  49.525  62.046  1.00  0.00     0.072 C 
BRANCH   8   9
ATOM      9  C   UNL     1      11.400  49.408  60.641  1.00  0.00     0.227 C 
BRANCH   9  10
ATOM     10  N   UNL     1      10.737  48.388  59.819  1.00  0.00    -0.350 N 
ATOM     11  H   UNL     1      10.569  48.760  58.856  1.00  0.00     0.345 HD
ATOM     12  H   UNL     1       9.825  48.094  60.237  1.00  0.00     0.345 HD
ATOM     13  H   UNL     1      11.355  47.547  59.741  1.00  0.00     0.345 HD
ENDBRANCH   9  10
BRANCH   9  14
ATOM     14  C   UNL     1      12.887  49.165  60.727  1.00  0.00     0.099 C 
ATOM     15  O   UNL     1      13.354  48.034  60.431  1.00  0.00    -0.544 OA
ATOM     16  O   UNL     1      13.756  50.189  61.086  1.00  0.00    -0.544 OA
ENDBRANCH   9  14
ENDBRANCH   8   9
ENDBRANCH   1   8
TORSDOF 7
ENDMDL
MODEL 7
REMARK VINA RESULT:    -3.773      2.152      3.966
REMARK INTER + INTRA:          -5.542
REMARK INTER:                  -5.042
REMARK INTRA:                  -0.500
REMARK UNBOUND:                -0.446
REMARK SMILES [NH3+]CCCC[C@H]([NH3+])C(=O)[O-]
REMARK SMILES IDX 4 1 3 2 2 3 1 4 5 8 6 9 7 10 8 14 9 15 10 16
REMARK H PARENT 1 5 1 6 1 7 7 11 7 12 7 13
REMARK Flexibility Score: inf
ROOT
ATOM      1  C   UNL     1      11.225  50.367  62.745  1.00  0.00     0.012 C 
ENDROOT
BRANCH   1   2
ATOM      2  C   UNL     1      12.704  50.098  62.426  1.00  0.00     0.061 C 
BRANCH   2   3
ATOM      3  C   UNL     1      12.897  49.339  61.104  1.00  0.00     0.258 C 
BRANCH   3   4
ATOM      4  N   UNL     1      13.315  47.959  61.351  1.00  0.00    -0.358 N 
ATOM      5  H   UNL     1      13.053  47.673  62.322  1.00  0.00     0.344 HD
ATOM      6  H   UNL     1      14.354  47.892  61.248  1.00  0.00     0.344 HD
ATOM      7  H   UNL     1      12.864  47.318  60.659  1.00  0.00     0.344 HD
ENDBRANCH   3   4
ENDBRANCH   2   3
ENDBRANCH   1   2
BRANCH   1   8
ATOM      8  C   UNL     1      10.673  49.420  63.829  1.00  0.00     0.072 C 
BRANCH   8   9
ATOM      9  C   UNL     1       9.453  48.582  63.375  1.00  0.00     0.227 C 
BRANCH   9  10
ATOM     10  N   UNL     1       8.472  48.413  64.454  1.00  0.00    -0.350 N 
ATOM     11  H   UNL     1       8.758  47.621  65.075  1.00  0.00     0.345 HD
ATOM     12  H   UNL     1       7.516  48.222  64.075  1.00  0.00     0.345 HD
ATOM     13  H   UNL     1       8.434  49.284  65.032  1.00  0.00     0.345 HD
ENDBRANCH   9  10
BRANCH   9  14
ATOM     14  C   UNL     1       9.877  47.252  62.802  1.00  0.00     0.099 C 
ATOM     15  O   UNL     1      11.036  46.815  63.027  1.00  0.00    -0.544 OA
ATOM     16  O   UNL     1       8.987  46.479  62.065  1.00  0.00    -0.544 OA
ENDBRANCH   9  14
ENDBRANCH   8   9
ENDBRANCH   1   8
TORSDOF 7
ENDMDL
MODEL 8
REMARK VINA RESULT:    -3.582      1.653      2.054
REMARK INTER + INTRA:          -5.285
REMARK INTER:                  -5.045
REMARK INTRA:                  -0.240
REMARK UNBOUND:                -0.446
REMARK SMILES [NH3+]CCCC[C@H]([NH3+])C(=O)[O-]
REMARK SMILES IDX 4 1 3 2 2 3 1 4 5 8 6 9 7 10 8 14 9 15 10 16
REMARK H PARENT 1 5 1 6 1 7 7 11 7 12 7 13
REMARK Flexibility Score: inf
ROOT
ATOM      1  C   UNL     1      11.055  47.631  63.750  1.00  0.00     0.012 C 
ENDROOT
BRANCH   1   2
ATOM      2  C   UNL     1       9.522  47.558  63.657  1.00  0.00     0.061 C 
BRANCH   2   3
ATOM      3  C   UNL     1       8.858  48.942  63.728  1.00  0.00     0.258 C 
BRANCH   3   4
ATOM      4  N   UNL     1       7.944  49.023  64.868  1.00  0.00    -0.358 N 
ATOM      5  H   UNL     1       7.609  48.068  65.128  1.00  0.00     0.344 HD
ATOM      6  H   UNL     1       7.119  49.610  64.604  1.00  0.00     0.344 HD
ATOM      7  H   UNL     1       8.427  49.465  65.684  1.00  0.00     0.344 HD
ENDBRANCH   3   4
ENDBRANCH   2   3
ENDBRANCH   1   2
BRANCH   1   8
ATOM      8  C   UNL     1      11.595  49.050  63.488  1.00  0.00     0.072 C 
BRANCH   8   9
ATOM      9  C   UNL     1      12.524  49.155  62.255  1.00  0.00     0.227 C 
BRANCH   9  10
ATOM     10  N   UNL     1      13.626  50.100  62.476  1.00  0.00    -0.350 N 
ATOM     11  H   UNL     1      13.446  50.987  61.951  1.00  0.00     0.345 HD
ATOM     12  H   UNL     1      14.542  49.700  62.167  1.00  0.00     0.345 HD
ATOM     13  H   UNL     1      13.689  50.331  63.495  1.00  0.00     0.345 HD
ENDBRANCH   9  10
BRANCH   9  14
ATOM     14  C   UNL     1      11.750  49.495  61.005  1.00  0.00     0.099 C 
ATOM     15  O   UNL     1      11.879  50.631  60.478  1.00  0.00    -0.544 OA
ATOM     16  O   UNL     1      10.927  48.551  60.400  1.00  0.00    -0.544 OA
ENDBRANCH   9  14
ENDBRANCH   8   9
ENDBRANCH   1   8
TORSDOF 7
ENDMDL
MODEL 9
REMARK VINA RESULT:    -3.546      1.887      2.589
REMARK INTER + INTRA:          -5.236
REMARK INTER:                  -5.001
REMARK INTRA:                  -0.236
REMARK UNBOUND:                -0.446
REMARK SMILES [NH3+]CCCC[C@H]([NH3+])C(=O)[O-]
REMARK SMILES IDX 4 1 3 2 2 3 1 4 5 8 6 9 7 10 8 14 9 15 10 16
REMARK H PARENT 1 5 1 6 1 7 7 11 7 12 7 13
REMARK Flexibility Score: inf
ROOT
ATOM      1  C   UNL     1      10.019  49.038  60.792  1.00  0.00     0.012 C 
ENDROOT
BRANCH   1   2
ATOM      2  C   UNL     1       8.863  48.323  61.511  1.00  0.00     0.061 C 
BRANCH   2   3
ATOM      3  C   UNL     1       9.350  47.217  62.461  1.00  0.00     0.258 C 
BRANCH   3   4
ATOM      4  N   UNL     1       8.528  46.015  62.325  1.00  0.00    -0.358 N 
ATOM      5  H   UNL     1       9.067  45.174  62.634  1.00  0.00     0.344 HD
ATOM      6  H   UNL     1       8.261  45.894  61.321  1.00  0.00     0.344 HD
ATOM      7  H   UNL     1       7.658  46.109  62.897  1.00  0.00     0.344 HD
ENDBRANCH   3   4
ENDBRANCH   2   3
ENDBRANCH   1   2
BRANCH   1   8
ATOM      8  C   UNL     1      11.284  48.163  60.693  1.00  0.00     0.072 C 
BRANCH   8   9
ATOM      9  C   UNL     1      12.602  48.923  60.975  1.00  0.00     0.227 C 
BRANCH   9  10
ATOM     10  N   UNL     1      13.759  48.020  61.020  1.00  0.00    -0.350 N 
ATOM     11  H   UNL     1      14.564  48.495  61.489  1.00  0.00     0.345 HD
ATOM     12  H   UNL     1      14.049  47.722  60.060  1.00  0.00     0.345 HD
ATOM     13  H   UNL     1      13.514  47.167  61.575  1.00  0.00     0.345 HD
ENDBRANCH   9  10
BRANCH   9  14
ATOM     14  C   UNL     1      12.504  49.755  62.231  1.00  0.00     0.099 C 
ATOM     15  O   UNL     1      12.738  50.991  62.183  1.00  0.00    -0.544 OA
ATOM     16  O   UNL     1      12.111  49.181  63.435  1.00  0.00    -0.544 OA
ENDBRANCH   9  14
ENDBRANCH   8   9
ENDBRANCH   1   8
TORSDOF 7
ENDMDL
