MODEL 1
REMARK VINA RESULT:    -3.822      0.000      0.000
REMARK INTER + INTRA:          -8.420
REMARK INTER:                  -6.950
REMARK INTRA:                  -1.470
REMARK UNBOUND:                -1.470
REMARK SMILES CCCCCCCCCCCCCCCC(=O)[O-]
REMARK SMILES IDX 9 1 10 2 11 3 12 4 13 5 14 6 15 7 16 8 17 9 18 10 8 11 7 12
REMARK SMILES IDX 6 13 5 14 4 15 3 16 2 17 1 18
REMARK H PARENT
REMARK Flexibility Score: inf
ROOT
ATOM      1  C   UNL     1      43.865  27.126   2.078  1.00  0.00     0.000 C 
ENDROOT
BRANCH   1   2
ATOM      2  C   UNL     1      43.198  28.499   2.270  1.00  0.00     0.000 C 
BRANCH   2   3
ATOM      3  C   UNL     1      44.159  29.706   2.237  1.00  0.00     0.000 C 
BRANCH   3   4
ATOM      4  C   UNL     1      44.741  30.007   0.840  1.00  0.00     0.000 C 
BRANCH   4   5
ATOM      5  C   UNL     1      46.223  29.608   0.721  1.00  0.00     0.000 C 
BRANCH   5   6
ATOM      6  C   UNL     1      46.469  28.551  -0.366  1.00  0.00     0.006 C 
BRANCH   6   7
ATOM      7  C   UNL     1      46.229  29.095  -1.784  1.00  0.00     0.053 C 
BRANCH   7   8
ATOM      8  C   UNL     1      46.132  27.986  -2.787  1.00  0.00     0.041 C 
ATOM      9  O   UNL     1      45.286  28.039  -3.720  1.00  0.00    -0.550 OA
ATOM     10  O   UNL     1      46.926  26.854  -2.643  1.00  0.00    -0.550 OA
ENDBRANCH   7   8
ENDBRANCH   6   7
ENDBRANCH   5   6
ENDBRANCH   4   5
ENDBRANCH   3   4
ENDBRANCH   2   3
ENDBRANCH   1   2
BRANCH   1  11
ATOM     11  C   UNL     1      44.496  26.586   3.373  1.00  0.00     0.000 C 
BRANCH  11  12
ATOM     12  C   UNL     1      46.035  26.603   3.340  1.00  0.00    -0.000 C 
BRANCH  12  13
ATOM     13  C   UNL     1      46.692  27.853   3.952  1.00  0.00    -0.000 C 
BRANCH  13  14
ATOM     14  C   UNL     1      46.374  28.023   5.448  1.00  0.00    -0.000 C 
BRANCH  14  15
ATOM     15  C   UNL     1      46.701  26.765   6.269  1.00  0.00    -0.000 C 
BRANCH  15  16
ATOM     16  C   UNL     1      46.016  26.763   7.646  1.00  0.00    -0.000 C 
BRANCH  16  17
ATOM     17  C   UNL     1      45.648  28.175   8.123  1.00  0.00    -0.003 C 
ATOM     18  C   UNL     1      45.253  28.214   9.601  1.00  0.00     0.004 C 
ENDBRANCH  16  17
ENDBRANCH  15  16
ENDBRANCH  14  15
ENDBRANCH  13  14
ENDBRANCH  12  13
ENDBRANCH  11  12
ENDBRANCH   1  11
TORSDOF 14
ENDMDL
MODEL 2
REMARK VINA RESULT:    -3.779      5.049      8.097
REMARK INTER + INTRA:          -8.341
REMARK INTER:                  -6.818
REMARK INTRA:                  -1.523
REMARK UNBOUND:                -1.470
REMARK SMILES CCCCCCCCCCCCCCCC(=O)[O-]
REMARK SMILES IDX 9 1 10 2 11 3 12 4 13 5 14 6 15 7 16 8 17 9 18 10 8 11 7 12
REMARK SMILES IDX 6 13 5 14 4 15 3 16 2 17 1 18
REMARK H PARENT
REMARK Flexibility Score: inf
ROOT
ATOM      1  C   UNL     1      45.955  26.428   3.929  1.00  0.00     0.000 C 
ENDROOT
BRANCH   1   2
ATOM      2  C   UNL     1      46.192  26.780   5.407  1.00  0.00     0.000 C 
BRANCH   2   3
ATOM      3  C   UNL     1      46.727  28.203   5.665  1.00  0.00     0.000 C 
BRANCH   3   4
ATOM      4  C   UNL     1      45.987  28.958   6.790  1.00  0.00     0.000 C 
BRANCH   4   5
ATOM      5  C   UNL     1      46.512  28.591   8.190  1.00  0.00     0.000 C 
BRANCH   5   6
ATOM      6  C   UNL     1      45.389  28.203   9.163  1.00  0.00     0.006 C 
BRANCH   6   7
ATOM      7  C   UNL     1      45.351  26.693   9.449  1.00  0.00     0.053 C 
BRANCH   7   8
ATOM      8  C   UNL     1      46.296  26.320  10.550  1.00  0.00     0.041 C 
ATOM      9  O   UNL     1      46.765  27.203  11.318  1.00  0.00    -0.550 OA
ATOM     10  O   UNL     1      46.722  25.003  10.678  1.00  0.00    -0.550 OA
ENDBRANCH   7   8
ENDBRANCH   6   7
ENDBRANCH   5   6
ENDBRANCH   4   5
ENDBRANCH   3   4
ENDBRANCH   2   3
ENDBRANCH   1   2
BRANCH   1  11
ATOM     11  C   UNL     1      47.099  26.897   3.015  1.00  0.00     0.000 C 
BRANCH  11  12
ATOM     12  C   UNL     1      46.619  27.822   1.881  1.00  0.00    -0.000 C 
BRANCH  12  13
ATOM     13  C   UNL     1      46.729  29.329   2.171  1.00  0.00    -0.000 C 
BRANCH  13  14
ATOM     14  C   UNL     1      45.404  29.942   2.659  1.00  0.00    -0.000 C 
BRANCH  14  15
ATOM     15  C   UNL     1      44.219  29.592   1.745  1.00  0.00    -0.000 C 
BRANCH  15  16
ATOM     16  C   UNL     1      42.888  29.506   2.511  1.00  0.00    -0.000 C 
BRANCH  16  17
ATOM     17  C   UNL     1      42.235  28.119   2.404  1.00  0.00    -0.003 C 
ATOM     18  C   UNL     1      43.142  27.092   1.723  1.00  0.00     0.004 C 
ENDBRANCH  16  17
ENDBRANCH  15  16
ENDBRANCH  14  15
ENDBRANCH  13  14
ENDBRANCH  12  13
ENDBRANCH  11  12
ENDBRANCH   1  11
TORSDOF 14
ENDMDL
MODEL 3
REMARK VINA RESULT:    -3.734      0.957      1.294
REMARK INTER + INTRA:          -8.261
REMARK INTER:                  -7.271
REMARK INTRA:                  -0.990
REMARK UNBOUND:                -1.470
REMARK SMILES CCCCCCCCCCCCCCCC(=O)[O-]
REMARK SMILES IDX 9 1 10 2 11 3 12 4 13 5 14 6 15 7 16 8 17 9 18 10 8 11 7 12
REMARK SMILES IDX 6 13 5 14 4 15 3 16 2 17 1 18
REMARK H PARENT
REMARK Flexibility Score: inf
ROOT
ATOM      1  C   UNL     1      43.741  27.149   2.526  1.00  0.00     0.000 C 
ENDROOT
BRANCH   1   2
ATOM      2  C   UNL     1      43.554  28.642   2.209  1.00  0.00     0.000 C 
BRANCH   2   3
ATOM      3  C   UNL     1      44.859  29.442   2.020  1.00  0.00     0.000 C 
BRANCH   3   4
ATOM      4  C   UNL     1      45.226  29.706   0.545  1.00  0.00     0.000 C 
BRANCH   4   5
ATOM      5  C   UNL     1      46.186  28.643  -0.022  1.00  0.00     0.000 C 
BRANCH   5   6
ATOM      6  C   UNL     1      46.861  29.088  -1.328  1.00  0.00     0.006 C 
BRANCH   6   7
ATOM      7  C   UNL     1      46.031  28.737  -2.572  1.00  0.00     0.053 C 
BRANCH   7   8
ATOM      8  C   UNL     1      46.688  27.661  -3.383  1.00  0.00     0.041 C 
ATOM      9  O   UNL     1      47.125  26.617  -2.827  1.00  0.00    -0.550 OA
ATOM     10  O   UNL     1      46.887  27.848  -4.745  1.00  0.00    -0.550 OA
ENDBRANCH   7   8
ENDBRANCH   6   7
ENDBRANCH   5   6
ENDBRANCH   4   5
ENDBRANCH   3   4
ENDBRANCH   2   3
ENDBRANCH   1   2
BRANCH   1  11
ATOM     11  C   UNL     1      45.193  26.796   2.891  1.00  0.00     0.000 C 
BRANCH  11  12
ATOM     12  C   UNL     1      45.298  25.932   4.160  1.00  0.00    -0.000 C 
BRANCH  12  13
ATOM     13  C   UNL     1      46.447  26.302   5.115  1.00  0.00    -0.000 C 
BRANCH  13  14
ATOM     14  C   UNL     1      46.325  27.732   5.670  1.00  0.00    -0.000 C 
BRANCH  14  15
ATOM     15  C   UNL     1      46.604  27.806   7.180  1.00  0.00    -0.000 C 
BRANCH  15  16
ATOM     16  C   UNL     1      46.506  26.433   7.867  1.00  0.00    -0.000 C 
BRANCH  16  17
ATOM     17  C   UNL     1      45.540  26.440   9.061  1.00  0.00    -0.003 C 
ATOM     18  C   UNL     1      45.175  27.854   9.517  1.00  0.00     0.004 C 
ENDBRANCH  16  17
ENDBRANCH  15  16
ENDBRANCH  14  15
ENDBRANCH  13  14
ENDBRANCH  12  13
ENDBRANCH  11  12
ENDBRANCH   1  11
TORSDOF 14
ENDMDL
MODEL 4
REMARK VINA RESULT:    -3.633      4.231      8.237
REMARK INTER + INTRA:          -8.076
REMARK INTER:                  -6.880
REMARK INTRA:                  -1.196
REMARK UNBOUND:                -1.470
REMARK SMILES CCCCCCCCCCCCCCCC(=O)[O-]
REMARK SMILES IDX 9 1 10 2 11 3 12 4 13 5 14 6 15 7 16 8 17 9 18 10 8 11 7 12
REMARK SMILES IDX 6 13 5 14 4 15 3 16 2 17 1 18
REMARK H PARENT
REMARK Flexibility Score: inf
ROOT
ATOM      1  C   UNL     1      44.405  27.116   2.190  1.00  0.00     0.000 C 
ENDROOT
BRANCH   1   2
ATOM      2  C   UNL     1      44.601  26.388   3.531  1.00  0.00     0.000 C 
BRANCH   2   3
ATOM      3  C   UNL     1      46.065  26.065   3.895  1.00  0.00     0.000 C 
BRANCH   3   4
ATOM      4  C   UNL     1      46.889  27.294   4.332  1.00  0.00     0.000 C 
BRANCH   4   5
ATOM      5  C   UNL     1      46.212  28.083   5.467  1.00  0.00     0.000 C 
BRANCH   5   6
ATOM      6  C   UNL     1      46.785  27.744   6.851  1.00  0.00     0.006 C 
BRANCH   6   7
ATOM      7  C   UNL     1      46.056  26.568   7.521  1.00  0.00     0.053 C 
BRANCH   7   8
ATOM      8  C   UNL     1      45.633  26.910   8.917  1.00  0.00     0.041 C 
ATOM      9  O   UNL     1      45.689  26.045   9.833  1.00  0.00    -0.550 OA
ATOM     10  O   UNL     1      45.102  28.164   9.190  1.00  0.00    -0.550 OA
ENDBRANCH   7   8
ENDBRANCH   6   7
ENDBRANCH   5   6
ENDBRANCH   4   5
ENDBRANCH   3   4
ENDBRANCH   2   3
ENDBRANCH   1   2
BRANCH   1  11
ATOM     11  C   UNL     1      43.351  28.234   2.270  1.00  0.00     0.000 C 
BRANCH  11  12
ATOM     12  C   UNL     1      43.928  29.624   1.949  1.00  0.00    -0.000 C 
BRANCH  12  13
ATOM     13  C   UNL     1      45.429  29.651   1.611  1.00  0.00    -0.000 C 
BRANCH  13  14
ATOM     14  C   UNL     1      45.702  29.900   0.117  1.00  0.00    -0.000 C 
BRANCH  14  15
ATOM     15  C   UNL     1      46.136  28.626  -0.625  1.00  0.00    -0.000 C 
BRANCH  15  16
ATOM     16  C   UNL     1      46.051  28.775  -2.153  1.00  0.00    -0.000 C 
BRANCH  16  17
ATOM     17  C   UNL     1      46.494  27.504  -2.895  1.00  0.00    -0.003 C 
ATOM     18  C   UNL     1      45.642  27.217  -4.132  1.00  0.00     0.004 C 
ENDBRANCH  16  17
ENDBRANCH  15  16
ENDBRANCH  14  15
ENDBRANCH  13  14
ENDBRANCH  12  13
ENDBRANCH  11  12
ENDBRANCH   1  11
TORSDOF 14
ENDMDL
MODEL 5
REMARK VINA RESULT:    -3.629      4.406      8.600
REMARK INTER + INTRA:          -8.068
REMARK INTER:                  -7.048
REMARK INTRA:                  -1.021
REMARK UNBOUND:                -1.470
REMARK SMILES CCCCCCCCCCCCCCCC(=O)[O-]
REMARK SMILES IDX 9 1 10 2 11 3 12 4 13 5 14 6 15 7 16 8 17 9 18 10 8 11 7 12
REMARK SMILES IDX 6 13 5 14 4 15 3 16 2 17 1 18
REMARK H PARENT
REMARK Flexibility Score: inf
ROOT
ATOM      1  C   UNL     1      43.849  27.238   2.289  1.00  0.00     0.000 C 
ENDROOT
BRANCH   1   2
ATOM      2  C   UNL     1      44.501  26.361   3.372  1.00  0.00     0.000 C 
BRANCH   2   3
ATOM      3  C   UNL     1      46.017  26.571   3.562  1.00  0.00     0.000 C 
BRANCH   3   4
ATOM      4  C   UNL     1      46.464  26.617   5.039  1.00  0.00     0.000 C 
BRANCH   4   5
ATOM      5  C   UNL     1      46.340  28.025   5.649  1.00  0.00     0.000 C 
BRANCH   5   6
ATOM      6  C   UNL     1      46.286  28.006   7.184  1.00  0.00     0.006 C 
BRANCH   6   7
ATOM      7  C   UNL     1      45.979  26.609   7.746  1.00  0.00     0.053 C 
BRANCH   7   8
ATOM      8  C   UNL     1      45.585  26.675   9.191  1.00  0.00     0.041 C 
ATOM      9  O   UNL     1      44.993  27.691   9.647  1.00  0.00    -0.550 OA
ATOM     10  O   UNL     1      45.942  25.644  10.052  1.00  0.00    -0.550 OA
ENDBRANCH   7   8
ENDBRANCH   6   7
ENDBRANCH   5   6
ENDBRANCH   4   5
ENDBRANCH   3   4
ENDBRANCH   2   3
ENDBRANCH   1   2
BRANCH   1  11
ATOM     11  C   UNL     1      44.202  28.727   2.438  1.00  0.00     0.000 C 
BRANCH  11  12
ATOM     12  C   UNL     1      45.015  29.272   1.250  1.00  0.00    -0.000 C 
BRANCH  12  13
ATOM     13  C   UNL     1      45.583  28.204   0.298  1.00  0.00    -0.000 C 
BRANCH  13  14
ATOM     14  C   UNL     1      46.640  28.766  -0.669  1.00  0.00    -0.000 C 
BRANCH  14  15
ATOM     15  C   UNL     1      46.029  29.668  -1.753  1.00  0.00    -0.000 C 
BRANCH  15  16
ATOM     16  C   UNL     1      46.435  29.241  -3.174  1.00  0.00    -0.000 C 
BRANCH  16  17
ATOM     17  C   UNL     1      45.321  28.472  -3.899  1.00  0.00    -0.003 C 
ATOM     18  C   UNL     1      45.751  27.063  -4.313  1.00  0.00     0.004 C 
ENDBRANCH  16  17
ENDBRANCH  15  16
ENDBRANCH  14  15
ENDBRANCH  13  14
ENDBRANCH  12  13
ENDBRANCH  11  12
ENDBRANCH   1  11
TORSDOF 14
ENDMDL
MODEL 6
REMARK VINA RESULT:    -3.622      1.298      2.186
REMARK INTER + INTRA:          -8.057
REMARK INTER:                  -6.794
REMARK INTRA:                  -1.263
REMARK UNBOUND:                -1.470
REMARK SMILES CCCCCCCCCCCCCCCC(=O)[O-]
REMARK SMILES IDX 9 1 10 2 11 3 12 4 13 5 14 6 15 7 16 8 17 9 18 10 8 11 7 12
REMARK SMILES IDX 6 13 5 14 4 15 3 16 2 17 1 18
REMARK H PARENT
REMARK Flexibility Score: inf
ROOT
ATOM      1  C   UNL     1      44.834  26.058   3.768  1.00  0.00     0.000 C 
ENDROOT
BRANCH   1   2
ATOM      2  C   UNL     1      44.723  26.877   2.470  1.00  0.00     0.000 C 
BRANCH   2   3
ATOM      3  C   UNL     1      43.347  27.527   2.219  1.00  0.00     0.000 C 
BRANCH   3   4
ATOM      4  C   UNL     1      43.312  29.046   2.487  1.00  0.00     0.000 C 
BRANCH   4   5
ATOM      5  C   UNL     1      44.670  29.722   2.226  1.00  0.00     0.000 C 
BRANCH   5   6
ATOM      6  C   UNL     1      44.861  30.124   0.756  1.00  0.00     0.006 C 
BRANCH   6   7
ATOM      7  C   UNL     1      46.327  30.025   0.302  1.00  0.00     0.053 C 
BRANCH   7   8
ATOM      8  C   UNL     1      46.487  29.041  -0.817  1.00  0.00     0.041 C 
ATOM      9  O   UNL     1      47.041  29.384  -1.897  1.00  0.00    -0.550 OA
ATOM     10  O   UNL     1      45.954  27.764  -0.695  1.00  0.00    -0.550 OA
ENDBRANCH   7   8
ENDBRANCH   6   7
ENDBRANCH   5   6
ENDBRANCH   4   5
ENDBRANCH   3   4
ENDBRANCH   2   3
ENDBRANCH   1   2
BRANCH   1  11
ATOM     11  C   UNL     1      46.204  26.209   4.450  1.00  0.00     0.000 C 
BRANCH  11  12
ATOM     12  C   UNL     1      46.548  27.672   4.784  1.00  0.00    -0.000 C 
BRANCH  12  13
ATOM     13  C   UNL     1      46.272  28.097   6.238  1.00  0.00    -0.000 C 
BRANCH  13  14
ATOM     14  C   UNL     1      46.857  27.116   7.269  1.00  0.00    -0.000 C 
BRANCH  14  15
ATOM     15  C   UNL     1      45.773  26.431   8.115  1.00  0.00    -0.000 C 
BRANCH  15  16
ATOM     16  C   UNL     1      45.829  26.844   9.595  1.00  0.00    -0.000 C 
BRANCH  16  17
ATOM     17  C   UNL     1      46.077  28.349   9.778  1.00  0.00    -0.003 C 
ATOM     18  C   UNL     1      44.832  29.191   9.493  1.00  0.00     0.004 C 
ENDBRANCH  16  17
ENDBRANCH  15  16
ENDBRANCH  14  15
ENDBRANCH  13  14
ENDBRANCH  12  13
ENDBRANCH  11  12
ENDBRANCH   1  11
TORSDOF 14
ENDMDL
MODEL 7
REMARK VINA RESULT:    -3.588      4.321      8.929
REMARK INTER + INTRA:          -7.994
REMARK INTER:                  -7.263
REMARK INTRA:                  -0.731
REMARK UNBOUND:                -1.470
REMARK SMILES CCCCCCCCCCCCCCCC(=O)[O-]
REMARK SMILES IDX 9 1 10 2 11 3 12 4 13 5 14 6 15 7 16 8 17 9 18 10 8 11 7 12
REMARK SMILES IDX 6 13 5 14 4 15 3 16 2 17 1 18
REMARK H PARENT
REMARK Flexibility Score: inf
ROOT
ATOM      1  C   UNL     1      45.051  27.498   1.658  1.00  0.00     0.000 C 
ENDROOT
BRANCH   1   2
ATOM      2  C   UNL     1      44.351  27.032   2.946  1.00  0.00     0.000 C 
BRANCH   2   3
ATOM      3  C   UNL     1      45.148  26.022   3.797  1.00  0.00     0.000 C 
BRANCH   3   4
ATOM      4  C   UNL     1      46.404  26.618   4.467  1.00  0.00     0.000 C 
BRANCH   4   5
ATOM      5  C   UNL     1      46.125  27.977   5.137  1.00  0.00     0.000 C 
BRANCH   5   6
ATOM      6  C   UNL     1      46.529  28.004   6.618  1.00  0.00     0.006 C 
BRANCH   6   7
ATOM      7  C   UNL     1      46.145  26.713   7.359  1.00  0.00     0.053 C 
BRANCH   7   8
ATOM      8  C   UNL     1      45.562  27.008   8.708  1.00  0.00     0.041 C 
ATOM      9  O   UNL     1      45.328  26.075   9.523  1.00  0.00    -0.550 OA
ATOM     10  O   UNL     1      45.204  28.310   9.035  1.00  0.00    -0.550 OA
ENDBRANCH   7   8
ENDBRANCH   6   7
ENDBRANCH   5   6
ENDBRANCH   4   5
ENDBRANCH   3   4
ENDBRANCH   2   3
ENDBRANCH   1   2
BRANCH   1  11
ATOM     11  C   UNL     1      45.009  29.025   1.478  1.00  0.00     0.000 C 
BRANCH  11  12
ATOM     12  C   UNL     1      45.723  29.497   0.199  1.00  0.00    -0.000 C 
BRANCH  12  13
ATOM     13  C   UNL     1      46.086  28.383  -0.800  1.00  0.00    -0.000 C 
BRANCH  13  14
ATOM     14  C   UNL     1      46.184  28.890  -2.250  1.00  0.00    -0.000 C 
BRANCH  14  15
ATOM     15  C   UNL     1      45.743  27.834  -3.277  1.00  0.00    -0.000 C 
BRANCH  15  16
ATOM     16  C   UNL     1      45.165  28.460  -4.557  1.00  0.00    -0.000 C 
BRANCH  16  17
ATOM     17  C   UNL     1      44.105  27.569  -5.222  1.00  0.00    -0.003 C 
ATOM     18  C   UNL     1      42.778  28.296  -5.443  1.00  0.00     0.004 C 
ENDBRANCH  16  17
ENDBRANCH  15  16
ENDBRANCH  14  15
ENDBRANCH  13  14
ENDBRANCH  12  13
ENDBRANCH  11  12
ENDBRANCH   1  11
TORSDOF 14
ENDMDL
MODEL 8
REMARK VINA RESULT:    -3.557      1.418      2.160
REMARK INTER + INTRA:          -7.939
REMARK INTER:                  -7.253
REMARK INTRA:                  -0.686
REMARK UNBOUND:                -1.470
REMARK SMILES CCCCCCCCCCCCCCCC(=O)[O-]
REMARK SMILES IDX 9 1 10 2 11 3 12 4 13 5 14 6 15 7 16 8 17 9 18 10 8 11 7 12
REMARK SMILES IDX 6 13 5 14 4 15 3 16 2 17 1 18
REMARK H PARENT
REMARK Flexibility Score: inf
ROOT
ATOM      1  C   UNL     1      44.531  28.052   2.483  1.00  0.00     0.000 C 
ENDROOT
BRANCH   1   2
ATOM      2  C   UNL     1      44.906  27.854   1.004  1.00  0.00     0.000 C 
BRANCH   2   3
ATOM      3  C   UNL     1      46.158  28.623   0.536  1.00  0.00     0.000 C 
BRANCH   3   4
ATOM      4  C   UNL     1      46.076  29.129  -0.920  1.00  0.00     0.000 C 
BRANCH   4   5
ATOM      5  C   UNL     1      46.892  28.258  -1.893  1.00  0.00     0.000 C 
BRANCH   5   6
ATOM      6  C   UNL     1      46.014  27.549  -2.935  1.00  0.00     0.006 C 
BRANCH   6   7
ATOM      7  C   UNL     1      46.402  27.911  -4.378  1.00  0.00     0.053 C 
BRANCH   7   8
ATOM      8  C   UNL     1      45.345  27.485  -5.352  1.00  0.00     0.041 C 
ATOM      9  O   UNL     1      44.189  27.180  -4.951  1.00  0.00    -0.550 OA
ATOM     10  O   UNL     1      45.662  27.348  -6.698  1.00  0.00    -0.550 OA
ENDBRANCH   7   8
ENDBRANCH   6   7
ENDBRANCH   5   6
ENDBRANCH   4   5
ENDBRANCH   3   4
ENDBRANCH   2   3
ENDBRANCH   1   2
BRANCH   1  11
ATOM     11  C   UNL     1      44.486  26.729   3.267  1.00  0.00     0.000 C 
BRANCH  11  12
ATOM     12  C   UNL     1      45.885  26.210   3.644  1.00  0.00    -0.000 C 
BRANCH  12  13
ATOM     13  C   UNL     1      46.252  26.333   5.134  1.00  0.00    -0.000 C 
BRANCH  13  14
ATOM     14  C   UNL     1      46.347  27.794   5.607  1.00  0.00    -0.000 C 
BRANCH  14  15
ATOM     15  C   UNL     1      46.417  27.917   7.138  1.00  0.00    -0.000 C 
BRANCH  15  16
ATOM     16  C   UNL     1      46.046  26.607   7.853  1.00  0.00    -0.000 C 
BRANCH  16  17
ATOM     17  C   UNL     1      45.412  26.846   9.232  1.00  0.00    -0.003 C 
ATOM     18  C   UNL     1      45.121  28.324   9.498  1.00  0.00     0.004 C 
ENDBRANCH  16  17
ENDBRANCH  15  16
ENDBRANCH  14  15
ENDBRANCH  13  14
ENDBRANCH  12  13
ENDBRANCH  11  12
ENDBRANCH   1  11
TORSDOF 14
ENDMDL
MODEL 9
REMARK VINA RESULT:    -3.515      4.396      8.631
REMARK INTER + INTRA:          -7.861
REMARK INTER:                  -7.042
REMARK INTRA:                  -0.819
REMARK UNBOUND:                -1.470
REMARK SMILES CCCCCCCCCCCCCCCC(=O)[O-]
REMARK SMILES IDX 9 1 10 2 11 3 12 4 13 5 14 6 15 7 16 8 17 9 18 10 8 11 7 12
REMARK SMILES IDX 6 13 5 14 4 15 3 16 2 17 1 18
REMARK H PARENT
REMARK Flexibility Score: inf
ROOT
ATOM      1  C   UNL     1      43.902  27.130   2.113  1.00  0.00     0.000 C 
ENDROOT
BRANCH   1   2
ATOM      2  C   UNL     1      44.488  26.456   3.366  1.00  0.00     0.000 C 
BRANCH   2   3
ATOM      3  C   UNL     1      45.987  26.719   3.613  1.00  0.00     0.000 C 
BRANCH   3   4
ATOM      4  C   UNL     1      46.287  27.448   4.940  1.00  0.00     0.000 C 
BRANCH   4   5
ATOM      5  C   UNL     1      47.016  26.548   5.954  1.00  0.00     0.000 C 
BRANCH   5   6
ATOM      6  C   UNL     1      46.324  26.514   7.324  1.00  0.00     0.006 C 
BRANCH   6   7
ATOM      7  C   UNL     1      45.887  27.909   7.800  1.00  0.00     0.053 C 
BRANCH   7   8
ATOM      8  C   UNL     1      45.255  27.851   9.158  1.00  0.00     0.041 C 
ATOM      9  O   UNL     1      45.058  26.743   9.726  1.00  0.00    -0.550 OA
ATOM     10  O   UNL     1      44.812  29.021   9.763  1.00  0.00    -0.550 OA
ENDBRANCH   7   8
ENDBRANCH   6   7
ENDBRANCH   5   6
ENDBRANCH   4   5
ENDBRANCH   3   4
ENDBRANCH   2   3
ENDBRANCH   1   2
BRANCH   1  11
ATOM     11  C   UNL     1      43.783  28.656   2.260  1.00  0.00     0.000 C 
BRANCH  11  12
ATOM     12  C   UNL     1      44.880  29.418   1.495  1.00  0.00    -0.000 C 
BRANCH  12  13
ATOM     13  C   UNL     1      45.626  28.599   0.427  1.00  0.00    -0.000 C 
BRANCH  13  14
ATOM     14  C   UNL     1      45.965  29.422  -0.829  1.00  0.00    -0.000 C 
BRANCH  14  15
ATOM     15  C   UNL     1      46.791  28.626  -1.852  1.00  0.00    -0.000 C 
BRANCH  15  16
ATOM     16  C   UNL     1      45.933  27.647  -2.671  1.00  0.00    -0.000 C 
BRANCH  16  17
ATOM     17  C   UNL     1      45.652  28.158  -4.093  1.00  0.00    -0.003 C 
ATOM     18  C   UNL     1      44.685  27.256  -4.862  1.00  0.00     0.004 C 
ENDBRANCH  16  17
ENDBRANCH  15  16
ENDBRANCH  14  15
ENDBRANCH  13  14
ENDBRANCH  12  13
ENDBRANCH  11  12
ENDBRANCH   1  11
TORSDOF 14
ENDMDL
