MODEL 1
REMARK VINA RESULT:    -3.510      0.000      0.000
REMARK INTER + INTRA:          -8.998
REMARK INTER:                  -6.792
REMARK INTRA:                  -2.205
REMARK UNBOUND:                -2.205
REMARK SMILES CCCCCCCCCCCCCCCCCC(=O)[O-]
REMARK SMILES IDX 10 1 11 2 12 3 13 4 14 5 15 6 16 7 17 8 18 9 19 10 20 11
REMARK SMILES IDX 9 12 8 13 7 14 6 15 5 16 4 17 3 18 2 19 1 20
REMARK H PARENT
REMARK Flexibility Score: inf
ROOT
ATOM      1  C   UNL     1      49.278  31.533  87.109  1.00  0.00     0.000 C 
ENDROOT
BRANCH   1   2
ATOM      2  C   UNL     1      48.236  32.551  86.601  1.00  0.00     0.000 C 
BRANCH   2   3
ATOM      3  C   UNL     1      48.198  33.822  87.469  1.00  0.00     0.000 C 
BRANCH   3   4
ATOM      4  C   UNL     1      48.587  35.085  86.685  1.00  0.00     0.000 C 
BRANCH   4   5
ATOM      5  C   UNL     1      49.688  35.895  87.385  1.00  0.00     0.000 C 
BRANCH   5   6
ATOM      6  C   UNL     1      50.960  35.056  87.560  1.00  0.00     0.000 C 
BRANCH   6   7
ATOM      7  C   UNL     1      51.806  35.064  86.279  1.00  0.00     0.006 C 
BRANCH   7   8
ATOM      8  C   UNL     1      51.969  33.660  85.681  1.00  0.00     0.053 C 
BRANCH   8   9
ATOM      9  C   UNL     1      51.121  33.473  84.460  1.00  0.00     0.041 C 
ATOM     10  O   UNL     1      50.923  32.319  83.998  1.00  0.00    -0.550 OA
ATOM     11  O   UNL     1      50.578  34.576  83.813  1.00  0.00    -0.550 OA
ENDBRANCH   8   9
ENDBRANCH   7   8
ENDBRANCH   6   7
ENDBRANCH   5   6
ENDBRANCH   4   5
ENDBRANCH   3   4
ENDBRANCH   2   3
ENDBRANCH   1   2
BRANCH   1  12
ATOM     12  C   UNL     1      49.856  31.880  88.492  1.00  0.00     0.000 C 
BRANCH  12  13
ATOM     13  C   UNL     1      49.686  30.743  89.513  1.00  0.00    -0.000 C 
BRANCH  13  14
ATOM     14  C   UNL     1      48.454  30.936  90.412  1.00  0.00    -0.000 C 
BRANCH  14  15
ATOM     15  C   UNL     1      47.207  30.220  89.872  1.00  0.00    -0.000 C 
BRANCH  15  16
ATOM     16  C   UNL     1      46.087  31.225  89.566  1.00  0.00    -0.000 C 
BRANCH  16  17
ATOM     17  C   UNL     1      45.298  31.634  90.819  1.00  0.00    -0.000 C 
BRANCH  17  18
ATOM     18  C   UNL     1      44.745  30.428  91.593  1.00  0.00    -0.000 C 
BRANCH  18  19
ATOM     19  C   UNL     1      43.577  30.843  92.495  1.00  0.00    -0.003 C 
ATOM     20  C   UNL     1      43.814  32.222  93.106  1.00  0.00     0.004 C 
ENDBRANCH  18  19
ENDBRANCH  17  18
ENDBRANCH  16  17
ENDBRANCH  15  16
ENDBRANCH  14  15
ENDBRANCH  13  14
ENDBRANCH  12  13
ENDBRANCH   1  12
TORSDOF 16
ENDMDL
MODEL 2
REMARK VINA RESULT:    -3.411      3.469      7.050
REMARK INTER + INTRA:          -8.807
REMARK INTER:                  -6.220
REMARK INTRA:                  -2.587
REMARK UNBOUND:                -2.205
REMARK SMILES CCCCCCCCCCCCCCCCCC(=O)[O-]
REMARK SMILES IDX 10 1 11 2 12 3 13 4 14 5 15 6 16 7 17 8 18 9 19 10 20 11
REMARK SMILES IDX 9 12 8 13 7 14 6 15 5 16 4 17 3 18 2 19 1 20
REMARK H PARENT
REMARK Flexibility Score: inf
ROOT
ATOM      1  C   UNL     1      52.010  32.012  86.672  1.00  0.00     0.000 C 
ENDROOT
BRANCH   1   2
ATOM      2  C   UNL     1      51.955  31.430  88.100  1.00  0.00     0.000 C 
BRANCH   2   3
ATOM      3  C   UNL     1      51.262  32.387  89.087  1.00  0.00     0.000 C 
BRANCH   3   4
ATOM      4  C   UNL     1      50.505  31.643  90.198  1.00  0.00     0.000 C 
BRANCH   4   5
ATOM      5  C   UNL     1      49.281  30.882  89.665  1.00  0.00     0.000 C 
BRANCH   5   6
ATOM      6  C   UNL     1      48.062  31.101  90.568  1.00  0.00     0.000 C 
BRANCH   6   7
ATOM      7  C   UNL     1      46.855  31.590  89.755  1.00  0.00     0.006 C 
BRANCH   7   8
ATOM      8  C   UNL     1      45.651  30.646  89.877  1.00  0.00     0.053 C 
BRANCH   8   9
ATOM      9  C   UNL     1      45.110  30.611  91.274  1.00  0.00     0.041 C 
ATOM     10  O   UNL     1      44.593  31.642  91.779  1.00  0.00    -0.550 OA
ATOM     11  O   UNL     1      45.209  29.451  92.030  1.00  0.00    -0.550 OA
ENDBRANCH   8   9
ENDBRANCH   7   8
ENDBRANCH   6   7
ENDBRANCH   5   6
ENDBRANCH   4   5
ENDBRANCH   3   4
ENDBRANCH   2   3
ENDBRANCH   1   2
BRANCH   1  12
ATOM     12  C   UNL     1      53.366  32.647  86.317  1.00  0.00     0.000 C 
BRANCH  12  13
ATOM     13  C   UNL     1      53.422  34.151  86.633  1.00  0.00    -0.000 C 
BRANCH  13  14
ATOM     14  C   UNL     1      52.091  34.865  86.345  1.00  0.00    -0.000 C 
BRANCH  14  15
ATOM     15  C   UNL     1      51.624  35.745  87.514  1.00  0.00    -0.000 C 
BRANCH  15  16
ATOM     16  C   UNL     1      50.091  35.827  87.560  1.00  0.00    -0.000 C 
BRANCH  16  17
ATOM     17  C   UNL     1      49.414  34.855  86.581  1.00  0.00    -0.000 C 
BRANCH  17  18
ATOM     18  C   UNL     1      48.414  33.917  87.273  1.00  0.00    -0.000 C 
BRANCH  18  19
ATOM     19  C   UNL     1      48.244  32.615  86.482  1.00  0.00    -0.003 C 
ATOM     20  C   UNL     1      48.738  32.773  85.046  1.00  0.00     0.004 C 
ENDBRANCH  18  19
ENDBRANCH  17  18
ENDBRANCH  16  17
ENDBRANCH  15  16
ENDBRANCH  14  15
ENDBRANCH  13  14
ENDBRANCH  12  13
ENDBRANCH   1  12
TORSDOF 16
ENDMDL
MODEL 3
REMARK VINA RESULT:    -3.399     16.199     18.475
REMARK INTER + INTRA:          -8.783
REMARK INTER:                  -6.732
REMARK INTRA:                  -2.052
REMARK UNBOUND:                -2.205
REMARK SMILES CCCCCCCCCCCCCCCCCC(=O)[O-]
REMARK SMILES IDX 10 1 11 2 12 3 13 4 14 5 15 6 16 7 17 8 18 9 19 10 20 11
REMARK SMILES IDX 9 12 8 13 7 14 6 15 5 16 4 17 3 18 2 19 1 20
REMARK H PARENT
REMARK Flexibility Score: inf
ROOT
ATOM      1  C   UNL     1      44.953  22.156  77.925  1.00  0.00     0.000 C 
ENDROOT
BRANCH   1   2
ATOM      2  C   UNL     1      43.665  22.264  77.081  1.00  0.00     0.000 C 
BRANCH   2   3
ATOM      3  C   UNL     1      42.437  22.610  77.943  1.00  0.00     0.000 C 
BRANCH   3   4
ATOM      4  C   UNL     1      41.112  22.383  77.198  1.00  0.00     0.000 C 
BRANCH   4   5
ATOM      5  C   UNL     1      40.420  21.077  77.616  1.00  0.00     0.000 C 
BRANCH   5   6
ATOM      6  C   UNL     1      40.993  20.550  78.937  1.00  0.00     0.000 C 
BRANCH   6   7
ATOM      7  C   UNL     1      40.000  19.606  79.631  1.00  0.00     0.006 C 
BRANCH   7   8
ATOM      8  C   UNL     1      38.697  20.316  80.019  1.00  0.00     0.053 C 
BRANCH   8   9
ATOM      9  C   UNL     1      37.675  19.355  80.545  1.00  0.00     0.041 C 
ATOM     10  O   UNL     1      37.466  18.265  79.951  1.00  0.00    -0.550 OA
ATOM     11  O   UNL     1      36.930  19.679  81.671  1.00  0.00    -0.550 OA
ENDBRANCH   8   9
ENDBRANCH   7   8
ENDBRANCH   6   7
ENDBRANCH   5   6
ENDBRANCH   4   5
ENDBRANCH   3   4
ENDBRANCH   2   3
ENDBRANCH   1   2
BRANCH   1  12
ATOM     12  C   UNL     1      44.993  20.915  78.833  1.00  0.00     0.000 C 
BRANCH  12  13
ATOM     13  C   UNL     1      44.545  19.633  78.112  1.00  0.00    -0.000 C 
BRANCH  13  14
ATOM     14  C   UNL     1      45.725  18.717  77.749  1.00  0.00    -0.000 C 
BRANCH  14  15
ATOM     15  C   UNL     1      45.738  18.328  76.263  1.00  0.00    -0.000 C 
BRANCH  15  16
ATOM     16  C   UNL     1      45.611  19.571  75.369  1.00  0.00    -0.000 C 
BRANCH  16  17
ATOM     17  C   UNL     1      46.972  20.091  74.879  1.00  0.00    -0.000 C 
BRANCH  17  18
ATOM     18  C   UNL     1      46.936  21.578  74.497  1.00  0.00    -0.000 C 
BRANCH  18  19
ATOM     19  C   UNL     1      47.941  22.383  75.328  1.00  0.00    -0.003 C 
ATOM     20  C   UNL     1      48.508  21.545  76.472  1.00  0.00     0.004 C 
ENDBRANCH  18  19
ENDBRANCH  17  18
ENDBRANCH  16  17
ENDBRANCH  15  16
ENDBRANCH  14  15
ENDBRANCH  13  14
ENDBRANCH  12  13
ENDBRANCH   1  12
TORSDOF 16
ENDMDL
MODEL 4
REMARK VINA RESULT:    -3.394      2.834      6.594
REMARK INTER + INTRA:          -8.773
REMARK INTER:                  -6.249
REMARK INTRA:                  -2.525
REMARK UNBOUND:                -2.205
REMARK SMILES CCCCCCCCCCCCCCCCCC(=O)[O-]
REMARK SMILES IDX 10 1 11 2 12 3 13 4 14 5 15 6 16 7 17 8 18 9 19 10 20 11
REMARK SMILES IDX 9 12 8 13 7 14 6 15 5 16 4 17 3 18 2 19 1 20
REMARK H PARENT
REMARK Flexibility Score: inf
ROOT
ATOM      1  C   UNL     1      47.344  31.287  87.897  1.00  0.00     0.000 C 
ENDROOT
BRANCH   1   2
ATOM      2  C   UNL     1      46.807  31.961  89.177  1.00  0.00     0.000 C 
BRANCH   2   3
ATOM      3  C   UNL     1      47.241  31.213  90.451  1.00  0.00     0.000 C 
BRANCH   3   4
ATOM      4  C   UNL     1      48.545  30.424  90.256  1.00  0.00     0.000 C 
BRANCH   4   5
ATOM      5  C   UNL     1      49.786  31.233  90.661  1.00  0.00     0.000 C 
BRANCH   5   6
ATOM      6  C   UNL     1      50.880  31.133  89.591  1.00  0.00     0.000 C 
BRANCH   6   7
ATOM      7  C   UNL     1      51.717  32.418  89.536  1.00  0.00     0.006 C 
BRANCH   7   8
ATOM      8  C   UNL     1      52.700  32.523  90.710  1.00  0.00     0.053 C 
BRANCH   8   9
ATOM      9  C   UNL     1      53.884  33.375  90.370  1.00  0.00     0.041 C 
ATOM     10  O   UNL     1      55.023  33.085  90.821  1.00  0.00    -0.550 OA
ATOM     11  O   UNL     1      53.724  34.509  89.586  1.00  0.00    -0.550 OA
ENDBRANCH   8   9
ENDBRANCH   7   8
ENDBRANCH   6   7
ENDBRANCH   5   6
ENDBRANCH   4   5
ENDBRANCH   3   4
ENDBRANCH   2   3
ENDBRANCH   1   2
BRANCH   1  12
ATOM     12  C   UNL     1      48.077  32.255  86.952  1.00  0.00     0.000 C 
BRANCH  12  13
ATOM     13  C   UNL     1      48.663  33.474  87.683  1.00  0.00    -0.000 C 
BRANCH  13  14
ATOM     14  C   UNL     1      48.388  34.793  86.944  1.00  0.00    -0.000 C 
BRANCH  14  15
ATOM     15  C   UNL     1      49.514  35.822  87.128  1.00  0.00    -0.000 C 
BRANCH  15  16
ATOM     16  C   UNL     1      50.803  35.143  87.615  1.00  0.00    -0.000 C 
BRANCH  16  17
ATOM     17  C   UNL     1      51.915  35.151  86.555  1.00  0.00    -0.000 C 
BRANCH  17  18
ATOM     18  C   UNL     1      51.626  34.199  85.384  1.00  0.00    -0.000 C 
BRANCH  18  19
ATOM     19  C   UNL     1      51.826  32.738  85.803  1.00  0.00    -0.003 C 
ATOM     20  C   UNL     1      53.281  32.464  86.175  1.00  0.00     0.004 C 
ENDBRANCH  18  19
ENDBRANCH  17  18
ENDBRANCH  16  17
ENDBRANCH  15  16
ENDBRANCH  14  15
ENDBRANCH  13  14
ENDBRANCH  12  13
ENDBRANCH   1  12
TORSDOF 16
ENDMDL
MODEL 5
REMARK VINA RESULT:    -3.381      3.535      7.752
REMARK INTER + INTRA:          -8.748
REMARK INTER:                  -6.383
REMARK INTRA:                  -2.365
REMARK UNBOUND:                -2.205
REMARK SMILES CCCCCCCCCCCCCCCCCC(=O)[O-]
REMARK SMILES IDX 10 1 11 2 12 3 13 4 14 5 15 6 16 7 17 8 18 9 19 10 20 11
REMARK SMILES IDX 9 12 8 13 7 14 6 15 5 16 4 17 3 18 2 19 1 20
REMARK H PARENT
REMARK Flexibility Score: inf
ROOT
ATOM      1  C   UNL     1      49.295  30.132  89.855  1.00  0.00     0.000 C 
ENDROOT
BRANCH   1   2
ATOM      2  C   UNL     1      47.931  30.423  90.515  1.00  0.00     0.000 C 
BRANCH   2   3
ATOM      3  C   UNL     1      46.770  30.337  89.508  1.00  0.00     0.000 C 
BRANCH   3   4
ATOM      4  C   UNL     1      45.759  31.482  89.673  1.00  0.00     0.000 C 
BRANCH   4   5
ATOM      5  C   UNL     1      45.526  31.852  91.146  1.00  0.00     0.000 C 
BRANCH   5   6
ATOM      6  C   UNL     1      44.096  31.506  91.579  1.00  0.00     0.000 C 
BRANCH   6   7
ATOM      7  C   UNL     1      44.094  30.729  92.903  1.00  0.00     0.006 C 
BRANCH   7   8
ATOM      8  C   UNL     1      43.617  29.281  92.727  1.00  0.00     0.053 C 
BRANCH   8   9
ATOM      9  C   UNL     1      44.586  28.470  91.923  1.00  0.00     0.041 C 
ATOM     10  O   UNL     1      45.723  28.197  92.390  1.00  0.00    -0.550 OA
ATOM     11  O   UNL     1      44.246  28.044  90.646  1.00  0.00    -0.550 OA
ENDBRANCH   8   9
ENDBRANCH   7   8
ENDBRANCH   6   7
ENDBRANCH   5   6
ENDBRANCH   4   5
ENDBRANCH   3   4
ENDBRANCH   2   3
ENDBRANCH   1   2
BRANCH   1  12
ATOM     12  C   UNL     1      50.289  31.303  89.951  1.00  0.00     0.000 C 
BRANCH  12  13
ATOM     13  C   UNL     1      50.143  32.307  88.796  1.00  0.00    -0.000 C 
BRANCH  13  14
ATOM     14  C   UNL     1      49.725  31.634  87.478  1.00  0.00    -0.000 C 
BRANCH  14  15
ATOM     15  C   UNL     1      48.451  32.246  86.878  1.00  0.00    -0.000 C 
BRANCH  15  16
ATOM     16  C   UNL     1      48.144  33.609  87.516  1.00  0.00    -0.000 C 
BRANCH  16  17
ATOM     17  C   UNL     1      48.652  34.788  86.673  1.00  0.00    -0.000 C 
BRANCH  17  18
ATOM     18  C   UNL     1      49.590  35.718  87.458  1.00  0.00    -0.000 C 
BRANCH  18  19
ATOM     19  C   UNL     1      51.056  35.442  87.108  1.00  0.00    -0.003 C 
ATOM     20  C   UNL     1      51.176  34.695  85.782  1.00  0.00     0.004 C 
ENDBRANCH  18  19
ENDBRANCH  17  18
ENDBRANCH  16  17
ENDBRANCH  15  16
ENDBRANCH  14  15
ENDBRANCH  13  14
ENDBRANCH  12  13
ENDBRANCH   1  12
TORSDOF 16
ENDMDL
MODEL 6
REMARK VINA RESULT:    -3.372      3.068      6.761
REMARK INTER + INTRA:          -8.731
REMARK INTER:                  -5.419
REMARK INTRA:                  -3.312
REMARK UNBOUND:                -2.205
REMARK SMILES CCCCCCCCCCCCCCCCCC(=O)[O-]
REMARK SMILES IDX 10 1 11 2 12 3 13 4 14 5 15 6 16 7 17 8 18 9 19 10 20 11
REMARK SMILES IDX 9 12 8 13 7 14 6 15 5 16 4 17 3 18 2 19 1 20
REMARK H PARENT
REMARK Flexibility Score: inf
ROOT
ATOM      1  C   UNL     1      50.726  31.299  85.693  1.00  0.00     0.000 C 
ENDROOT
BRANCH   1   2
ATOM      2  C   UNL     1      51.801  31.601  86.757  1.00  0.00     0.000 C 
BRANCH   2   3
ATOM      3  C   UNL     1      51.444  30.997  88.127  1.00  0.00     0.000 C 
BRANCH   3   4
ATOM      4  C   UNL     1      51.168  32.071  89.192  1.00  0.00     0.000 C 
BRANCH   4   5
ATOM      5  C   UNL     1      50.148  31.608  90.243  1.00  0.00     0.000 C 
BRANCH   5   6
ATOM      6  C   UNL     1      49.790  30.130  90.047  1.00  0.00     0.000 C 
BRANCH   6   7
ATOM      7  C   UNL     1      48.282  29.900  90.219  1.00  0.00     0.006 C 
BRANCH   7   8
ATOM      8  C   UNL     1      47.543  31.179  90.637  1.00  0.00     0.053 C 
BRANCH   8   9
ATOM      9  C   UNL     1      46.059  31.038  90.486  1.00  0.00     0.041 C 
ATOM     10  O   UNL     1      45.582  30.299  89.586  1.00  0.00    -0.550 OA
ATOM     11  O   UNL     1      45.204  31.750  91.316  1.00  0.00    -0.550 OA
ENDBRANCH   8   9
ENDBRANCH   7   8
ENDBRANCH   6   7
ENDBRANCH   5   6
ENDBRANCH   4   5
ENDBRANCH   3   4
ENDBRANCH   2   3
ENDBRANCH   1   2
BRANCH   1  12
ATOM     12  C   UNL     1      49.413  30.753  86.280  1.00  0.00     0.000 C 
BRANCH  12  13
ATOM     13  C   UNL     1      48.216  31.688  86.038  1.00  0.00    -0.000 C 
BRANCH  13  14
ATOM     14  C   UNL     1      47.730  32.371  87.327  1.00  0.00    -0.000 C 
BRANCH  14  15
ATOM     15  C   UNL     1      48.266  33.802  87.479  1.00  0.00    -0.000 C 
BRANCH  15  16
ATOM     16  C   UNL     1      48.637  34.397  86.111  1.00  0.00    -0.000 C 
BRANCH  16  17
ATOM     17  C   UNL     1      50.058  34.981  86.083  1.00  0.00    -0.000 C 
BRANCH  17  18
ATOM     18  C   UNL     1      50.569  35.365  87.480  1.00  0.00    -0.000 C 
BRANCH  18  19
ATOM     19  C   UNL     1      52.101  35.415  87.509  1.00  0.00    -0.003 C 
ATOM     20  C   UNL     1      52.691  35.075  86.143  1.00  0.00     0.004 C 
ENDBRANCH  18  19
ENDBRANCH  17  18
ENDBRANCH  16  17
ENDBRANCH  15  16
ENDBRANCH  14  15
ENDBRANCH  13  14
ENDBRANCH  12  13
ENDBRANCH   1  12
TORSDOF 16
ENDMDL
MODEL 7
REMARK VINA RESULT:    -3.354      3.063      6.991
REMARK INTER + INTRA:          -8.696
REMARK INTER:                  -6.374
REMARK INTRA:                  -2.323
REMARK UNBOUND:                -2.205
REMARK SMILES CCCCCCCCCCCCCCCCCC(=O)[O-]
REMARK SMILES IDX 10 1 11 2 12 3 13 4 14 5 15 6 16 7 17 8 18 9 19 10 20 11
REMARK SMILES IDX 9 12 8 13 7 14 6 15 5 16 4 17 3 18 2 19 1 20
REMARK H PARENT
REMARK Flexibility Score: inf
ROOT
ATOM      1  C   UNL     1      49.532  34.597  82.662  1.00  0.00     0.000 C 
ENDROOT
BRANCH   1   2
ATOM      2  C   UNL     1      48.669  34.953  83.890  1.00  0.00     0.000 C 
BRANCH   2   3
ATOM      3  C   UNL     1      49.350  34.555  85.211  1.00  0.00     0.000 C 
BRANCH   3   4
ATOM      4  C   UNL     1      48.637  35.137  86.442  1.00  0.00     0.000 C 
BRANCH   4   5
ATOM      5  C   UNL     1      48.194  34.049  87.433  1.00  0.00     0.000 C 
BRANCH   5   6
ATOM      6  C   UNL     1      48.527  32.651  86.898  1.00  0.00     0.000 C 
BRANCH   6   7
ATOM      7  C   UNL     1      47.714  31.574  87.629  1.00  0.00     0.006 C 
BRANCH   7   8
ATOM      8  C   UNL     1      46.860  32.158  88.762  1.00  0.00     0.053 C 
BRANCH   8   9
ATOM      9  C   UNL     1      47.051  31.411  90.046  1.00  0.00     0.041 C 
ATOM     10  O   UNL     1      48.176  30.926  90.335  1.00  0.00    -0.550 OA
ATOM     11  O   UNL     1      45.979  31.221  90.908  1.00  0.00    -0.550 OA
ENDBRANCH   8   9
ENDBRANCH   7   8
ENDBRANCH   6   7
ENDBRANCH   5   6
ENDBRANCH   4   5
ENDBRANCH   3   4
ENDBRANCH   2   3
ENDBRANCH   1   2
BRANCH   1  12
ATOM     12  C   UNL     1      50.705  33.656  82.985  1.00  0.00     0.000 C 
BRANCH  12  13
ATOM     13  C   UNL     1      52.064  34.218  82.536  1.00  0.00    -0.000 C 
BRANCH  13  14
ATOM     14  C   UNL     1      53.029  34.441  83.712  1.00  0.00    -0.000 C 
BRANCH  14  15
ATOM     15  C   UNL     1      53.010  33.284  84.722  1.00  0.00    -0.000 C 
BRANCH  15  16
ATOM     16  C   UNL     1      53.454  33.763  86.113  1.00  0.00    -0.000 C 
BRANCH  16  17
ATOM     17  C   UNL     1      52.640  34.966  86.615  1.00  0.00    -0.000 C 
BRANCH  17  18
ATOM     18  C   UNL     1      51.930  34.687  87.948  1.00  0.00    -0.000 C 
BRANCH  18  19
ATOM     19  C   UNL     1      52.403  33.360  88.554  1.00  0.00    -0.003 C 
ATOM     20  C   UNL     1      51.240  32.595  89.181  1.00  0.00     0.004 C 
ENDBRANCH  18  19
ENDBRANCH  17  18
ENDBRANCH  16  17
ENDBRANCH  15  16
ENDBRANCH  14  15
ENDBRANCH  13  14
ENDBRANCH  12  13
ENDBRANCH   1  12
TORSDOF 16
ENDMDL
MODEL 8
REMARK VINA RESULT:    -3.309      3.107      6.361
REMARK INTER + INTRA:          -8.609
REMARK INTER:                  -6.185
REMARK INTRA:                  -2.424
REMARK UNBOUND:                -2.205
REMARK SMILES CCCCCCCCCCCCCCCCCC(=O)[O-]
REMARK SMILES IDX 10 1 11 2 12 3 13 4 14 5 15 6 16 7 17 8 18 9 19 10 20 11
REMARK SMILES IDX 9 12 8 13 7 14 6 15 5 16 4 17 3 18 2 19 1 20
REMARK H PARENT
REMARK Flexibility Score: inf
ROOT
ATOM      1  C   UNL     1      51.282  35.057  87.826  1.00  0.00     0.000 C 
ENDROOT
BRANCH   1   2
ATOM      2  C   UNL     1      50.125  36.019  87.485  1.00  0.00     0.000 C 
BRANCH   2   3
ATOM      3  C   UNL     1      48.837  35.264  87.110  1.00  0.00     0.000 C 
BRANCH   3   4
ATOM      4  C   UNL     1      49.070  34.201  86.025  1.00  0.00     0.000 C 
BRANCH   4   5
ATOM      5  C   UNL     1      48.299  32.902  86.301  1.00  0.00     0.000 C 
BRANCH   5   6
ATOM      6  C   UNL     1      47.901  32.803  87.778  1.00  0.00     0.000 C 
BRANCH   6   7
ATOM      7  C   UNL     1      47.174  31.482  88.066  1.00  0.00     0.006 C 
BRANCH   7   8
ATOM      8  C   UNL     1      46.155  31.615  89.206  1.00  0.00     0.053 C 
BRANCH   8   9
ATOM      9  C   UNL     1      46.639  30.961  90.464  1.00  0.00     0.041 C 
ATOM     10  O   UNL     1      47.834  31.103  90.832  1.00  0.00    -0.550 OA
ATOM     11  O   UNL     1      45.780  30.166  91.210  1.00  0.00    -0.550 OA
ENDBRANCH   8   9
ENDBRANCH   7   8
ENDBRANCH   6   7
ENDBRANCH   5   6
ENDBRANCH   4   5
ENDBRANCH   3   4
ENDBRANCH   2   3
ENDBRANCH   1   2
BRANCH   1  12
ATOM     12  C   UNL     1      52.597  35.393  87.102  1.00  0.00     0.000 C 
BRANCH  12  13
ATOM     13  C   UNL     1      52.778  34.604  85.796  1.00  0.00    -0.000 C 
BRANCH  13  14
ATOM     14  C   UNL     1      52.581  33.091  85.987  1.00  0.00    -0.000 C 
BRANCH  14  15
ATOM     15  C   UNL     1      53.727  32.439  86.775  1.00  0.00    -0.000 C 
BRANCH  15  16
ATOM     16  C   UNL     1      53.222  31.875  88.112  1.00  0.00    -0.000 C 
BRANCH  16  17
ATOM     17  C   UNL     1      51.752  31.430  88.051  1.00  0.00    -0.000 C 
BRANCH  17  18
ATOM     18  C   UNL     1      50.969  31.798  89.320  1.00  0.00    -0.000 C 
BRANCH  18  19
ATOM     19  C   UNL     1      51.914  32.267  90.432  1.00  0.00    -0.003 C 
ATOM     20  C   UNL     1      51.265  32.121  91.806  1.00  0.00     0.004 C 
ENDBRANCH  18  19
ENDBRANCH  17  18
ENDBRANCH  16  17
ENDBRANCH  15  16
ENDBRANCH  14  15
ENDBRANCH  13  14
ENDBRANCH  12  13
ENDBRANCH   1  12
TORSDOF 16
ENDMDL
MODEL 9
REMARK VINA RESULT:    -3.305      3.029      4.610
REMARK INTER + INTRA:          -8.601
REMARK INTER:                  -5.911
REMARK INTRA:                  -2.690
REMARK UNBOUND:                -2.205
REMARK SMILES CCCCCCCCCCCCCCCCCC(=O)[O-]
REMARK SMILES IDX 10 1 11 2 12 3 13 4 14 5 15 6 16 7 17 8 18 9 19 10 20 11
REMARK SMILES IDX 9 12 8 13 7 14 6 15 5 16 4 17 3 18 2 19 1 20
REMARK H PARENT
REMARK Flexibility Score: inf
ROOT
ATOM      1  C   UNL     1      48.877  34.900  86.546  1.00  0.00     0.000 C 
ENDROOT
BRANCH   1   2
ATOM      2  C   UNL     1      49.958  34.332  85.602  1.00  0.00     0.000 C 
BRANCH   2   3
ATOM      3  C   UNL     1      51.367  34.831  85.970  1.00  0.00     0.000 C 
BRANCH   3   4
ATOM      4  C   UNL     1      52.310  33.688  86.378  1.00  0.00     0.000 C 
BRANCH   4   5
ATOM      5  C   UNL     1      51.579  32.342  86.507  1.00  0.00     0.000 C 
BRANCH   5   6
ATOM      6  C   UNL     1      51.545  31.874  87.966  1.00  0.00     0.000 C 
BRANCH   6   7
ATOM      7  C   UNL     1      51.991  32.994  88.916  1.00  0.00     0.006 C 
BRANCH   7   8
ATOM      8  C   UNL     1      53.148  32.560  89.826  1.00  0.00     0.053 C 
BRANCH   8   9
ATOM      9  C   UNL     1      54.097  33.687  90.097  1.00  0.00     0.041 C 
ATOM     10  O   UNL     1      55.091  33.511  90.848  1.00  0.00    -0.550 OA
ATOM     11  O   UNL     1      53.865  34.941  89.547  1.00  0.00    -0.550 OA
ENDBRANCH   8   9
ENDBRANCH   7   8
ENDBRANCH   6   7
ENDBRANCH   5   6
ENDBRANCH   4   5
ENDBRANCH   3   4
ENDBRANCH   2   3
ENDBRANCH   1   2
BRANCH   1  12
ATOM     12  C   UNL     1      48.270  33.848  87.490  1.00  0.00     0.000 C 
BRANCH  12  13
ATOM     13  C   UNL     1      47.996  32.506  86.792  1.00  0.00    -0.000 C 
BRANCH  13  14
ATOM     14  C   UNL     1      47.628  31.389  87.782  1.00  0.00    -0.000 C 
BRANCH  14  15
ATOM     15  C   UNL     1      47.026  31.929  89.088  1.00  0.00    -0.000 C 
BRANCH  15  16
ATOM     16  C   UNL     1      47.528  31.126  90.297  1.00  0.00    -0.000 C 
BRANCH  16  17
ATOM     17  C   UNL     1      48.822  30.353  90.000  1.00  0.00    -0.000 C 
BRANCH  17  18
ATOM     18  C   UNL     1      49.869  30.500  91.114  1.00  0.00    -0.000 C 
BRANCH  18  19
ATOM     19  C   UNL     1      49.847  31.914  91.705  1.00  0.00    -0.003 C 
ATOM     20  C   UNL     1      50.947  32.095  92.748  1.00  0.00     0.004 C 
ENDBRANCH  18  19
ENDBRANCH  17  18
ENDBRANCH  16  17
ENDBRANCH  15  16
ENDBRANCH  14  15
ENDBRANCH  13  14
ENDBRANCH  12  13
ENDBRANCH   1  12
TORSDOF 16
ENDMDL
