MODEL 1
REMARK VINA RESULT:    -5.112      0.000      0.000
REMARK INTER + INTRA:          -8.306
REMARK INTER:                  -7.801
REMARK INTRA:                  -0.505
REMARK UNBOUND:                -0.505
REMARK SMILES O=C([O-])CCCCCCCCC(=O)[O-]
REMARK SMILES IDX 7 1 6 2 5 3 4 4 2 5 1 6 3 7 8 8 9 9 10 10 11 11 12 12 13 13
REMARK SMILES IDX 14 14
REMARK H PARENT
REMARK Flexibility Score: inf
ROOT
ATOM      1  C   UNL     1      51.807 -47.490 165.474  1.00  0.00     0.000 C 
ENDROOT
BRANCH   1   2
ATOM      2  C   UNL     1      50.928 -46.286 165.106  1.00  0.00     0.000 C 
BRANCH   2   3
ATOM      3  C   UNL     1      49.488 -46.689 164.751  1.00  0.00     0.006 C 
BRANCH   3   4
ATOM      4  C   UNL     1      49.160 -48.131 165.157  1.00  0.00     0.053 C 
BRANCH   4   5
ATOM      5  C   UNL     1      48.070 -48.681 164.292  1.00  0.00     0.041 C 
ATOM      6  O   UNL     1      46.877 -48.321 164.473  1.00  0.00    -0.550 OA
ATOM      7  O   UNL     1      48.377 -49.555 163.257  1.00  0.00    -0.550 OA
ENDBRANCH   4   5
ENDBRANCH   3   4
ENDBRANCH   2   3
ENDBRANCH   1   2
BRANCH   1   8
ATOM      8  C   UNL     1      53.217 -47.036 165.880  1.00  0.00     0.000 C 
BRANCH   8   9
ATOM      9  C   UNL     1      53.223 -45.663 166.571  1.00  0.00     0.000 C 
BRANCH   9  10
ATOM     10  C   UNL     1      54.336 -44.740 166.043  1.00  0.00     0.006 C 
BRANCH  10  11
ATOM     11  C   UNL     1      53.923 -44.015 164.755  1.00  0.00     0.053 C 
BRANCH  11  12
ATOM     12  C   UNL     1      53.970 -42.526 164.915  1.00  0.00     0.041 C 
ATOM     13  O   UNL     1      53.861 -42.007 166.057  1.00  0.00    -0.550 OA
ATOM     14  O   UNL     1      54.163 -41.712 163.805  1.00  0.00    -0.550 OA
ENDBRANCH  11  12
ENDBRANCH  10  11
ENDBRANCH   9  10
ENDBRANCH   8   9
ENDBRANCH   1   8
TORSDOF 9
ENDMDL
MODEL 2
REMARK VINA RESULT:    -5.067      0.230      6.945
REMARK INTER + INTRA:          -8.238
REMARK INTER:                  -7.738
REMARK INTRA:                  -0.500
REMARK UNBOUND:                -0.505
REMARK SMILES O=C([O-])CCCCCCCCC(=O)[O-]
REMARK SMILES IDX 7 1 6 2 5 3 4 4 2 5 1 6 3 7 8 8 9 9 10 10 11 11 12 12 13 13
REMARK SMILES IDX 14 14
REMARK H PARENT
REMARK Flexibility Score: inf
ROOT
ATOM      1  C   UNL     1      53.211 -46.997 165.807  1.00  0.00     0.000 C 
ENDROOT
BRANCH   1   2
ATOM      2  C   UNL     1      53.249 -45.678 166.594  1.00  0.00     0.000 C 
BRANCH   2   3
ATOM      3  C   UNL     1      54.428 -44.779 166.187  1.00  0.00     0.006 C 
BRANCH   3   4
ATOM      4  C   UNL     1      54.301 -44.250 164.753  1.00  0.00     0.053 C 
BRANCH   4   5
ATOM      5  C   UNL     1      54.022 -42.780 164.764  1.00  0.00     0.041 C 
ATOM      6  O   UNL     1      53.745 -42.196 165.845  1.00  0.00    -0.550 OA
ATOM      7  O   UNL     1      54.114 -42.045 163.589  1.00  0.00    -0.550 OA
ENDBRANCH   4   5
ENDBRANCH   3   4
ENDBRANCH   2   3
ENDBRANCH   1   2
BRANCH   1   8
ATOM      8  C   UNL     1      51.763 -47.416 165.512  1.00  0.00     0.000 C 
BRANCH   8   9
ATOM      9  C   UNL     1      50.873 -46.233 165.099  1.00  0.00     0.000 C 
BRANCH   9  10
ATOM     10  C   UNL     1      49.460 -46.675 164.678  1.00  0.00     0.006 C 
BRANCH  10  11
ATOM     11  C   UNL     1      49.152 -48.115 165.111  1.00  0.00     0.053 C 
BRANCH  11  12
ATOM     12  C   UNL     1      48.164 -48.773 164.197  1.00  0.00     0.041 C 
ATOM     13  O   UNL     1      48.563 -49.536 163.277  1.00  0.00    -0.550 OA
ATOM     14  O   UNL     1      46.802 -48.567 164.378  1.00  0.00    -0.550 OA
ENDBRANCH  11  12
ENDBRANCH  10  11
ENDBRANCH   9  10
ENDBRANCH   8   9
ENDBRANCH   1   8
TORSDOF 9
ENDMDL
MODEL 3
REMARK VINA RESULT:    -5.062      3.626      7.673
REMARK INTER + INTRA:          -8.231
REMARK INTER:                  -7.494
REMARK INTRA:                  -0.737
REMARK UNBOUND:                -0.505
REMARK SMILES O=C([O-])CCCCCCCCC(=O)[O-]
REMARK SMILES IDX 7 1 6 2 5 3 4 4 2 5 1 6 3 7 8 8 9 9 10 10 11 11 12 12 13 13
REMARK SMILES IDX 14 14
REMARK H PARENT
REMARK Flexibility Score: inf
ROOT
ATOM      1  C   UNL     1      46.474 -45.872 165.566  1.00  0.00     0.000 C 
ENDROOT
BRANCH   1   2
ATOM      2  C   UNL     1      47.556 -46.158 164.514  1.00  0.00     0.000 C 
BRANCH   2   3
ATOM      3  C   UNL     1      48.532 -47.262 164.951  1.00  0.00     0.006 C 
BRANCH   3   4
ATOM      4  C   UNL     1      49.999 -46.822 164.867  1.00  0.00     0.053 C 
BRANCH   4   5
ATOM      5  C   UNL     1      50.879 -47.806 165.571  1.00  0.00     0.041 C 
ATOM      6  O   UNL     1      50.387 -48.855 166.065  1.00  0.00    -0.550 OA
ATOM      7  O   UNL     1      52.249 -47.590 165.640  1.00  0.00    -0.550 OA
ENDBRANCH   4   5
ENDBRANCH   3   4
ENDBRANCH   2   3
ENDBRANCH   1   2
BRANCH   1   8
ATOM      8  C   UNL     1      45.073 -46.155 165.003  1.00  0.00     0.000 C 
BRANCH   8   9
ATOM      9  C   UNL     1      45.037 -46.146 163.466  1.00  0.00     0.000 C 
BRANCH   9  10
ATOM     10  C   UNL     1      44.224 -47.318 162.888  1.00  0.00     0.006 C 
BRANCH  10  11
ATOM     11  C   UNL     1      45.106 -48.307 162.113  1.00  0.00     0.053 C 
BRANCH  11  12
ATOM     12  C   UNL     1      45.873 -49.208 163.033  1.00  0.00     0.041 C 
ATOM     13  O   UNL     1      45.367 -49.577 164.125  1.00  0.00    -0.550 OA
ATOM     14  O   UNL     1      47.134 -49.663 162.669  1.00  0.00    -0.550 OA
ENDBRANCH  11  12
ENDBRANCH  10  11
ENDBRANCH   9  10
ENDBRANCH   8   9
ENDBRANCH   1   8
TORSDOF 9
ENDMDL
MODEL 4
REMARK VINA RESULT:    -5.049      3.705      6.325
REMARK INTER + INTRA:          -8.211
REMARK INTER:                  -7.764
REMARK INTRA:                  -0.447
REMARK UNBOUND:                -0.505
REMARK SMILES O=C([O-])CCCCCCCCC(=O)[O-]
REMARK SMILES IDX 7 1 6 2 5 3 4 4 2 5 1 6 3 7 8 8 9 9 10 10 11 11 12 12 13 13
REMARK SMILES IDX 14 14
REMARK H PARENT
REMARK Flexibility Score: inf
ROOT
ATOM      1  C   UNL     1      52.783 -46.808 166.252  1.00  0.00     0.000 C 
ENDROOT
BRANCH   1   2
ATOM      2  C   UNL     1      53.751 -47.770 165.548  1.00  0.00     0.000 C 
BRANCH   2   3
ATOM      3  C   UNL     1      54.427 -48.749 166.521  1.00  0.00     0.006 C 
BRANCH   3   4
ATOM      4  C   UNL     1      53.419 -49.628 167.272  1.00  0.00     0.053 C 
BRANCH   4   5
ATOM      5  C   UNL     1      54.037 -50.944 167.626  1.00  0.00     0.041 C 
ATOM      6  O   UNL     1      54.702 -51.582 166.768  1.00  0.00    -0.550 OA
ATOM      7  O   UNL     1      53.921 -51.442 168.917  1.00  0.00    -0.550 OA
ENDBRANCH   4   5
ENDBRANCH   3   4
ENDBRANCH   2   3
ENDBRANCH   1   2
BRANCH   1   8
ATOM      8  C   UNL     1      51.457 -46.703 165.483  1.00  0.00     0.000 C 
BRANCH   8   9
ATOM      9  C   UNL     1      50.645 -48.007 165.518  1.00  0.00     0.000 C 
BRANCH   9  10
ATOM     10  C   UNL     1      49.249 -47.851 164.890  1.00  0.00     0.006 C 
BRANCH  10  11
ATOM     11  C   UNL     1      48.804 -46.383 164.829  1.00  0.00     0.053 C 
BRANCH  11  12
ATOM     12  C   UNL     1      47.333 -46.235 165.070  1.00  0.00     0.041 C 
ATOM     13  O   UNL     1      46.509 -46.897 164.385  1.00  0.00    -0.550 OA
ATOM     14  O   UNL     1      46.873 -45.390 166.072  1.00  0.00    -0.550 OA
ENDBRANCH  11  12
ENDBRANCH  10  11
ENDBRANCH   9  10
ENDBRANCH   8   9
ENDBRANCH   1   8
TORSDOF 9
ENDMDL
MODEL 5
REMARK VINA RESULT:    -5.034      3.660      7.145
REMARK INTER + INTRA:          -8.188
REMARK INTER:                  -7.676
REMARK INTRA:                  -0.512
REMARK UNBOUND:                -0.505
REMARK SMILES O=C([O-])CCCCCCCCC(=O)[O-]
REMARK SMILES IDX 7 1 6 2 5 3 4 4 2 5 1 6 3 7 8 8 9 9 10 10 11 11 12 12 13 13
REMARK SMILES IDX 14 14
REMARK H PARENT
REMARK Flexibility Score: inf
ROOT
ATOM      1  C   UNL     1      52.490 -46.284 166.127  1.00  0.00     0.000 C 
ENDROOT
BRANCH   1   2
ATOM      2  C   UNL     1      53.623 -45.725 167.001  1.00  0.00     0.000 C 
BRANCH   2   3
ATOM      3  C   UNL     1      54.329 -44.520 166.359  1.00  0.00     0.006 C 
BRANCH   3   4
ATOM      4  C   UNL     1      53.586 -43.986 165.128  1.00  0.00     0.053 C 
BRANCH   4   5
ATOM      5  C   UNL     1      53.803 -42.512 164.988  1.00  0.00     0.041 C 
ATOM      6  O   UNL     1      53.717 -41.761 165.995  1.00  0.00    -0.550 OA
ATOM      7  O   UNL     1      54.147 -41.974 163.756  1.00  0.00    -0.550 OA
ENDBRANCH   4   5
ENDBRANCH   3   4
ENDBRANCH   2   3
ENDBRANCH   1   2
BRANCH   1   8
ATOM      8  C   UNL     1      52.730 -47.765 165.800  1.00  0.00     0.000 C 
BRANCH   8   9
ATOM      9  C   UNL     1      54.220 -48.104 165.635  1.00  0.00     0.000 C 
BRANCH   9  10
ATOM     10  C   UNL     1      54.751 -49.002 166.767  1.00  0.00     0.006 C 
BRANCH  10  11
ATOM     11  C   UNL     1      53.639 -49.845 167.406  1.00  0.00     0.053 C 
BRANCH  11  12
ATOM     12  C   UNL     1      54.011 -51.294 167.482  1.00  0.00     0.041 C 
ATOM     13  O   UNL     1      54.814 -51.786 166.646  1.00  0.00    -0.550 OA
ATOM     14  O   UNL     1      53.494 -52.094 168.494  1.00  0.00    -0.550 OA
ENDBRANCH  11  12
ENDBRANCH  10  11
ENDBRANCH   9  10
ENDBRANCH   8   9
ENDBRANCH   1   8
TORSDOF 9
ENDMDL
MODEL 6
REMARK VINA RESULT:    -5.028      2.996      5.188
REMARK INTER + INTRA:          -8.179
REMARK INTER:                  -7.525
REMARK INTRA:                  -0.654
REMARK UNBOUND:                -0.505
REMARK SMILES O=C([O-])CCCCCCCCC(=O)[O-]
REMARK SMILES IDX 7 1 6 2 5 3 4 4 2 5 1 6 3 7 8 8 9 9 10 10 11 11 12 12 13 13
REMARK SMILES IDX 14 14
REMARK H PARENT
REMARK Flexibility Score: inf
ROOT
ATOM      1  C   UNL     1      45.306 -46.078 164.932  1.00  0.00     0.000 C 
ENDROOT
BRANCH   1   2
ATOM      2  C   UNL     1      45.340 -46.176 163.399  1.00  0.00     0.000 C 
BRANCH   2   3
ATOM      3  C   UNL     1      44.313 -47.177 162.846  1.00  0.00     0.006 C 
BRANCH   3   4
ATOM      4  C   UNL     1      44.971 -48.370 162.140  1.00  0.00     0.053 C 
BRANCH   4   5
ATOM      5  C   UNL     1      45.746 -49.192 163.121  1.00  0.00     0.041 C 
ATOM      6  O   UNL     1      45.180 -49.649 164.150  1.00  0.00    -0.550 OA
ATOM      7  O   UNL     1      47.079 -49.495 162.877  1.00  0.00    -0.550 OA
ENDBRANCH   4   5
ENDBRANCH   3   4
ENDBRANCH   2   3
ENDBRANCH   1   2
BRANCH   1   8
ATOM      8  C   UNL     1      46.729 -46.048 165.510  1.00  0.00     0.000 C 
BRANCH   8   9
ATOM      9  C   UNL     1      47.814 -46.156 164.428  1.00  0.00     0.000 C 
BRANCH   9  10
ATOM     10  C   UNL     1      49.033 -46.973 164.892  1.00  0.00     0.006 C 
BRANCH  10  11
ATOM     11  C   UNL     1      50.335 -46.165 164.809  1.00  0.00     0.053 C 
BRANCH  11  12
ATOM     12  C   UNL     1      51.448 -46.822 165.567  1.00  0.00     0.041 C 
ATOM     13  O   UNL     1      52.410 -46.134 166.002  1.00  0.00    -0.550 OA
ATOM     14  O   UNL     1      51.409 -48.188 165.818  1.00  0.00    -0.550 OA
ENDBRANCH  11  12
ENDBRANCH  10  11
ENDBRANCH   9  10
ENDBRANCH   8   9
ENDBRANCH   1   8
TORSDOF 9
ENDMDL
MODEL 7
REMARK VINA RESULT:    -5.014      3.739      4.498
REMARK INTER + INTRA:          -8.156
REMARK INTER:                  -7.605
REMARK INTRA:                  -0.551
REMARK UNBOUND:                -0.505
REMARK SMILES O=C([O-])CCCCCCCCC(=O)[O-]
REMARK SMILES IDX 7 1 6 2 5 3 4 4 2 5 1 6 3 7 8 8 9 9 10 10 11 11 12 12 13 13
REMARK SMILES IDX 14 14
REMARK H PARENT
REMARK Flexibility Score: inf
ROOT
ATOM      1  C   UNL     1      52.805 -47.721 165.859  1.00  0.00     0.000 C 
ENDROOT
BRANCH   1   2
ATOM      2  C   UNL     1      54.312 -47.998 165.749  1.00  0.00     0.000 C 
BRANCH   2   3
ATOM      3  C   UNL     1      54.795 -49.057 166.753  1.00  0.00     0.006 C 
BRANCH   3   4
ATOM      4  C   UNL     1      53.639 -49.841 167.388  1.00  0.00     0.053 C 
BRANCH   4   5
ATOM      5  C   UNL     1      54.053 -51.254 167.654  1.00  0.00     0.041 C 
ATOM      6  O   UNL     1      54.699 -51.898 166.786  1.00  0.00    -0.550 OA
ATOM      7  O   UNL     1      53.766 -51.845 168.877  1.00  0.00    -0.550 OA
ENDBRANCH   4   5
ENDBRANCH   3   4
ENDBRANCH   2   3
ENDBRANCH   1   2
BRANCH   1   8
ATOM      8  C   UNL     1      52.542 -46.253 166.223  1.00  0.00     0.000 C 
BRANCH   8   9
ATOM      9  C   UNL     1      53.635 -45.659 167.126  1.00  0.00     0.000 C 
BRANCH   9  10
ATOM     10  C   UNL     1      54.338 -44.449 166.486  1.00  0.00     0.006 C 
BRANCH  10  11
ATOM     11  C   UNL     1      53.669 -44.020 165.172  1.00  0.00     0.053 C 
BRANCH  11  12
ATOM     12  C   UNL     1      53.833 -42.553 164.915  1.00  0.00     0.041 C 
ATOM     13  O   UNL     1      53.579 -41.719 165.824  1.00  0.00    -0.550 OA
ATOM     14  O   UNL     1      54.296 -42.109 163.683  1.00  0.00    -0.550 OA
ENDBRANCH  11  12
ENDBRANCH  10  11
ENDBRANCH   9  10
ENDBRANCH   8   9
ENDBRANCH   1   8
TORSDOF 9
ENDMDL
MODEL 8
REMARK VINA RESULT:    -4.962      1.507      7.018
REMARK INTER + INTRA:          -8.077
REMARK INTER:                  -7.731
REMARK INTRA:                  -0.346
REMARK UNBOUND:                -0.505
REMARK SMILES O=C([O-])CCCCCCCCC(=O)[O-]
REMARK SMILES IDX 7 1 6 2 5 3 4 4 2 5 1 6 3 7 8 8 9 9 10 10 11 11 12 12 13 13
REMARK SMILES IDX 14 14
REMARK H PARENT
REMARK Flexibility Score: inf
ROOT
ATOM      1  C   UNL     1      52.397 -47.099 165.645  1.00  0.00     0.000 C 
ENDROOT
BRANCH   1   2
ATOM      2  C   UNL     1      52.408 -45.568 165.522  1.00  0.00     0.000 C 
BRANCH   2   3
ATOM      3  C   UNL     1      53.794 -44.961 165.795  1.00  0.00     0.006 C 
BRANCH   3   4
ATOM      4  C   UNL     1      54.176 -43.877 164.779  1.00  0.00     0.053 C 
BRANCH   4   5
ATOM      5  C   UNL     1      53.592 -42.559 165.180  1.00  0.00     0.041 C 
ATOM      6  O   UNL     1      52.757 -41.983 164.434  1.00  0.00    -0.550 OA
ATOM      7  O   UNL     1      53.934 -41.989 166.399  1.00  0.00    -0.550 OA
ENDBRANCH   4   5
ENDBRANCH   3   4
ENDBRANCH   2   3
ENDBRANCH   1   2
BRANCH   1   8
ATOM      8  C   UNL     1      50.972 -47.650 165.497  1.00  0.00     0.000 C 
BRANCH   8   9
ATOM      9  C   UNL     1      49.989 -46.614 164.928  1.00  0.00     0.000 C 
BRANCH   9  10
ATOM     10  C   UNL     1      48.562 -47.171 164.781  1.00  0.00     0.006 C 
BRANCH  10  11
ATOM     11  C   UNL     1      47.496 -46.137 165.168  1.00  0.00     0.053 C 
BRANCH  11  12
ATOM     12  C   UNL     1      46.137 -46.524 164.668  1.00  0.00     0.041 C 
ATOM     13  O   UNL     1      45.157 -45.751 164.838  1.00  0.00    -0.550 OA
ATOM     14  O   UNL     1      45.959 -47.723 163.989  1.00  0.00    -0.550 OA
ENDBRANCH  11  12
ENDBRANCH  10  11
ENDBRANCH   9  10
ENDBRANCH   8   9
ENDBRANCH   1   8
TORSDOF 9
ENDMDL
MODEL 9
REMARK VINA RESULT:    -4.960      3.830      6.868
REMARK INTER + INTRA:          -8.075
REMARK INTER:                  -7.676
REMARK INTRA:                  -0.399
REMARK UNBOUND:                -0.505
REMARK SMILES O=C([O-])CCCCCCCCC(=O)[O-]
REMARK SMILES IDX 7 1 6 2 5 3 4 4 2 5 1 6 3 7 8 8 9 9 10 10 11 11 12 12 13 13
REMARK SMILES IDX 14 14
REMARK H PARENT
REMARK Flexibility Score: inf
ROOT
ATOM      1  C   UNL     1      50.566 -46.435 165.123  1.00  0.00     0.000 C 
ENDROOT
BRANCH   1   2
ATOM      2  C   UNL     1      51.906 -46.568 165.861  1.00  0.00     0.000 C 
BRANCH   2   3
ATOM      3  C   UNL     1      52.408 -48.019 165.923  1.00  0.00     0.006 C 
BRANCH   3   4
ATOM      4  C   UNL     1      53.882 -48.119 166.336  1.00  0.00     0.053 C 
BRANCH   4   5
ATOM      5  C   UNL     1      54.044 -49.095 167.458  1.00  0.00     0.041 C 
ATOM      6  O   UNL     1      53.620 -50.274 167.337  1.00  0.00    -0.550 OA
ATOM      7  O   UNL     1      54.705 -48.717 168.619  1.00  0.00    -0.550 OA
ENDBRANCH   4   5
ENDBRANCH   3   4
ENDBRANCH   2   3
ENDBRANCH   1   2
BRANCH   1   8
ATOM      8  C   UNL     1      49.819 -47.777 165.097  1.00  0.00     0.000 C 
BRANCH   8   9
ATOM      9  C   UNL     1      48.333 -47.624 164.737  1.00  0.00     0.000 C 
BRANCH   9  10
ATOM     10  C   UNL     1      47.879 -46.154 164.715  1.00  0.00     0.006 C 
BRANCH  10  11
ATOM     11  C   UNL     1      46.527 -45.956 165.415  1.00  0.00     0.053 C 
BRANCH  11  12
ATOM     12  C   UNL     1      45.380 -46.349 164.535  1.00  0.00     0.041 C 
ATOM     13  O   UNL     1      44.342 -46.857 165.036  1.00  0.00    -0.550 OA
ATOM     14  O   UNL     1      45.445 -46.127 163.165  1.00  0.00    -0.550 OA
ENDBRANCH  11  12
ENDBRANCH  10  11
ENDBRANCH   9  10
ENDBRANCH   8   9
ENDBRANCH   1   8
TORSDOF 9
ENDMDL
