MODEL 1
REMARK VINA RESULT:    -4.517      0.000      0.000
REMARK INTER + INTRA:          -4.517
REMARK INTER:                  -4.517
REMARK INTRA:                   0.000
REMARK UNBOUND:                 0.000
REMARK SMILES C=C1CCC[C@@]2(C)C=C3OC(=O)C(C)=C3C[C@@H]12
REMARK SMILES IDX 14 1 13 2 15 3 16 4 17 5 2 6 1 7 3 8 4 9 5 10 6 11 8 12 9 13
REMARK SMILES IDX 10 14 11 15 12 16 7 17
REMARK H PARENT
REMARK Flexibility Score: inf
ROOT
ATOM      1  C   UNL     1      36.814 -39.975   7.705  1.00  0.00     0.053 C 
ATOM      2  C   UNL     1      35.842 -38.876   7.995  1.00  0.00     0.041 C 
ATOM      3  C   UNL     1      35.106 -38.741   9.094  1.00  0.00     0.005 C 
ATOM      4  C   UNL     1      35.095 -39.579  10.329  1.00  0.00     0.049 C 
ATOM      5  C   UNL     1      33.778 -39.332  11.112  1.00  0.00     0.029 C 
ATOM      6  C   UNL     1      33.842 -40.021  12.463  1.00  0.00    -0.073 C 
ATOM      7  C   UNL     1      33.562 -41.329  12.567  1.00  0.00     0.008 C 
ATOM      8  C   UNL     1      34.190 -39.232  13.703  1.00  0.00     0.031 C 
ATOM      9  C   UNL     1      34.990 -37.974  13.358  1.00  0.00     0.005 C 
ATOM     10  C   UNL     1      34.328 -37.075  12.293  1.00  0.00     0.012 C 
ATOM     11  C   UNL     1      33.406 -37.805  11.261  1.00  0.00    -0.004 C 
ATOM     12  C   UNL     1      33.512 -37.079   9.922  1.00  0.00     0.027 C 
ATOM     13  C   UNL     1      34.330 -37.524   8.973  1.00  0.00     0.131 C 
ATOM     14  O   UNL     1      34.576 -36.916   7.750  1.00  0.00    -0.423 OA
ATOM     15  C   UNL     1      35.509 -37.741   7.131  1.00  0.00     0.339 C 
ATOM     16  O   UNL     1      35.992 -37.520   5.989  1.00  0.00    -0.246 OA
ATOM     17  C   UNL     1      31.928 -37.689  11.709  1.00  0.00     0.016 C 
ENDROOT
TORSDOF 0
ENDMDL
MODEL 2
REMARK VINA RESULT:    -4.497      8.344     11.695
REMARK INTER + INTRA:          -4.497
REMARK INTER:                  -4.497
REMARK INTRA:                   0.000
REMARK UNBOUND:                 0.000
REMARK SMILES C=C1CCC[C@@]2(C)C=C3OC(=O)C(C)=C3C[C@@H]12
REMARK SMILES IDX 14 1 13 2 15 3 16 4 17 5 2 6 1 7 3 8 4 9 5 10 6 11 8 12 9 13
REMARK SMILES IDX 10 14 11 15 12 16 7 17
REMARK H PARENT
REMARK Flexibility Score: inf
ROOT
ATOM      1  C   UNL     1      34.933 -39.500   1.470  1.00  0.00     0.053 C 
ATOM      2  C   UNL     1      35.687 -38.214   1.593  1.00  0.00     0.041 C 
ATOM      3  C   UNL     1      36.777 -37.869   0.913  1.00  0.00     0.005 C 
ATOM      4  C   UNL     1      37.486 -38.611  -0.171  1.00  0.00     0.049 C 
ATOM      5  C   UNL     1      38.929 -38.060  -0.319  1.00  0.00     0.029 C 
ATOM      6  C   UNL     1      39.590 -38.664  -1.544  1.00  0.00    -0.073 C 
ATOM      7  C   UNL     1      40.150 -39.882  -1.478  1.00  0.00     0.008 C 
ATOM      8  C   UNL     1      39.651 -37.885  -2.837  1.00  0.00     0.031 C 
ATOM      9  C   UNL     1      38.540 -36.835  -2.910  1.00  0.00     0.005 C 
ATOM     10  C   UNL     1      38.484 -35.889  -1.692  1.00  0.00     0.012 C 
ATOM     11  C   UNL     1      39.006 -36.483  -0.342  1.00  0.00    -0.004 C 
ATOM     12  C   UNL     1      38.192 -35.875   0.799  1.00  0.00     0.027 C 
ATOM     13  C   UNL     1      37.158 -36.531   1.318  1.00  0.00     0.131 C 
ATOM     14  O   UNL     1      36.295 -36.060   2.296  1.00  0.00    -0.423 OA
ATOM     15  C   UNL     1      35.379 -37.090   2.480  1.00  0.00     0.339 C 
ATOM     16  O   UNL     1      34.421 -37.039   3.296  1.00  0.00    -0.246 OA
ATOM     17  C   UNL     1      40.475 -36.049  -0.114  1.00  0.00     0.016 C 
ENDROOT
TORSDOF 0
ENDMDL
MODEL 3
REMARK VINA RESULT:    -4.496      2.619      4.902
REMARK INTER + INTRA:          -4.496
REMARK INTER:                  -4.496
REMARK INTRA:                   0.000
REMARK UNBOUND:                 0.000
REMARK SMILES C=C1CCC[C@@]2(C)C=C3OC(=O)C(C)=C3C[C@@H]12
REMARK SMILES IDX 14 1 13 2 15 3 16 4 17 5 2 6 1 7 3 8 4 9 5 10 6 11 8 12 9 13
REMARK SMILES IDX 10 14 11 15 12 16 7 17
REMARK H PARENT
REMARK Flexibility Score: inf
ROOT
ATOM      1  C   UNL     1      35.413 -40.751  13.513  1.00  0.00     0.053 C 
ATOM      2  C   UNL     1      34.992 -39.400  13.028  1.00  0.00     0.041 C 
ATOM      3  C   UNL     1      34.746 -39.055  11.767  1.00  0.00     0.005 C 
ATOM      4  C   UNL     1      34.752 -39.903  10.539  1.00  0.00     0.049 C 
ATOM      5  C   UNL     1      34.877 -38.999   9.285  1.00  0.00     0.029 C 
ATOM      6  C   UNL     1      34.684 -39.828   8.028  1.00  0.00    -0.073 C 
ATOM      7  C   UNL     1      35.707 -40.532   7.520  1.00  0.00     0.008 C 
ATOM      8  C   UNL     1      33.348 -39.840   7.323  1.00  0.00     0.031 C 
ATOM      9  C   UNL     1      32.209 -39.478   8.278  1.00  0.00     0.005 C 
ATOM     10  C   UNL     1      32.422 -38.156   9.045  1.00  0.00     0.012 C 
ATOM     11  C   UNL     1      33.911 -37.751   9.305  1.00  0.00    -0.004 C 
ATOM     12  C   UNL     1      33.984 -37.018  10.644  1.00  0.00     0.027 C 
ATOM     13  C   UNL     1      34.337 -37.665  11.750  1.00  0.00     0.131 C 
ATOM     14  O   UNL     1      34.367 -37.140  13.034  1.00  0.00    -0.423 OA
ATOM     15  C   UNL     1      34.771 -38.200  13.837  1.00  0.00     0.339 C 
ATOM     16  O   UNL     1      34.916 -38.119  15.086  1.00  0.00    -0.246 OA
ATOM     17  C   UNL     1      34.372 -36.740   8.225  1.00  0.00     0.016 C 
ENDROOT
TORSDOF 0
ENDMDL
MODEL 4
REMARK VINA RESULT:    -4.428      5.928      8.027
REMARK INTER + INTRA:          -4.428
REMARK INTER:                  -4.428
REMARK INTRA:                   0.000
REMARK UNBOUND:                 0.000
REMARK SMILES C=C1CCC[C@@]2(C)C=C3OC(=O)C(C)=C3C[C@@H]12
REMARK SMILES IDX 14 1 13 2 15 3 16 4 17 5 2 6 1 7 3 8 4 9 5 10 6 11 8 12 9 13
REMARK SMILES IDX 10 14 11 15 12 16 7 17
REMARK H PARENT
REMARK Flexibility Score: inf
ROOT
ATOM      1  C   UNL     1      31.368 -40.439   2.780  1.00  0.00     0.053 C 
ATOM      2  C   UNL     1      32.525 -39.856   2.032  1.00  0.00     0.041 C 
ATOM      3  C   UNL     1      33.418 -38.992   2.506  1.00  0.00     0.005 C 
ATOM      4  C   UNL     1      33.552 -38.437   3.886  1.00  0.00     0.049 C 
ATOM      5  C   UNL     1      34.411 -37.146   3.844  1.00  0.00     0.029 C 
ATOM      6  C   UNL     1      34.721 -36.685   5.256  1.00  0.00    -0.073 C 
ATOM      7  C   UNL     1      33.822 -35.965   5.944  1.00  0.00     0.008 C 
ATOM      8  C   UNL     1      36.058 -37.006   5.884  1.00  0.00     0.031 C 
ATOM      9  C   UNL     1      36.697 -38.237   5.239  1.00  0.00     0.005 C 
ATOM     10  C   UNL     1      36.808 -38.159   3.701  1.00  0.00     0.012 C 
ATOM     11  C   UNL     1      35.726 -37.287   2.982  1.00  0.00    -0.004 C 
ATOM     12  C   UNL     1      35.429 -37.915   1.621  1.00  0.00     0.027 C 
ATOM     13  C   UNL     1      34.381 -38.717   1.460  1.00  0.00     0.131 C 
ATOM     14  O   UNL     1      34.046 -39.408   0.305  1.00  0.00    -0.423 OA
ATOM     15  C   UNL     1      32.899 -40.117   0.640  1.00  0.00     0.339 C 
ATOM     16  O   UNL     1      32.286 -40.878  -0.155  1.00  0.00    -0.246 OA
ATOM     17  C   UNL     1      36.297 -35.876   2.701  1.00  0.00     0.016 C 
ENDROOT
TORSDOF 0
ENDMDL
MODEL 5
REMARK VINA RESULT:    -4.383      2.795      5.129
REMARK INTER + INTRA:          -4.383
REMARK INTER:                  -4.383
REMARK INTRA:                   0.000
REMARK UNBOUND:                 0.000
REMARK SMILES C=C1CCC[C@@]2(C)C=C3OC(=O)C(C)=C3C[C@@H]12
REMARK SMILES IDX 14 1 13 2 15 3 16 4 17 5 2 6 1 7 3 8 4 9 5 10 6 11 8 12 9 13
REMARK SMILES IDX 10 14 11 15 12 16 7 17
REMARK H PARENT
REMARK Flexibility Score: inf
ROOT
ATOM      1  C   UNL     1      35.063 -38.147  14.815  1.00  0.00     0.053 C 
ATOM      2  C   UNL     1      34.894 -39.067  13.648  1.00  0.00     0.041 C 
ATOM      3  C   UNL     1      34.239 -38.802  12.522  1.00  0.00     0.005 C 
ATOM      4  C   UNL     1      33.574 -37.537  12.094  1.00  0.00     0.049 C 
ATOM      5  C   UNL     1      32.563 -37.841  10.956  1.00  0.00     0.029 C 
ATOM      6  C   UNL     1      32.029 -36.543  10.377  1.00  0.00    -0.073 C 
ATOM      7  C   UNL     1      31.023 -35.897  10.986  1.00  0.00     0.008 C 
ATOM      8  C   UNL     1      32.605 -35.989   9.096  1.00  0.00     0.031 C 
ATOM      9  C   UNL     1      34.029 -36.496   8.858  1.00  0.00     0.005 C 
ATOM     10  C   UNL     1      34.171 -38.031   8.914  1.00  0.00     0.012 C 
ATOM     11  C   UNL     1      33.144 -38.779   9.827  1.00  0.00    -0.004 C 
ATOM     12  C   UNL     1      33.834 -40.002  10.427  1.00  0.00     0.027 C 
ATOM     13  C   UNL     1      34.352 -39.955  11.651  1.00  0.00     0.131 C 
ATOM     14  O   UNL     1      35.068 -40.963  12.279  1.00  0.00    -0.423 OA
ATOM     15  C   UNL     1      35.411 -40.431  13.516  1.00  0.00     0.339 C 
ATOM     16  O   UNL     1      36.078 -41.051  14.387  1.00  0.00    -0.246 OA
ATOM     17  C   UNL     1      31.973 -39.313   8.965  1.00  0.00     0.016 C 
ENDROOT
TORSDOF 0
ENDMDL
MODEL 6
REMARK VINA RESULT:    -4.356      5.274      7.431
REMARK INTER + INTRA:          -4.356
REMARK INTER:                  -4.356
REMARK INTRA:                   0.000
REMARK UNBOUND:                 0.000
REMARK SMILES C=C1CCC[C@@]2(C)C=C3OC(=O)C(C)=C3C[C@@H]12
REMARK SMILES IDX 14 1 13 2 15 3 16 4 17 5 2 6 1 7 3 8 4 9 5 10 6 11 8 12 9 13
REMARK SMILES IDX 10 14 11 15 12 16 7 17
REMARK H PARENT
REMARK Flexibility Score: inf
ROOT
ATOM      1  C   UNL     1      40.354 -38.148   2.529  1.00  0.00     0.053 C 
ATOM      2  C   UNL     1      39.138 -37.377   2.126  1.00  0.00     0.041 C 
ATOM      3  C   UNL     1      37.948 -37.411   2.719  1.00  0.00     0.005 C 
ATOM      4  C   UNL     1      37.529 -38.146   3.949  1.00  0.00     0.049 C 
ATOM      5  C   UNL     1      35.982 -38.264   3.980  1.00  0.00     0.029 C 
ATOM      6  C   UNL     1      35.534 -38.829   5.316  1.00  0.00    -0.073 C 
ATOM      7  C   UNL     1      35.556 -40.153   5.531  1.00  0.00     0.008 C 
ATOM      8  C   UNL     1      35.028 -37.906   6.400  1.00  0.00     0.031 C 
ATOM      9  C   UNL     1      35.571 -36.487   6.224  1.00  0.00     0.005 C 
ATOM     10  C   UNL     1      35.328 -35.886   4.823  1.00  0.00     0.012 C 
ATOM     11  C   UNL     1      35.236 -36.913   3.647  1.00  0.00    -0.004 C 
ATOM     12  C   UNL     1      35.813 -36.261   2.391  1.00  0.00     0.027 C 
ATOM     13  C   UNL     1      37.070 -36.490   2.026  1.00  0.00     0.131 C 
ATOM     14  O   UNL     1      37.735 -35.903   0.959  1.00  0.00    -0.423 OA
ATOM     15  C   UNL     1      39.016 -36.442   1.005  1.00  0.00     0.339 C 
ATOM     16  O   UNL     1      39.931 -36.148   0.191  1.00  0.00    -0.246 OA
ATOM     17  C   UNL     1      33.750 -37.222   3.339  1.00  0.00     0.016 C 
ENDROOT
TORSDOF 0
ENDMDL
MODEL 7
REMARK VINA RESULT:    -4.269      1.937      3.174
REMARK INTER + INTRA:          -4.269
REMARK INTER:                  -4.269
REMARK INTRA:                   0.000
REMARK UNBOUND:                 0.000
REMARK SMILES C=C1CCC[C@@]2(C)C=C3OC(=O)C(C)=C3C[C@@H]12
REMARK SMILES IDX 14 1 13 2 15 3 16 4 17 5 2 6 1 7 3 8 4 9 5 10 6 11 8 12 9 13
REMARK SMILES IDX 10 14 11 15 12 16 7 17
REMARK H PARENT
REMARK Flexibility Score: inf
ROOT
ATOM      1  C   UNL     1      35.280 -39.647   8.499  1.00  0.00     0.053 C 
ATOM      2  C   UNL     1      34.825 -38.976   9.755  1.00  0.00     0.041 C 
ATOM      3  C   UNL     1      34.737 -39.531  10.961  1.00  0.00     0.005 C 
ATOM      4  C   UNL     1      35.121 -40.906  11.395  1.00  0.00     0.049 C 
ATOM      5  C   UNL     1      34.413 -41.244  12.734  1.00  0.00     0.029 C 
ATOM      6  C   UNL     1      34.947 -42.553  13.286  1.00  0.00    -0.073 C 
ATOM      7  C   UNL     1      34.468 -43.722  12.834  1.00  0.00     0.008 C 
ATOM      8  C   UNL     1      35.997 -42.547  14.372  1.00  0.00     0.031 C 
ATOM      9  C   UNL     1      36.799 -41.244  14.367  1.00  0.00     0.005 C 
ATOM     10  C   UNL     1      35.932 -39.969  14.424  1.00  0.00     0.012 C 
ATOM     11  C   UNL     1      34.500 -40.088  13.806  1.00  0.00    -0.004 C 
ATOM     12  C   UNL     1      34.125 -38.739  13.194  1.00  0.00     0.027 C 
ATOM     13  C   UNL     1      34.284 -38.518  11.893  1.00  0.00     0.131 C 
ATOM     14  O   UNL     1      34.058 -37.321  11.230  1.00  0.00    -0.423 OA
ATOM     15  C   UNL     1      34.386 -37.587   9.906  1.00  0.00     0.339 C 
ATOM     16  O   UNL     1      34.315 -36.735   8.981  1.00  0.00    -0.246 OA
ATOM     17  C   UNL     1      33.469 -40.365  14.928  1.00  0.00     0.016 C 
ENDROOT
TORSDOF 0
ENDMDL
MODEL 8
REMARK VINA RESULT:    -4.152     12.420     14.512
REMARK INTER + INTRA:          -4.152
REMARK INTER:                  -4.152
REMARK INTRA:                   0.000
REMARK UNBOUND:                 0.000
REMARK SMILES C=C1CCC[C@@]2(C)C=C3OC(=O)C(C)=C3C[C@@H]12
REMARK SMILES IDX 14 1 13 2 15 3 16 4 17 5 2 6 1 7 3 8 4 9 5 10 6 11 8 12 9 13
REMARK SMILES IDX 10 14 11 15 12 16 7 17
REMARK H PARENT
REMARK Flexibility Score: inf
ROOT
ATOM      1  C   UNL     1      38.490 -36.558  -2.853  1.00  0.00     0.053 C 
ATOM      2  C   UNL     1      39.016 -37.916  -3.192  1.00  0.00     0.041 C 
ATOM      3  C   UNL     1      38.329 -39.055  -3.182  1.00  0.00     0.005 C 
ATOM      4  C   UNL     1      36.879 -39.278  -2.909  1.00  0.00     0.049 C 
ATOM      5  C   UNL     1      36.642 -40.768  -2.548  1.00  0.00     0.029 C 
ATOM      6  C   UNL     1      35.153 -41.050  -2.464  1.00  0.00    -0.073 C 
ATOM      7  C   UNL     1      34.473 -40.757  -1.345  1.00  0.00     0.008 C 
ATOM      8  C   UNL     1      34.435 -41.693  -3.627  1.00  0.00     0.031 C 
ATOM      9  C   UNL     1      35.175 -41.449  -4.944  1.00  0.00     0.005 C 
ATOM     10  C   UNL     1      36.664 -41.854  -4.917  1.00  0.00     0.012 C 
ATOM     11  C   UNL     1      37.366 -41.779  -3.521  1.00  0.00    -0.004 C 
ATOM     12  C   UNL     1      38.827 -41.386  -3.736  1.00  0.00     0.027 C 
ATOM     13  C   UNL     1      39.214 -40.121  -3.605  1.00  0.00     0.131 C 
ATOM     14  O   UNL     1      40.486 -39.623  -3.848  1.00  0.00    -0.423 OA
ATOM     15  C   UNL     1      40.382 -38.260  -3.596  1.00  0.00     0.339 C 
ATOM     16  O   UNL     1      41.339 -37.450  -3.711  1.00  0.00    -0.246 OA
ATOM     17  C   UNL     1      37.380 -43.183  -2.868  1.00  0.00     0.016 C 
ENDROOT
TORSDOF 0
ENDMDL
MODEL 9
REMARK VINA RESULT:    -4.105     13.344     15.021
REMARK INTER + INTRA:          -4.105
REMARK INTER:                  -4.105
REMARK INTRA:                   0.000
REMARK UNBOUND:                 0.000
REMARK SMILES C=C1CCC[C@@]2(C)C=C3OC(=O)C(C)=C3C[C@@H]12
REMARK SMILES IDX 14 1 13 2 15 3 16 4 17 5 2 6 1 7 3 8 4 9 5 10 6 11 8 12 9 13
REMARK SMILES IDX 10 14 11 15 12 16 7 17
REMARK H PARENT
REMARK Flexibility Score: inf
ROOT
ATOM      1  C   UNL     1      37.155 -41.670  -3.579  1.00  0.00     0.053 C 
ATOM      2  C   UNL     1      38.573 -41.353  -3.933  1.00  0.00     0.041 C 
ATOM      3  C   UNL     1      39.228 -40.232  -3.644  1.00  0.00     0.005 C 
ATOM      4  C   UNL     1      38.770 -39.050  -2.857  1.00  0.00     0.049 C 
ATOM      5  C   UNL     1      39.669 -37.828  -3.186  1.00  0.00     0.029 C 
ATOM      6  C   UNL     1      39.344 -36.679  -2.249  1.00  0.00    -0.073 C 
ATOM      7  C   UNL     1      38.300 -35.875  -2.504  1.00  0.00     0.008 C 
ATOM      8  C   UNL     1      40.212 -36.414  -1.041  1.00  0.00     0.031 C 
ATOM      9  C   UNL     1      40.958 -37.675  -0.602  1.00  0.00     0.005 C 
ATOM     10  C   UNL     1      41.764 -38.358  -1.728  1.00  0.00     0.012 C 
ATOM     11  C   UNL     1      41.213 -38.157  -3.179  1.00  0.00    -0.004 C 
ATOM     12  C   UNL     1      41.511 -39.420  -3.986  1.00  0.00     0.027 C 
ATOM     13  C   UNL     1      40.583 -40.358  -4.142  1.00  0.00     0.131 C 
ATOM     14  O   UNL     1      40.748 -41.579  -4.781  1.00  0.00    -0.423 OA
ATOM     15  C   UNL     1      39.514 -42.207  -4.662  1.00  0.00     0.339 C 
ATOM     16  O   UNL     1      39.263 -43.353  -5.119  1.00  0.00    -0.246 OA
ATOM     17  C   UNL     1      41.977 -37.002  -3.871  1.00  0.00     0.016 C 
ENDROOT
TORSDOF 0
ENDMDL
