MODEL 1
REMARK VINA RESULT:    -4.318      0.000      0.000
REMARK INTER + INTRA:          -6.346
REMARK INTER:                  -5.581
REMARK INTRA:                  -0.765
REMARK UNBOUND:                -0.765
REMARK SMILES CO[C@]1(CO)O[C@@H](CO)[C@@H](O)[C@H]1O
REMARK SMILES IDX 3 1 12 2 10 3 7 4 6 5 2 6 1 7 4 8 5 9 13 11 11 13 8 15 9 16
REMARK H PARENT 5 10 13 12 11 14 9 17
REMARK Flexibility Score: inf
ROOT
ATOM      1  C   UNL     1      57.430 -40.465  46.781  1.00  0.00     0.221 C 
ATOM      2  C   UNL     1      57.852 -40.963  45.370  1.00  0.00     0.207 C 
ATOM      3  C   UNL     1      59.365 -41.014  45.435  1.00  0.00     0.180 C 
ATOM      4  C   UNL     1      59.658 -40.016  46.551  1.00  0.00     0.179 C 
ATOM      5  O   UNL     1      58.615 -40.118  47.489  1.00  0.00    -0.337 OA
ENDROOT
BRANCH   1   6
ATOM      6  O   UNL     1      56.576 -39.335  46.604  1.00  0.00    -0.349 OA
ATOM      7  C   UNL     1      55.291 -39.681  46.126  1.00  0.00     0.198 C 
ENDBRANCH   1   6
BRANCH   1   8
ATOM      8  C   UNL     1      56.687 -41.555  47.590  1.00  0.00     0.224 C 
BRANCH   8   9
ATOM      9  O   UNL     1      57.538 -42.639  47.846  1.00  0.00    -0.391 OA
ATOM     10  H   UNL     1      56.974 -43.340  48.266  1.00  0.00     0.210 HD
ENDBRANCH   8   9
ENDBRANCH   1   8
BRANCH   2  11
ATOM     11  O   UNL     1      57.298 -42.211  45.025  1.00  0.00    -0.385 OA
ATOM     12  H   UNL     1      57.908 -42.614  44.353  1.00  0.00     0.211 HD
ENDBRANCH   2  11
BRANCH   3  13
ATOM     13  O   UNL     1      59.840 -42.310  45.727  1.00  0.00    -0.387 OA
ATOM     14  H   UNL     1      60.250 -42.684  44.905  1.00  0.00     0.211 HD
ENDBRANCH   3  13
BRANCH   4  15
ATOM     15  C   UNL     1      61.015 -40.216  47.240  1.00  0.00     0.191 C 
BRANCH  15  16
ATOM     16  O   UNL     1      61.023 -41.407  47.980  1.00  0.00    -0.394 OA
ATOM     17  H   UNL     1      60.633 -42.110  47.399  1.00  0.00     0.210 HD
ENDBRANCH  15  16
ENDBRANCH   4  15
TORSDOF 7
ENDMDL
MODEL 2
REMARK VINA RESULT:    -4.143      1.573      2.355
REMARK INTER + INTRA:          -6.119
REMARK INTER:                  -5.363
REMARK INTRA:                  -0.757
REMARK UNBOUND:                -0.765
REMARK SMILES CO[C@]1(CO)O[C@@H](CO)[C@@H](O)[C@H]1O
REMARK SMILES IDX 3 1 12 2 10 3 7 4 6 5 2 6 1 7 4 8 5 9 13 11 11 13 8 15 9 16
REMARK H PARENT 5 10 13 12 11 14 9 17
REMARK Flexibility Score: inf
ROOT
ATOM      1  C   UNL     1      56.846 -40.022  47.841  1.00  0.00     0.221 C 
ATOM      2  C   UNL     1      56.272 -39.926  46.400  1.00  0.00     0.207 C 
ATOM      3  C   UNL     1      57.245 -40.730  45.562  1.00  0.00     0.180 C 
ATOM      4  C   UNL     1      58.508 -40.668  46.414  1.00  0.00     0.179 C 
ATOM      5  O   UNL     1      58.106 -40.679  47.762  1.00  0.00    -0.337 OA
ENDROOT
BRANCH   1   6
ATOM      6  O   UNL     1      56.978 -38.692  48.344  1.00  0.00    -0.349 OA
ATOM      7  C   UNL     1      55.806 -38.220  48.978  1.00  0.00     0.198 C 
ENDBRANCH   1   6
BRANCH   1   8
ATOM      8  C   UNL     1      55.932 -40.844  48.783  1.00  0.00     0.224 C 
BRANCH   8   9
ATOM      9  O   UNL     1      55.881 -42.182  48.368  1.00  0.00    -0.391 OA
ATOM     10  H   UNL     1      56.130 -42.727  49.160  1.00  0.00     0.210 HD
ENDBRANCH   8   9
ENDBRANCH   1   8
BRANCH   2  11
ATOM     11  O   UNL     1      54.954 -40.409  46.285  1.00  0.00    -0.385 OA
ATOM     12  H   UNL     1      54.768 -40.495  45.313  1.00  0.00     0.211 HD
ENDBRANCH   2  11
BRANCH   3  13
ATOM     13  O   UNL     1      56.798 -42.051  45.351  1.00  0.00    -0.387 OA
ATOM     14  H   UNL     1      56.545 -42.439  46.228  1.00  0.00     0.211 HD
ENDBRANCH   3  13
BRANCH   4  15
ATOM     15  C   UNL     1      59.509 -41.800  46.149  1.00  0.00     0.191 C 
BRANCH  15  16
ATOM     16  O   UNL     1      59.457 -42.202  44.806  1.00  0.00    -0.394 OA
ATOM     17  H   UNL     1      59.669 -41.403  44.258  1.00  0.00     0.210 HD
ENDBRANCH  15  16
ENDBRANCH   4  15
TORSDOF 7
ENDMDL
MODEL 3
REMARK VINA RESULT:    -4.041     11.988     13.222
REMARK INTER + INTRA:          -5.988
REMARK INTER:                  -5.237
REMARK INTRA:                  -0.750
REMARK UNBOUND:                -0.765
REMARK SMILES CO[C@]1(CO)O[C@@H](CO)[C@@H](O)[C@H]1O
REMARK SMILES IDX 3 1 12 2 10 3 7 4 6 5 2 6 1 7 4 8 5 9 13 11 11 13 8 15 9 16
REMARK H PARENT 5 10 13 12 11 14 9 17
REMARK Flexibility Score: inf
ROOT
ATOM      1  C   UNL     1      58.538 -42.344  33.012  1.00  0.00     0.221 C 
ATOM      2  C   UNL     1      59.334 -43.035  34.155  1.00  0.00     0.207 C 
ATOM      3  C   UNL     1      60.412 -42.031  34.511  1.00  0.00     0.180 C 
ATOM      4  C   UNL     1      60.517 -41.223  33.222  1.00  0.00     0.179 C 
ATOM      5  O   UNL     1      59.226 -41.146  32.669  1.00  0.00    -0.337 OA
ENDROOT
BRANCH   1   6
ATOM      6  O   UNL     1      58.484 -43.252  31.912  1.00  0.00    -0.349 OA
ATOM      7  C   UNL     1      57.383 -44.136  31.976  1.00  0.00     0.198 C 
ENDBRANCH   1   6
BRANCH   1   8
ATOM      8  C   UNL     1      57.100 -41.967  33.444  1.00  0.00     0.224 C 
BRANCH   8   9
ATOM      9  O   UNL     1      57.130 -40.927  34.385  1.00  0.00    -0.391 OA
ATOM     10  H   UNL     1      57.525 -40.145  33.920  1.00  0.00     0.210 HD
ENDBRANCH   8   9
ENDBRANCH   1   8
BRANCH   2  11
ATOM     11  O   UNL     1      58.542 -43.374  35.269  1.00  0.00    -0.385 OA
ATOM     12  H   UNL     1      57.658 -43.651  34.912  1.00  0.00     0.211 HD
ENDBRANCH   2  11
BRANCH   3  13
ATOM     13  O   UNL     1      60.053 -41.239  35.621  1.00  0.00    -0.387 OA
ATOM     14  H   UNL     1      59.344 -41.714  36.128  1.00  0.00     0.211 HD
ENDBRANCH   3  13
BRANCH   4  15
ATOM     15  C   UNL     1      61.102 -39.815  33.402  1.00  0.00     0.191 C 
BRANCH  15  16
ATOM     16  O   UNL     1      62.034 -39.797  34.450  1.00  0.00    -0.394 OA
ATOM     17  H   UNL     1      61.923 -40.647  34.949  1.00  0.00     0.210 HD
ENDBRANCH  15  16
ENDBRANCH   4  15
TORSDOF 7
ENDMDL
MODEL 4
REMARK VINA RESULT:    -4.028      1.307      4.184
REMARK INTER + INTRA:          -5.971
REMARK INTER:                  -5.130
REMARK INTRA:                  -0.842
REMARK UNBOUND:                -0.765
REMARK SMILES CO[C@]1(CO)O[C@@H](CO)[C@@H](O)[C@H]1O
REMARK SMILES IDX 3 1 12 2 10 3 7 4 6 5 2 6 1 7 4 8 5 9 13 11 11 13 8 15 9 16
REMARK H PARENT 5 10 13 12 11 14 9 17
REMARK Flexibility Score: inf
ROOT
ATOM      1  C   UNL     1      57.861 -40.479  46.850  1.00  0.00     0.221 C 
ATOM      2  C   UNL     1      57.126 -41.225  48.000  1.00  0.00     0.207 C 
ATOM      3  C   UNL     1      55.724 -40.652  47.973  1.00  0.00     0.180 C 
ATOM      4  C   UNL     1      55.956 -39.302  47.303  1.00  0.00     0.179 C 
ATOM      5  O   UNL     1      56.982 -39.474  46.356  1.00  0.00    -0.337 OA
ENDROOT
BRANCH   1   6
ATOM      6  O   UNL     1      59.053 -39.912  47.394  1.00  0.00    -0.349 OA
ATOM      7  C   UNL     1      60.182 -40.749  47.247  1.00  0.00     0.198 C 
ENDBRANCH   1   6
BRANCH   1   8
ATOM      8  C   UNL     1      58.224 -41.422  45.677  1.00  0.00     0.224 C 
BRANCH   8   9
ATOM      9  O   UNL     1      57.063 -41.847  45.016  1.00  0.00    -0.391 OA
ATOM     10  H   UNL     1      57.142 -41.521  44.082  1.00  0.00     0.210 HD
ENDBRANCH   8   9
ENDBRANCH   1   8
BRANCH   2  11
ATOM     11  O   UNL     1      57.126 -42.625  47.853  1.00  0.00    -0.385 OA
ATOM     12  H   UNL     1      58.028 -42.938  48.128  1.00  0.00     0.211 HD
ENDBRANCH   2  11
BRANCH   3  13
ATOM     13  O   UNL     1      54.831 -41.470  47.250  1.00  0.00    -0.387 OA
ATOM     14  H   UNL     1      54.160 -41.835  47.883  1.00  0.00     0.211 HD
ENDBRANCH   3  13
BRANCH   4  15
ATOM     15  C   UNL     1      54.712 -38.702  46.635  1.00  0.00     0.191 C 
BRANCH  15  16
ATOM     16  O   UNL     1      54.500 -39.279  45.375  1.00  0.00    -0.394 OA
ATOM     17  H   UNL     1      54.654 -40.254  45.475  1.00  0.00     0.210 HD
ENDBRANCH  15  16
ENDBRANCH   4  15
TORSDOF 7
ENDMDL
MODEL 5
REMARK VINA RESULT:    -3.997      1.511      3.938
REMARK INTER + INTRA:          -5.930
REMARK INTER:                  -5.240
REMARK INTRA:                  -0.690
REMARK UNBOUND:                -0.765
REMARK SMILES CO[C@]1(CO)O[C@@H](CO)[C@@H](O)[C@H]1O
REMARK SMILES IDX 3 1 12 2 10 3 7 4 6 5 2 6 1 7 4 8 5 9 13 11 11 13 8 15 9 16
REMARK H PARENT 5 10 13 12 11 14 9 17
REMARK Flexibility Score: inf
ROOT
ATOM      1  C   UNL     1      59.720 -40.945  46.936  1.00  0.00     0.221 C 
ATOM      2  C   UNL     1      59.181 -41.966  45.895  1.00  0.00     0.207 C 
ATOM      3  C   UNL     1      57.707 -42.085  46.227  1.00  0.00     0.180 C 
ATOM      4  C   UNL     1      57.686 -41.660  47.691  1.00  0.00     0.179 C 
ATOM      5  O   UNL     1      58.668 -40.666  47.853  1.00  0.00    -0.337 OA
ENDROOT
BRANCH   1   6
ATOM      6  O   UNL     1      60.840 -41.544  47.590  1.00  0.00    -0.349 OA
ATOM      7  C   UNL     1      61.850 -40.612  47.923  1.00  0.00     0.198 C 
ENDBRANCH   1   6
BRANCH   1   8
ATOM      8  C   UNL     1      60.155 -39.612  46.280  1.00  0.00     0.224 C 
BRANCH   8   9
ATOM      9  O   UNL     1      59.031 -38.878  45.874  1.00  0.00    -0.391 OA
ATOM     10  H   UNL     1      58.288 -39.159  46.469  1.00  0.00     0.210 HD
ENDBRANCH   8   9
ENDBRANCH   1   8
BRANCH   2  11
ATOM     11  O   UNL     1      59.390 -41.572  44.560  1.00  0.00    -0.385 OA
ATOM     12  H   UNL     1      58.503 -41.307  44.201  1.00  0.00     0.211 HD
ENDBRANCH   2  11
BRANCH   3  13
ATOM     13  O   UNL     1      56.911 -41.256  45.409  1.00  0.00    -0.387 OA
ATOM     14  H   UNL     1      56.567 -40.509  45.963  1.00  0.00     0.211 HD
ENDBRANCH   3  13
BRANCH   4  15
ATOM     15  C   UNL     1      56.326 -41.149  48.184  1.00  0.00     0.191 C 
BRANCH  15  16
ATOM     16  O   UNL     1      55.350 -42.149  48.069  1.00  0.00    -0.394 OA
ATOM     17  H   UNL     1      54.819 -41.942  47.257  1.00  0.00     0.210 HD
ENDBRANCH  15  16
ENDBRANCH   4  15
TORSDOF 7
ENDMDL
MODEL 6
REMARK VINA RESULT:    -3.881     11.444     13.058
REMARK INTER + INTRA:          -5.780
REMARK INTER:                  -5.265
REMARK INTRA:                  -0.516
REMARK UNBOUND:                -0.765
REMARK SMILES CO[C@]1(CO)O[C@@H](CO)[C@@H](O)[C@H]1O
REMARK SMILES IDX 3 1 12 2 10 3 7 4 6 5 2 6 1 7 4 8 5 9 13 11 11 13 8 15 9 16
REMARK H PARENT 5 10 13 12 11 14 9 17
REMARK Flexibility Score: inf
ROOT
ATOM      1  C   UNL     1      60.647 -40.624  34.316  1.00  0.00     0.221 C 
ATOM      2  C   UNL     1      59.222 -40.126  34.688  1.00  0.00     0.207 C 
ATOM      3  C   UNL     1      58.299 -41.147  34.055  1.00  0.00     0.180 C 
ATOM      4  C   UNL     1      59.179 -41.709  32.943  1.00  0.00     0.179 C 
ATOM      5  O   UNL     1      60.501 -41.721  33.422  1.00  0.00    -0.337 OA
ENDROOT
BRANCH   1   6
ATOM      6  O   UNL     1      61.339 -39.535  33.703  1.00  0.00    -0.349 OA
ATOM      7  C   UNL     1      62.188 -39.942  32.648  1.00  0.00     0.198 C 
ENDBRANCH   1   6
BRANCH   1   8
ATOM      8  C   UNL     1      61.440 -41.111  35.553  1.00  0.00     0.224 C 
BRANCH   8   9
ATOM      9  O   UNL     1      62.026 -40.024  36.217  1.00  0.00    -0.391 OA
ATOM     10  H   UNL     1      62.745 -39.691  35.619  1.00  0.00     0.210 HD
ENDBRANCH   8   9
ENDBRANCH   1   8
BRANCH   2  11
ATOM     11  O   UNL     1      59.009 -40.013  36.076  1.00  0.00    -0.385 OA
ATOM     12  H   UNL     1      59.760 -40.490  36.517  1.00  0.00     0.211 HD
ENDBRANCH   2  11
BRANCH   3  13
ATOM     13  O   UNL     1      57.889 -42.134  34.975  1.00  0.00    -0.387 OA
ATOM     14  H   UNL     1      58.625 -42.280  35.624  1.00  0.00     0.211 HD
ENDBRANCH   3  13
BRANCH   4  15
ATOM     15  C   UNL     1      58.775 -43.109  32.461  1.00  0.00     0.191 C 
BRANCH  15  16
ATOM     16  O   UNL     1      59.194 -44.086  33.375  1.00  0.00    -0.394 OA
ATOM     17  H   UNL     1      59.188 -44.953  32.892  1.00  0.00     0.210 HD
ENDBRANCH  15  16
ENDBRANCH   4  15
TORSDOF 7
ENDMDL
MODEL 7
REMARK VINA RESULT:    -3.745      1.505      3.801
REMARK INTER + INTRA:          -5.605
REMARK INTER:                  -5.094
REMARK INTRA:                  -0.511
REMARK UNBOUND:                -0.765
REMARK SMILES CO[C@]1(CO)O[C@@H](CO)[C@@H](O)[C@H]1O
REMARK SMILES IDX 3 1 12 2 10 3 7 4 6 5 2 6 1 7 4 8 5 9 13 11 11 13 8 15 9 16
REMARK H PARENT 5 10 13 12 11 14 9 17
REMARK Flexibility Score: inf
ROOT
ATOM      1  C   UNL     1      58.557 -41.395  46.747  1.00  0.00     0.221 C 
ATOM      2  C   UNL     1      57.233 -41.974  46.172  1.00  0.00     0.207 C 
ATOM      3  C   UNL     1      56.159 -41.070  46.742  1.00  0.00     0.180 C 
ATOM      4  C   UNL     1      56.849 -40.517  47.984  1.00  0.00     0.179 C 
ATOM      5  O   UNL     1      58.214 -40.373  47.677  1.00  0.00    -0.337 OA
ENDROOT
BRANCH   1   6
ATOM      6  O   UNL     1      59.259 -42.466  47.380  1.00  0.00    -0.349 OA
ATOM      7  C   UNL     1      60.662 -42.291  47.370  1.00  0.00     0.198 C 
ENDBRANCH   1   6
BRANCH   1   8
ATOM      8  C   UNL     1      59.449 -40.768  45.648  1.00  0.00     0.224 C 
BRANCH   8   9
ATOM      9  O   UNL     1      59.429 -39.369  45.742  1.00  0.00    -0.391 OA
ATOM     10  H   UNL     1      59.575 -39.155  46.700  1.00  0.00     0.210 HD
ENDBRANCH   8   9
ENDBRANCH   1   8
BRANCH   2  11
ATOM     11  O   UNL     1      57.198 -42.011  44.765  1.00  0.00    -0.385 OA
ATOM     12  H   UNL     1      56.733 -42.852  44.516  1.00  0.00     0.211 HD
ENDBRANCH   2  11
BRANCH   3  13
ATOM     13  O   UNL     1      55.782 -40.058  45.835  1.00  0.00    -0.387 OA
ATOM     14  H   UNL     1      56.597 -39.558  45.569  1.00  0.00     0.211 HD
ENDBRANCH   3  13
BRANCH   4  15
ATOM     15  C   UNL     1      56.275 -39.187  48.490  1.00  0.00     0.191 C 
BRANCH  15  16
ATOM     16  O   UNL     1      56.777 -38.114  47.739  1.00  0.00    -0.394 OA
ATOM     17  H   UNL     1      56.046 -37.817  47.137  1.00  0.00     0.210 HD
ENDBRANCH  15  16
ENDBRANCH   4  15
TORSDOF 7
ENDMDL
MODEL 8
REMARK VINA RESULT:    -3.730     11.275     12.854
REMARK INTER + INTRA:          -5.586
REMARK INTER:                  -4.874
REMARK INTRA:                  -0.712
REMARK UNBOUND:                -0.765
REMARK SMILES CO[C@]1(CO)O[C@@H](CO)[C@@H](O)[C@H]1O
REMARK SMILES IDX 3 1 12 2 10 3 7 4 6 5 2 6 1 7 4 8 5 9 13 11 11 13 8 15 9 16
REMARK H PARENT 5 10 13 12 11 14 9 17
REMARK Flexibility Score: inf
ROOT
ATOM      1  C   UNL     1      59.604 -41.504  33.738  1.00  0.00     0.221 C 
ATOM      2  C   UNL     1      60.083 -40.477  34.803  1.00  0.00     0.207 C 
ATOM      3  C   UNL     1      58.862 -39.616  35.058  1.00  0.00     0.180 C 
ATOM      4  C   UNL     1      58.077 -39.805  33.765  1.00  0.00     0.179 C 
ATOM      5  O   UNL     1      58.293 -41.126  33.332  1.00  0.00    -0.337 OA
ENDROOT
BRANCH   1   6
ATOM      6  O   UNL     1      60.524 -41.457  32.647  1.00  0.00    -0.349 OA
ATOM      7  C   UNL     1      61.614 -40.587  32.878  1.00  0.00     0.198 C 
ENDBRANCH   1   6
BRANCH   1   8
ATOM      8  C   UNL     1      59.539 -42.945  34.299  1.00  0.00     0.224 C 
BRANCH   8   9
ATOM      9  O   UNL     1      58.481 -43.066  35.211  1.00  0.00    -0.391 OA
ATOM     10  H   UNL     1      58.866 -43.479  36.027  1.00  0.00     0.210 HD
ENDBRANCH   8   9
ENDBRANCH   1   8
BRANCH   2  11
ATOM     11  O   UNL     1      60.563 -41.074  35.984  1.00  0.00    -0.385 OA
ATOM     12  H   UNL     1      60.011 -40.714  36.727  1.00  0.00     0.211 HD
ENDBRANCH   2  11
BRANCH   3  13
ATOM     13  O   UNL     1      58.145 -40.039  36.197  1.00  0.00    -0.387 OA
ATOM     14  H   UNL     1      57.186 -40.114  35.951  1.00  0.00     0.211 HD
ENDBRANCH   3  13
BRANCH   4  15
ATOM     15  C   UNL     1      56.573 -39.527  33.890  1.00  0.00     0.191 C 
BRANCH  15  16
ATOM     16  O   UNL     1      56.344 -38.384  34.669  1.00  0.00    -0.394 OA
ATOM     17  H   UNL     1      56.736 -37.616  34.177  1.00  0.00     0.210 HD
ENDBRANCH  15  16
ENDBRANCH   4  15
TORSDOF 7
ENDMDL
MODEL 9
REMARK VINA RESULT:    -3.678     11.111     12.337
REMARK INTER + INTRA:          -5.518
REMARK INTER:                  -4.694
REMARK INTRA:                  -0.824
REMARK UNBOUND:                -0.765
REMARK SMILES CO[C@]1(CO)O[C@@H](CO)[C@@H](O)[C@H]1O
REMARK SMILES IDX 3 1 12 2 10 3 7 4 6 5 2 6 1 7 4 8 5 9 13 11 11 13 8 15 9 16
REMARK H PARENT 5 10 13 12 11 14 9 17
REMARK Flexibility Score: inf
ROOT
ATOM      1  C   UNL     1      59.315 -39.803  33.772  1.00  0.00     0.221 C 
ATOM      2  C   UNL     1      59.486 -41.265  33.273  1.00  0.00     0.207 C 
ATOM      3  C   UNL     1      60.400 -41.900  34.303  1.00  0.00     0.180 C 
ATOM      4  C   UNL     1      61.113 -40.680  34.874  1.00  0.00     0.179 C 
ATOM      5  O   UNL     1      60.190 -39.618  34.879  1.00  0.00    -0.337 OA
ENDROOT
BRANCH   1   6
ATOM      6  O   UNL     1      59.649 -38.934  32.689  1.00  0.00    -0.349 OA
ATOM      7  C   UNL     1      59.841 -37.593  33.093  1.00  0.00     0.198 C 
ENDBRANCH   1   6
BRANCH   1   8
ATOM      8  C   UNL     1      57.870 -39.510  34.245  1.00  0.00     0.224 C 
BRANCH   8   9
ATOM      9  O   UNL     1      57.596 -40.202  35.434  1.00  0.00    -0.391 OA
ATOM     10  H   UNL     1      58.445 -40.643  35.698  1.00  0.00     0.210 HD
ENDBRANCH   8   9
ENDBRANCH   1   8
BRANCH   2  11
ATOM     11  O   UNL     1      58.270 -41.963  33.146  1.00  0.00    -0.385 OA
ATOM     12  H   UNL     1      58.492 -42.848  32.754  1.00  0.00     0.211 HD
ENDBRANCH   2  11
BRANCH   3  13
ATOM     13  O   UNL     1      59.678 -42.615  35.281  1.00  0.00    -0.387 OA
ATOM     14  H   UNL     1      59.187 -41.964  35.845  1.00  0.00     0.211 HD
ENDBRANCH   3  13
BRANCH   4  15
ATOM     15  C   UNL     1      61.694 -40.885  36.280  1.00  0.00     0.191 C 
BRANCH  15  16
ATOM     16  O   UNL     1      60.704 -40.700  37.256  1.00  0.00    -0.394 OA
ATOM     17  H   UNL     1      60.617 -41.558  37.745  1.00  0.00     0.210 HD
ENDBRANCH  15  16
ENDBRANCH   4  15
TORSDOF 7
ENDMDL
