MODEL 1
REMARK VINA RESULT:    -3.713      0.000      0.000
REMARK INTER + INTRA:          -3.822
REMARK INTER:                  -3.822
REMARK INTRA:                   0.000
REMARK UNBOUND:                 0.000
REMARK SMILES CC1(C)[C@@H]2CC[C@@](C)(C2)[C@H]1O
REMARK SMILES IDX 1 1 2 2 4 3 5 4 6 5 7 6 9 7 10 8 8 9 3 10 11 11
REMARK H PARENT 11 12
REMARK Flexibility Score: inf
ROOT
ATOM      1  C   UNL     1     118.605 115.771 118.979  1.00  0.00     0.014 C 
ATOM      2  C   UNL     1     117.610 114.962 119.848  1.00  0.00    -0.006 C 
ATOM      3  C   UNL     1     116.111 115.175 119.440  1.00  0.00    -0.002 C 
ATOM      4  C   UNL     1     115.772 116.675 119.302  1.00  0.00     0.005 C 
ATOM      5  C   UNL     1     115.843 117.177 120.754  1.00  0.00     0.010 C 
ATOM      6  C   UNL     1     116.121 115.880 121.552  1.00  0.00    -0.006 C 
ATOM      7  C   UNL     1     115.368 114.857 120.727  1.00  0.00     0.013 C 
ATOM      8  C   UNL     1     117.610 115.474 121.330  1.00  0.00     0.126 C 
ATOM      9  C   UNL     1     115.677 115.971 123.017  1.00  0.00     0.014 C 
ATOM     10  C   UNL     1     117.988 113.465 119.701  1.00  0.00     0.014 C 
ENDROOT
BRANCH   8  11
ATOM     11  O   UNL     1     118.074 114.515 122.255  1.00  0.00    -0.392 OA
ATOM     12  H   UNL     1     118.141 113.637 121.804  1.00  0.00     0.211 HD
ENDBRANCH   8  11
TORSDOF 1
ENDMDL
MODEL 2
REMARK VINA RESULT:    -3.689      1.206      3.367
REMARK INTER + INTRA:          -3.797
REMARK INTER:                  -3.797
REMARK INTRA:                   0.000
REMARK UNBOUND:                 0.000
REMARK SMILES CC1(C)[C@@H]2CC[C@@](C)(C2)[C@H]1O
REMARK SMILES IDX 1 1 2 2 4 3 5 4 6 5 7 6 9 7 10 8 8 9 3 10 11 11
REMARK H PARENT 11 12
REMARK Flexibility Score: inf
ROOT
ATOM      1  C   UNL     1     115.131 115.100 123.125  1.00  0.00     0.014 C 
ATOM      2  C   UNL     1     115.751 116.191 122.215  1.00  0.00    -0.006 C 
ATOM      3  C   UNL     1     115.167 116.193 120.760  1.00  0.00    -0.002 C 
ATOM      4  C   UNL     1     115.162 114.775 120.151  1.00  0.00     0.005 C 
ATOM      5  C   UNL     1     116.659 114.480 119.956  1.00  0.00     0.010 C 
ATOM      6  C   UNL     1     117.328 115.807 120.390  1.00  0.00    -0.006 C 
ATOM      7  C   UNL     1     116.290 116.820 119.952  1.00  0.00     0.013 C 
ATOM      8  C   UNL     1     117.269 115.904 121.945  1.00  0.00     0.126 C 
ATOM      9  C   UNL     1     118.717 116.008 119.772  1.00  0.00     0.014 C 
ATOM     10  C   UNL     1     115.481 117.559 122.893  1.00  0.00     0.014 C 
ENDROOT
BRANCH   8  11
ATOM     11  O   UNL     1     118.129 116.886 122.479  1.00  0.00    -0.392 OA
ATOM     12  H   UNL     1     117.607 117.707 122.665  1.00  0.00     0.211 HD
ENDBRANCH   8  11
TORSDOF 1
ENDMDL
MODEL 3
REMARK VINA RESULT:    -3.675      2.188      3.612
REMARK INTER + INTRA:          -3.783
REMARK INTER:                  -3.783
REMARK INTRA:                   0.000
REMARK UNBOUND:                 0.000
REMARK SMILES CC1(C)[C@@H]2CC[C@@](C)(C2)[C@H]1O
REMARK SMILES IDX 1 1 2 2 4 3 5 4 6 5 7 6 9 7 10 8 8 9 3 10 11 11
REMARK H PARENT 11 12
REMARK Flexibility Score: inf
ROOT
ATOM      1  C   UNL     1     114.547 116.351 119.588  1.00  0.00     0.014 C 
ATOM      2  C   UNL     1     115.439 117.525 120.065  1.00  0.00    -0.006 C 
ATOM      3  C   UNL     1     116.918 117.431 119.550  1.00  0.00    -0.002 C 
ATOM      4  C   UNL     1     117.513 116.028 119.797  1.00  0.00     0.005 C 
ATOM      5  C   UNL     1     117.643 115.975 121.328  1.00  0.00     0.010 C 
ATOM      6  C   UNL     1     117.194 117.393 121.759  1.00  0.00    -0.006 C 
ATOM      7  C   UNL     1     117.684 118.227 120.594  1.00  0.00     0.013 C 
ATOM      8  C   UNL     1     115.644 117.482 121.619  1.00  0.00     0.126 C 
ATOM      9  C   UNL     1     117.755 117.810 123.124  1.00  0.00     0.014 C 
ATOM     10  C   UNL     1     114.785 118.834 119.552  1.00  0.00     0.014 C 
ENDROOT
BRANCH   8  11
ATOM     11  O   UNL     1     115.082 118.590 122.289  1.00  0.00    -0.392 OA
ATOM     12  H   UNL     1     115.341 118.554 123.245  1.00  0.00     0.211 HD
ENDBRANCH   8  11
TORSDOF 1
ENDMDL
MODEL 4
REMARK VINA RESULT:    -3.667      1.439      3.243
REMARK INTER + INTRA:          -3.774
REMARK INTER:                  -3.774
REMARK INTRA:                   0.000
REMARK UNBOUND:                 0.000
REMARK SMILES CC1(C)[C@@H]2CC[C@@](C)(C2)[C@H]1O
REMARK SMILES IDX 1 1 2 2 4 3 5 4 6 5 7 6 9 7 10 8 8 9 3 10 11 11
REMARK H PARENT 11 12
REMARK Flexibility Score: inf
ROOT
ATOM      1  C   UNL     1     115.155 117.886 123.125  1.00  0.00     0.014 C 
ATOM      2  C   UNL     1     116.270 117.351 122.192  1.00  0.00    -0.006 C 
ATOM      3  C   UNL     1     116.188 117.921 120.733  1.00  0.00    -0.002 C 
ATOM      4  C   UNL     1     114.760 117.804 120.161  1.00  0.00     0.005 C 
ATOM      5  C   UNL     1     114.585 116.287 119.982  1.00  0.00     0.010 C 
ATOM      6  C   UNL     1     115.972 115.733 120.386  1.00  0.00    -0.006 C 
ATOM      7  C   UNL     1     116.885 116.846 119.917  1.00  0.00     0.013 C 
ATOM      8  C   UNL     1     116.102 115.812 121.938  1.00  0.00     0.126 C 
ATOM      9  C   UNL     1     116.272 114.359 119.772  1.00  0.00     0.014 C 
ATOM     10  C   UNL     1     117.628 117.738 122.833  1.00  0.00     0.014 C 
ENDROOT
BRANCH   8  11
ATOM     11  O   UNL     1     117.166 115.040 122.453  1.00  0.00    -0.392 OA
ATOM     12  H   UNL     1     117.938 115.633 122.631  1.00  0.00     0.211 HD
ENDBRANCH   8  11
TORSDOF 1
ENDMDL
MODEL 5
REMARK VINA RESULT:    -3.644      1.936      2.707
REMARK INTER + INTRA:          -3.751
REMARK INTER:                  -3.751
REMARK INTRA:                   0.000
REMARK UNBOUND:                 0.000
REMARK SMILES CC1(C)[C@@H]2CC[C@@](C)(C2)[C@H]1O
REMARK SMILES IDX 1 1 2 2 4 3 5 4 6 5 7 6 9 7 10 8 8 9 3 10 11 11
REMARK H PARENT 11 12
REMARK Flexibility Score: inf
ROOT
ATOM      1  C   UNL     1     117.430 118.511 118.877  1.00  0.00     0.014 C 
ATOM      2  C   UNL     1     118.215 117.623 119.875  1.00  0.00    -0.006 C 
ATOM      3  C   UNL     1     118.082 116.088 119.581  1.00  0.00    -0.002 C 
ATOM      4  C   UNL     1     116.608 115.678 119.378  1.00  0.00     0.005 C 
ATOM      5  C   UNL     1     116.008 115.846 120.784  1.00  0.00     0.010 C 
ATOM      6  C   UNL     1     117.239 116.239 121.636  1.00  0.00    -0.006 C 
ATOM      7  C   UNL     1     118.340 115.465 120.942  1.00  0.00     0.013 C 
ATOM      8  C   UNL     1     117.606 117.721 121.317  1.00  0.00     0.126 C 
ATOM      9  C   UNL     1     117.068 115.912 123.124  1.00  0.00     0.014 C 
ATOM     10  C   UNL     1     119.704 118.047 119.791  1.00  0.00     0.014 C 
ENDROOT
BRANCH   8  11
ATOM     11  O   UNL     1     118.485 118.297 122.259  1.00  0.00    -0.392 OA
ATOM     12  H   UNL     1     118.075 118.242 123.159  1.00  0.00     0.211 HD
ENDBRANCH   8  11
TORSDOF 1
ENDMDL
MODEL 6
REMARK VINA RESULT:    -3.613      1.524      2.252
REMARK INTER + INTRA:          -3.719
REMARK INTER:                  -3.719
REMARK INTRA:                   0.000
REMARK UNBOUND:                 0.000
REMARK SMILES CC1(C)[C@@H]2CC[C@@](C)(C2)[C@H]1O
REMARK SMILES IDX 1 1 2 2 4 3 5 4 6 5 7 6 9 7 10 8 8 9 3 10 11 11
REMARK H PARENT 11 12
REMARK Flexibility Score: inf
ROOT
ATOM      1  C   UNL     1     116.916 114.315 119.600  1.00  0.00     0.014 C 
ATOM      2  C   UNL     1     116.226 115.313 120.563  1.00  0.00    -0.006 C 
ATOM      3  C   UNL     1     116.096 116.760 119.972  1.00  0.00    -0.002 C 
ATOM      4  C   UNL     1     117.437 117.253 119.388  1.00  0.00     0.005 C 
ATOM      5  C   UNL     1     118.311 117.434 120.640  1.00  0.00     0.010 C 
ATOM      6  C   UNL     1     117.329 117.113 121.793  1.00  0.00    -0.006 C 
ATOM      7  C   UNL     1     116.023 117.623 121.221  1.00  0.00     0.013 C 
ATOM      8  C   UNL     1     117.107 115.570 121.835  1.00  0.00     0.126 C 
ATOM      9  C   UNL     1     117.737 117.754 123.125  1.00  0.00     0.014 C 
ATOM     10  C   UNL     1     114.818 114.745 120.878  1.00  0.00     0.014 C 
ENDROOT
BRANCH   8  11
ATOM     11  O   UNL     1     116.508 115.122 123.032  1.00  0.00    -0.392 OA
ATOM     12  H   UNL     1     115.581 115.466 123.078  1.00  0.00     0.211 HD
ENDBRANCH   8  11
TORSDOF 1
ENDMDL
MODEL 7
REMARK VINA RESULT:    -3.609      2.029      3.370
REMARK INTER + INTRA:          -3.714
REMARK INTER:                  -3.714
REMARK INTRA:                   0.000
REMARK UNBOUND:                 0.000
REMARK SMILES CC1(C)[C@@H]2CC[C@@](C)(C2)[C@H]1O
REMARK SMILES IDX 1 1 2 2 4 3 5 4 6 5 7 6 9 7 10 8 8 9 3 10 11 11
REMARK H PARENT 11 12
REMARK Flexibility Score: inf
ROOT
ATOM      1  C   UNL     1     117.804 117.765 121.239  1.00  0.00     0.014 C 
ATOM      2  C   UNL     1     116.498 117.068 121.697  1.00  0.00    -0.006 C 
ATOM      3  C   UNL     1     116.600 115.503 121.711  1.00  0.00    -0.002 C 
ATOM      4  C   UNL     1     117.186 114.964 120.389  1.00  0.00     0.005 C 
ATOM      5  C   UNL     1     116.071 115.260 119.373  1.00  0.00     0.010 C 
ATOM      6  C   UNL     1     114.946 115.846 120.261  1.00  0.00    -0.006 C 
ATOM      7  C   UNL     1     115.151 115.075 121.548  1.00  0.00     0.013 C 
ATOM      8  C   UNL     1     115.343 117.300 120.663  1.00  0.00     0.126 C 
ATOM      9  C   UNL     1     113.552 115.695 119.640  1.00  0.00     0.014 C 
ATOM     10  C   UNL     1     116.180 117.588 123.123  1.00  0.00     0.014 C 
ENDROOT
BRANCH   8  11
ATOM     11  O   UNL     1     114.267 118.052 121.183  1.00  0.00    -0.392 OA
ATOM     12  H   UNL     1     113.935 118.667 120.481  1.00  0.00     0.211 HD
ENDBRANCH   8  11
TORSDOF 1
ENDMDL
MODEL 8
REMARK VINA RESULT:    -3.608      1.903      3.021
REMARK INTER + INTRA:          -3.714
REMARK INTER:                  -3.714
REMARK INTRA:                   0.000
REMARK UNBOUND:                 0.000
REMARK SMILES CC1(C)[C@@H]2CC[C@@](C)(C2)[C@H]1O
REMARK SMILES IDX 1 1 2 2 4 3 5 4 6 5 7 6 9 7 10 8 8 9 3 10 11 11
REMARK H PARENT 11 12
REMARK Flexibility Score: inf
ROOT
ATOM      1  C   UNL     1     114.758 117.959 118.834  1.00  0.00     0.014 C 
ATOM      2  C   UNL     1     115.816 117.535 119.884  1.00  0.00    -0.006 C 
ATOM      3  C   UNL     1     116.418 116.111 119.622  1.00  0.00    -0.002 C 
ATOM      4  C   UNL     1     115.309 115.067 119.370  1.00  0.00     0.005 C 
ATOM      5  C   UNL     1     114.634 114.944 120.746  1.00  0.00     0.010 C 
ATOM      6  C   UNL     1     115.505 115.863 121.637  1.00  0.00    -0.006 C 
ATOM      7  C   UNL     1     116.870 115.681 121.007  1.00  0.00     0.013 C 
ATOM      8  C   UNL     1     115.163 117.346 121.297  1.00  0.00     0.126 C 
ATOM      9  C   UNL     1     115.433 115.498 123.125  1.00  0.00     0.014 C 
ATOM     10  C   UNL     1     116.945 118.598 119.849  1.00  0.00     0.014 C 
ENDROOT
BRANCH   8  11
ATOM     11  O   UNL     1     115.633 118.265 122.260  1.00  0.00    -0.392 OA
ATOM     12  H   UNL     1     116.612 118.156 122.359  1.00  0.00     0.211 HD
ENDBRANCH   8  11
TORSDOF 1
ENDMDL
MODEL 9
REMARK VINA RESULT:    -2.378      1.934      2.671
REMARK INTER + INTRA:          -2.447
REMARK INTER:                  -2.447
REMARK INTRA:                   0.000
REMARK UNBOUND:                 0.000
REMARK SMILES CC1(C)[C@@H]2CC[C@@](C)(C2)[C@H]1O
REMARK SMILES IDX 1 1 2 2 4 3 5 4 6 5 7 6 9 7 10 8 8 9 3 10 11 11
REMARK H PARENT 11 12
REMARK Flexibility Score: inf
ROOT
ATOM      1  C   UNL     1     115.741 114.582 119.001  1.00  0.00     0.014 C 
ATOM      2  C   UNL     1     114.905 115.531 119.895  1.00  0.00    -0.006 C 
ATOM      3  C   UNL     1     115.084 117.046 119.533  1.00  0.00    -0.002 C 
ATOM      4  C   UNL     1     116.576 117.425 119.412  1.00  0.00     0.005 C 
ATOM      5  C   UNL     1     117.074 117.323 120.863  1.00  0.00     0.010 C 
ATOM      6  C   UNL     1     115.781 116.991 121.647  1.00  0.00    -0.006 C 
ATOM      7  C   UNL     1     114.743 117.743 120.840  1.00  0.00     0.013 C 
ATOM      8  C   UNL     1     115.412 115.500 121.379  1.00  0.00     0.126 C 
ATOM      9  C   UNL     1     115.856 117.393 123.125  1.00  0.00     0.014 C 
ATOM     10  C   UNL     1     113.418 115.122 119.730  1.00  0.00     0.014 C 
ENDROOT
BRANCH   8  11
ATOM     11  O   UNL     1     114.461 114.985 122.286  1.00  0.00    -0.392 OA
ATOM     12  H   UNL     1     113.797 114.446 121.786  1.00  0.00     0.211 HD
ENDBRANCH   8  11
TORSDOF 1
ENDMDL
