MODEL 1
REMARK VINA RESULT:    -3.708      0.000      0.000
REMARK INTER + INTRA:          -4.039
REMARK INTER:                  -4.575
REMARK INTRA:                   0.535
REMARK UNBOUND:                 0.535
REMARK SMILES C=C1[C@@H]2CC[C@H]3[C@H]2C(C)(C)CCC[C@@]13C
REMARK SMILES IDX 14 1 6 2 7 3 3 4 2 5 1 6 4 7 5 8 15 9 8 10 9 11 10 12 11 13
REMARK SMILES IDX 13 15 12 16
REMARK H PARENT
REMARK Flexibility Score: 80.00
ROOT
ATOM      1  C   UNL     1      30.723  10.496  31.731  1.00  0.00    -0.008 C 
ATOM      2  C   UNL     1      31.542   9.572  32.621  1.00  0.00     0.003 C 
ATOM      3  C   UNL     1      30.424   8.608  33.059  1.00  0.00     0.006 C 
ATOM      4  C   UNL     1      29.650   9.670  33.821  1.00  0.00     0.019 C 
ATOM      5  C   UNL     1      29.511  10.679  32.657  1.00  0.00    -0.068 C 
ATOM      6  C   UNL     1      28.477  11.502  32.462  1.00  0.00     0.009 C 
ATOM      7  C   UNL     1      30.683  10.231  34.790  1.00  0.00     0.008 C 
ATOM      8  C   UNL     1      31.976  10.190  33.972  1.00  0.00     0.005 C 
ATOM      9  C   UNL     1      31.416  11.848  31.456  1.00  0.00     0.016 C 
ENDROOT
BRANCH   3  10
ATOM     10  C   UNL     1      30.804   7.149  32.721  1.00  0.00    -0.032 C 
ATOM     11  C   UNL     1      29.635   6.168  33.015  1.00  0.00     0.011 C 
ATOM     12  C   UNL     1      32.016   6.684  33.557  1.00  0.00     0.011 C 
BRANCH  10  13
ATOM     13  C   UNL     1      31.156   7.146  31.163  1.00  0.00     0.007 CG0
ATOM     14  G   UNL     1      30.320   8.134  30.237  1.00  0.00     0.000 G0
ENDBRANCH  10  13
ENDBRANCH   3  10
BRANCH   1  15
ATOM     15  C   UNL     1      30.492   9.723  30.353  1.00  0.00     0.011 C 
BRANCH  15  16
ATOM     16  C   UNL     1      30.309   8.139  30.250  1.00  0.00     0.001 CG0
ATOM     17  G   UNL     1      31.173   7.153  31.152  1.00  0.00     0.000 G0
ENDBRANCH  15  16
ENDBRANCH   1  15
TORSDOF 0
ENDMDL
MODEL 2
REMARK VINA RESULT:    -3.679      5.030      6.667
REMARK INTER + INTRA:          -4.004
REMARK INTER:                  -4.517
REMARK INTRA:                   0.513
REMARK UNBOUND:                 0.535
REMARK SMILES C=C1[C@@H]2CC[C@H]3[C@H]2C(C)(C)CCC[C@@]13C
REMARK SMILES IDX 14 1 6 2 7 3 3 4 2 5 1 6 4 7 5 8 15 9 8 10 9 11 10 12 11 13
REMARK SMILES IDX 13 15 12 16
REMARK H PARENT
REMARK Flexibility Score: 80.00
ROOT
ATOM      1  C   UNL     1      30.042   9.447  25.031  1.00  0.00    -0.008 C 
ATOM      2  C   UNL     1      30.074   9.018  26.490  1.00  0.00     0.003 C 
ATOM      3  C   UNL     1      28.772   8.197  26.528  1.00  0.00     0.006 C 
ATOM      4  C   UNL     1      27.875   9.393  26.257  1.00  0.00     0.019 C 
ATOM      5  C   UNL     1      28.564   9.858  24.952  1.00  0.00    -0.068 C 
ATOM      6  C   UNL     1      27.954  10.441  23.917  1.00  0.00     0.009 C 
ATOM      7  C   UNL     1      28.262  10.378  27.353  1.00  0.00     0.008 C 
ATOM      8  C   UNL     1      29.767  10.147  27.505  1.00  0.00     0.005 C 
ATOM      9  C   UNL     1      30.965  10.647  24.729  1.00  0.00     0.016 C 
ENDROOT
BRANCH   3  10
ATOM     10  C   UNL     1      29.050   6.763  27.031  1.00  0.00    -0.032 C 
ATOM     11  C   UNL     1      27.771   5.881  26.992  1.00  0.00     0.011 C 
ATOM     12  C   UNL     1      29.554   6.776  28.491  1.00  0.00     0.011 C 
BRANCH  10  13
ATOM     13  C   UNL     1      30.166   6.172  26.052  1.00  0.00     0.007 CG0
ATOM     14  G   UNL     1      30.137   6.678  24.544  1.00  0.00     0.000 G0
ENDBRANCH  10  13
ENDBRANCH   3  10
BRANCH   1  15
ATOM     15  C   UNL     1      30.507   8.184  24.170  1.00  0.00     0.011 C 
BRANCH  15  16
ATOM     16  C   UNL     1      30.144   6.675  24.550  1.00  0.00     0.001 CG0
ATOM     17  G   UNL     1      30.156   6.185  26.064  1.00  0.00     0.000 G0
ENDBRANCH  15  16
ENDBRANCH   1  15
TORSDOF 0
ENDMDL
MODEL 3
REMARK VINA RESULT:    -3.660      2.560      4.103
REMARK INTER + INTRA:          -3.981
REMARK INTER:                  -4.499
REMARK INTRA:                   0.518
REMARK UNBOUND:                 0.535
REMARK SMILES C=C1[C@@H]2CC[C@H]3[C@H]2C(C)(C)CCC[C@@]13C
REMARK SMILES IDX 14 1 6 2 7 3 3 4 2 5 1 6 4 7 5 8 15 9 8 10 9 11 10 12 11 13
REMARK SMILES IDX 13 15 12 16
REMARK H PARENT
REMARK Flexibility Score: 80.00
ROOT
ATOM      1  C   UNL     1      30.613   9.939  33.614  1.00  0.00    -0.008 C 
ATOM      2  C   UNL     1      30.030   8.534  33.628  1.00  0.00     0.003 C 
ATOM      3  C   UNL     1      31.113   7.834  34.470  1.00  0.00     0.006 C 
ATOM      4  C   UNL     1      32.209   8.035  33.438  1.00  0.00     0.019 C 
ATOM      5  C   UNL     1      32.074   9.571  33.312  1.00  0.00    -0.068 C 
ATOM      6  C   UNL     1      33.074  10.421  33.062  1.00  0.00     0.009 C 
ATOM      7  C   UNL     1      31.620   7.421  32.175  1.00  0.00     0.008 C 
ATOM      8  C   UNL     1      30.135   7.774  32.282  1.00  0.00     0.005 C 
ATOM      9  C   UNL     1      30.027  10.830  32.497  1.00  0.00     0.016 C 
ENDROOT
BRANCH   3  10
ATOM     10  C   UNL     1      30.480   7.142  35.698  1.00  0.00    -0.032 C 
ATOM     11  C   UNL     1      31.558   6.507  36.620  1.00  0.00     0.011 C 
ATOM     12  C   UNL     1      29.523   6.009  35.265  1.00  0.00     0.011 C 
BRANCH  10  13
ATOM     13  C   UNL     1      29.685   8.288  36.476  1.00  0.00     0.007 CG0
ATOM     14  G   UNL     1      30.297   9.755  36.410  1.00  0.00     0.000 G0
ENDBRANCH  10  13
ENDBRANCH   3  10
BRANCH   1  15
ATOM     15  C   UNL     1      30.291  10.585  35.039  1.00  0.00     0.011 C 
BRANCH  15  16
ATOM     16  C   UNL     1      30.295   9.756  36.405  1.00  0.00     0.001 CG0
ATOM     17  G   UNL     1      29.687   8.287  36.474  1.00  0.00     0.000 G0
ENDBRANCH  15  16
ENDBRANCH   1  15
TORSDOF 0
ENDMDL
MODEL 4
REMARK VINA RESULT:    -3.557      2.263      3.729
REMARK INTER + INTRA:          -3.853
REMARK INTER:                  -4.385
REMARK INTRA:                   0.531
REMARK UNBOUND:                 0.535
REMARK SMILES C=C1[C@@H]2CC[C@H]3[C@H]2C(C)(C)CCC[C@@]13C
REMARK SMILES IDX 14 1 6 2 7 3 3 4 2 5 1 6 4 7 5 8 15 9 8 10 9 11 10 12 11 13
REMARK SMILES IDX 13 15 12 16
REMARK H PARENT
REMARK Flexibility Score: 80.00
ROOT
ATOM      1  C   UNL     1      30.036  10.451  31.595  1.00  0.00    -0.008 C 
ATOM      2  C   UNL     1      30.134   9.425  32.715  1.00  0.00     0.003 C 
ATOM      3  C   UNL     1      30.476  10.374  33.879  1.00  0.00     0.006 C 
ATOM      4  C   UNL     1      31.819  10.783  33.301  1.00  0.00     0.019 C 
ATOM      5  C   UNL     1      31.299  11.261  31.925  1.00  0.00    -0.068 C 
ATOM      6  C   UNL     1      31.819  12.255  31.200  1.00  0.00     0.009 C 
ATOM      7  C   UNL     1      32.529   9.454  33.084  1.00  0.00     0.008 C 
ATOM      8  C   UNL     1      31.391   8.523  32.661  1.00  0.00     0.005 C 
ATOM      9  C   UNL     1      30.134   9.825  30.187  1.00  0.00     0.016 C 
ENDROOT
BRANCH   3  10
ATOM     10  C   UNL     1      29.457  10.209  35.029  1.00  0.00    -0.032 C 
ATOM     11  C   UNL     1      29.698  11.243  36.164  1.00  0.00     0.011 C 
ATOM     12  C   UNL     1      29.558   8.803  35.661  1.00  0.00     0.011 C 
BRANCH  10  13
ATOM     13  C   UNL     1      28.020  10.430  34.367  1.00  0.00     0.007 CG0
ATOM     14  G   UNL     1      27.935  11.480  33.175  1.00  0.00     0.000 G0
ENDBRANCH  10  13
ENDBRANCH   3  10
BRANCH   1  15
ATOM     15  C   UNL     1      28.624  11.179  31.759  1.00  0.00     0.011 C 
BRANCH  15  16
ATOM     16  C   UNL     1      27.945  11.478  33.175  1.00  0.00     0.001 CG0
ATOM     17  G   UNL     1      28.028  10.423  34.363  1.00  0.00     0.000 G0
ENDBRANCH  15  16
ENDBRANCH   1  15
TORSDOF 0
ENDMDL
MODEL 5
REMARK VINA RESULT:    -3.537      2.143      3.716
REMARK INTER + INTRA:          -3.829
REMARK INTER:                  -4.344
REMARK INTRA:                   0.515
REMARK UNBOUND:                 0.535
REMARK SMILES C=C1[C@@H]2CC[C@H]3[C@H]2C(C)(C)CCC[C@@]13C
REMARK SMILES IDX 14 1 6 2 7 3 3 4 2 5 1 6 4 7 5 8 15 9 8 10 9 11 10 12 11 13
REMARK SMILES IDX 13 15 12 16
REMARK H PARENT
REMARK Flexibility Score: 80.00
ROOT
ATOM      1  C   UNL     1      30.844   8.687  32.700  1.00  0.00    -0.008 C 
ATOM      2  C   UNL     1      31.774   9.105  33.830  1.00  0.00     0.003 C 
ATOM      3  C   UNL     1      30.922  10.238  34.434  1.00  0.00     0.006 C 
ATOM      4  C   UNL     1      31.017  11.121  33.202  1.00  0.00     0.019 C 
ATOM      5  C   UNL     1      30.479  10.088  32.184  1.00  0.00    -0.068 C 
ATOM      6  C   UNL     1      29.759  10.372  31.095  1.00  0.00     0.009 C 
ATOM      7  C   UNL     1      32.517  11.248  32.973  1.00  0.00     0.008 C 
ATOM      8  C   UNL     1      33.043   9.869  33.377  1.00  0.00     0.005 C 
ATOM      9  C   UNL     1      31.552   7.863  31.603  1.00  0.00     0.016 C 
ENDROOT
BRANCH   3  10
ATOM     10  C   UNL     1      30.671   9.983  35.937  1.00  0.00    -0.032 C 
ATOM     11  C   UNL     1      29.743  11.065  36.557  1.00  0.00     0.011 C 
ATOM     12  C   UNL     1      31.995  10.004  36.732  1.00  0.00     0.011 C 
BRANCH  10  13
ATOM     13  C   UNL     1      29.983   8.544  36.020  1.00  0.00     0.007 CG0
ATOM     14  G   UNL     1      29.048   8.125  34.803  1.00  0.00     0.000 G0
ENDBRANCH  10  13
ENDBRANCH   3  10
BRANCH   1  15
ATOM     15  C   UNL     1      29.681   7.814  33.359  1.00  0.00     0.011 C 
BRANCH  15  16
ATOM     16  C   UNL     1      29.055   8.121  34.797  1.00  0.00     0.001 CG0
ATOM     17  G   UNL     1      29.980   8.535  36.023  1.00  0.00     0.000 G0
ENDBRANCH  15  16
ENDBRANCH   1  15
TORSDOF 0
ENDMDL
MODEL 6
REMARK VINA RESULT:    -3.465      5.996      8.218
REMARK INTER + INTRA:          -3.741
REMARK INTER:                  -4.247
REMARK INTRA:                   0.507
REMARK UNBOUND:                 0.535
REMARK SMILES C=C1[C@@H]2CC[C@H]3[C@H]2C(C)(C)CCC[C@@]13C
REMARK SMILES IDX 14 1 6 2 7 3 3 4 2 5 1 6 4 7 5 8 15 9 8 10 9 11 10 12 11 13
REMARK SMILES IDX 13 15 12 16
REMARK H PARENT
REMARK Flexibility Score: 80.00
ROOT
ATOM      1  C   UNL     1      28.943  10.028  23.884  1.00  0.00    -0.008 C 
ATOM      2  C   UNL     1      29.129   8.519  23.831  1.00  0.00     0.003 C 
ATOM      3  C   UNL     1      30.322   8.391  24.797  1.00  0.00     0.006 C 
ATOM      4  C   UNL     1      31.277   9.160  23.901  1.00  0.00     0.019 C 
ATOM      5  C   UNL     1      30.418  10.438  23.757  1.00  0.00    -0.068 C 
ATOM      6  C   UNL     1      30.890  11.681  23.625  1.00  0.00     0.009 C 
ATOM      7  C   UNL     1      31.202   8.408  22.579  1.00  0.00     0.008 C 
ATOM      8  C   UNL     1      29.733   7.985  22.509  1.00  0.00     0.005 C 
ATOM      9  C   UNL     1      28.114  10.580  22.704  1.00  0.00     0.016 C 
ENDROOT
BRANCH   3  10
ATOM     10  C   UNL     1      29.988   7.410  25.943  1.00  0.00    -0.032 C 
ATOM     11  C   UNL     1      31.149   7.310  26.972  1.00  0.00     0.011 C 
ATOM     12  C   UNL     1      29.734   5.987  25.399  1.00  0.00     0.011 C 
BRANCH  10  13
ATOM     13  C   UNL     1      28.674   7.993  26.639  1.00  0.00     0.007 CG0
ATOM     14  G   UNL     1      28.496   9.574  26.625  1.00  0.00     0.000 G0
ENDBRANCH  10  13
ENDBRANCH   3  10
BRANCH   1  15
ATOM     15  C   UNL     1      28.199  10.353  25.259  1.00  0.00     0.011 C 
BRANCH  15  16
ATOM     16  C   UNL     1      28.487   9.572  26.624  1.00  0.00     0.001 CG0
ATOM     17  G   UNL     1      28.657   7.991  26.644  1.00  0.00     0.000 G0
ENDBRANCH  15  16
ENDBRANCH   1  15
TORSDOF 0
ENDMDL
MODEL 7
REMARK VINA RESULT:    -3.440      5.943      8.355
REMARK INTER + INTRA:          -3.709
REMARK INTER:                  -4.219
REMARK INTRA:                   0.509
REMARK UNBOUND:                 0.535
REMARK SMILES C=C1[C@@H]2CC[C@H]3[C@H]2C(C)(C)CCC[C@@]13C
REMARK SMILES IDX 14 1 6 2 7 3 3 4 2 5 1 6 4 7 5 8 15 9 8 10 9 11 10 12 11 13
REMARK SMILES IDX 13 15 12 16
REMARK H PARENT
REMARK Flexibility Score: 80.00
ROOT
ATOM      1  C   UNL     1      29.561   6.969  25.969  1.00  0.00    -0.008 C 
ATOM      2  C   UNL     1      29.000   8.182  25.242  1.00  0.00     0.003 C 
ATOM      3  C   UNL     1      30.318   8.776  24.712  1.00  0.00     0.006 C 
ATOM      4  C   UNL     1      30.867   9.086  26.094  1.00  0.00     0.019 C 
ATOM      5  C   UNL     1      30.738   7.659  26.676  1.00  0.00    -0.068 C 
ATOM      6  C   UNL     1      31.557   7.111  27.578  1.00  0.00     0.009 C 
ATOM      7  C   UNL     1      29.773   9.938  26.724  1.00  0.00     0.008 C 
ATOM      8  C   UNL     1      28.491   9.315  26.167  1.00  0.00     0.005 C 
ATOM      9  C   UNL     1      28.579   6.364  26.994  1.00  0.00     0.016 C 
ENDROOT
BRANCH   3  10
ATOM     10  C   UNL     1      30.256   8.948  23.178  1.00  0.00    -0.032 C 
ATOM     11  C   UNL     1      31.598   9.482  22.604  1.00  0.00     0.011 C 
ATOM     12  C   UNL     1      29.154   9.953  22.776  1.00  0.00     0.011 C 
BRANCH  10  13
ATOM     13  C   UNL     1      29.938   7.496  22.594  1.00  0.00     0.007 CG0
ATOM     14  G   UNL     1      30.510   6.255  23.409  1.00  0.00     0.000 G0
ENDBRANCH  10  13
ENDBRANCH   3  10
BRANCH   1  15
ATOM     15  C   UNL     1      29.906   5.881  24.851  1.00  0.00     0.011 C 
BRANCH  15  16
ATOM     16  C   UNL     1      30.499   6.250  23.414  1.00  0.00     0.001 CG0
ATOM     17  G   UNL     1      29.938   7.489  22.588  1.00  0.00     0.000 G0
ENDBRANCH  15  16
ENDBRANCH   1  15
TORSDOF 0
ENDMDL
MODEL 8
REMARK VINA RESULT:    -3.397      5.748      7.826
REMARK INTER + INTRA:          -3.657
REMARK INTER:                  -4.169
REMARK INTRA:                   0.513
REMARK UNBOUND:                 0.535
REMARK SMILES C=C1[C@@H]2CC[C@H]3[C@H]2C(C)(C)CCC[C@@]13C
REMARK SMILES IDX 14 1 6 2 7 3 3 4 2 5 1 6 4 7 5 8 15 9 8 10 9 11 10 12 11 13
REMARK SMILES IDX 13 15 12 16
REMARK H PARENT
REMARK Flexibility Score: 80.00
ROOT
ATOM      1  C   UNL     1      29.208  11.742  27.180  1.00  0.00    -0.008 C 
ATOM      2  C   UNL     1      29.955  10.753  26.297  1.00  0.00     0.003 C 
ATOM      3  C   UNL     1      28.917  10.605  25.170  1.00  0.00     0.006 C 
ATOM      4  C   UNL     1      27.870   9.963  26.063  1.00  0.00     0.019 C 
ATOM      5  C   UNL     1      27.824  11.077  27.136  1.00  0.00    -0.068 C 
ATOM      6  C   UNL     1      26.745  11.436  27.837  1.00  0.00     0.009 C 
ATOM      7  C   UNL     1      28.604   8.775  26.669  1.00  0.00     0.008 C 
ATOM      8  C   UNL     1      30.025   9.310  26.855  1.00  0.00     0.005 C 
ATOM      9  C   UNL     1      29.748  11.797  28.625  1.00  0.00     0.016 C 
ENDROOT
BRANCH   3  10
ATOM     10  C   UNL     1      29.554  10.934  23.801  1.00  0.00    -0.032 C 
ATOM     11  C   UNL     1      28.508  10.882  22.652  1.00  0.00     0.011 C 
ATOM     12  C   UNL     1      30.670   9.925  23.451  1.00  0.00     0.011 C 
BRANCH  10  13
ATOM     13  C   UNL     1      30.149  12.409  23.947  1.00  0.00     0.007 CG0
ATOM     14  G   UNL     1      29.366  13.407  24.907  1.00  0.00     0.000 G0
ENDBRANCH  10  13
ENDBRANCH   3  10
BRANCH   1  15
ATOM     15  C   UNL     1      29.361  13.177  26.495  1.00  0.00     0.011 C 
BRANCH  15  16
ATOM     16  C   UNL     1      29.372  13.404  24.913  1.00  0.00     0.001 CG0
ATOM     17  G   UNL     1      30.150  12.408  23.947  1.00  0.00     0.000 G0
ENDBRANCH  15  16
ENDBRANCH   1  15
TORSDOF 0
ENDMDL
MODEL 9
REMARK VINA RESULT:    -3.366      5.359      7.556
REMARK INTER + INTRA:          -3.618
REMARK INTER:                  -4.130
REMARK INTRA:                   0.512
REMARK UNBOUND:                 0.535
REMARK SMILES C=C1[C@@H]2CC[C@H]3[C@H]2C(C)(C)CCC[C@@]13C
REMARK SMILES IDX 14 1 6 2 7 3 3 4 2 5 1 6 4 7 5 8 15 9 8 10 9 11 10 12 11 13
REMARK SMILES IDX 13 15 12 16
REMARK H PARENT
REMARK Flexibility Score: 80.00
ROOT
ATOM      1  C   UNL     1      27.985  11.272  27.276  1.00  0.00    -0.008 C 
ATOM      2  C   UNL     1      28.193  12.292  26.167  1.00  0.00     0.003 C 
ATOM      3  C   UNL     1      29.704  12.096  25.941  1.00  0.00     0.006 C 
ATOM      4  C   UNL     1      30.091  12.601  27.320  1.00  0.00     0.019 C 
ATOM      5  C   UNL     1      29.208  11.626  28.135  1.00  0.00    -0.068 C 
ATOM      6  C   UNL     1      29.507  11.129  29.339  1.00  0.00     0.009 C 
ATOM      7  C   UNL     1      29.438  13.975  27.389  1.00  0.00     0.008 C 
ATOM      8  C   UNL     1      28.129  13.770  26.624  1.00  0.00     0.005 C 
ATOM      9  C   UNL     1      26.676  11.489  28.065  1.00  0.00     0.016 C 
ENDROOT
BRANCH   3  10
ATOM     10  C   UNL     1      29.991  11.759  24.461  1.00  0.00    -0.032 C 
ATOM     11  C   UNL     1      31.500  11.478  24.217  1.00  0.00     0.011 C 
ATOM     12  C   UNL     1      29.587  12.929  23.536  1.00  0.00     0.011 C 
BRANCH  10  13
ATOM     13  C   UNL     1      29.121  10.458  24.139  1.00  0.00     0.007 CG0
ATOM     14  G   UNL     1      28.889   9.437  25.337  1.00  0.00     0.000 G0
ENDBRANCH  10  13
ENDBRANCH   3  10
BRANCH   1  15
ATOM     15  C   UNL     1      27.959   9.834  26.581  1.00  0.00     0.011 C 
BRANCH  15  16
ATOM     16  C   UNL     1      28.880   9.440  25.336  1.00  0.00     0.001 CG0
ATOM     17  G   UNL     1      29.123  10.460  24.140  1.00  0.00     0.000 G0
ENDBRANCH  15  16
ENDBRANCH   1  15
TORSDOF 0
ENDMDL
