MODEL 1
REMARK VINA RESULT:     0.019      0.000      0.000
REMARK INTER + INTRA:          -0.002
REMARK INTER:                   0.020
REMARK INTRA:                  -0.022
REMARK UNBOUND:                -0.022
REMARK SMILES CC1(C)[C@@H]2CC=C(CO)[C@H]1C2
REMARK SMILES IDX 8 1 7 2 1 3 2 4 4 5 3 6 10 7 5 8 11 9 6 10 9 11
REMARK H PARENT 9 12
REMARK Flexibility Score: inf
ROOT
ATOM      1  C   UNL     1      34.038  29.639  56.124  1.00  0.00     0.187 C 
ENDROOT
BRANCH   1   2
ATOM      2  C   UNL     1      34.723  30.825  55.505  1.00  0.00    -0.045 C 
ATOM      3  C   UNL     1      33.850  34.625  55.597  1.00  0.00     0.012 C 
ATOM      4  C   UNL     1      34.283  33.255  55.015  1.00  0.00    -0.026 C 
ATOM      5  C   UNL     1      35.797  33.216  54.672  1.00  0.00    -0.000 C 
ATOM      6  C   UNL     1      33.259  32.847  53.918  1.00  0.00     0.012 C 
ATOM      7  C   UNL     1      34.625  32.226  56.124  1.00  0.00     0.023 C 
ATOM      8  C   UNL     1      36.121  31.973  53.773  1.00  0.00     0.031 C 
ATOM      9  C   UNL     1      36.068  32.766  56.122  1.00  0.00     0.013 C 
ATOM     10  C   UNL     1      35.474  30.707  54.370  1.00  0.00    -0.025 C 
ENDBRANCH   1   2
BRANCH   1  11
ATOM     11  O   UNL     1      34.671  28.451  55.732  1.00  0.00    -0.392 OA
ATOM     12  H   UNL     1      34.529  28.365  54.752  1.00  0.00     0.211 HD
ENDBRANCH   1  11
TORSDOF 2
ENDMDL
MODEL 2
REMARK VINA RESULT:     0.732      1.901      3.449
REMARK INTER + INTRA:           0.773
REMARK INTER:                   0.806
REMARK INTRA:                  -0.033
REMARK UNBOUND:                -0.022
REMARK SMILES CC1(C)[C@@H]2CC=C(CO)[C@H]1C2
REMARK SMILES IDX 8 1 7 2 1 3 2 4 4 5 3 6 10 7 5 8 11 9 6 10 9 11
REMARK H PARENT 9 12
REMARK Flexibility Score: inf
ROOT
ATOM      1  C   UNL     1      32.875  32.063  52.617  1.00  0.00     0.187 C 
ENDROOT
BRANCH   1   2
ATOM      2  C   UNL     1      33.712  32.273  53.847  1.00  0.00    -0.045 C 
ATOM      3  C   UNL     1      36.113  29.862  55.755  1.00  0.00     0.012 C 
ATOM      4  C   UNL     1      35.012  30.931  55.536  1.00  0.00    -0.026 C 
ATOM      5  C   UNL     1      35.483  32.352  55.951  1.00  0.00    -0.000 C 
ATOM      6  C   UNL     1      33.680  30.386  56.125  1.00  0.00     0.012 C 
ATOM      7  C   UNL     1      35.005  31.482  54.086  1.00  0.00     0.023 C 
ATOM      8  C   UNL     1      34.258  33.324  56.054  1.00  0.00     0.031 C 
ATOM      9  C   UNL     1      36.043  32.533  54.525  1.00  0.00     0.013 C 
ATOM     10  C   UNL     1      33.367  33.186  54.803  1.00  0.00    -0.025 C 
ENDBRANCH   1   2
BRANCH   1  11
ATOM     11  O   UNL     1      31.533  31.861  52.970  1.00  0.00    -0.392 OA
ATOM     12  H   UNL     1      31.392  30.878  52.990  1.00  0.00     0.211 HD
ENDBRANCH   1  11
TORSDOF 2
ENDMDL
