MODEL 1
REMARK VINA RESULT:    -3.607      0.000      0.000
REMARK INTER + INTRA:          -4.331
REMARK INTER:                  -4.239
REMARK INTRA:                  -0.092
REMARK UNBOUND:                -0.092
REMARK SMILES O=C([O-])CCC(=O)[O-]
REMARK SMILES IDX 4 1 2 2 1 3 3 4 5 5 6 6 7 7 8 8
REMARK H PARENT
REMARK Flexibility Score: inf
ROOT
ATOM      1  C   UNL     1      17.837  25.763   8.420  1.00  0.00     0.059 C 
ENDROOT
BRANCH   1   2
ATOM      2  C   UNL     1      17.994  27.158   8.938  1.00  0.00     0.042 C 
ATOM      3  O   UNL     1      19.137  27.599   9.233  1.00  0.00    -0.550 OA
ATOM      4  O   UNL     1      16.875  27.955   9.141  1.00  0.00    -0.550 OA
ENDBRANCH   1   2
BRANCH   1   5
ATOM      5  C   UNL     1      19.128  24.969   8.625  1.00  0.00     0.059 C 
BRANCH   5   6
ATOM      6  C   UNL     1      19.022  24.104   9.841  1.00  0.00     0.042 C 
ATOM      7  O   UNL     1      20.014  23.436  10.233  1.00  0.00    -0.550 OA
ATOM      8  O   UNL     1      17.811  23.999  10.515  1.00  0.00    -0.550 OA
ENDBRANCH   5   6
ENDBRANCH   1   5
TORSDOF 3
ENDMDL
MODEL 2
REMARK VINA RESULT:    -3.560      0.407      1.654
REMARK INTER + INTRA:          -4.276
REMARK INTER:                  -4.184
REMARK INTRA:                  -0.092
REMARK UNBOUND:                -0.092
REMARK SMILES O=C([O-])CCC(=O)[O-]
REMARK SMILES IDX 4 1 2 2 1 3 3 4 5 5 6 6 7 7 8 8
REMARK H PARENT
REMARK Flexibility Score: inf
ROOT
ATOM      1  C   UNL     1      18.035  25.517   8.435  1.00  0.00     0.059 C 
ENDROOT
BRANCH   1   2
ATOM      2  C   UNL     1      18.016  26.919   8.958  1.00  0.00     0.042 C 
ATOM      3  O   UNL     1      16.920  27.508   9.149  1.00  0.00    -0.550 OA
ATOM      4  O   UNL     1      19.209  27.591   9.188  1.00  0.00    -0.550 OA
ENDBRANCH   1   2
BRANCH   1   5
ATOM      5  C   UNL     1      19.412  24.886   8.648  1.00  0.00     0.059 C 
BRANCH   5   6
ATOM      6  C   UNL     1      19.396  23.987   9.844  1.00  0.00     0.042 C 
ATOM      7  O   UNL     1      18.305  23.685  10.396  1.00  0.00    -0.550 OA
ATOM      8  O   UNL     1      20.590  23.519  10.378  1.00  0.00    -0.550 OA
ENDBRANCH   5   6
ENDBRANCH   1   5
TORSDOF 3
ENDMDL
MODEL 3
REMARK VINA RESULT:    -3.538      0.428      3.773
REMARK INTER + INTRA:          -4.250
REMARK INTER:                  -4.159
REMARK INTRA:                  -0.091
REMARK UNBOUND:                -0.092
REMARK SMILES O=C([O-])CCC(=O)[O-]
REMARK SMILES IDX 4 1 2 2 1 3 3 4 5 5 6 6 7 7 8 8
REMARK H PARENT
REMARK Flexibility Score: inf
ROOT
ATOM      1  C   UNL     1      19.407  24.900   8.684  1.00  0.00     0.059 C 
ENDROOT
BRANCH   1   2
ATOM      2  C   UNL     1      19.429  23.974   9.859  1.00  0.00     0.042 C 
ATOM      3  O   UNL     1      20.527  23.630  10.373  1.00  0.00    -0.550 OA
ATOM      4  O   UNL     1      18.243  23.452  10.357  1.00  0.00    -0.550 OA
ENDBRANCH   1   2
BRANCH   1   5
ATOM      5  C   UNL     1      18.012  25.505   8.508  1.00  0.00     0.059 C 
BRANCH   5   6
ATOM      6  C   UNL     1      17.986  26.913   9.012  1.00  0.00     0.042 C 
ATOM      7  O   UNL     1      16.891  27.518   9.148  1.00  0.00    -0.550 OA
ATOM      8  O   UNL     1      19.177  27.574   9.289  1.00  0.00    -0.550 OA
ENDBRANCH   5   6
ENDBRANCH   1   5
TORSDOF 3
ENDMDL
MODEL 4
REMARK VINA RESULT:    -3.512      0.367      3.893
REMARK INTER + INTRA:          -4.219
REMARK INTER:                  -4.148
REMARK INTRA:                  -0.071
REMARK UNBOUND:                -0.092
REMARK SMILES O=C([O-])CCC(=O)[O-]
REMARK SMILES IDX 4 1 2 2 1 3 3 4 5 5 6 6 7 7 8 8
REMARK H PARENT
REMARK Flexibility Score: inf
ROOT
ATOM      1  C   UNL     1      19.096  24.939   8.792  1.00  0.00     0.059 C 
ENDROOT
BRANCH   1   2
ATOM      2  C   UNL     1      19.193  23.869   9.833  1.00  0.00     0.042 C 
ATOM      3  O   UNL     1      18.148  23.384  10.342  1.00  0.00    -0.550 OA
ATOM      4  O   UNL     1      20.437  23.442  10.278  1.00  0.00    -0.550 OA
ENDBRANCH   1   2
BRANCH   1   5
ATOM      5  C   UNL     1      17.753  25.664   8.895  1.00  0.00     0.059 C 
BRANCH   5   6
ATOM      6  C   UNL     1      17.965  27.136   9.057  1.00  0.00     0.042 C 
ATOM      7  O   UNL     1      19.126  27.595   9.225  1.00  0.00    -0.550 OA
ATOM      8  O   UNL     1      16.876  27.999   9.069  1.00  0.00    -0.550 OA
ENDBRANCH   5   6
ENDBRANCH   1   5
TORSDOF 3
ENDMDL
MODEL 5
REMARK VINA RESULT:    -3.464      1.686      2.060
REMARK INTER + INTRA:          -4.163
REMARK INTER:                  -4.112
REMARK INTRA:                  -0.051
REMARK UNBOUND:                -0.092
REMARK SMILES O=C([O-])CCC(=O)[O-]
REMARK SMILES IDX 4 1 2 2 1 3 3 4 5 5 6 6 7 7 8 8
REMARK H PARENT
REMARK Flexibility Score: inf
ROOT
ATOM      1  C   UNL     1      18.219  25.575   8.389  1.00  0.00     0.059 C 
ENDROOT
BRANCH   1   2
ATOM      2  C   UNL     1      18.139  26.969   8.924  1.00  0.00     0.042 C 
ATOM      3  O   UNL     1      19.191  27.599   9.213  1.00  0.00    -0.550 OA
ATOM      4  O   UNL     1      16.901  27.557   9.151  1.00  0.00    -0.550 OA
ENDBRANCH   1   2
BRANCH   1   5
ATOM      5  C   UNL     1      19.417  24.839   8.994  1.00  0.00     0.059 C 
BRANCH   5   6
ATOM      6  C   UNL     1      20.010  23.896   7.995  1.00  0.00     0.042 C 
ATOM      7  O   UNL     1      19.316  23.471   7.035  1.00  0.00    -0.550 OA
ATOM      8  O   UNL     1      21.316  23.450   8.151  1.00  0.00    -0.550 OA
ENDBRANCH   5   6
ENDBRANCH   1   5
TORSDOF 3
ENDMDL
MODEL 6
REMARK VINA RESULT:    -3.418      1.663      3.971
REMARK INTER + INTRA:          -4.109
REMARK INTER:                  -4.056
REMARK INTRA:                  -0.053
REMARK UNBOUND:                -0.092
REMARK SMILES O=C([O-])CCC(=O)[O-]
REMARK SMILES IDX 4 1 2 2 1 3 3 4 5 5 6 6 7 7 8 8
REMARK H PARENT
REMARK Flexibility Score: inf
ROOT
ATOM      1  C   UNL     1      19.281  24.795   9.057  1.00  0.00     0.059 C 
ENDROOT
BRANCH   1   2
ATOM      2  C   UNL     1      19.874  23.890   8.023  1.00  0.00     0.042 C 
ATOM      3  O   UNL     1      21.080  23.536   8.108  1.00  0.00    -0.550 OA
ATOM      4  O   UNL     1      19.110  23.476   6.940  1.00  0.00    -0.550 OA
ENDBRANCH   1   2
BRANCH   1   5
ATOM      5  C   UNL     1      18.071  25.537   8.486  1.00  0.00     0.059 C 
BRANCH   5   6
ATOM      6  C   UNL     1      18.074  26.964   8.935  1.00  0.00     0.042 C 
ATOM      7  O   UNL     1      16.989  27.589   9.071  1.00  0.00    -0.550 OA
ATOM      8  O   UNL     1      19.279  27.620   9.157  1.00  0.00    -0.550 OA
ENDBRANCH   5   6
ENDBRANCH   1   5
TORSDOF 3
ENDMDL
MODEL 7
REMARK VINA RESULT:    -3.376      1.530      1.882
REMARK INTER + INTRA:          -4.060
REMARK INTER:                  -3.899
REMARK INTRA:                  -0.160
REMARK UNBOUND:                -0.092
REMARK SMILES O=C([O-])CCC(=O)[O-]
REMARK SMILES IDX 4 1 2 2 1 3 3 4 5 5 6 6 7 7 8 8
REMARK H PARENT
REMARK Flexibility Score: inf
ROOT
ATOM      1  C   UNL     1      18.888  24.379   8.014  1.00  0.00     0.059 C 
ENDROOT
BRANCH   1   2
ATOM      2  C   UNL     1      18.560  25.550   8.886  1.00  0.00     0.042 C 
ATOM      3  O   UNL     1      19.144  26.652   8.713  1.00  0.00    -0.550 OA
ATOM      4  O   UNL     1      17.645  25.411   9.922  1.00  0.00    -0.550 OA
ENDBRANCH   1   2
BRANCH   1   5
ATOM      5  C   UNL     1      20.283  23.843   8.342  1.00  0.00     0.059 C 
BRANCH   5   6
ATOM      6  C   UNL     1      20.271  23.127   9.656  1.00  0.00     0.042 C 
ATOM      7  O   UNL     1      21.040  23.491  10.583  1.00  0.00    -0.550 OA
ATOM      8  O   UNL     1      19.442  22.027   9.840  1.00  0.00    -0.550 OA
ENDBRANCH   5   6
ENDBRANCH   1   5
TORSDOF 3
ENDMDL
MODEL 8
REMARK VINA RESULT:    -3.366      1.552      3.802
REMARK INTER + INTRA:          -4.048
REMARK INTER:                  -3.881
REMARK INTRA:                  -0.167
REMARK UNBOUND:                -0.092
REMARK SMILES O=C([O-])CCC(=O)[O-]
REMARK SMILES IDX 4 1 2 2 1 3 3 4 5 5 6 6 7 7 8 8
REMARK H PARENT
REMARK Flexibility Score: inf
ROOT
ATOM      1  C   UNL     1      20.271  23.811   8.342  1.00  0.00     0.059 C 
ENDROOT
BRANCH   1   2
ATOM      2  C   UNL     1      20.266  23.151   9.685  1.00  0.00     0.042 C 
ATOM      3  O   UNL     1      21.026  23.569  10.598  1.00  0.00    -0.550 OA
ATOM      4  O   UNL     1      19.458  22.045   9.914  1.00  0.00    -0.550 OA
ENDBRANCH   1   2
BRANCH   1   5
ATOM      5  C   UNL     1      18.865  24.292   7.978  1.00  0.00     0.059 C 
BRANCH   5   6
ATOM      6  C   UNL     1      18.505  25.504   8.779  1.00  0.00     0.042 C 
ATOM      7  O   UNL     1      19.160  26.570   8.645  1.00  0.00    -0.550 OA
ATOM      8  O   UNL     1      17.474  25.441   9.709  1.00  0.00    -0.550 OA
ENDBRANCH   5   6
ENDBRANCH   1   5
TORSDOF 3
ENDMDL
MODEL 9
REMARK VINA RESULT:    -3.297      1.784      3.830
REMARK INTER + INTRA:          -3.967
REMARK INTER:                  -3.844
REMARK INTRA:                  -0.123
REMARK UNBOUND:                -0.092
REMARK SMILES O=C([O-])CCC(=O)[O-]
REMARK SMILES IDX 4 1 2 2 1 3 3 4 5 5 6 6 7 7 8 8
REMARK H PARENT
REMARK Flexibility Score: inf
ROOT
ATOM      1  C   UNL     1      19.475  23.972   7.974  1.00  0.00     0.059 C 
ENDROOT
BRANCH   1   2
ATOM      2  C   UNL     1      20.788  23.368   8.362  1.00  0.00     0.042 C 
ATOM      3  O   UNL     1      21.555  22.900   7.480  1.00  0.00    -0.550 OA
ATOM      4  O   UNL     1      21.144  23.278   9.701  1.00  0.00    -0.550 OA
ENDBRANCH   1   2
BRANCH   1   5
ATOM      5  C   UNL     1      19.192  25.219   8.814  1.00  0.00     0.059 C 
BRANCH   5   6
ATOM      6  C   UNL     1      17.962  25.022   9.643  1.00  0.00     0.042 C 
ATOM      7  O   UNL     1      17.032  25.870   9.611  1.00  0.00    -0.550 OA
ATOM      8  O   UNL     1      17.862  23.923  10.488  1.00  0.00    -0.550 OA
ENDBRANCH   5   6
ENDBRANCH   1   5
TORSDOF 3
ENDMDL
