MODEL 1
REMARK VINA RESULT:    -4.544      0.000      0.000
REMARK INTER + INTRA:          -9.413
REMARK INTER:                  -8.529
REMARK INTRA:                  -0.884
REMARK UNBOUND:                -0.884
REMARK SMILES O=C([O-])CCCCCCCCCCCCCCC(=O)[O-]
REMARK SMILES IDX 10 1 9 2 8 3 7 4 6 5 5 6 4 7 2 8 1 9 3 10 11 11 12 12 13 13
REMARK SMILES IDX 14 14 15 15 16 16 17 17 18 18 19 19 20 20
REMARK H PARENT
REMARK Flexibility Score: inf
ROOT
ATOM      1  C   UNL     1      13.040  22.357 -23.241  1.00  0.00     0.000 C 
ENDROOT
BRANCH   1   2
ATOM      2  C   UNL     1      12.844  23.166 -24.535  1.00  0.00     0.000 C 
BRANCH   2   3
ATOM      3  C   UNL     1      13.633  22.595 -25.725  1.00  0.00     0.000 C 
BRANCH   3   4
ATOM      4  C   UNL     1      12.770  22.422 -26.988  1.00  0.00     0.000 C 
BRANCH   4   5
ATOM      5  C   UNL     1      12.740  20.997 -27.577  1.00  0.00     0.000 C 
BRANCH   5   6
ATOM      6  C   UNL     1      11.910  19.976 -26.778  1.00  0.00     0.006 C 
BRANCH   6   7
ATOM      7  C   UNL     1      12.608  18.617 -26.643  1.00  0.00     0.053 C 
BRANCH   7   8
ATOM      8  C   UNL     1      12.990  18.366 -25.219  1.00  0.00     0.041 C 
ATOM      9  O   UNL     1      12.883  19.283 -24.362  1.00  0.00    -0.550 OA
ATOM     10  O   UNL     1      13.421  17.105 -24.826  1.00  0.00    -0.550 OA
ENDBRANCH   7   8
ENDBRANCH   6   7
ENDBRANCH   5   6
ENDBRANCH   4   5
ENDBRANCH   3   4
ENDBRANCH   2   3
ENDBRANCH   1   2
BRANCH   1  11
ATOM     11  C   UNL     1      12.604  23.073 -21.950  1.00  0.00     0.000 C 
BRANCH  11  12
ATOM     12  C   UNL     1      11.940  22.127 -20.934  1.00  0.00     0.000 C 
BRANCH  12  13
ATOM     13  C   UNL     1      12.199  22.545 -19.479  1.00  0.00     0.000 C 
BRANCH  13  14
ATOM     14  C   UNL     1      13.534  22.009 -18.941  1.00  0.00     0.000 C 
BRANCH  14  15
ATOM     15  C   UNL     1      13.893  20.669 -19.595  1.00  0.00     0.000 C 
BRANCH  15  16
ATOM     16  C   UNL     1      14.915  19.898 -18.747  1.00  0.00     0.006 C 
BRANCH  16  17
ATOM     17  C   UNL     1      15.643  20.805 -17.746  1.00  0.00     0.053 C 
BRANCH  17  18
ATOM     18  C   UNL     1      17.098  20.464 -17.641  1.00  0.00     0.041 C 
ATOM     19  O   UNL     1      17.455  19.275 -17.424  1.00  0.00    -0.550 OA
ATOM     20  O   UNL     1      18.060  21.450 -17.817  1.00  0.00    -0.550 OA
ENDBRANCH  17  18
ENDBRANCH  16  17
ENDBRANCH  15  16
ENDBRANCH  14  15
ENDBRANCH  13  14
ENDBRANCH  12  13
ENDBRANCH  11  12
ENDBRANCH   1  11
TORSDOF 15
ENDMDL
MODEL 2
REMARK VINA RESULT:    -4.477      1.764      6.248
REMARK INTER + INTRA:          -9.288
REMARK INTER:                  -7.737
REMARK INTRA:                  -1.550
REMARK UNBOUND:                -0.884
REMARK SMILES O=C([O-])CCCCCCCCCCCCCCC(=O)[O-]
REMARK SMILES IDX 10 1 9 2 8 3 7 4 6 5 5 6 4 7 2 8 1 9 3 10 11 11 12 12 13 13
REMARK SMILES IDX 14 14 15 15 16 16 17 17 18 18 19 19 20 20
REMARK H PARENT
REMARK Flexibility Score: inf
ROOT
ATOM      1  C   UNL     1      13.440  22.270 -25.717  1.00  0.00     0.000 C 
ENDROOT
BRANCH   1   2
ATOM      2  C   UNL     1      12.678  23.252 -24.810  1.00  0.00     0.000 C 
BRANCH   2   3
ATOM      3  C   UNL     1      12.051  22.572 -23.582  1.00  0.00     0.000 C 
BRANCH   3   4
ATOM      4  C   UNL     1      12.646  23.071 -22.252  1.00  0.00     0.000 C 
BRANCH   4   5
ATOM      5  C   UNL     1      12.781  22.004 -21.148  1.00  0.00     0.000 C 
BRANCH   5   6
ATOM      6  C   UNL     1      12.971  22.557 -19.724  1.00  0.00     0.006 C 
BRANCH   6   7
ATOM      7  C   UNL     1      13.209  21.455 -18.685  1.00  0.00     0.053 C 
BRANCH   7   8
ATOM      8  C   UNL     1      14.582  20.881 -18.836  1.00  0.00     0.041 C 
ATOM      9  O   UNL     1      14.733  19.672 -19.155  1.00  0.00    -0.550 OA
ATOM     10  O   UNL     1      15.698  21.693 -18.673  1.00  0.00    -0.550 OA
ENDBRANCH   7   8
ENDBRANCH   6   7
ENDBRANCH   5   6
ENDBRANCH   4   5
ENDBRANCH   3   4
ENDBRANCH   2   3
ENDBRANCH   1   2
BRANCH   1  11
ATOM     11  C   UNL     1      12.999  22.263 -27.192  1.00  0.00     0.000 C 
BRANCH  11  12
ATOM     12  C   UNL     1      12.603  20.864 -27.693  1.00  0.00     0.000 C 
BRANCH  12  13
ATOM     13  C   UNL     1      11.920  20.018 -26.608  1.00  0.00     0.000 C 
BRANCH  13  14
ATOM     14  C   UNL     1      12.699  18.733 -26.284  1.00  0.00     0.000 C 
BRANCH  14  15
ATOM     15  C   UNL     1      12.397  18.251 -24.861  1.00  0.00     0.000 C 
BRANCH  15  16
ATOM     16  C   UNL     1      13.103  19.131 -23.819  1.00  0.00     0.006 C 
BRANCH  16  17
ATOM     17  C   UNL     1      13.242  18.428 -22.463  1.00  0.00     0.053 C 
BRANCH  17  18
ATOM     18  C   UNL     1      14.450  17.542 -22.416  1.00  0.00     0.041 C 
ATOM     19  O   UNL     1      15.546  17.988 -21.983  1.00  0.00    -0.550 OA
ATOM     20  O   UNL     1      14.357  16.216 -22.819  1.00  0.00    -0.550 OA
ENDBRANCH  17  18
ENDBRANCH  16  17
ENDBRANCH  15  16
ENDBRANCH  14  15
ENDBRANCH  13  14
ENDBRANCH  12  13
ENDBRANCH  11  12
ENDBRANCH   1  11
TORSDOF 15
ENDMDL
MODEL 3
REMARK VINA RESULT:    -4.476      0.791      7.737
REMARK INTER + INTRA:          -9.285
REMARK INTER:                  -8.385
REMARK INTRA:                  -0.900
REMARK UNBOUND:                -0.884
REMARK SMILES O=C([O-])CCCCCCCCCCCCCCC(=O)[O-]
REMARK SMILES IDX 10 1 9 2 8 3 7 4 6 5 5 6 4 7 2 8 1 9 3 10 11 11 12 12 13 13
REMARK SMILES IDX 14 14 15 15 16 16 17 17 18 18 19 19 20 20
REMARK H PARENT
REMARK Flexibility Score: inf
ROOT
ATOM      1  C   UNL     1      13.281  22.298 -22.340  1.00  0.00     0.000 C 
ENDROOT
BRANCH   1   2
ATOM      2  C   UNL     1      12.947  22.877 -20.954  1.00  0.00     0.000 C 
BRANCH   2   3
ATOM      3  C   UNL     1      12.204  21.880 -20.050  1.00  0.00     0.000 C 
BRANCH   3   4
ATOM      4  C   UNL     1      12.963  21.575 -18.745  1.00  0.00     0.000 C 
BRANCH   4   5
ATOM      5  C   UNL     1      14.500  21.553 -18.865  1.00  0.00     0.000 C 
BRANCH   5   6
ATOM      6  C   UNL     1      15.232  20.768 -17.762  1.00  0.00     0.006 C 
BRANCH   6   7
ATOM      7  C   UNL     1      16.439  19.985 -18.290  1.00  0.00     0.053 C 
BRANCH   7   8
ATOM      8  C   UNL     1      17.676  20.360 -17.536  1.00  0.00     0.041 C 
ATOM      9  O   UNL     1      18.185  21.503 -17.682  1.00  0.00    -0.550 OA
ATOM     10  O   UNL     1      18.240  19.466 -16.635  1.00  0.00    -0.550 OA
ENDBRANCH   7   8
ENDBRANCH   6   7
ENDBRANCH   5   6
ENDBRANCH   4   5
ENDBRANCH   3   4
ENDBRANCH   2   3
ENDBRANCH   1   2
BRANCH   1  11
ATOM     11  C   UNL     1      12.238  22.583 -23.436  1.00  0.00     0.000 C 
BRANCH  11  12
ATOM     12  C   UNL     1      12.829  23.322 -24.649  1.00  0.00     0.000 C 
BRANCH  12  13
ATOM     13  C   UNL     1      12.137  22.943 -25.967  1.00  0.00     0.000 C 
BRANCH  13  14
ATOM     14  C   UNL     1      13.079  22.222 -26.942  1.00  0.00     0.000 C 
BRANCH  14  15
ATOM     15  C   UNL     1      12.441  20.933 -27.473  1.00  0.00     0.000 C 
BRANCH  15  16
ATOM     16  C   UNL     1      11.962  20.040 -26.318  1.00  0.00     0.006 C 
BRANCH  16  17
ATOM     17  C   UNL     1      12.723  18.710 -26.258  1.00  0.00     0.053 C 
BRANCH  17  18
ATOM     18  C   UNL     1      13.051  18.320 -24.849  1.00  0.00     0.041 C 
ATOM     19  O   UNL     1      12.978  19.171 -23.923  1.00  0.00    -0.550 OA
ATOM     20  O   UNL     1      13.404  17.009 -24.553  1.00  0.00    -0.550 OA
ENDBRANCH  17  18
ENDBRANCH  16  17
ENDBRANCH  15  16
ENDBRANCH  14  15
ENDBRANCH  13  14
ENDBRANCH  12  13
ENDBRANCH  11  12
ENDBRANCH   1  11
TORSDOF 15
ENDMDL
MODEL 4
REMARK VINA RESULT:    -4.431     19.904     22.691
REMARK INTER + INTRA:          -9.200
REMARK INTER:                  -7.827
REMARK INTRA:                  -1.372
REMARK UNBOUND:                -0.884
REMARK SMILES O=C([O-])CCCCCCCCCCCCCCC(=O)[O-]
REMARK SMILES IDX 10 1 9 2 8 3 7 4 6 5 5 6 4 7 2 8 1 9 3 10 11 11 12 12 13 13
REMARK SMILES IDX 14 14 15 15 16 16 17 17 18 18 19 19 20 20
REMARK H PARENT
REMARK Flexibility Score: inf
ROOT
ATOM      1  C   UNL     1      27.332   7.494 -18.423  1.00  0.00     0.000 C 
ENDROOT
BRANCH   1   2
ATOM      2  C   UNL     1      28.627   8.083 -17.837  1.00  0.00     0.000 C 
BRANCH   2   3
ATOM      3  C   UNL     1      29.642   7.006 -17.421  1.00  0.00     0.000 C 
BRANCH   3   4
ATOM      4  C   UNL     1      29.044   5.958 -16.463  1.00  0.00     0.000 C 
BRANCH   4   5
ATOM      5  C   UNL     1      29.042   6.353 -14.972  1.00  0.00     0.000 C 
BRANCH   5   6
ATOM      6  C   UNL     1      27.659   6.346 -14.297  1.00  0.00     0.006 C 
BRANCH   6   7
ATOM      7  C   UNL     1      27.049   4.942 -14.203  1.00  0.00     0.053 C 
BRANCH   7   8
ATOM      8  C   UNL     1      25.663   4.936 -14.765  1.00  0.00     0.041 C 
ATOM      9  O   UNL     1      25.436   5.437 -15.898  1.00  0.00    -0.550 OA
ATOM     10  O   UNL     1      24.629   4.333 -14.060  1.00  0.00    -0.550 OA
ENDBRANCH   7   8
ENDBRANCH   6   7
ENDBRANCH   5   6
ENDBRANCH   4   5
ENDBRANCH   3   4
ENDBRANCH   2   3
ENDBRANCH   1   2
BRANCH   1  11
ATOM     11  C   UNL     1      27.349   7.263 -19.945  1.00  0.00     0.000 C 
BRANCH  11  12
ATOM     12  C   UNL     1      27.601   5.794 -20.326  1.00  0.00     0.000 C 
BRANCH  12  13
ATOM     13  C   UNL     1      28.687   5.639 -21.401  1.00  0.00     0.000 C 
BRANCH  13  14
ATOM     14  C   UNL     1      30.106   5.671 -20.815  1.00  0.00     0.000 C 
BRANCH  14  15
ATOM     15  C   UNL     1      31.081   4.876 -21.692  1.00  0.00     0.000 C 
BRANCH  15  16
ATOM     16  C   UNL     1      30.409   4.429 -22.998  1.00  0.00     0.006 C 
BRANCH  16  17
ATOM     17  C   UNL     1      31.375   4.458 -24.189  1.00  0.00     0.053 C 
BRANCH  17  18
ATOM     18  C   UNL     1      31.063   5.580 -25.132  1.00  0.00     0.041 C 
ATOM     19  O   UNL     1      30.674   6.692 -24.686  1.00  0.00    -0.550 OA
ATOM     20  O   UNL     1      31.234   5.408 -26.500  1.00  0.00    -0.550 OA
ENDBRANCH  17  18
ENDBRANCH  16  17
ENDBRANCH  15  16
ENDBRANCH  14  15
ENDBRANCH  13  14
ENDBRANCH  12  13
ENDBRANCH  11  12
ENDBRANCH   1  11
TORSDOF 15
ENDMDL
MODEL 5
REMARK VINA RESULT:    -4.409      2.173      3.202
REMARK INTER + INTRA:          -9.159
REMARK INTER:                  -7.510
REMARK INTRA:                  -1.648
REMARK UNBOUND:                -0.884
REMARK SMILES O=C([O-])CCCCCCCCCCCCCCC(=O)[O-]
REMARK SMILES IDX 10 1 9 2 8 3 7 4 6 5 5 6 4 7 2 8 1 9 3 10 11 11 12 12 13 13
REMARK SMILES IDX 14 14 15 15 16 16 17 17 18 18 19 19 20 20
REMARK H PARENT
REMARK Flexibility Score: inf
ROOT
ATOM      1  C   UNL     1      13.001  23.101 -21.469  1.00  0.00     0.000 C 
ENDROOT
BRANCH   1   2
ATOM      2  C   UNL     1      12.636  23.011 -22.962  1.00  0.00     0.000 C 
BRANCH   2   3
ATOM      3  C   UNL     1      13.584  22.098 -23.757  1.00  0.00     0.000 C 
BRANCH   3   4
ATOM      4  C   UNL     1      12.856  20.917 -24.425  1.00  0.00     0.000 C 
BRANCH   4   5
ATOM      5  C   UNL     1      13.126  19.535 -23.796  1.00  0.00     0.000 C 
BRANCH   5   6
ATOM      6  C   UNL     1      13.860  19.565 -22.443  1.00  0.00     0.006 C 
BRANCH   6   7
ATOM      7  C   UNL     1      13.059  18.903 -21.316  1.00  0.00     0.053 C 
BRANCH   7   8
ATOM      8  C   UNL     1      13.675  17.595 -20.934  1.00  0.00     0.041 C 
ATOM      9  O   UNL     1      13.766  16.666 -21.780  1.00  0.00    -0.550 OA
ATOM     10  O   UNL     1      14.194  17.416 -19.658  1.00  0.00    -0.550 OA
ENDBRANCH   7   8
ENDBRANCH   6   7
ENDBRANCH   5   6
ENDBRANCH   4   5
ENDBRANCH   3   4
ENDBRANCH   2   3
ENDBRANCH   1   2
BRANCH   1  11
ATOM     11  C   UNL     1      11.923  22.582 -20.500  1.00  0.00     0.000 C 
BRANCH  11  12
ATOM     12  C   UNL     1      12.515  21.913 -19.247  1.00  0.00     0.000 C 
BRANCH  12  13
ATOM     13  C   UNL     1      14.049  21.846 -19.282  1.00  0.00     0.000 C 
BRANCH  13  14
ATOM     14  C   UNL     1      14.627  20.972 -18.158  1.00  0.00     0.000 C 
BRANCH  14  15
ATOM     15  C   UNL     1      15.918  20.278 -18.609  1.00  0.00     0.000 C 
BRANCH  15  16
ATOM     16  C   UNL     1      16.606  19.574 -17.431  1.00  0.00     0.006 C 
BRANCH  16  17
ATOM     17  C   UNL     1      17.938  20.236 -17.056  1.00  0.00     0.053 C 
BRANCH  17  18
ATOM     18  C   UNL     1      18.743  19.380 -16.127  1.00  0.00     0.041 C 
ATOM     19  O   UNL     1      19.919  19.047 -16.433  1.00  0.00    -0.550 OA
ATOM     20  O   UNL     1      18.209  18.977 -14.910  1.00  0.00    -0.550 OA
ENDBRANCH  17  18
ENDBRANCH  16  17
ENDBRANCH  15  16
ENDBRANCH  14  15
ENDBRANCH  13  14
ENDBRANCH  12  13
ENDBRANCH  11  12
ENDBRANCH   1  11
TORSDOF 15
ENDMDL
MODEL 6
REMARK VINA RESULT:    -4.366      3.166      6.008
REMARK INTER + INTRA:          -9.079
REMARK INTER:                  -7.265
REMARK INTRA:                  -1.814
REMARK UNBOUND:                -0.884
REMARK SMILES O=C([O-])CCCCCCCCCCCCCCC(=O)[O-]
REMARK SMILES IDX 10 1 9 2 8 3 7 4 6 5 5 6 4 7 2 8 1 9 3 10 11 11 12 12 13 13
REMARK SMILES IDX 14 14 15 15 16 16 17 17 18 18 19 19 20 20
REMARK H PARENT
REMARK Flexibility Score: inf
ROOT
ATOM      1  C   UNL     1      15.193  20.934 -17.965  1.00  0.00     0.000 C 
ENDROOT
BRANCH   1   2
ATOM      2  C   UNL     1      14.427  21.718 -19.045  1.00  0.00     0.000 C 
BRANCH   2   3
ATOM      3  C   UNL     1      12.921  21.824 -18.754  1.00  0.00     0.000 C 
BRANCH   3   4
ATOM      4  C   UNL     1      12.103  22.261 -19.984  1.00  0.00     0.000 C 
BRANCH   4   5
ATOM      5  C   UNL     1      12.917  22.911 -21.121  1.00  0.00     0.000 C 
BRANCH   5   6
ATOM      6  C   UNL     1      12.463  22.542 -22.544  1.00  0.00     0.006 C 
BRANCH   6   7
ATOM      7  C   UNL     1      13.634  22.200 -23.473  1.00  0.00     0.053 C 
BRANCH   7   8
ATOM      8  C   UNL     1      13.576  23.032 -24.715  1.00  0.00     0.041 C 
ATOM      9  O   UNL     1      12.492  23.562 -25.073  1.00  0.00    -0.550 OA
ATOM     10  O   UNL     1      14.731  23.263 -25.452  1.00  0.00    -0.550 OA
ENDBRANCH   7   8
ENDBRANCH   6   7
ENDBRANCH   5   6
ENDBRANCH   4   5
ENDBRANCH   3   4
ENDBRANCH   2   3
ENDBRANCH   1   2
BRANCH   1  11
ATOM     11  C   UNL     1      16.352  20.065 -18.486  1.00  0.00     0.000 C 
BRANCH  11  12
ATOM     12  C   UNL     1      16.502  18.741 -17.717  1.00  0.00     0.000 C 
BRANCH  12  13
ATOM     13  C   UNL     1      16.178  17.514 -18.582  1.00  0.00     0.000 C 
BRANCH  13  14
ATOM     14  C   UNL     1      15.728  17.896 -20.001  1.00  0.00     0.000 C 
BRANCH  14  15
ATOM     15  C   UNL     1      14.232  17.623 -20.196  1.00  0.00     0.000 C 
BRANCH  15  16
ATOM     16  C   UNL     1      13.555  18.779 -20.946  1.00  0.00     0.006 C 
BRANCH  16  17
ATOM     17  C   UNL     1      13.764  18.690 -22.463  1.00  0.00     0.053 C 
BRANCH  17  18
ATOM     18  C   UNL     1      13.434  17.327 -22.991  1.00  0.00     0.041 C 
ATOM     19  O   UNL     1      14.350  16.575 -23.419  1.00  0.00    -0.550 OA
ATOM     20  O   UNL     1      12.121  16.873 -22.980  1.00  0.00    -0.550 OA
ENDBRANCH  17  18
ENDBRANCH  16  17
ENDBRANCH  15  16
ENDBRANCH  14  15
ENDBRANCH  13  14
ENDBRANCH  12  13
ENDBRANCH  11  12
ENDBRANCH   1  11
TORSDOF 15
ENDMDL
MODEL 7
REMARK VINA RESULT:    -4.327      2.481      6.341
REMARK INTER + INTRA:          -9.006
REMARK INTER:                  -7.482
REMARK INTRA:                  -1.524
REMARK UNBOUND:                -0.884
REMARK SMILES O=C([O-])CCCCCCCCCCCCCCC(=O)[O-]
REMARK SMILES IDX 10 1 9 2 8 3 7 4 6 5 5 6 4 7 2 8 1 9 3 10 11 11 12 12 13 13
REMARK SMILES IDX 14 14 15 15 16 16 17 17 18 18 19 19 20 20
REMARK H PARENT
REMARK Flexibility Score: inf
ROOT
ATOM      1  C   UNL     1      12.639  21.553 -27.151  1.00  0.00     0.000 C 
ENDROOT
BRANCH   1   2
ATOM      2  C   UNL     1      13.165  22.636 -26.192  1.00  0.00     0.000 C 
BRANCH   2   3
ATOM      3  C   UNL     1      13.383  22.115 -24.762  1.00  0.00     0.000 C 
BRANCH   3   4
ATOM      4  C   UNL     1      12.683  22.980 -23.697  1.00  0.00     0.000 C 
BRANCH   4   5
ATOM      5  C   UNL     1      12.307  22.246 -22.394  1.00  0.00     0.000 C 
BRANCH   5   6
ATOM      6  C   UNL     1      12.533  23.050 -21.102  1.00  0.00     0.006 C 
BRANCH   6   7
ATOM      7  C   UNL     1      13.727  22.544 -20.285  1.00  0.00     0.053 C 
BRANCH   7   8
ATOM      8  C   UNL     1      13.266  21.978 -18.979  1.00  0.00     0.041 C 
ATOM      9  O   UNL     1      13.999  21.178 -18.340  1.00  0.00    -0.550 OA
ATOM     10  O   UNL     1      12.046  22.371 -18.443  1.00  0.00    -0.550 OA
ENDBRANCH   7   8
ENDBRANCH   6   7
ENDBRANCH   5   6
ENDBRANCH   4   5
ENDBRANCH   3   4
ENDBRANCH   2   3
ENDBRANCH   1   2
BRANCH   1  11
ATOM     11  C   UNL     1      11.890  20.390 -26.477  1.00  0.00     0.000 C 
BRANCH  11  12
ATOM     12  C   UNL     1      12.425  19.009 -26.896  1.00  0.00     0.000 C 
BRANCH  12  13
ATOM     13  C   UNL     1      13.017  18.222 -25.718  1.00  0.00     0.000 C 
BRANCH  13  14
ATOM     14  C   UNL     1      12.310  18.529 -24.389  1.00  0.00     0.000 C 
BRANCH  14  15
ATOM     15  C   UNL     1      13.327  18.740 -23.260  1.00  0.00     0.000 C 
BRANCH  15  16
ATOM     16  C   UNL     1      13.479  17.469 -22.411  1.00  0.00     0.006 C 
BRANCH  16  17
ATOM     17  C   UNL     1      14.773  16.709 -22.728  1.00  0.00     0.053 C 
BRANCH  17  18
ATOM     18  C   UNL     1      14.496  15.327 -23.237  1.00  0.00     0.041 C 
ATOM     19  O   UNL     1      13.391  15.063 -23.781  1.00  0.00    -0.550 OA
ATOM     20  O   UNL     1      15.470  14.341 -23.142  1.00  0.00    -0.550 OA
ENDBRANCH  17  18
ENDBRANCH  16  17
ENDBRANCH  15  16
ENDBRANCH  14  15
ENDBRANCH  13  14
ENDBRANCH  12  13
ENDBRANCH  11  12
ENDBRANCH   1  11
TORSDOF 15
ENDMDL
MODEL 8
REMARK VINA RESULT:    -4.313      2.833      5.890
REMARK INTER + INTRA:          -8.979
REMARK INTER:                  -8.148
REMARK INTRA:                  -0.831
REMARK UNBOUND:                -0.884
REMARK SMILES O=C([O-])CCCCCCCCCCCCCCC(=O)[O-]
REMARK SMILES IDX 10 1 9 2 8 3 7 4 6 5 5 6 4 7 2 8 1 9 3 10 11 11 12 12 13 13
REMARK SMILES IDX 14 14 15 15 16 16 17 17 18 18 19 19 20 20
REMARK H PARENT
REMARK Flexibility Score: inf
ROOT
ATOM      1  C   UNL     1      15.511  20.634 -18.495  1.00  0.00     0.000 C 
ENDROOT
BRANCH   1   2
ATOM      2  C   UNL     1      14.072  21.144 -18.304  1.00  0.00     0.000 C 
BRANCH   2   3
ATOM      3  C   UNL     1      13.271  21.185 -19.616  1.00  0.00     0.000 C 
BRANCH   3   4
ATOM      4  C   UNL     1      12.435  22.470 -19.768  1.00  0.00     0.000 C 
BRANCH   4   5
ATOM      5  C   UNL     1      12.678  23.265 -21.066  1.00  0.00     0.000 C 
BRANCH   5   6
ATOM      6  C   UNL     1      13.249  22.446 -22.238  1.00  0.00     0.006 C 
BRANCH   6   7
ATOM      7  C   UNL     1      12.472  22.653 -23.543  1.00  0.00     0.053 C 
BRANCH   7   8
ATOM      8  C   UNL     1      13.351  22.384 -24.723  1.00  0.00     0.041 C 
ATOM      9  O   UNL     1      14.357  23.108 -24.943  1.00  0.00    -0.550 OA
ATOM     10  O   UNL     1      13.088  21.302 -25.554  1.00  0.00    -0.550 OA
ENDBRANCH   7   8
ENDBRANCH   6   7
ENDBRANCH   5   6
ENDBRANCH   4   5
ENDBRANCH   3   4
ENDBRANCH   2   3
ENDBRANCH   1   2
BRANCH   1  11
ATOM     11  C   UNL     1      16.606  21.516 -17.868  1.00  0.00     0.000 C 
BRANCH  11  12
ATOM     12  C   UNL     1      17.881  20.730 -17.517  1.00  0.00     0.000 C 
BRANCH  12  13
ATOM     13  C   UNL     1      17.619  19.591 -16.521  1.00  0.00     0.000 C 
BRANCH  13  14
ATOM     14  C   UNL     1      18.155  18.239 -17.017  1.00  0.00     0.000 C 
BRANCH  14  15
ATOM     15  C   UNL     1      19.238  17.698 -16.076  1.00  0.00     0.000 C 
BRANCH  15  16
ATOM     16  C   UNL     1      20.365  18.724 -15.886  1.00  0.00     0.006 C 
BRANCH  16  17
ATOM     17  C   UNL     1      20.717  18.934 -14.408  1.00  0.00     0.053 C 
BRANCH  17  18
ATOM     18  C   UNL     1      19.903  20.031 -13.792  1.00  0.00     0.041 C 
ATOM     19  O   UNL     1      20.095  21.229 -14.132  1.00  0.00    -0.550 OA
ATOM     20  O   UNL     1      18.910  19.728 -12.869  1.00  0.00    -0.550 OA
ENDBRANCH  17  18
ENDBRANCH  16  17
ENDBRANCH  15  16
ENDBRANCH  14  15
ENDBRANCH  13  14
ENDBRANCH  12  13
ENDBRANCH  11  12
ENDBRANCH   1  11
TORSDOF 15
ENDMDL
MODEL 9
REMARK VINA RESULT:    -4.312      3.046      5.818
REMARK INTER + INTRA:          -8.977
REMARK INTER:                  -6.767
REMARK INTRA:                  -2.210
REMARK UNBOUND:                -0.884
REMARK SMILES O=C([O-])CCCCCCCCCCCCCCC(=O)[O-]
REMARK SMILES IDX 10 1 9 2 8 3 7 4 6 5 5 6 4 7 2 8 1 9 3 10 11 11 12 12 13 13
REMARK SMILES IDX 14 14 15 15 16 16 17 17 18 18 19 19 20 20
REMARK H PARENT
REMARK Flexibility Score: inf
ROOT
ATOM      1  C   UNL     1      13.556  21.725 -22.813  1.00  0.00     0.000 C 
ENDROOT
BRANCH   1   2
ATOM      2  C   UNL     1      12.642  22.856 -22.309  1.00  0.00     0.000 C 
BRANCH   2   3
ATOM      3  C   UNL     1      12.922  23.248 -20.849  1.00  0.00     0.000 C 
BRANCH   3   4
ATOM      4  C   UNL     1      12.093  22.430 -19.840  1.00  0.00     0.000 C 
BRANCH   4   5
ATOM      5  C   UNL     1      12.911  21.551 -18.873  1.00  0.00     0.000 C 
BRANCH   5   6
ATOM      6  C   UNL     1      14.430  21.546 -19.120  1.00  0.00     0.006 C 
BRANCH   6   7
ATOM      7  C   UNL     1      15.113  20.273 -18.605  1.00  0.00     0.053 C 
BRANCH   7   8
ATOM      8  C   UNL     1      16.364  20.616 -17.861  1.00  0.00     0.041 C 
ATOM      9  O   UNL     1      16.955  21.705 -18.083  1.00  0.00    -0.550 OA
ATOM     10  O   UNL     1      16.853  19.754 -16.887  1.00  0.00    -0.550 OA
ENDBRANCH   7   8
ENDBRANCH   6   7
ENDBRANCH   5   6
ENDBRANCH   4   5
ENDBRANCH   3   4
ENDBRANCH   2   3
ENDBRANCH   1   2
BRANCH   1  11
ATOM     11  C   UNL     1      12.906  20.759 -23.820  1.00  0.00     0.000 C 
BRANCH  11  12
ATOM     12  C   UNL     1      12.929  19.295 -23.347  1.00  0.00     0.000 C 
BRANCH  12  13
ATOM     13  C   UNL     1      12.852  19.165 -21.819  1.00  0.00     0.000 C 
BRANCH  13  14
ATOM     14  C   UNL     1      13.854  18.142 -21.262  1.00  0.00     0.000 C 
BRANCH  14  15
ATOM     15  C   UNL     1      15.189  18.214 -22.014  1.00  0.00     0.000 C 
BRANCH  15  16
ATOM     16  C   UNL     1      16.348  17.743 -21.123  1.00  0.00     0.006 C 
BRANCH  16  17
ATOM     17  C   UNL     1      15.954  16.556 -20.235  1.00  0.00     0.053 C 
BRANCH  17  18
ATOM     18  C   UNL     1      16.485  16.703 -18.842  1.00  0.00     0.041 C 
ATOM     19  O   UNL     1      17.727  16.776 -18.642  1.00  0.00    -0.550 OA
ATOM     20  O   UNL     1      15.609  16.794 -17.768  1.00  0.00    -0.550 OA
ENDBRANCH  17  18
ENDBRANCH  16  17
ENDBRANCH  15  16
ENDBRANCH  14  15
ENDBRANCH  13  14
ENDBRANCH  12  13
ENDBRANCH  11  12
ENDBRANCH   1  11
TORSDOF 15
ENDMDL
