MODEL 1
REMARK VINA RESULT:    -7.260      0.000      0.000
REMARK INTER + INTRA:          -8.815
REMARK INTER:                  -8.533
REMARK INTRA:                  -0.282
REMARK UNBOUND:                -0.282
REMARK SMILES O=c1cc(-c2ccc(O)c(O)c2)oc2cc(O)cc(O)c12
REMARK SMILES IDX 4 1 3 2 2 3 1 4 21 5 19 6 18 7 16 8 15 9 14 10 13 11 5 12
REMARK SMILES IDX 6 13 7 14 8 15 12 16 10 17 9 18 11 20 20 22 17 24
REMARK H PARENT 9 19 11 21 20 23 17 25
REMARK Flexibility Score: inf
ROOT
ATOM      1  C   UNL     1      22.562  11.362  11.136  1.00  0.00     0.138 A 
ATOM      2  C   UNL     1      21.977  12.037  10.057  1.00  0.00     0.100 A 
ATOM      3  C   UNL     1      22.753  12.897   9.278  1.00  0.00     0.197 A 
ATOM      4  O   UNL     1      22.186  13.537   8.355  1.00  0.00    -0.289 OA
ATOM      5  C   UNL     1      24.129  13.057   9.565  1.00  0.00     0.107 A 
ATOM      6  C   UNL     1      25.027  13.875   8.815  1.00  0.00     0.134 A 
ATOM      7  C   UNL     1      26.342  14.047   9.263  1.00  0.00     0.093 A 
ATOM      8  C   UNL     1      26.810  13.381  10.400  1.00  0.00     0.123 A 
ATOM      9  C   UNL     1      25.956  12.538  11.107  1.00  0.00     0.094 A 
ATOM     10  C   UNL     1      24.629  12.373  10.705  1.00  0.00     0.146 A 
ATOM     11  O   UNL     1      23.844  11.571  11.417  1.00  0.00    -0.456 OA
ENDROOT
BRANCH   1  12
ATOM     12  C   UNL     1      21.784  10.435  11.996  1.00  0.00     0.021 A 
ATOM     13  C   UNL     1      22.368   9.283  12.559  1.00  0.00     0.016 A 
ATOM     14  C   UNL     1      21.615   8.434  13.374  1.00  0.00     0.051 A 
ATOM     15  C   UNL     1      20.272   8.722  13.645  1.00  0.00     0.157 A 
ATOM     16  C   UNL     1      20.439  10.724  12.286  1.00  0.00     0.062 A 
ATOM     17  C   UNL     1      19.683   9.869  13.103  1.00  0.00     0.158 A 
BRANCH  15  18
ATOM     18  O   UNL     1      19.518   7.875  14.457  1.00  0.00    -0.504 OA
ATOM     19  H   UNL     1      19.037   7.068  14.078  1.00  0.00     0.293 HD
ENDBRANCH  15  18
BRANCH  17  20
ATOM     20  O   UNL     1      18.348  10.156  13.379  1.00  0.00    -0.504 OA
ATOM     21  H   UNL     1      17.671   9.420  13.548  1.00  0.00     0.293 HD
ENDBRANCH  17  20
ENDBRANCH   1  12
BRANCH   6  22
ATOM     22  O   UNL     1      24.686  14.516   7.619  1.00  0.00    -0.507 OA
ATOM     23  H   UNL     1      24.964  14.207   6.701  1.00  0.00     0.293 HD
ENDBRANCH   6  22
BRANCH   8  24
ATOM     24  O   UNL     1      28.125  13.546  10.829  1.00  0.00    -0.508 OA
ATOM     25  H   UNL     1      28.411  14.360  11.359  1.00  0.00     0.293 HD
ENDBRANCH   8  24
TORSDOF 5
ENDMDL
MODEL 2
REMARK VINA RESULT:    -6.669      2.018      7.498
REMARK INTER + INTRA:          -8.120
REMARK INTER:                  -7.807
REMARK INTRA:                  -0.313
REMARK UNBOUND:                -0.282
REMARK SMILES O=c1cc(-c2ccc(O)c(O)c2)oc2cc(O)cc(O)c12
REMARK SMILES IDX 4 1 3 2 2 3 1 4 21 5 19 6 18 7 16 8 15 9 14 10 13 11 5 12
REMARK SMILES IDX 6 13 7 14 8 15 12 16 10 17 9 18 11 20 20 22 17 24
REMARK H PARENT 9 19 11 21 20 23 17 25
REMARK Flexibility Score: inf
ROOT
ATOM      1  C   UNL     1      25.626  12.409  11.147  1.00  0.00     0.138 A 
ATOM      2  C   UNL     1      26.391  11.944  12.225  1.00  0.00     0.100 A 
ATOM      3  C   UNL     1      25.813  11.090  13.165  1.00  0.00     0.197 A 
ATOM      4  O   UNL     1      26.506  10.739  14.154  1.00  0.00    -0.289 OA
ATOM      5  C   UNL     1      24.468  10.677  13.006  1.00  0.00     0.107 A 
ATOM      6  C   UNL     1      23.786   9.777  13.879  1.00  0.00     0.134 A 
ATOM      7  C   UNL     1      22.421   9.532  13.687  1.00  0.00     0.093 A 
ATOM      8  C   UNL     1      21.728  10.106  12.618  1.00  0.00     0.123 A 
ATOM      9  C   UNL     1      22.399  10.943  11.729  1.00  0.00     0.094 A 
ATOM     10  C   UNL     1      23.752  11.234  11.913  1.00  0.00     0.146 A 
ATOM     11  O   UNL     1      24.350  12.049  11.051  1.00  0.00    -0.456 OA
ENDROOT
BRANCH   1  12
ATOM     12  C   UNL     1      26.191  13.318  10.117  1.00  0.00     0.021 A 
ATOM     13  C   UNL     1      27.581  13.437   9.920  1.00  0.00     0.016 A 
ATOM     14  C   UNL     1      28.086  14.292   8.937  1.00  0.00     0.051 A 
ATOM     15  C   UNL     1      27.215  15.035   8.132  1.00  0.00     0.157 A 
ATOM     16  C   UNL     1      25.324  14.058   9.295  1.00  0.00     0.062 A 
ATOM     17  C   UNL     1      25.831  14.917   8.309  1.00  0.00     0.158 A 
BRANCH  15  18
ATOM     18  O   UNL     1      27.715  15.890   7.150  1.00  0.00    -0.504 OA
ATOM     19  H   UNL     1      28.605  15.713   6.698  1.00  0.00     0.293 HD
ENDBRANCH  15  18
BRANCH  17  20
ATOM     20  O   UNL     1      24.966  15.655   7.503  1.00  0.00    -0.504 OA
ATOM     21  H   UNL     1      24.955  16.668   7.526  1.00  0.00     0.293 HD
ENDBRANCH  17  20
ENDBRANCH   1  12
BRANCH   6  22
ATOM     22  O   UNL     1      24.404   9.085  14.926  1.00  0.00    -0.507 OA
ATOM     23  H   UNL     1      24.176   8.145  15.208  1.00  0.00     0.293 HD
ENDBRANCH   6  22
BRANCH   8  24
ATOM     24  O   UNL     1      20.373   9.844  12.426  1.00  0.00    -0.508 OA
ATOM     25  H   UNL     1      19.898   9.109  12.936  1.00  0.00     0.293 HD
ENDBRANCH   8  24
TORSDOF 5
ENDMDL
MODEL 3
REMARK VINA RESULT:    -6.462      5.056      8.336
REMARK INTER + INTRA:          -7.877
REMARK INTER:                  -7.567
REMARK INTRA:                  -0.310
REMARK UNBOUND:                -0.282
REMARK SMILES O=c1cc(-c2ccc(O)c(O)c2)oc2cc(O)cc(O)c12
REMARK SMILES IDX 4 1 3 2 2 3 1 4 21 5 19 6 18 7 16 8 15 9 14 10 13 11 5 12
REMARK SMILES IDX 6 13 7 14 8 15 12 16 10 17 9 18 11 20 20 22 17 24
REMARK H PARENT 9 19 11 21 20 23 17 25
REMARK Flexibility Score: inf
ROOT
ATOM      1  C   UNL     1      25.813  17.129   7.439  1.00  0.00     0.138 A 
ATOM      2  C   UNL     1      26.916  17.869   6.991  1.00  0.00     0.100 A 
ATOM      3  C   UNL     1      26.711  19.075   6.318  1.00  0.00     0.197 A 
ATOM      4  O   UNL     1      27.717  19.686   5.873  1.00  0.00    -0.289 OA
ATOM      5  C   UNL     1      25.394  19.555   6.120  1.00  0.00     0.107 A 
ATOM      6  C   UNL     1      25.066  20.789   5.484  1.00  0.00     0.134 A 
ATOM      7  C   UNL     1      23.723  21.104   5.241  1.00  0.00     0.093 A 
ATOM      8  C   UNL     1      22.695  20.258   5.667  1.00  0.00     0.123 A 
ATOM      9  C   UNL     1      23.004  19.077   6.336  1.00  0.00     0.094 A 
ATOM     10  C   UNL     1      24.334  18.718   6.563  1.00  0.00     0.146 A 
ATOM     11  O   UNL     1      24.586  17.575   7.193  1.00  0.00    -0.456 OA
ENDROOT
BRANCH   1  12
ATOM     12  C   UNL     1      25.974  15.841   8.161  1.00  0.00     0.021 A 
ATOM     13  C   UNL     1      27.136  15.550   8.903  1.00  0.00     0.016 A 
ATOM     14  C   UNL     1      27.256  14.335   9.582  1.00  0.00     0.051 A 
ATOM     15  C   UNL     1      26.220  13.395   9.537  1.00  0.00     0.157 A 
ATOM     16  C   UNL     1      24.933  14.897   8.134  1.00  0.00     0.062 A 
ATOM     17  C   UNL     1      25.055  13.676   8.814  1.00  0.00     0.158 A 
BRANCH  15  18
ATOM     18  O   UNL     1      26.338  12.181  10.213  1.00  0.00    -0.504 OA
ATOM     19  H   UNL     1      25.585  11.820  10.789  1.00  0.00     0.293 HD
ENDBRANCH  15  18
BRANCH  17  20
ATOM     20  O   UNL     1      24.023  12.741   8.776  1.00  0.00    -0.504 OA
ATOM     21  H   UNL     1      23.157  12.927   8.284  1.00  0.00     0.293 HD
ENDBRANCH  17  20
ENDBRANCH   1  12
BRANCH   6  22
ATOM     22  O   UNL     1      26.011  21.744   5.097  1.00  0.00    -0.507 OA
ATOM     23  H   UNL     1      26.952  21.536   4.802  1.00  0.00     0.293 HD
ENDBRANCH   6  22
BRANCH   8  24
ATOM     24  O   UNL     1      21.362  20.588   5.434  1.00  0.00    -0.508 OA
ATOM     25  H   UNL     1      20.754  20.900   6.183  1.00  0.00     0.293 HD
ENDBRANCH   8  24
TORSDOF 5
ENDMDL
MODEL 4
REMARK VINA RESULT:    -6.415      6.879     10.070
REMARK INTER + INTRA:          -7.822
REMARK INTER:                  -7.528
REMARK INTRA:                  -0.294
REMARK UNBOUND:                -0.282
REMARK SMILES O=c1cc(-c2ccc(O)c(O)c2)oc2cc(O)cc(O)c12
REMARK SMILES IDX 4 1 3 2 2 3 1 4 21 5 19 6 18 7 16 8 15 9 14 10 13 11 5 12
REMARK SMILES IDX 6 13 7 14 8 15 12 16 10 17 9 18 11 20 20 22 17 24
REMARK H PARENT 9 19 11 21 20 23 17 25
REMARK Flexibility Score: inf
ROOT
ATOM      1  C   UNL     1      25.619  19.035   6.539  1.00  0.00     0.138 A 
ATOM      2  C   UNL     1      24.369  19.118   5.910  1.00  0.00     0.100 A 
ATOM      3  C   UNL     1      23.995  20.301   5.270  1.00  0.00     0.197 A 
ATOM      4  O   UNL     1      22.843  20.366   4.769  1.00  0.00    -0.289 OA
ATOM      5  C   UNL     1      24.892  21.395   5.236  1.00  0.00     0.107 A 
ATOM      6  C   UNL     1      24.635  22.636   4.579  1.00  0.00     0.134 A 
ATOM      7  C   UNL     1      25.549  23.688   4.711  1.00  0.00     0.093 A 
ATOM      8  C   UNL     1      26.739  23.525   5.425  1.00  0.00     0.123 A 
ATOM      9  C   UNL     1      27.023  22.301   6.024  1.00  0.00     0.094 A 
ATOM     10  C   UNL     1      26.116  21.243   5.940  1.00  0.00     0.146 A 
ATOM     11  O   UNL     1      26.420  20.095   6.538  1.00  0.00    -0.456 OA
ENDROOT
BRANCH   1  12
ATOM     12  C   UNL     1      26.067  17.801   7.233  1.00  0.00     0.021 A 
ATOM     13  C   UNL     1      27.372  17.677   7.750  1.00  0.00     0.016 A 
ATOM     14  C   UNL     1      27.764  16.508   8.408  1.00  0.00     0.051 A 
ATOM     15  C   UNL     1      26.862  15.449   8.566  1.00  0.00     0.157 A 
ATOM     16  C   UNL     1      25.164  16.738   7.408  1.00  0.00     0.062 A 
ATOM     17  C   UNL     1      25.559  15.564   8.067  1.00  0.00     0.158 A 
BRANCH  15  18
ATOM     18  O   UNL     1      27.250  14.281   9.221  1.00  0.00    -0.504 OA
ATOM     19  H   UNL     1      26.782  13.398   9.051  1.00  0.00     0.293 HD
ENDBRANCH  15  18
BRANCH  17  20
ATOM     20  O   UNL     1      24.662  14.510   8.230  1.00  0.00    -0.504 OA
ATOM     21  H   UNL     1      23.771  14.639   8.696  1.00  0.00     0.293 HD
ENDBRANCH  17  20
ENDBRANCH   1  12
BRANCH   6  22
ATOM     22  O   UNL     1      23.519  22.876   3.771  1.00  0.00    -0.507 OA
ATOM     23  H   UNL     1      22.931  22.160   3.374  1.00  0.00     0.293 HD
ENDBRANCH   6  22
BRANCH   8  24
ATOM     24  O   UNL     1      27.650  24.573   5.538  1.00  0.00    -0.508 OA
ATOM     25  H   UNL     1      27.789  25.238   4.785  1.00  0.00     0.293 HD
ENDBRANCH   8  24
TORSDOF 5
ENDMDL
MODEL 5
REMARK VINA RESULT:    -6.296      1.068      2.762
REMARK INTER + INTRA:          -7.682
REMARK INTER:                  -7.384
REMARK INTRA:                  -0.298
REMARK UNBOUND:                -0.282
REMARK SMILES O=c1cc(-c2ccc(O)c(O)c2)oc2cc(O)cc(O)c12
REMARK SMILES IDX 4 1 3 2 2 3 1 4 21 5 19 6 18 7 16 8 15 9 14 10 13 11 5 12
REMARK SMILES IDX 6 13 7 14 8 15 12 16 10 17 9 18 11 20 20 22 17 24
REMARK H PARENT 9 19 11 21 20 23 17 25
REMARK Flexibility Score: inf
ROOT
ATOM      1  C   UNL     1      23.624  10.886  12.048  1.00  0.00     0.138 A 
ATOM      2  C   UNL     1      24.885  10.793  12.652  1.00  0.00     0.100 A 
ATOM      3  C   UNL     1      25.939  11.573  12.174  1.00  0.00     0.197 A 
ATOM      4  O   UNL     1      27.074  11.422  12.696  1.00  0.00    -0.289 OA
ATOM      5  C   UNL     1      25.720  12.474  11.105  1.00  0.00     0.107 A 
ATOM      6  C   UNL     1      26.708  13.348  10.562  1.00  0.00     0.134 A 
ATOM      7  C   UNL     1      26.406  14.111   9.427  1.00  0.00     0.093 A 
ATOM      8  C   UNL     1      25.132  14.078   8.854  1.00  0.00     0.123 A 
ATOM      9  C   UNL     1      24.144  13.268   9.410  1.00  0.00     0.094 A 
ATOM     10  C   UNL     1      24.425  12.469  10.520  1.00  0.00     0.146 A 
ATOM     11  O   UNL     1      23.458  11.700  11.010  1.00  0.00    -0.456 OA
ENDROOT
BRANCH   1  12
ATOM     12  C   UNL     1      22.468  10.081  12.517  1.00  0.00     0.021 A 
ATOM     13  C   UNL     1      22.622   8.748  12.946  1.00  0.00     0.016 A 
ATOM     14  C   UNL     1      21.518   8.017  13.393  1.00  0.00     0.051 A 
ATOM     15  C   UNL     1      20.247   8.603  13.424  1.00  0.00     0.157 A 
ATOM     16  C   UNL     1      21.190  10.666  12.565  1.00  0.00     0.062 A 
ATOM     17  C   UNL     1      20.083   9.930  13.012  1.00  0.00     0.158 A 
BRANCH  15  18
ATOM     18  O   UNL     1      19.144   7.875  13.868  1.00  0.00    -0.504 OA
ATOM     19  H   UNL     1      19.060   6.880  13.692  1.00  0.00     0.293 HD
ENDBRANCH  15  18
BRANCH  17  20
ATOM     20  O   UNL     1      18.817  10.513  13.049  1.00  0.00    -0.504 OA
ATOM     21  H   UNL     1      18.056  10.095  13.572  1.00  0.00     0.293 HD
ENDBRANCH  17  20
ENDBRANCH   1  12
BRANCH   6  22
ATOM     22  O   UNL     1      27.983  13.521  11.109  1.00  0.00    -0.507 OA
ATOM     23  H   UNL     1      28.178  13.636  12.091  1.00  0.00     0.293 HD
ENDBRANCH   6  22
BRANCH   8  24
ATOM     24  O   UNL     1      24.836  14.852   7.734  1.00  0.00    -0.508 OA
ATOM     25  H   UNL     1      25.422  14.835   6.908  1.00  0.00     0.293 HD
ENDBRANCH   8  24
TORSDOF 5
ENDMDL
MODEL 6
REMARK VINA RESULT:    -6.283      8.017     11.405
REMARK INTER + INTRA:          -7.667
REMARK INTER:                  -7.388
REMARK INTRA:                  -0.279
REMARK UNBOUND:                -0.282
REMARK SMILES O=c1cc(-c2ccc(O)c(O)c2)oc2cc(O)cc(O)c12
REMARK SMILES IDX 4 1 3 2 2 3 1 4 21 5 19 6 18 7 16 8 15 9 14 10 13 11 5 12
REMARK SMILES IDX 6 13 7 14 8 15 12 16 10 17 9 18 11 20 20 22 17 24
REMARK H PARENT 9 19 11 21 20 23 17 25
REMARK Flexibility Score: inf
ROOT
ATOM      1  C   UNL     1      26.759  20.327   6.315  1.00  0.00     0.138 A 
ATOM      2  C   UNL     1      27.526  20.649   5.188  1.00  0.00     0.100 A 
ATOM      3  C   UNL     1      27.473  21.941   4.662  1.00  0.00     0.197 A 
ATOM      4  O   UNL     1      28.125  22.183   3.614  1.00  0.00    -0.289 OA
ATOM      5  C   UNL     1      26.669  22.923   5.288  1.00  0.00     0.107 A 
ATOM      6  C   UNL     1      26.568  24.282   4.865  1.00  0.00     0.134 A 
ATOM      7  C   UNL     1      25.650  25.133   5.493  1.00  0.00     0.093 A 
ATOM      8  C   UNL     1      24.874  24.691   6.568  1.00  0.00     0.123 A 
ATOM      9  C   UNL     1      25.005  23.381   7.022  1.00  0.00     0.094 A 
ATOM     10  C   UNL     1      25.887  22.498   6.396  1.00  0.00     0.146 A 
ATOM     11  O   UNL     1      25.970  21.253   6.852  1.00  0.00    -0.456 OA
ENDROOT
BRANCH   1  12
ATOM     12  C   UNL     1      26.779  18.970   6.916  1.00  0.00     0.021 A 
ATOM     13  C   UNL     1      27.965  18.404   7.426  1.00  0.00     0.016 A 
ATOM     14  C   UNL     1      27.952  17.129   7.996  1.00  0.00     0.051 A 
ATOM     15  C   UNL     1      26.759  16.400   8.073  1.00  0.00     0.157 A 
ATOM     16  C   UNL     1      25.582  18.236   7.011  1.00  0.00     0.062 A 
ATOM     17  C   UNL     1      25.572  16.955   7.583  1.00  0.00     0.158 A 
BRANCH  15  18
ATOM     18  O   UNL     1      26.744  15.127   8.641  1.00  0.00    -0.504 OA
ATOM     19  H   UNL     1      25.954  14.798   9.184  1.00  0.00     0.293 HD
ENDBRANCH  15  18
BRANCH  17  20
ATOM     20  O   UNL     1      24.385  16.230   7.665  1.00  0.00    -0.504 OA
ATOM     21  H   UNL     1      23.607  16.548   8.232  1.00  0.00     0.293 HD
ENDBRANCH  17  20
ENDBRANCH   1  12
BRANCH   6  22
ATOM     22  O   UNL     1      27.357  24.847   3.859  1.00  0.00    -0.507 OA
ATOM     23  H   UNL     1      27.090  25.637   3.293  1.00  0.00     0.293 HD
ENDBRANCH   6  22
BRANCH   8  24
ATOM     24  O   UNL     1      23.975  25.550   7.196  1.00  0.00    -0.508 OA
ATOM     25  H   UNL     1      23.553  25.317   8.087  1.00  0.00     0.293 HD
ENDBRANCH   8  24
TORSDOF 5
ENDMDL
MODEL 7
REMARK VINA RESULT:    -6.242      3.203      4.487
REMARK INTER + INTRA:          -7.618
REMARK INTER:                  -7.327
REMARK INTRA:                  -0.291
REMARK UNBOUND:                -0.282
REMARK SMILES O=c1cc(-c2ccc(O)c(O)c2)oc2cc(O)cc(O)c12
REMARK SMILES IDX 4 1 3 2 2 3 1 4 21 5 19 6 18 7 16 8 15 9 14 10 13 11 5 12
REMARK SMILES IDX 6 13 7 14 8 15 12 16 10 17 9 18 11 20 20 22 17 24
REMARK H PARENT 9 19 11 21 20 23 17 25
REMARK Flexibility Score: inf
ROOT
ATOM      1  C   UNL     1      25.836  11.830  11.934  1.00  0.00     0.138 A 
ATOM      2  C   UNL     1      24.471  12.090  11.757  1.00  0.00     0.100 A 
ATOM      3  C   UNL     1      24.047  12.849  10.665  1.00  0.00     0.197 A 
ATOM      4  O   UNL     1      22.822  13.117  10.567  1.00  0.00    -0.289 OA
ATOM      5  C   UNL     1      24.996  13.325   9.729  1.00  0.00     0.107 A 
ATOM      6  C   UNL     1      24.678  14.075   8.558  1.00  0.00     0.134 A 
ATOM      7  C   UNL     1      25.711  14.592   7.767  1.00  0.00     0.093 A 
ATOM      8  C   UNL     1      27.051  14.335   8.072  1.00  0.00     0.123 A 
ATOM      9  C   UNL     1      27.370  13.560   9.184  1.00  0.00     0.094 A 
ATOM     10  C   UNL     1      26.363  13.058  10.011  1.00  0.00     0.146 A 
ATOM     11  O   UNL     1      26.712  12.335  11.070  1.00  0.00    -0.456 OA
ENDROOT
BRANCH   1  12
ATOM     12  C   UNL     1      26.341  11.027  13.076  1.00  0.00     0.021 A 
ATOM     13  C   UNL     1      27.680  11.114  13.506  1.00  0.00     0.016 A 
ATOM     14  C   UNL     1      28.125  10.355  14.591  1.00  0.00     0.051 A 
ATOM     15  C   UNL     1      27.243   9.503  15.268  1.00  0.00     0.157 A 
ATOM     16  C   UNL     1      25.459  10.180  13.770  1.00  0.00     0.062 A 
ATOM     17  C   UNL     1      25.907   9.417  14.859  1.00  0.00     0.158 A 
BRANCH  15  18
ATOM     18  O   UNL     1      27.684   8.743  16.350  1.00  0.00    -0.504 OA
ATOM     19  H   UNL     1      27.050   8.449  17.085  1.00  0.00     0.293 HD
ENDBRANCH  15  18
BRANCH  17  20
ATOM     20  O   UNL     1      25.030   8.572  15.537  1.00  0.00    -0.504 OA
ATOM     21  H   UNL     1      25.318   8.063  16.365  1.00  0.00     0.293 HD
ENDBRANCH  17  20
ENDBRANCH   1  12
BRANCH   6  22
ATOM     22  O   UNL     1      23.373  14.316   8.115  1.00  0.00    -0.507 OA
ATOM     23  H   UNL     1      23.008  15.220   7.862  1.00  0.00     0.293 HD
ENDBRANCH   6  22
BRANCH   8  24
ATOM     24  O   UNL     1      28.071  14.841   7.271  1.00  0.00    -0.508 OA
ATOM     25  H   UNL     1      28.317  14.408   6.388  1.00  0.00     0.293 HD
ENDBRANCH   8  24
TORSDOF 5
ENDMDL
MODEL 8
REMARK VINA RESULT:    -6.184      1.998      6.902
REMARK INTER + INTRA:          -7.550
REMARK INTER:                  -7.261
REMARK INTRA:                  -0.289
REMARK UNBOUND:                -0.282
REMARK SMILES O=c1cc(-c2ccc(O)c(O)c2)oc2cc(O)cc(O)c12
REMARK SMILES IDX 4 1 3 2 2 3 1 4 21 5 19 6 18 7 16 8 15 9 14 10 13 11 5 12
REMARK SMILES IDX 6 13 7 14 8 15 12 16 10 17 9 18 11 20 20 22 17 24
REMARK H PARENT 9 19 11 21 20 23 17 25
REMARK Flexibility Score: inf
ROOT
ATOM      1  C   UNL     1      24.262  12.672  10.365  1.00  0.00     0.138 A 
ATOM      2  C   UNL     1      22.923  12.422  10.034  1.00  0.00     0.100 A 
ATOM      3  C   UNL     1      22.176  11.530  10.804  1.00  0.00     0.197 A 
ATOM      4  O   UNL     1      20.996  11.279  10.446  1.00  0.00    -0.289 OA
ATOM      5  C   UNL     1      22.766  10.907  11.929  1.00  0.00     0.107 A 
ATOM      6  C   UNL     1      22.091  10.010  12.810  1.00  0.00     0.134 A 
ATOM      7  C   UNL     1      22.810   9.365  13.823  1.00  0.00     0.093 A 
ATOM      8  C   UNL     1      24.167   9.630  14.025  1.00  0.00     0.123 A 
ATOM      9  C   UNL     1      24.823  10.544  13.204  1.00  0.00     0.094 A 
ATOM     10  C   UNL     1      24.141  11.178  12.164  1.00  0.00     0.146 A 
ATOM     11  O   UNL     1      24.808  12.033  11.394  1.00  0.00    -0.456 OA
ENDROOT
BRANCH   1  12
ATOM     12  C   UNL     1      25.101  13.613   9.581  1.00  0.00     0.021 A 
ATOM     13  C   UNL     1      26.507  13.511   9.563  1.00  0.00     0.016 A 
ATOM     14  C   UNL     1      27.271  14.404   8.808  1.00  0.00     0.051 A 
ATOM     15  C   UNL     1      26.649  15.406   8.055  1.00  0.00     0.157 A 
ATOM     16  C   UNL     1      24.484  14.614   8.810  1.00  0.00     0.062 A 
ATOM     17  C   UNL     1      25.253  15.511   8.053  1.00  0.00     0.158 A 
BRANCH  15  18
ATOM     18  O   UNL     1      27.410  16.299   7.301  1.00  0.00    -0.504 OA
ATOM     19  H   UNL     1      28.028  15.978   6.565  1.00  0.00     0.293 HD
ENDBRANCH  15  18
BRANCH  17  20
ATOM     20  O   UNL     1      24.636  16.506   7.298  1.00  0.00    -0.504 OA
ATOM     21  H   UNL     1      23.798  16.975   7.623  1.00  0.00     0.293 HD
ENDBRANCH  17  20
ENDBRANCH   1  12
BRANCH   6  22
ATOM     22  O   UNL     1      20.719   9.741  12.749  1.00  0.00    -0.507 OA
ATOM     23  H   UNL     1      20.229   9.434  11.925  1.00  0.00     0.293 HD
ENDBRANCH   6  22
BRANCH   8  24
ATOM     24  O   UNL     1      24.871   8.995  15.046  1.00  0.00    -0.508 OA
ATOM     25  H   UNL     1      25.746   8.515  14.867  1.00  0.00     0.293 HD
ENDBRANCH   8  24
TORSDOF 5
ENDMDL
MODEL 9
REMARK VINA RESULT:    -5.865      3.240      4.998
REMARK INTER + INTRA:          -7.175
REMARK INTER:                  -6.858
REMARK INTRA:                  -0.317
REMARK UNBOUND:                -0.282
REMARK SMILES O=c1cc(-c2ccc(O)c(O)c2)oc2cc(O)cc(O)c12
REMARK SMILES IDX 4 1 3 2 2 3 1 4 21 5 19 6 18 7 16 8 15 9 14 10 13 11 5 12
REMARK SMILES IDX 6 13 7 14 8 15 12 16 10 17 9 18 11 20 20 22 17 24
REMARK H PARENT 9 19 11 21 20 23 17 25
REMARK Flexibility Score: inf
ROOT
ATOM      1  C   UNL     1      26.404  11.857  11.874  1.00  0.00     0.138 A 
ATOM      2  C   UNL     1      27.449  12.469  11.170  1.00  0.00     0.100 A 
ATOM      3  C   UNL     1      27.162  13.259  10.055  1.00  0.00     0.197 A 
ATOM      4  O   UNL     1      28.125  13.744   9.407  1.00  0.00    -0.289 OA
ATOM      5  C   UNL     1      25.817  13.459   9.662  1.00  0.00     0.107 A 
ATOM      6  C   UNL     1      25.403  14.275   8.568  1.00  0.00     0.134 A 
ATOM      7  C   UNL     1      24.051  14.305   8.203  1.00  0.00     0.093 A 
ATOM      8  C   UNL     1      23.091  13.597   8.931  1.00  0.00     0.123 A 
ATOM      9  C   UNL     1      23.480  12.840  10.033  1.00  0.00     0.094 A 
ATOM     10  C   UNL     1      24.824  12.763  10.402  1.00  0.00     0.146 A 
ATOM     11  O   UNL     1      25.154  12.018  11.452  1.00  0.00    -0.456 OA
ENDROOT
BRANCH   1  12
ATOM     12  C   UNL     1      26.652  11.009  13.067  1.00  0.00     0.021 A 
ATOM     13  C   UNL     1      27.922  10.941  13.674  1.00  0.00     0.016 A 
ATOM     14  C   UNL     1      28.125  10.143  14.802  1.00  0.00     0.051 A 
ATOM     15  C   UNL     1      27.067   9.406  15.347  1.00  0.00     0.157 A 
ATOM     16  C   UNL     1      25.592  10.276  13.629  1.00  0.00     0.062 A 
ATOM     17  C   UNL     1      25.797   9.474  14.761  1.00  0.00     0.158 A 
BRANCH  15  18
ATOM     18  O   UNL     1      27.267   8.608  16.472  1.00  0.00    -0.504 OA
ATOM     19  H   UNL     1      27.707   8.973  17.309  1.00  0.00     0.293 HD
ENDBRANCH  15  18
BRANCH  17  20
ATOM     20  O   UNL     1      24.744   8.743  15.308  1.00  0.00    -0.504 OA
ATOM     21  H   UNL     1      23.961   9.199  15.761  1.00  0.00     0.293 HD
ENDBRANCH  17  20
ENDBRANCH   1  12
BRANCH   6  22
ATOM     22  O   UNL     1      26.268  15.089   7.829  1.00  0.00    -0.507 OA
ATOM     23  H   UNL     1      26.988  15.672   8.224  1.00  0.00     0.293 HD
ENDBRANCH   6  22
BRANCH   8  24
ATOM     24  O   UNL     1      21.747  13.645   8.569  1.00  0.00    -0.508 OA
ATOM     25  H   UNL     1      21.091  12.935   8.872  1.00  0.00     0.293 HD
ENDBRANCH   8  24
TORSDOF 5
ENDMDL
