MODEL 1
REMARK VINA RESULT:    -5.708      0.000      0.000
REMARK INTER + INTRA:          -6.279
REMARK INTER:                  -6.209
REMARK INTRA:                  -0.070
REMARK UNBOUND:                -0.070
REMARK SMILES CCc1cccc(O)c1
REMARK SMILES IDX 3 1 9 2 7 3 6 4 5 5 4 6 2 7 1 8 8 9
REMARK H PARENT 8 10
REMARK Flexibility Score: inf
ROOT
ATOM      1  C   UNL     1      81.325   1.541   0.023  1.00  0.00    -0.045 A 
ATOM      2  C   UNL     1      82.350   2.243  -0.632  1.00  0.00     0.049 A 
ATOM      3  C   UNL     1      82.190   3.601  -0.947  1.00  0.00     0.115 A 
ATOM      4  C   UNL     1      81.000   4.255  -0.614  1.00  0.00     0.046 A 
ATOM      5  C   UNL     1      79.971   3.559   0.025  1.00  0.00     0.004 A 
ATOM      6  C   UNL     1      80.128   2.206   0.340  1.00  0.00     0.004 A 
ENDROOT
BRANCH   1   7
ATOM      7  C   UNL     1      81.483   0.076   0.330  1.00  0.00     0.032 C 
ATOM      8  C   UNL     1      80.224  -0.695  -0.053  1.00  0.00     0.009 C 
ENDBRANCH   1   7
BRANCH   3   9
ATOM      9  O   UNL     1      83.205   4.304  -1.590  1.00  0.00    -0.508 OA
ATOM     10  H   UNL     1      83.054   4.750  -2.488  1.00  0.00     0.293 HD
ENDBRANCH   3   9
TORSDOF 2
ENDMDL
MODEL 2
REMARK VINA RESULT:    -5.678      2.447      4.267
REMARK INTER + INTRA:          -6.246
REMARK INTER:                  -6.177
REMARK INTRA:                  -0.069
REMARK UNBOUND:                -0.070
REMARK SMILES CCc1cccc(O)c1
REMARK SMILES IDX 3 1 9 2 7 3 6 4 5 5 4 6 2 7 1 8 8 9
REMARK H PARENT 8 10
REMARK Flexibility Score: inf
ROOT
ATOM      1  C   UNL     1      80.511   2.288   0.044  1.00  0.00    -0.045 A 
ATOM      2  C   UNL     1      79.406   1.468  -0.238  1.00  0.00     0.049 A 
ATOM      3  C   UNL     1      79.532   0.071  -0.196  1.00  0.00     0.115 A 
ATOM      4  C   UNL     1      80.766  -0.506   0.120  1.00  0.00     0.046 A 
ATOM      5  C   UNL     1      81.872   0.304   0.388  1.00  0.00     0.004 A 
ATOM      6  C   UNL     1      81.749   1.696   0.347  1.00  0.00     0.004 A 
ENDROOT
BRANCH   1   7
ATOM      7  C   UNL     1      80.385   3.786  -0.034  1.00  0.00     0.032 C 
ATOM      8  C   UNL     1      81.511   4.380  -0.872  1.00  0.00     0.009 C 
ENDBRANCH   1   7
BRANCH   3   9
ATOM      9  O   UNL     1      78.440  -0.748  -0.469  1.00  0.00    -0.508 OA
ATOM     10  H   UNL     1      78.372  -1.686  -0.088  1.00  0.00     0.293 HD
ENDBRANCH   3   9
TORSDOF 2
ENDMDL
MODEL 3
REMARK VINA RESULT:    -5.475      1.809      3.655
REMARK INTER + INTRA:          -6.025
REMARK INTER:                  -5.977
REMARK INTRA:                  -0.048
REMARK UNBOUND:                -0.070
REMARK SMILES CCc1cccc(O)c1
REMARK SMILES IDX 3 1 9 2 7 3 6 4 5 5 4 6 2 7 1 8 8 9
REMARK H PARENT 8 10
REMARK Flexibility Score: inf
ROOT
ATOM      1  C   UNL     1      80.740   2.226  -0.026  1.00  0.00    -0.045 A 
ATOM      2  C   UNL     1      82.014   1.964   0.505  1.00  0.00     0.049 A 
ATOM      3  C   UNL     1      82.405   0.647   0.790  1.00  0.00     0.115 A 
ATOM      4  C   UNL     1      81.519  -0.407   0.552  1.00  0.00     0.046 A 
ATOM      5  C   UNL     1      80.245  -0.152   0.037  1.00  0.00     0.004 A 
ATOM      6  C   UNL     1      79.853   1.159  -0.247  1.00  0.00     0.004 A 
ENDROOT
BRANCH   1   7
ATOM      7  C   UNL     1      80.308   3.642  -0.299  1.00  0.00     0.032 C 
ATOM      8  C   UNL     1      81.477   4.475  -0.811  1.00  0.00     0.009 C 
ENDBRANCH   1   7
BRANCH   3   9
ATOM      9  O   UNL     1      83.669   0.379   1.310  1.00  0.00    -0.508 OA
ATOM     10  H   UNL     1      84.490   0.885   0.996  1.00  0.00     0.293 HD
ENDBRANCH   3   9
TORSDOF 2
ENDMDL
MODEL 4
REMARK VINA RESULT:    -5.378      1.035      2.417
REMARK INTER + INTRA:          -5.920
REMARK INTER:                  -5.853
REMARK INTRA:                  -0.067
REMARK UNBOUND:                -0.070
REMARK SMILES CCc1cccc(O)c1
REMARK SMILES IDX 3 1 9 2 7 3 6 4 5 5 4 6 2 7 1 8 8 9
REMARK H PARENT 8 10
REMARK Flexibility Score: inf
ROOT
ATOM      1  C   UNL     1      80.198   2.637   0.051  1.00  0.00    -0.045 A 
ATOM      2  C   UNL     1      80.946   3.666  -0.546  1.00  0.00     0.049 A 
ATOM      3  C   UNL     1      82.278   3.444  -0.927  1.00  0.00     0.115 A 
ATOM      4  C   UNL     1      82.865   2.195  -0.704  1.00  0.00     0.046 A 
ATOM      5  C   UNL     1      82.131   1.172  -0.098  1.00  0.00     0.004 A 
ATOM      6  C   UNL     1      80.804   1.391   0.283  1.00  0.00     0.004 A 
ENDROOT
BRANCH   1   7
ATOM      7  C   UNL     1      78.781   2.885   0.492  1.00  0.00     0.032 C 
ATOM      8  C   UNL     1      77.868   1.750   0.041  1.00  0.00     0.009 C 
ENDBRANCH   1   7
BRANCH   3   9
ATOM      9  O   UNL     1      83.023   4.457  -1.525  1.00  0.00    -0.508 OA
ATOM     10  H   UNL     1      83.835   4.251  -2.096  1.00  0.00     0.293 HD
ENDBRANCH   3   9
TORSDOF 2
ENDMDL
MODEL 5
REMARK VINA RESULT:    -5.284      2.624      3.492
REMARK INTER + INTRA:          -5.817
REMARK INTER:                  -5.767
REMARK INTRA:                  -0.050
REMARK UNBOUND:                -0.070
REMARK SMILES CCc1cccc(O)c1
REMARK SMILES IDX 3 1 9 2 7 3 6 4 5 5 4 6 2 7 1 8 8 9
REMARK H PARENT 8 10
REMARK Flexibility Score: inf
ROOT
ATOM      1  C   UNL     1      81.000   2.109  -0.029  1.00  0.00    -0.045 A 
ATOM      2  C   UNL     1      80.511   0.825  -0.322  1.00  0.00     0.049 A 
ATOM      3  C   UNL     1      79.130   0.575  -0.313  1.00  0.00     0.115 A 
ATOM      4  C   UNL     1      78.239   1.606  -0.001  1.00  0.00     0.046 A 
ATOM      5  C   UNL     1      78.720   2.881   0.306  1.00  0.00     0.004 A 
ATOM      6  C   UNL     1      80.095   3.134   0.297  1.00  0.00     0.004 A 
ENDROOT
BRANCH   1   7
ATOM      7  C   UNL     1      82.482   2.370  -0.005  1.00  0.00     0.032 C 
ATOM      8  C   UNL     1      83.201   1.327   0.844  1.00  0.00     0.009 C 
ENDBRANCH   1   7
BRANCH   3   9
ATOM      9  O   UNL     1      78.638  -0.693  -0.610  1.00  0.00    -0.508 OA
ATOM     10  H   UNL     1      78.881  -1.168  -1.472  1.00  0.00     0.293 HD
ENDBRANCH   3   9
TORSDOF 2
ENDMDL
MODEL 6
REMARK VINA RESULT:    -5.246     11.164     12.289
REMARK INTER + INTRA:          -5.776
REMARK INTER:                  -5.726
REMARK INTRA:                  -0.050
REMARK UNBOUND:                -0.070
REMARK SMILES CCc1cccc(O)c1
REMARK SMILES IDX 3 1 9 2 7 3 6 4 5 5 4 6 2 7 1 8 8 9
REMARK H PARENT 8 10
REMARK Flexibility Score: inf
ROOT
ATOM      1  C   UNL     1      70.428   1.239  -2.814  1.00  0.00    -0.045 A 
ATOM      2  C   UNL     1      69.534   1.376  -3.890  1.00  0.00     0.049 A 
ATOM      3  C   UNL     1      69.234   0.274  -4.704  1.00  0.00     0.115 A 
ATOM      4  C   UNL     1      69.835  -0.963  -4.450  1.00  0.00     0.046 A 
ATOM      5  C   UNL     1      70.736  -1.101  -3.391  1.00  0.00     0.004 A 
ATOM      6  C   UNL     1      71.037  -0.005  -2.578  1.00  0.00     0.004 A 
ENDROOT
BRANCH   1   7
ATOM      7  C   UNL     1      70.777   2.429  -1.961  1.00  0.00     0.032 C 
ATOM      8  C   UNL     1      71.400   3.535  -2.805  1.00  0.00     0.009 C 
ENDBRANCH   1   7
BRANCH   3   9
ATOM      9  O   UNL     1      68.343   0.399  -5.767  1.00  0.00    -0.508 OA
ATOM     10  H   UNL     1      67.736  -0.364  -6.043  1.00  0.00     0.293 HD
ENDBRANCH   3   9
TORSDOF 2
ENDMDL
MODEL 7
REMARK VINA RESULT:    -5.060     10.688     11.526
REMARK INTER + INTRA:          -5.574
REMARK INTER:                  -5.522
REMARK INTRA:                  -0.051
REMARK UNBOUND:                -0.070
REMARK SMILES CCc1cccc(O)c1
REMARK SMILES IDX 3 1 9 2 7 3 6 4 5 5 4 6 2 7 1 8 8 9
REMARK H PARENT 8 10
REMARK Flexibility Score: inf
ROOT
ATOM      1  C   UNL     1      70.338  -0.897  -3.801  1.00  0.00    -0.045 A 
ATOM      2  C   UNL     1      71.063  -0.486  -2.669  1.00  0.00     0.049 A 
ATOM      3  C   UNL     1      71.002   0.847  -2.236  1.00  0.00     0.115 A 
ATOM      4  C   UNL     1      70.224   1.771  -2.939  1.00  0.00     0.046 A 
ATOM      5  C   UNL     1      69.513   1.372  -4.073  1.00  0.00     0.004 A 
ATOM      6  C   UNL     1      69.571   0.045  -4.507  1.00  0.00     0.004 A 
ENDROOT
BRANCH   1   7
ATOM      7  C   UNL     1      70.430  -2.319  -4.286  1.00  0.00     0.032 C 
ATOM      8  C   UNL     1      71.667  -3.005  -3.718  1.00  0.00     0.009 C 
ENDBRANCH   1   7
BRANCH   3   9
ATOM      9  O   UNL     1      71.712   1.260  -1.111  1.00  0.00    -0.508 OA
ATOM     10  H   UNL     1      71.945   2.235  -0.960  1.00  0.00     0.293 HD
ENDBRANCH   3   9
TORSDOF 2
ENDMDL
MODEL 8
REMARK VINA RESULT:    -4.992      1.829      2.435
REMARK INTER + INTRA:          -5.500
REMARK INTER:                  -5.450
REMARK INTRA:                  -0.049
REMARK UNBOUND:                -0.070
REMARK SMILES CCc1cccc(O)c1
REMARK SMILES IDX 3 1 9 2 7 3 6 4 5 5 4 6 2 7 1 8 8 9
REMARK H PARENT 8 10
REMARK Flexibility Score: inf
ROOT
ATOM      1  C   UNL     1      81.908   1.785   0.072  1.00  0.00    -0.045 A 
ATOM      2  C   UNL     1      80.578   2.035   0.452  1.00  0.00     0.049 A 
ATOM      3  C   UNL     1      79.959   3.245   0.106  1.00  0.00     0.115 A 
ATOM      4  C   UNL     1      80.672   4.210  -0.612  1.00  0.00     0.046 A 
ATOM      5  C   UNL     1      81.999   3.974  -0.980  1.00  0.00     0.004 A 
ATOM      6  C   UNL     1      82.618   2.768  -0.637  1.00  0.00     0.004 A 
ENDROOT
BRANCH   1   7
ATOM      7  C   UNL     1      82.584   0.501   0.472  1.00  0.00     0.032 C 
ATOM      8  C   UNL     1      81.555  -0.598   0.715  1.00  0.00     0.009 C 
ENDBRANCH   1   7
BRANCH   3   9
ATOM      9  O   UNL     1      78.639   3.497   0.473  1.00  0.00    -0.508 OA
ATOM     10  H   UNL     1      77.898   2.835   0.272  1.00  0.00     0.293 HD
ENDBRANCH   3   9
TORSDOF 2
ENDMDL
MODEL 9
REMARK VINA RESULT:    -4.934     10.832     11.918
REMARK INTER + INTRA:          -5.436
REMARK INTER:                  -5.361
REMARK INTRA:                  -0.075
REMARK UNBOUND:                -0.070
REMARK SMILES CCc1cccc(O)c1
REMARK SMILES IDX 3 1 9 2 7 3 6 4 5 5 4 6 2 7 1 8 8 9
REMARK H PARENT 8 10
REMARK Flexibility Score: inf
ROOT
ATOM      1  C   UNL     1      70.950   1.040  -3.118  1.00  0.00    -0.045 A 
ATOM      2  C   UNL     1      71.324  -0.311  -3.028  1.00  0.00     0.049 A 
ATOM      3  C   UNL     1      70.619  -1.290  -3.745  1.00  0.00     0.115 A 
ATOM      4  C   UNL     1      69.534  -0.919  -4.544  1.00  0.00     0.046 A 
ATOM      5  C   UNL     1      69.148   0.421  -4.627  1.00  0.00     0.004 A 
ATOM      6  C   UNL     1      69.849   1.398  -3.914  1.00  0.00     0.004 A 
ENDROOT
BRANCH   1   7
ATOM      7  C   UNL     1      71.684   2.087  -2.323  1.00  0.00     0.032 C 
ATOM      8  C   UNL     1      71.227   3.486  -2.721  1.00  0.00     0.009 C 
ENDBRANCH   1   7
BRANCH   3   9
ATOM      9  O   UNL     1      70.988  -2.630  -3.666  1.00  0.00    -0.508 OA
ATOM     10  H   UNL     1      71.000  -3.126  -2.781  1.00  0.00     0.293 HD
ENDBRANCH   3   9
TORSDOF 2
ENDMDL
