MODEL 1
REMARK VINA RESULT:    -3.895      0.000      0.000
REMARK INTER + INTRA:          -5.753
REMARK INTER:                  -5.489
REMARK INTRA:                  -0.264
REMARK UNBOUND:                -0.264
REMARK SMILES CCCCCCCCC(=O)[O-]
REMARK SMILES IDX 6 1 7 2 8 3 9 4 10 5 11 6 5 7 4 8 3 9 2 10 1 11
REMARK H PARENT
REMARK Flexibility Score: inf
ROOT
ATOM      1  C   UNL     1       6.511   4.827  34.880  1.00  0.00     0.000 C 
ENDROOT
BRANCH   1   2
ATOM      2  C   UNL     1       7.740   5.245  35.697  1.00  0.00     0.006 C 
BRANCH   2   3
ATOM      3  C   UNL     1       8.436   4.026  36.307  1.00  0.00     0.053 C 
BRANCH   3   4
ATOM      4  C   UNL     1       9.914   4.105  36.095  1.00  0.00     0.041 C 
ATOM      5  O   UNL     1      10.386   4.807  35.162  1.00  0.00    -0.550 OA
ATOM      6  O   UNL     1      10.772   3.363  36.897  1.00  0.00    -0.550 OA
ENDBRANCH   3   4
ENDBRANCH   2   3
ENDBRANCH   1   2
BRANCH   1   7
ATOM      7  C   UNL     1       5.946   6.015  34.088  1.00  0.00     0.000 C 
BRANCH   7   8
ATOM      8  C   UNL     1       7.033   7.017  33.672  1.00  0.00    -0.000 C 
BRANCH   8   9
ATOM      9  C   UNL     1       6.660   8.471  34.013  1.00  0.00    -0.000 C 
BRANCH   9  10
ATOM     10  C   UNL     1       7.138   9.468  32.946  1.00  0.00    -0.003 C 
ATOM     11  C   UNL     1       6.295  10.743  32.912  1.00  0.00     0.004 C 
ENDBRANCH   9  10
ENDBRANCH   8   9
ENDBRANCH   7   8
ENDBRANCH   1   7
TORSDOF 7
ENDMDL
MODEL 2
REMARK VINA RESULT:    -3.594      3.294      5.988
REMARK INTER + INTRA:          -5.328
REMARK INTER:                  -4.971
REMARK INTRA:                  -0.357
REMARK UNBOUND:                -0.264
REMARK SMILES CCCCCCCCC(=O)[O-]
REMARK SMILES IDX 6 1 7 2 8 3 9 4 10 5 11 6 5 7 4 8 3 9 2 10 1 11
REMARK H PARENT
REMARK Flexibility Score: inf
ROOT
ATOM      1  C   UNL     1       6.361   6.039  34.561  1.00  0.00     0.000 C 
ENDROOT
BRANCH   1   2
ATOM      2  C   UNL     1       6.228   6.979  33.357  1.00  0.00     0.006 C 
BRANCH   2   3
ATOM      3  C   UNL     1       7.241   8.125  33.439  1.00  0.00     0.053 C 
BRANCH   3   4
ATOM      4  C   UNL     1       6.543   9.427  33.668  1.00  0.00     0.041 C 
ATOM      5  O   UNL     1       5.974   9.658  34.767  1.00  0.00    -0.550 OA
ATOM      6  O   UNL     1       6.476  10.369  32.648  1.00  0.00    -0.550 OA
ENDBRANCH   3   4
ENDBRANCH   2   3
ENDBRANCH   1   2
BRANCH   1   7
ATOM      7  C   UNL     1       7.658   6.317  35.335  1.00  0.00     0.000 C 
BRANCH   7   8
ATOM      8  C   UNL     1       8.333   5.031  35.837  1.00  0.00    -0.000 C 
BRANCH   8   9
ATOM      9  C   UNL     1       9.829   4.969  35.482  1.00  0.00    -0.000 C 
BRANCH   9  10
ATOM     10  C   UNL     1      10.466   3.620  35.851  1.00  0.00    -0.003 C 
ATOM     11  C   UNL     1       9.460   2.639  36.455  1.00  0.00     0.004 C 
ENDBRANCH   9  10
ENDBRANCH   8   9
ENDBRANCH   7   8
ENDBRANCH   1   7
TORSDOF 7
ENDMDL
MODEL 3
REMARK VINA RESULT:    -2.882     22.677     23.692
REMARK INTER + INTRA:          -4.326
REMARK INTER:                  -3.945
REMARK INTRA:                  -0.381
REMARK UNBOUND:                -0.264
REMARK SMILES CCCCCCCCC(=O)[O-]
REMARK SMILES IDX 6 1 7 2 8 3 9 4 10 5 11 6 5 7 4 8 3 9 2 10 1 11
REMARK H PARENT
REMARK Flexibility Score: inf
ROOT
ATOM      1  C   UNL     1      17.636  19.351  19.574  1.00  0.00     0.000 C 
ENDROOT
BRANCH   1   2
ATOM      2  C   UNL     1      18.338  20.710  19.468  1.00  0.00     0.006 C 
BRANCH   2   3
ATOM      3  C   UNL     1      19.860  20.549  19.525  1.00  0.00     0.053 C 
BRANCH   3   4
ATOM      4  C   UNL     1      20.394  21.065  20.823  1.00  0.00     0.041 C 
ATOM      5  O   UNL     1      19.616  21.284  21.788  1.00  0.00    -0.550 OA
ATOM      6  O   UNL     1      21.747  21.353  20.952  1.00  0.00    -0.550 OA
ENDBRANCH   3   4
ENDBRANCH   2   3
ENDBRANCH   1   2
BRANCH   1   7
ATOM      7  C   UNL     1      16.701  19.120  18.377  1.00  0.00     0.000 C 
BRANCH   7   8
ATOM      8  C   UNL     1      17.459  19.032  17.044  1.00  0.00    -0.000 C 
BRANCH   8   9
ATOM      9  C   UNL     1      18.660  18.073  17.109  1.00  0.00    -0.000 C 
BRANCH   9  10
ATOM     10  C   UNL     1      18.236  16.611  17.319  1.00  0.00    -0.003 C 
ATOM     11  C   UNL     1      19.429  15.659  17.416  1.00  0.00     0.004 C 
ENDBRANCH   9  10
ENDBRANCH   8   9
ENDBRANCH   7   8
ENDBRANCH   1   7
TORSDOF 7
ENDMDL
MODEL 4
REMARK VINA RESULT:    -2.793      2.491      2.948
REMARK INTER + INTRA:          -4.200
REMARK INTER:                  -3.884
REMARK INTRA:                  -0.316
REMARK UNBOUND:                -0.264
REMARK SMILES CCCCCCCCC(=O)[O-]
REMARK SMILES IDX 6 1 7 2 8 3 9 4 10 5 11 6 5 7 4 8 3 9 2 10 1 11
REMARK H PARENT
REMARK Flexibility Score: inf
ROOT
ATOM      1  C   UNL     1       6.872   6.678  36.715  1.00  0.00     0.000 C 
ENDROOT
BRANCH   1   2
ATOM      2  C   UNL     1       7.040   5.324  36.014  1.00  0.00     0.006 C 
BRANCH   2   3
ATOM      3  C   UNL     1       6.228   4.235  36.721  1.00  0.00     0.053 C 
BRANCH   3   4
ATOM      4  C   UNL     1       6.068   3.042  35.834  1.00  0.00     0.041 C 
ATOM      5  O   UNL     1       6.152   1.879  36.311  1.00  0.00    -0.550 OA
ATOM      6  O   UNL     1       5.875   3.211  34.469  1.00  0.00    -0.550 OA
ENDBRANCH   3   4
ENDBRANCH   2   3
ENDBRANCH   1   2
BRANCH   1   7
ATOM      7  C   UNL     1       6.826   7.824  35.693  1.00  0.00     0.000 C 
BRANCH   7   8
ATOM      8  C   UNL     1       6.986   7.332  34.247  1.00  0.00    -0.000 C 
BRANCH   8   9
ATOM      9  C   UNL     1       6.916   8.478  33.222  1.00  0.00    -0.000 C 
BRANCH   9  10
ATOM     10  C   UNL     1       6.343   9.771  33.822  1.00  0.00    -0.003 C 
ATOM     11  C   UNL     1       6.245  10.902  32.798  1.00  0.00     0.004 C 
ENDBRANCH   9  10
ENDBRANCH   8   9
ENDBRANCH   7   8
ENDBRANCH   1   7
TORSDOF 7
ENDMDL
MODEL 5
REMARK VINA RESULT:    -2.767     20.611     21.276
REMARK INTER + INTRA:          -4.163
REMARK INTER:                  -3.461
REMARK INTRA:                  -0.702
REMARK UNBOUND:                -0.264
REMARK SMILES CCCCCCCCC(=O)[O-]
REMARK SMILES IDX 6 1 7 2 8 3 9 4 10 5 11 6 5 7 4 8 3 9 2 10 1 11
REMARK H PARENT
REMARK Flexibility Score: inf
ROOT
ATOM      1  C   UNL     1      20.883   3.569  20.648  1.00  0.00     0.000 C 
ENDROOT
BRANCH   1   2
ATOM      2  C   UNL     1      22.387   3.465  20.369  1.00  0.00     0.006 C 
BRANCH   2   3
ATOM      3  C   UNL     1      23.153   4.603  21.050  1.00  0.00     0.053 C 
BRANCH   3   4
ATOM      4  C   UNL     1      24.609   4.275  21.143  1.00  0.00     0.041 C 
ATOM      5  O   UNL     1      25.298   4.144  20.097  1.00  0.00    -0.550 OA
ATOM      6  O   UNL     1      25.196   4.062  22.383  1.00  0.00    -0.550 OA
ENDBRANCH   3   4
ENDBRANCH   2   3
ENDBRANCH   1   2
BRANCH   1   7
ATOM      7  C   UNL     1      20.093   3.754  19.344  1.00  0.00     0.000 C 
BRANCH   7   8
ATOM      8  C   UNL     1      20.992   4.139  18.159  1.00  0.00    -0.000 C 
BRANCH   8   9
ATOM      9  C   UNL     1      20.794   5.598  17.714  1.00  0.00    -0.000 C 
BRANCH   9  10
ATOM     10  C   UNL     1      22.086   6.424  17.810  1.00  0.00    -0.003 C 
ATOM     11  C   UNL     1      23.330   5.616  17.441  1.00  0.00     0.004 C 
ENDBRANCH   9  10
ENDBRANCH   8   9
ENDBRANCH   7   8
ENDBRANCH   1   7
TORSDOF 7
ENDMDL
MODEL 6
REMARK VINA RESULT:    -2.728     23.062     24.125
REMARK INTER + INTRA:          -4.108
REMARK INTER:                  -3.775
REMARK INTRA:                  -0.334
REMARK UNBOUND:                -0.264
REMARK SMILES CCCCCCCCC(=O)[O-]
REMARK SMILES IDX 6 1 7 2 8 3 9 4 10 5 11 6 5 7 4 8 3 9 2 10 1 11
REMARK H PARENT
REMARK Flexibility Score: inf
ROOT
ATOM      1  C   UNL     1      18.818  20.215  19.980  1.00  0.00     0.000 C 
ENDROOT
BRANCH   1   2
ATOM      2  C   UNL     1      20.044  21.016  19.526  1.00  0.00     0.006 C 
BRANCH   2   3
ATOM      3  C   UNL     1      21.058  21.162  20.663  1.00  0.00     0.053 C 
BRANCH   3   4
ATOM      4  C   UNL     1      22.450  20.958  20.156  1.00  0.00     0.041 C 
ATOM      5  O   UNL     1      22.650  20.321  19.088  1.00  0.00    -0.550 OA
ATOM      6  O   UNL     1      23.533  21.428  20.888  1.00  0.00    -0.550 OA
ENDBRANCH   3   4
ENDBRANCH   2   3
ENDBRANCH   1   2
BRANCH   1   7
ATOM      7  C   UNL     1      17.624  20.461  19.045  1.00  0.00     0.000 C 
BRANCH   7   8
ATOM      8  C   UNL     1      17.028  19.157  18.493  1.00  0.00    -0.000 C 
BRANCH   8   9
ATOM      9  C   UNL     1      17.910  17.931  18.789  1.00  0.00    -0.000 C 
BRANCH   9  10
ATOM     10  C   UNL     1      18.548  17.345  17.520  1.00  0.00    -0.003 C 
ATOM     11  C   UNL     1      18.748  15.831  17.607  1.00  0.00     0.004 C 
ENDBRANCH   9  10
ENDBRANCH   8   9
ENDBRANCH   7   8
ENDBRANCH   1   7
TORSDOF 7
ENDMDL
MODEL 7
REMARK VINA RESULT:    -2.703     22.909     24.194
REMARK INTER + INTRA:          -4.073
REMARK INTER:                  -3.434
REMARK INTRA:                  -0.640
REMARK UNBOUND:                -0.264
REMARK SMILES CCCCCCCCC(=O)[O-]
REMARK SMILES IDX 6 1 7 2 8 3 9 4 10 5 11 6 5 7 4 8 3 9 2 10 1 11
REMARK H PARENT
REMARK Flexibility Score: inf
ROOT
ATOM      1  C   UNL     1      18.322  19.924  19.860  1.00  0.00     0.000 C 
ENDROOT
BRANCH   1   2
ATOM      2  C   UNL     1      18.280  21.092  18.867  1.00  0.00     0.006 C 
BRANCH   2   3
ATOM      3  C   UNL     1      19.640  21.790  18.780  1.00  0.00     0.053 C 
BRANCH   3   4
ATOM      4  C   UNL     1      20.704  20.817  18.381  1.00  0.00     0.041 C 
ATOM      5  O   UNL     1      21.742  20.688  19.083  1.00  0.00    -0.550 OA
ATOM      6  O   UNL     1      20.574  20.089  17.206  1.00  0.00    -0.550 OA
ENDBRANCH   3   4
ENDBRANCH   2   3
ENDBRANCH   1   2
BRANCH   1   7
ATOM      7  C   UNL     1      17.508  18.730  19.339  1.00  0.00     0.000 C 
BRANCH   7   8
ATOM      8  C   UNL     1      17.105  18.889  17.865  1.00  0.00    -0.000 C 
BRANCH   8   9
ATOM      9  C   UNL     1      17.812  17.878  16.946  1.00  0.00    -0.000 C 
BRANCH   9  10
ATOM     10  C   UNL     1      18.639  16.847  17.730  1.00  0.00    -0.003 C 
ATOM     11  C   UNL     1      18.368  15.410  17.282  1.00  0.00     0.004 C 
ENDBRANCH   9  10
ENDBRANCH   8   9
ENDBRANCH   7   8
ENDBRANCH   1   7
TORSDOF 7
ENDMDL
MODEL 8
REMARK VINA RESULT:    -2.641     23.005     24.474
REMARK INTER + INTRA:          -3.986
REMARK INTER:                  -3.525
REMARK INTRA:                  -0.461
REMARK UNBOUND:                -0.264
REMARK SMILES CCCCCCCCC(=O)[O-]
REMARK SMILES IDX 6 1 7 2 8 3 9 4 10 5 11 6 5 7 4 8 3 9 2 10 1 11
REMARK H PARENT
REMARK Flexibility Score: inf
ROOT
ATOM      1  C   UNL     1      19.824  21.225  21.276  1.00  0.00     0.000 C 
ENDROOT
BRANCH   1   2
ATOM      2  C   UNL     1      21.096  20.663  20.630  1.00  0.00     0.006 C 
BRANCH   2   3
ATOM      3  C   UNL     1      22.217  21.706  20.623  1.00  0.00     0.053 C 
BRANCH   3   4
ATOM      4  C   UNL     1      23.554  21.040  20.546  1.00  0.00     0.041 C 
ATOM      5  O   UNL     1      24.530  21.499  21.195  1.00  0.00    -0.550 OA
ATOM      6  O   UNL     1      23.736  19.941  19.717  1.00  0.00    -0.550 OA
ENDBRANCH   3   4
ENDBRANCH   2   3
ENDBRANCH   1   2
BRANCH   1   7
ATOM      7  C   UNL     1      18.954  21.950  20.239  1.00  0.00     0.000 C 
BRANCH   7   8
ATOM      8  C   UNL     1      18.785  21.142  18.943  1.00  0.00    -0.000 C 
BRANCH   8   9
ATOM      9  C   UNL     1      17.344  20.640  18.742  1.00  0.00    -0.000 C 
BRANCH   9  10
ATOM     10  C   UNL     1      17.118  19.244  19.343  1.00  0.00    -0.003 C 
ATOM     11  C   UNL     1      18.034  18.184  18.731  1.00  0.00     0.004 C 
ENDBRANCH   9  10
ENDBRANCH   8   9
ENDBRANCH   7   8
ENDBRANCH   1   7
TORSDOF 7
ENDMDL
MODEL 9
REMARK VINA RESULT:    -2.603     20.704     21.746
REMARK INTER + INTRA:          -3.932
REMARK INTER:                  -3.474
REMARK INTRA:                  -0.458
REMARK UNBOUND:                -0.264
REMARK SMILES CCCCCCCCC(=O)[O-]
REMARK SMILES IDX 6 1 7 2 8 3 9 4 10 5 11 6 5 7 4 8 3 9 2 10 1 11
REMARK H PARENT
REMARK Flexibility Score: inf
ROOT
ATOM      1  C   UNL     1      20.016   3.748  19.421  1.00  0.00     0.000 C 
ENDROOT
BRANCH   1   2
ATOM      2  C   UNL     1      20.895   4.116  18.220  1.00  0.00     0.006 C 
BRANCH   2   3
ATOM      3  C   UNL     1      20.883   5.627  17.971  1.00  0.00     0.053 C 
BRANCH   3   4
ATOM      4  C   UNL     1      22.241   6.103  17.563  1.00  0.00     0.041 C 
ATOM      5  O   UNL     1      22.410   7.293  17.188  1.00  0.00    -0.550 OA
ATOM      6  O   UNL     1      23.312   5.218  17.547  1.00  0.00    -0.550 OA
ENDBRANCH   3   4
ENDBRANCH   2   3
ENDBRANCH   1   2
BRANCH   1   7
ATOM      7  C   UNL     1      20.865   3.569  20.689  1.00  0.00     0.000 C 
BRANCH   7   8
ATOM      8  C   UNL     1      22.354   3.357  20.378  1.00  0.00    -0.000 C 
BRANCH   8   9
ATOM      9  C   UNL     1      23.247   4.456  20.979  1.00  0.00    -0.000 C 
BRANCH   9  10
ATOM     10  C   UNL     1      24.739   4.089  20.941  1.00  0.00    -0.003 C 
ATOM     11  C   UNL     1      25.385   4.107  22.327  1.00  0.00     0.004 C 
ENDBRANCH   9  10
ENDBRANCH   8   9
ENDBRANCH   7   8
ENDBRANCH   1   7
TORSDOF 7
ENDMDL
