MODEL 1
REMARK VINA RESULT:    -5.472      0.000      0.000
REMARK INTER + INTRA:          -5.792
REMARK INTER:                  -5.792
REMARK INTRA:                   0.000
REMARK UNBOUND:                 0.000
REMARK SMILES Cc1cc(O)c(C)c(C)c1O
REMARK SMILES IDX 1 1 2 2 3 3 4 4 6 5 8 6 10 7 9 8 7 9 11 10 5 12
REMARK H PARENT 11 11 5 13
REMARK Flexibility Score: inf
ROOT
ATOM      1  C   UNL     1     -13.880  45.865  25.413  1.00  0.00     0.048 C 
ATOM      2  C   UNL     1     -13.788  45.208  24.062  1.00  0.00    -0.005 A 
ATOM      3  C   UNL     1     -14.823  44.366  23.638  1.00  0.00     0.053 A 
ATOM      4  C   UNL     1     -14.767  43.726  22.398  1.00  0.00     0.119 A 
ATOM      5  C   UNL     1     -13.657  43.918  21.552  1.00  0.00    -0.003 A 
ATOM      6  C   UNL     1     -12.625  44.810  21.945  1.00  0.00    -0.002 A 
ATOM      7  C   UNL     1     -12.680  45.429  23.214  1.00  0.00     0.121 A 
ATOM      8  C   UNL     1     -11.439  45.058  21.042  1.00  0.00     0.049 C 
ATOM      9  C   UNL     1     -13.606  43.214  20.216  1.00  0.00     0.049 C 
ENDROOT
BRANCH   7  10
ATOM     10  O   UNL     1     -11.625  46.257  23.613  1.00  0.00    -0.507 OA
ATOM     11  H   UNL     1     -10.658  46.081  23.378  1.00  0.00     0.293 HD
ENDBRANCH   7  10
BRANCH   4  12
ATOM     12  O   UNL     1     -15.818  42.895  22.006  1.00  0.00    -0.508 OA
ATOM     13  H   UNL     1     -16.662  42.806  22.560  1.00  0.00     0.293 HD
ENDBRANCH   4  12
TORSDOF 2
ENDMDL
MODEL 2
REMARK VINA RESULT:    -5.369      1.310      3.033
REMARK INTER + INTRA:          -5.683
REMARK INTER:                  -5.683
REMARK INTRA:                   0.000
REMARK UNBOUND:                 0.000
REMARK SMILES Cc1cc(O)c(C)c(C)c1O
REMARK SMILES IDX 1 1 2 2 3 3 4 4 6 5 8 6 10 7 9 8 7 9 11 10 5 12
REMARK H PARENT 11 11 5 13
REMARK Flexibility Score: inf
ROOT
ATOM      1  C   UNL     1     -14.136  46.125  25.874  1.00  0.00     0.048 C 
ATOM      2  C   UNL     1     -13.807  45.499  24.544  1.00  0.00    -0.005 A 
ATOM      3  C   UNL     1     -12.651  45.901  23.866  1.00  0.00     0.053 A 
ATOM      4  C   UNL     1     -12.320  45.357  22.623  1.00  0.00     0.119 A 
ATOM      5  C   UNL     1     -13.155  44.390  22.030  1.00  0.00    -0.003 A 
ATOM      6  C   UNL     1     -14.303  43.935  22.729  1.00  0.00    -0.002 A 
ATOM      7  C   UNL     1     -14.642  44.514  23.972  1.00  0.00     0.121 A 
ATOM      8  C   UNL     1     -15.199  42.875  22.128  1.00  0.00     0.049 C 
ATOM      9  C   UNL     1     -12.789  43.813  20.681  1.00  0.00     0.049 C 
ENDROOT
BRANCH   7  10
ATOM     10  O   UNL     1     -15.810  44.098  24.621  1.00  0.00    -0.507 OA
ATOM     11  H   UNL     1     -15.916  44.087  25.626  1.00  0.00     0.293 HD
ENDBRANCH   7  10
BRANCH   4  12
ATOM     12  O   UNL     1     -11.157  45.778  21.976  1.00  0.00    -0.508 OA
ATOM     13  H   UNL     1     -11.178  46.157  21.037  1.00  0.00     0.293 HD
ENDBRANCH   4  12
TORSDOF 2
ENDMDL
MODEL 3
REMARK VINA RESULT:    -5.318      0.478      3.004
REMARK INTER + INTRA:          -5.629
REMARK INTER:                  -5.629
REMARK INTRA:                   0.000
REMARK UNBOUND:                 0.000
REMARK SMILES Cc1cc(O)c(C)c(C)c1O
REMARK SMILES IDX 1 1 2 2 3 3 4 4 6 5 8 6 10 7 9 8 7 9 11 10 5 12
REMARK H PARENT 11 11 5 13
REMARK Flexibility Score: inf
ROOT
ATOM      1  C   UNL     1     -11.235  44.965  21.032  1.00  0.00     0.048 C 
ATOM      2  C   UNL     1     -12.431  44.763  21.923  1.00  0.00    -0.005 A 
ATOM      3  C   UNL     1     -13.466  43.922  21.499  1.00  0.00     0.053 A 
ATOM      4  C   UNL     1     -14.601  43.723  22.289  1.00  0.00     0.119 A 
ATOM      5  C   UNL     1     -14.720  44.374  23.533  1.00  0.00    -0.003 A 
ATOM      6  C   UNL     1     -13.655  45.188  23.999  1.00  0.00    -0.002 A 
ATOM      7  C   UNL     1     -12.526  45.404  23.178  1.00  0.00     0.121 A 
ATOM      8  C   UNL     1     -13.744  45.873  25.345  1.00  0.00     0.049 C 
ATOM      9  C   UNL     1     -15.955  44.154  24.376  1.00  0.00     0.049 C 
ENDROOT
BRANCH   7  10
ATOM     10  O   UNL     1     -11.512  46.259  23.625  1.00  0.00    -0.507 OA
ATOM     11  H   UNL     1     -10.676  46.458  23.094  1.00  0.00     0.293 HD
ENDBRANCH   7  10
BRANCH   4  12
ATOM     12  O   UNL     1     -15.613  42.875  21.837  1.00  0.00    -0.508 OA
ATOM     13  H   UNL     1     -16.317  42.504  22.464  1.00  0.00     0.293 HD
ENDBRANCH   4  12
TORSDOF 2
ENDMDL
MODEL 4
REMARK VINA RESULT:    -5.299      1.589      4.302
REMARK INTER + INTRA:          -5.608
REMARK INTER:                  -5.608
REMARK INTRA:                   0.000
REMARK UNBOUND:                 0.000
REMARK SMILES Cc1cc(O)c(C)c(C)c1O
REMARK SMILES IDX 1 1 2 2 3 3 4 4 6 5 8 6 10 7 9 8 7 9 11 10 5 12
REMARK H PARENT 11 11 5 13
REMARK Flexibility Score: inf
ROOT
ATOM      1  C   UNL     1     -11.991  45.106  21.769  1.00  0.00     0.048 C 
ATOM      2  C   UNL     1     -12.978  45.084  22.905  1.00  0.00    -0.005 A 
ATOM      3  C   UNL     1     -12.816  45.980  23.968  1.00  0.00     0.053 A 
ATOM      4  C   UNL     1     -13.702  45.980  25.049  1.00  0.00     0.119 A 
ATOM      5  C   UNL     1     -14.775  45.069  25.084  1.00  0.00    -0.003 A 
ATOM      6  C   UNL     1     -14.982  44.191  23.988  1.00  0.00    -0.002 A 
ATOM      7  C   UNL     1     -14.064  44.181  22.915  1.00  0.00     0.121 A 
ATOM      8  C   UNL     1     -16.146  43.225  23.986  1.00  0.00     0.049 C 
ATOM      9  C   UNL     1     -15.722  45.075  26.262  1.00  0.00     0.049 C 
ENDROOT
BRANCH   7  10
ATOM     10  O   UNL     1     -14.246  43.267  21.871  1.00  0.00    -0.507 OA
ATOM     11  H   UNL     1     -13.774  43.337  20.980  1.00  0.00     0.293 HD
ENDBRANCH   7  10
BRANCH   4  12
ATOM     12  O   UNL     1     -13.513  46.888  26.092  1.00  0.00    -0.508 OA
ATOM     13  H   UNL     1     -14.294  47.328  26.563  1.00  0.00     0.293 HD
ENDBRANCH   4  12
TORSDOF 2
ENDMDL
MODEL 5
REMARK VINA RESULT:    -5.291      0.477      3.189
REMARK INTER + INTRA:          -5.600
REMARK INTER:                  -5.600
REMARK INTRA:                   0.000
REMARK UNBOUND:                 0.000
REMARK SMILES Cc1cc(O)c(C)c(C)c1O
REMARK SMILES IDX 1 1 2 2 3 3 4 4 6 5 8 6 10 7 9 8 7 9 11 10 5 12
REMARK H PARENT 11 11 5 13
REMARK Flexibility Score: inf
ROOT
ATOM      1  C   UNL     1     -15.894  44.216  24.559  1.00  0.00     0.048 C 
ATOM      2  C   UNL     1     -14.728  44.415  23.629  1.00  0.00    -0.005 A 
ATOM      3  C   UNL     1     -13.661  45.227  24.033  1.00  0.00     0.053 A 
ATOM      4  C   UNL     1     -12.568  45.450  23.193  1.00  0.00     0.119 A 
ATOM      5  C   UNL     1     -12.526  44.859  21.915  1.00  0.00    -0.003 A 
ATOM      6  C   UNL     1     -13.575  43.992  21.512  1.00  0.00    -0.002 A 
ATOM      7  C   UNL     1     -14.688  43.797  22.360  1.00  0.00     0.121 A 
ATOM      8  C   UNL     1     -13.539  43.320  20.158  1.00  0.00     0.049 C 
ATOM      9  C   UNL     1     -11.341  45.114  21.013  1.00  0.00     0.049 C 
ENDROOT
BRANCH   7  10
ATOM     10  O   UNL     1     -15.743  42.988  21.923  1.00  0.00    -0.507 OA
ATOM     11  H   UNL     1     -16.094  42.992  20.975  1.00  0.00     0.293 HD
ENDBRANCH   7  10
BRANCH   4  12
ATOM     12  O   UNL     1     -11.521  46.263  23.629  1.00  0.00    -0.508 OA
ATOM     13  H   UNL     1     -11.659  46.977  24.334  1.00  0.00     0.293 HD
ENDBRANCH   4  12
TORSDOF 2
ENDMDL
MODEL 6
REMARK VINA RESULT:    -5.219      1.296      3.410
REMARK INTER + INTRA:          -5.524
REMARK INTER:                  -5.524
REMARK INTRA:                   0.000
REMARK UNBOUND:                 0.000
REMARK SMILES Cc1cc(O)c(C)c(C)c1O
REMARK SMILES IDX 1 1 2 2 3 3 4 4 6 5 8 6 10 7 9 8 7 9 11 10 5 12
REMARK H PARENT 11 11 5 13
REMARK Flexibility Score: inf
ROOT
ATOM      1  C   UNL     1     -15.711  45.414  26.529  1.00  0.00     0.048 C 
ATOM      2  C   UNL     1     -14.942  45.125  25.267  1.00  0.00    -0.005 A 
ATOM      3  C   UNL     1     -13.752  45.817  25.017  1.00  0.00     0.053 A 
ATOM      4  C   UNL     1     -13.019  45.590  23.850  1.00  0.00     0.119 A 
ATOM      5  C   UNL     1     -13.474  44.655  22.900  1.00  0.00    -0.003 A 
ATOM      6  C   UNL     1     -14.651  43.907  23.164  1.00  0.00    -0.002 A 
ATOM      7  C   UNL     1     -15.398  44.167  24.334  1.00  0.00     0.121 A 
ATOM      8  C   UNL     1     -15.144  42.875  22.175  1.00  0.00     0.049 C 
ATOM      9  C   UNL     1     -12.675  44.422  21.638  1.00  0.00     0.049 C 
ENDROOT
BRANCH   7  10
ATOM     10  O   UNL     1     -16.590  43.466  24.551  1.00  0.00    -0.507 OA
ATOM     11  H   UNL     1     -16.932  43.218  25.469  1.00  0.00     0.293 HD
ENDBRANCH   7  10
BRANCH   4  12
ATOM     12  O   UNL     1     -11.834  46.296  23.634  1.00  0.00    -0.508 OA
ATOM     13  H   UNL     1     -11.571  46.626  22.713  1.00  0.00     0.293 HD
ENDBRANCH   4  12
TORSDOF 2
ENDMDL
MODEL 7
REMARK VINA RESULT:    -4.969      1.783      2.814
REMARK INTER + INTRA:          -5.260
REMARK INTER:                  -5.260
REMARK INTRA:                   0.000
REMARK UNBOUND:                 0.000
REMARK SMILES Cc1cc(O)c(C)c(C)c1O
REMARK SMILES IDX 1 1 2 2 3 3 4 4 6 5 8 6 10 7 9 8 7 9 11 10 5 12
REMARK H PARENT 11 11 5 13
REMARK Flexibility Score: inf
ROOT
ATOM      1  C   UNL     1     -16.540  42.875  23.843  1.00  0.00     0.048 C 
ATOM      2  C   UNL     1     -15.274  43.461  23.276  1.00  0.00    -0.005 A 
ATOM      3  C   UNL     1     -14.777  42.972  22.063  1.00  0.00     0.053 A 
ATOM      4  C   UNL     1     -13.597  43.478  21.512  1.00  0.00     0.119 A 
ATOM      5  C   UNL     1     -12.885  44.493  22.179  1.00  0.00    -0.003 A 
ATOM      6  C   UNL     1     -13.404  45.036  23.383  1.00  0.00    -0.002 A 
ATOM      7  C   UNL     1     -14.583  44.496  23.944  1.00  0.00     0.121 A 
ATOM      8  C   UNL     1     -12.675  46.149  24.102  1.00  0.00     0.049 C 
ATOM      9  C   UNL     1     -11.606  45.028  21.576  1.00  0.00     0.049 C 
ENDROOT
BRANCH   7  10
ATOM     10  O   UNL     1     -15.049  44.999  25.163  1.00  0.00    -0.507 OA
ATOM     11  H   UNL     1     -14.917  44.529  26.048  1.00  0.00     0.293 HD
ENDBRANCH   7  10
BRANCH   4  12
ATOM     12  O   UNL     1     -13.131  42.968  20.299  1.00  0.00    -0.508 OA
ATOM     13  H   UNL     1     -13.765  42.703  19.555  1.00  0.00     0.293 HD
ENDBRANCH   4  12
TORSDOF 2
ENDMDL
MODEL 8
REMARK VINA RESULT:    -4.900     19.662     21.504
REMARK INTER + INTRA:          -5.187
REMARK INTER:                  -5.187
REMARK INTRA:                   0.000
REMARK UNBOUND:                 0.000
REMARK SMILES Cc1cc(O)c(C)c(C)c1O
REMARK SMILES IDX 1 1 2 2 3 3 4 4 6 5 8 6 10 7 9 8 7 9 11 10 5 12
REMARK H PARENT 11 11 5 13
REMARK Flexibility Score: inf
ROOT
ATOM      1  C   UNL     1     -23.648  58.295  29.195  1.00  0.00     0.048 C 
ATOM      2  C   UNL     1     -24.447  59.326  29.947  1.00  0.00    -0.005 A 
ATOM      3  C   UNL     1     -25.474  58.907  30.801  1.00  0.00     0.053 A 
ATOM      4  C   UNL     1     -26.248  59.834  31.503  1.00  0.00     0.119 A 
ATOM      5  C   UNL     1     -26.005  61.213  31.357  1.00  0.00    -0.003 A 
ATOM      6  C   UNL     1     -24.934  61.651  30.536  1.00  0.00    -0.002 A 
ATOM      7  C   UNL     1     -24.176  60.705  29.809  1.00  0.00     0.121 A 
ATOM      8  C   UNL     1     -24.632  63.125  30.387  1.00  0.00     0.049 C 
ATOM      9  C   UNL     1     -26.855  62.206  32.118  1.00  0.00     0.049 C 
ENDROOT
BRANCH   7  10
ATOM     10  O   UNL     1     -23.163  61.156  28.956  1.00  0.00    -0.507 OA
ATOM     11  H   UNL     1     -23.024  60.802  28.019  1.00  0.00     0.293 HD
ENDBRANCH   7  10
BRANCH   4  12
ATOM     12  O   UNL     1     -27.262  59.381  32.348  1.00  0.00    -0.508 OA
ATOM     13  H   UNL     1     -27.964  60.009  32.722  1.00  0.00     0.293 HD
ENDBRANCH   4  12
TORSDOF 2
ENDMDL
MODEL 9
REMARK VINA RESULT:    -4.870     21.039     22.491
REMARK INTER + INTRA:          -5.154
REMARK INTER:                  -5.154
REMARK INTRA:                   0.000
REMARK UNBOUND:                 0.000
REMARK SMILES Cc1cc(O)c(C)c(C)c1O
REMARK SMILES IDX 1 1 2 2 3 3 4 4 6 5 8 6 10 7 9 8 7 9 11 10 5 12
REMARK H PARENT 11 11 5 13
REMARK Flexibility Score: inf
ROOT
ATOM      1  C   UNL     1     -26.872  60.582  34.107  1.00  0.00     0.048 C 
ATOM      2  C   UNL     1     -25.734  60.937  33.188  1.00  0.00    -0.005 A 
ATOM      3  C   UNL     1     -24.470  60.382  33.418  1.00  0.00     0.053 A 
ATOM      4  C   UNL     1     -23.385  60.699  32.598  1.00  0.00     0.119 A 
ATOM      5  C   UNL     1     -23.549  61.592  31.522  1.00  0.00    -0.003 A 
ATOM      6  C   UNL     1     -24.836  62.122  31.244  1.00  0.00    -0.002 A 
ATOM      7  C   UNL     1     -25.919  61.816  32.098  1.00  0.00     0.121 A 
ATOM      8  C   UNL     1     -25.045  63.059  30.075  1.00  0.00     0.049 C 
ATOM      9  C   UNL     1     -22.365  61.932  30.646  1.00  0.00     0.049 C 
ENDROOT
BRANCH   7  10
ATOM     10  O   UNL     1     -27.168  62.395  31.848  1.00  0.00    -0.507 OA
ATOM     11  H   UNL     1     -27.411  62.842  30.974  1.00  0.00     0.293 HD
ENDBRANCH   7  10
BRANCH   4  12
ATOM     12  O   UNL     1     -22.139  60.124  32.855  1.00  0.00    -0.508 OA
ATOM     13  H   UNL     1     -21.459  59.974  32.119  1.00  0.00     0.293 HD
ENDBRANCH   4  12
TORSDOF 2
ENDMDL
