MODEL 1
REMARK VINA RESULT:    -2.281      0.000      0.000
REMARK INTER + INTRA:          -2.281
REMARK INTER:                  -2.281
REMARK INTRA:                   0.000
REMARK UNBOUND:                 0.000
REMARK SMILES C[NH+]1CCN(C2=[NH+]c3ccccc3Oc3ccc(Cl)cc32)CC1
REMARK SMILES IDX 7 1 6 2 21 3 5 4 8 5 9 6 13 7 10 8 12 9 14 10 11 11 15 12
REMARK SMILES IDX 16 13 17 14 18 15 20 16 19 17 4 18 22 19 3 20 23 21 2 22
REMARK SMILES IDX 1 23
REMARK H PARENT 7 24 2 25
REMARK Flexibility Score: inf
ROOT
ATOM      1  N   UNL     1     129.292 132.294 114.541  1.00  0.00    -0.237 N 
ATOM      2  C   UNL     1     129.865 131.168 114.201  1.00  0.00     0.286 C 
ATOM      3  C   UNL     1     130.201 130.090 115.168  1.00  0.00     0.108 A 
ATOM      4  N   UNL     1     130.146 130.927 112.808  1.00  0.00    -0.250 N 
ATOM      5  C   UNL     1     128.892 132.711 115.859  1.00  0.00     0.168 A 
ATOM      6  C   UNL     1     127.765 133.543 115.978  1.00  0.00     0.056 A 
ATOM      7  C   UNL     1     129.690 132.477 116.998  1.00  0.00     0.173 A 
ATOM      8  C   UNL     1     127.432 134.125 117.202  1.00  0.00     0.005 A 
ATOM      9  C   UNL     1     129.366 133.093 118.214  1.00  0.00     0.052 A 
ATOM     10  O   UNL     1     130.803 131.642 116.968  1.00  0.00    -0.452 OA
ATOM     11  C   UNL     1     128.237 133.906 118.319  1.00  0.00     0.004 A 
ATOM     12  C   UNL     1     130.752 130.358 116.436  1.00  0.00     0.143 A 
ATOM     13  C   UNL     1     131.257 129.309 117.215  1.00  0.00     0.049 A 
ATOM     14  C   UNL     1     131.174 127.990 116.769  1.00  0.00     0.024 A 
ATOM     15  C   UNL     1     130.590 127.709 115.534  1.00  0.00     0.042 A 
ATOM     16  C   UNL     1     130.114 128.752 114.735  1.00  0.00     0.041 A 
ATOM     17  Cl  UNL     1     130.482 126.051 114.970  1.00  0.00    -0.084 Cl
ATOM     18  C   UNL     1     131.527 130.701 112.371  1.00  0.00     0.298 C 
ATOM     19  C   UNL     1     129.129 131.172 111.783  1.00  0.00     0.298 C 
ATOM     20  C   UNL     1     131.554 129.649 111.258  1.00  0.00     0.308 C 
ATOM     21  C   UNL     1     129.230 130.103 110.689  1.00  0.00     0.308 C 
ATOM     22  N   UNL     1     130.613 130.002 110.173  1.00  0.00    -0.331 N 
ATOM     23  C   UNL     1     130.677 128.995 109.101  1.00  0.00     0.332 C 
ATOM     24  H   UNL     1     129.058 132.964 113.774  1.00  0.00     0.312 HD
ATOM     25  H   UNL     1     130.894 130.925 109.762  1.00  0.00     0.348 HD
ENDROOT
TORSDOF 0
ENDMDL
MODEL 2
REMARK VINA RESULT:    -1.426      3.303      7.350
REMARK INTER + INTRA:          -1.426
REMARK INTER:                  -1.426
REMARK INTRA:                   0.000
REMARK UNBOUND:                 0.000
REMARK SMILES C[NH+]1CCN(C2=[NH+]c3ccccc3Oc3ccc(Cl)cc32)CC1
REMARK SMILES IDX 7 1 6 2 21 3 5 4 8 5 9 6 13 7 10 8 12 9 14 10 11 11 15 12
REMARK SMILES IDX 16 13 17 14 18 15 20 16 19 17 4 18 22 19 3 20 23 21 2 22
REMARK SMILES IDX 1 23
REMARK H PARENT 7 24 2 25
REMARK Flexibility Score: inf
ROOT
ATOM      1  N   UNL     1     130.135 129.618 111.858  1.00  0.00    -0.237 N 
ATOM      2  C   UNL     1     129.679 130.795 112.200  1.00  0.00     0.286 C 
ATOM      3  C   UNL     1     128.571 131.487 111.488  1.00  0.00     0.108 A 
ATOM      4  N   UNL     1     130.238 131.446 113.358  1.00  0.00    -0.250 N 
ATOM      5  C   UNL     1     129.691 128.786 110.771  1.00  0.00     0.168 A 
ATOM      6  C   UNL     1     129.766 127.391 110.929  1.00  0.00     0.056 A 
ATOM      7  C   UNL     1     129.370 129.312 109.503  1.00  0.00     0.173 A 
ATOM      8  C   UNL     1     129.520 126.535 109.854  1.00  0.00     0.005 A 
ATOM      9  C   UNL     1     129.158 128.445 108.423  1.00  0.00     0.052 A 
ATOM     10  O   UNL     1     129.246 130.679 109.273  1.00  0.00    -0.452 OA
ATOM     11  C   UNL     1     129.224 127.063 108.598  1.00  0.00     0.004 A 
ATOM     12  C   UNL     1     128.467 131.499 110.084  1.00  0.00     0.143 A 
ATOM     13  C   UNL     1     127.543 132.346 109.458  1.00  0.00     0.049 A 
ATOM     14  C   UNL     1     126.685 133.143 110.215  1.00  0.00     0.024 A 
ATOM     15  C   UNL     1     126.749 133.106 111.608  1.00  0.00     0.042 A 
ATOM     16  C   UNL     1     127.690 132.289 112.240  1.00  0.00     0.041 A 
ATOM     17  Cl  UNL     1     125.670 134.105 112.564  1.00  0.00    -0.084 Cl
ATOM     18  C   UNL     1     130.887 132.752 113.217  1.00  0.00     0.298 C 
ATOM     19  C   UNL     1     130.417 130.718 114.616  1.00  0.00     0.298 C 
ATOM     20  C   UNL     1     130.580 133.619 114.442  1.00  0.00     0.308 C 
ATOM     21  C   UNL     1     130.122 131.648 115.798  1.00  0.00     0.308 C 
ATOM     22  N   UNL     1     130.904 132.900 115.694  1.00  0.00    -0.331 N 
ATOM     23  C   UNL     1     130.631 133.762 116.856  1.00  0.00     0.332 C 
ATOM     24  H   UNL     1     130.885 129.202 112.456  1.00  0.00     0.312 HD
ATOM     25  H   UNL     1     131.926 132.668 115.702  1.00  0.00     0.348 HD
ENDROOT
TORSDOF 0
ENDMDL
MODEL 3
REMARK VINA RESULT:    -1.031      1.728      2.174
REMARK INTER + INTRA:          -1.031
REMARK INTER:                  -1.031
REMARK INTRA:                   0.000
REMARK UNBOUND:                 0.000
REMARK SMILES C[NH+]1CCN(C2=[NH+]c3ccccc3Oc3ccc(Cl)cc32)CC1
REMARK SMILES IDX 7 1 6 2 21 3 5 4 8 5 9 6 13 7 10 8 12 9 14 10 11 11 15 12
REMARK SMILES IDX 16 13 17 14 18 15 20 16 19 17 4 18 22 19 3 20 23 21 2 22
REMARK SMILES IDX 1 23
REMARK H PARENT 7 24 2 25
REMARK Flexibility Score: inf
ROOT
ATOM      1  N   UNL     1     128.291 133.303 116.166  1.00  0.00    -0.237 N 
ATOM      2  C   UNL     1     128.812 132.384 115.394  1.00  0.00     0.286 C 
ATOM      3  C   UNL     1     129.431 131.133 115.906  1.00  0.00     0.108 A 
ATOM      4  N   UNL     1     128.744 132.560 113.965  1.00  0.00    -0.250 N 
ATOM      5  C   UNL     1     128.217 133.302 117.602  1.00  0.00     0.168 A 
ATOM      6  C   UNL     1     127.119 133.935 118.210  1.00  0.00     0.056 A 
ATOM      7  C   UNL     1     129.287 132.867 118.412  1.00  0.00     0.173 A 
ATOM      8  C   UNL     1     127.078 134.125 119.593  1.00  0.00     0.005 A 
ATOM      9  C   UNL     1     129.251 133.093 119.794  1.00  0.00     0.052 A 
ATOM     10  O   UNL     1     130.394 132.206 117.889  1.00  0.00    -0.452 OA
ATOM     11  C   UNL     1     128.148 133.711 120.384  1.00  0.00     0.004 A 
ATOM     12  C   UNL     1     130.271 131.114 117.036  1.00  0.00     0.143 A 
ATOM     13  C   UNL     1     131.005 129.961 117.343  1.00  0.00     0.049 A 
ATOM     14  C   UNL     1     130.874 128.809 116.567  1.00  0.00     0.024 A 
ATOM     15  C   UNL     1     130.012 128.803 115.471  1.00  0.00     0.042 A 
ATOM     16  C   UNL     1     129.301 129.959 115.138  1.00  0.00     0.041 A 
ATOM     17  Cl  UNL     1     129.844 127.356 114.494  1.00  0.00    -0.084 Cl
ATOM     18  C   UNL     1     129.979 132.621 113.178  1.00  0.00     0.298 C 
ATOM     19  C   UNL     1     127.491 132.950 113.314  1.00  0.00     0.298 C 
ATOM     20  C   UNL     1     129.774 131.915 111.834  1.00  0.00     0.308 C 
ATOM     21  C   UNL     1     127.362 132.232 111.966  1.00  0.00     0.308 C 
ATOM     22  N   UNL     1     128.574 132.434 111.141  1.00  0.00    -0.331 N 
ATOM     23  C   UNL     1     128.414 131.766 109.839  1.00  0.00     0.332 C 
ATOM     24  H   UNL     1     127.840 134.122 115.698  1.00  0.00     0.312 HD
ATOM     25  H   UNL     1     128.698 133.459 110.960  1.00  0.00     0.348 HD
ENDROOT
TORSDOF 0
ENDMDL
MODEL 4
REMARK VINA RESULT:    -1.029      2.132      5.970
REMARK INTER + INTRA:          -1.029
REMARK INTER:                  -1.029
REMARK INTRA:                   0.000
REMARK UNBOUND:                 0.000
REMARK SMILES C[NH+]1CCN(C2=[NH+]c3ccccc3Oc3ccc(Cl)cc32)CC1
REMARK SMILES IDX 7 1 6 2 21 3 5 4 8 5 9 6 13 7 10 8 12 9 14 10 11 11 15 12
REMARK SMILES IDX 16 13 17 14 18 15 20 16 19 17 4 18 22 19 3 20 23 21 2 22
REMARK SMILES IDX 1 23
REMARK H PARENT 7 24 2 25
REMARK Flexibility Score: inf
ROOT
ATOM      1  N   UNL     1     130.375 131.322 113.988  1.00  0.00    -0.237 N 
ATOM      2  C   UNL     1     130.203 130.800 115.176  1.00  0.00     0.286 C 
ATOM      3  C   UNL     1     130.490 129.377 115.498  1.00  0.00     0.108 A 
ATOM      4  N   UNL     1     129.758 131.652 116.250  1.00  0.00    -0.250 N 
ATOM      5  C   UNL     1     130.848 130.663 112.801  1.00  0.00     0.168 A 
ATOM      6  C   UNL     1     131.587 131.417 111.872  1.00  0.00     0.056 A 
ATOM      7  C   UNL     1     130.438 129.360 112.448  1.00  0.00     0.173 A 
ATOM      8  C   UNL     1     131.920 130.888 110.624  1.00  0.00     0.005 A 
ATOM      9  C   UNL     1     130.748 128.851 111.180  1.00  0.00     0.052 A 
ATOM     10  O   UNL     1     129.730 128.541 113.322  1.00  0.00    -0.452 OA
ATOM     11  C   UNL     1     131.493 129.607 110.275  1.00  0.00     0.004 A 
ATOM     12  C   UNL     1     130.145 128.322 114.632  1.00  0.00     0.143 A 
ATOM     13  C   UNL     1     130.229 126.996 115.077  1.00  0.00     0.049 A 
ATOM     14  C   UNL     1     130.703 126.705 116.356  1.00  0.00     0.024 A 
ATOM     15  C   UNL     1     131.090 127.740 117.206  1.00  0.00     0.042 A 
ATOM     16  C   UNL     1     130.977 129.068 116.784  1.00  0.00     0.041 A 
ATOM     17  Cl  UNL     1     131.687 127.379 118.815  1.00  0.00    -0.084 Cl
ATOM     18  C   UNL     1     128.501 131.356 116.943  1.00  0.00     0.298 C 
ATOM     19  C   UNL     1     130.386 132.955 116.484  1.00  0.00     0.298 C 
ATOM     20  C   UNL     1     128.643 131.675 118.434  1.00  0.00     0.308 C 
ATOM     21  C   UNL     1     130.470 133.223 117.991  1.00  0.00     0.308 C 
ATOM     22  N   UNL     1     129.149 133.051 118.635  1.00  0.00    -0.331 N 
ATOM     23  C   UNL     1     129.248 133.348 120.074  1.00  0.00     0.332 C 
ATOM     24  H   UNL     1     130.187 132.345 113.883  1.00  0.00     0.312 HD
ATOM     25  H   UNL     1     128.471 133.731 118.214  1.00  0.00     0.348 HD
ENDROOT
TORSDOF 0
ENDMDL
MODEL 5
REMARK VINA RESULT:    -0.944      2.188      6.061
REMARK INTER + INTRA:          -0.944
REMARK INTER:                  -0.944
REMARK INTRA:                   0.000
REMARK UNBOUND:                 0.000
REMARK SMILES C[NH+]1CCN(C2=[NH+]c3ccccc3Oc3ccc(Cl)cc32)CC1
REMARK SMILES IDX 7 1 6 2 21 3 5 4 8 5 9 6 13 7 10 8 12 9 14 10 11 11 15 12
REMARK SMILES IDX 16 13 17 14 18 15 20 16 19 17 4 18 22 19 3 20 23 21 2 22
REMARK SMILES IDX 1 23
REMARK H PARENT 7 24 2 25
REMARK Flexibility Score: inf
ROOT
ATOM      1  N   UNL     1     131.424 132.071 112.470  1.00  0.00    -0.237 N 
ATOM      2  C   UNL     1     130.753 131.549 113.464  1.00  0.00     0.286 C 
ATOM      3  C   UNL     1     130.761 130.099 113.791  1.00  0.00     0.108 A 
ATOM      4  N   UNL     1     130.001 132.424 114.328  1.00  0.00    -0.250 N 
ATOM      5  C   UNL     1     132.263 131.387 111.523  1.00  0.00     0.168 A 
ATOM      6  C   UNL     1     133.372 132.075 111.000  1.00  0.00     0.056 A 
ATOM      7  C   UNL     1     131.909 130.141 110.964  1.00  0.00     0.173 A 
ATOM      8  C   UNL     1     134.119 131.536 109.951  1.00  0.00     0.005 A 
ATOM      9  C   UNL     1     132.645 129.625 109.890  1.00  0.00     0.052 A 
ATOM     10  O   UNL     1     130.844 129.385 111.446  1.00  0.00    -0.452 OA
ATOM     11  C   UNL     1     133.750 130.314 109.390  1.00  0.00     0.004 A 
ATOM     12  C   UNL     1     130.690 129.101 112.799  1.00  0.00     0.143 A 
ATOM     13  C   UNL     1     130.474 127.766 113.165  1.00  0.00     0.049 A 
ATOM     14  C   UNL     1     130.379 127.404 114.509  1.00  0.00     0.024 A 
ATOM     15  C   UNL     1     130.492 128.378 115.500  1.00  0.00     0.042 A 
ATOM     16  C   UNL     1     130.674 129.717 115.144  1.00  0.00     0.041 A 
ATOM     17  Cl  UNL     1     130.375 127.927 117.192  1.00  0.00    -0.084 Cl
ATOM     18  C   UNL     1     128.552 132.250 114.460  1.00  0.00     0.298 C 
ATOM     19  C   UNL     1     130.601 133.649 114.863  1.00  0.00     0.298 C 
ATOM     20  C   UNL     1     128.125 132.526 115.905  1.00  0.00     0.308 C 
ATOM     21  C   UNL     1     130.111 133.881 116.297  1.00  0.00     0.308 C 
ATOM     22  N   UNL     1     128.634 133.837 116.366  1.00  0.00    -0.331 N 
ATOM     23  C   UNL     1     128.186 134.096 117.744  1.00  0.00     0.332 C 
ATOM     24  H   UNL     1     131.385 133.110 112.358  1.00  0.00     0.312 HD
ATOM     25  H   UNL     1     128.239 134.592 115.754  1.00  0.00     0.348 HD
ENDROOT
TORSDOF 0
ENDMDL
MODEL 6
REMARK VINA RESULT:     0.167      1.107      1.229
REMARK INTER + INTRA:           0.167
REMARK INTER:                   0.167
REMARK INTRA:                   0.000
REMARK UNBOUND:                 0.000
REMARK SMILES C[NH+]1CCN(C2=[NH+]c3ccccc3Oc3ccc(Cl)cc32)CC1
REMARK SMILES IDX 7 1 6 2 21 3 5 4 8 5 9 6 13 7 10 8 12 9 14 10 11 11 15 12
REMARK SMILES IDX 16 13 17 14 18 15 20 16 19 17 4 18 22 19 3 20 23 21 2 22
REMARK SMILES IDX 1 23
REMARK H PARENT 7 24 2 25
REMARK Flexibility Score: inf
ROOT
ATOM      1  N   UNL     1     129.212 132.164 113.710  1.00  0.00    -0.237 N 
ATOM      2  C   UNL     1     129.597 130.996 113.263  1.00  0.00     0.286 C 
ATOM      3  C   UNL     1     130.044 129.885 114.144  1.00  0.00     0.108 A 
ATOM      4  N   UNL     1     129.544 130.745 111.845  1.00  0.00    -0.250 N 
ATOM      5  C   UNL     1     129.148 132.602 115.078  1.00  0.00     0.168 A 
ATOM      6  C   UNL     1     128.150 133.527 115.434  1.00  0.00     0.056 A 
ATOM      7  C   UNL     1     130.154 132.292 116.016  1.00  0.00     0.173 A 
ATOM      8  C   UNL     1     128.145 134.124 116.695  1.00  0.00     0.005 A 
ATOM      9  C   UNL     1     130.159 132.922 117.267  1.00  0.00     0.052 A 
ATOM     10  O   UNL     1     131.158 131.365 115.751  1.00  0.00    -0.452 OA
ATOM     11  C   UNL     1     129.155 133.828 117.610  1.00  0.00     0.004 A 
ATOM     12  C   UNL     1     130.881 130.094 115.257  1.00  0.00     0.143 A 
ATOM     13  C   UNL     1     131.454 128.999 115.917  1.00  0.00     0.049 A 
ATOM     14  C   UNL     1     131.163 127.696 115.514  1.00  0.00     0.024 A 
ATOM     15  C   UNL     1     130.300 127.476 114.440  1.00  0.00     0.042 A 
ATOM     16  C   UNL     1     129.750 128.563 113.755  1.00  0.00     0.041 A 
ATOM     17  Cl  UNL     1     129.929 125.839 113.932  1.00  0.00    -0.084 Cl
ATOM     18  C   UNL     1     130.770 130.405 111.118  1.00  0.00     0.298 C 
ATOM     19  C   UNL     1     128.350 131.085 111.066  1.00  0.00     0.298 C 
ATOM     20  C   UNL     1     130.461 129.364 110.037  1.00  0.00     0.308 C 
ATOM     21  C   UNL     1     128.116 130.020 109.988  1.00  0.00     0.308 C 
ATOM     22  N   UNL     1     129.338 129.805 109.182  1.00  0.00    -0.331 N 
ATOM     23  C   UNL     1     129.079 128.806 108.132  1.00  0.00     0.332 C 
ATOM     24  H   UNL     1     128.872 132.858 113.005  1.00  0.00     0.312 HD
ATOM     25  H   UNL     1     129.599 130.704 108.709  1.00  0.00     0.348 HD
ENDROOT
TORSDOF 0
ENDMDL
MODEL 7
REMARK VINA RESULT:     0.198      4.107      7.950
REMARK INTER + INTRA:           0.198
REMARK INTER:                   0.198
REMARK INTRA:                   0.000
REMARK UNBOUND:                 0.000
REMARK SMILES C[NH+]1CCN(C2=[NH+]c3ccccc3Oc3ccc(Cl)cc32)CC1
REMARK SMILES IDX 7 1 6 2 21 3 5 4 8 5 9 6 13 7 10 8 12 9 14 10 11 11 15 12
REMARK SMILES IDX 16 13 17 14 18 15 20 16 19 17 4 18 22 19 3 20 23 21 2 22
REMARK SMILES IDX 1 23
REMARK H PARENT 7 24 2 25
REMARK Flexibility Score: inf
ROOT
ATOM      1  N   UNL     1     130.060 127.003 111.640  1.00  0.00    -0.237 N 
ATOM      2  C   UNL     1     129.831 128.230 111.246  1.00  0.00     0.286 C 
ATOM      3  C   UNL     1     128.999 128.571 110.062  1.00  0.00     0.108 A 
ATOM      4  N   UNL     1     130.368 129.319 112.022  1.00  0.00    -0.250 N 
ATOM      5  C   UNL     1     129.586 125.786 111.039  1.00  0.00     0.168 A 
ATOM      6  C   UNL     1     129.336 124.685 111.877  1.00  0.00     0.056 A 
ATOM      7  C   UNL     1     129.550 125.600 109.641  1.00  0.00     0.173 A 
ATOM      8  C   UNL     1     129.047 123.429 111.341  1.00  0.00     0.005 A 
ATOM      9  C   UNL     1     129.293 124.328 109.114  1.00  0.00     0.052 A 
ATOM     10  O   UNL     1     129.756 126.645 108.746  1.00  0.00    -0.452 OA
ATOM     11  C   UNL     1     129.034 123.248 109.959  1.00  0.00     0.004 A 
ATOM     12  C   UNL     1     129.078 127.856 108.851  1.00  0.00     0.143 A 
ATOM     13  C   UNL     1     128.447 128.351 107.703  1.00  0.00     0.049 A 
ATOM     14  C   UNL     1     127.694 129.524 107.758  1.00  0.00     0.024 A 
ATOM     15  C   UNL     1     127.572 130.217 108.962  1.00  0.00     0.042 A 
ATOM     16  C   UNL     1     128.226 129.748 110.104  1.00  0.00     0.041 A 
ATOM     17  Cl  UNL     1     126.625 131.692 109.035  1.00  0.00    -0.084 Cl
ATOM     18  C   UNL     1     131.298 130.267 111.402  1.00  0.00     0.298 C 
ATOM     19  C   UNL     1     130.225 129.345 113.479  1.00  0.00     0.298 C 
ATOM     20  C   UNL     1     131.035 131.678 111.937  1.00  0.00     0.308 C 
ATOM     21  C   UNL     1     129.993 130.786 113.950  1.00  0.00     0.308 C 
ATOM     22  N   UNL     1     131.034 131.692 113.416  1.00  0.00    -0.331 N 
ATOM     23  C   UNL     1     130.811 133.061 113.909  1.00  0.00     0.332 C 
ATOM     24  H   UNL     1     130.621 126.878 112.514  1.00  0.00     0.312 HD
ATOM     25  H   UNL     1     131.973 131.376 113.763  1.00  0.00     0.348 HD
ENDROOT
TORSDOF 0
ENDMDL
