MODEL 1
REMARK VINA RESULT:    -3.879      0.000      0.000
REMARK INTER + INTRA:          -9.238
REMARK INTER:                  -7.054
REMARK INTRA:                  -2.184
REMARK UNBOUND:                -2.184
REMARK SMILES CCCCCCCCCCCCCC[C@@H](C)C(=O)[O-]
REMARK SMILES IDX 9 1 10 2 11 3 12 4 13 5 14 6 15 7 16 8 17 9 18 10 19 11 8 12
REMARK SMILES IDX 7 13 6 14 5 15 4 16 3 17 2 18 1 19
REMARK H PARENT
REMARK Flexibility Score: inf
ROOT
ATOM      1  C   UNL     1     183.732 183.717 201.236  1.00  0.00     0.000 C 
ENDROOT
BRANCH   1   2
ATOM      2  C   UNL     1     183.186 184.026 199.831  1.00  0.00     0.000 C 
BRANCH   2   3
ATOM      3  C   UNL     1     182.865 185.518 199.639  1.00  0.00     0.000 C 
BRANCH   3   4
ATOM      4  C   UNL     1     183.614 186.415 200.637  1.00  0.00     0.000 C 
BRANCH   4   5
ATOM      5  C   UNL     1     184.793 187.165 199.992  1.00  0.00     0.001 C 
BRANCH   5   6
ATOM      6  C   UNL     1     186.057 186.293 199.868  1.00  0.00     0.009 C 
BRANCH   6   7
ATOM      7  C   UNL     1     186.661 186.255 198.446  1.00  0.00     0.032 C 
ATOM      8  C   UNL     1     186.040 185.116 197.631  1.00  0.00     0.014 C 
BRANCH   7   9
ATOM      9  C   UNL     1     186.457 187.562 197.727  1.00  0.00     0.044 C 
ATOM     10  O   UNL     1     187.204 188.544 197.977  1.00  0.00    -0.550 OA
ATOM     11  O   UNL     1     185.439 187.697 196.789  1.00  0.00    -0.550 OA
ENDBRANCH   7   9
ENDBRANCH   6   7
ENDBRANCH   5   6
ENDBRANCH   4   5
ENDBRANCH   3   4
ENDBRANCH   2   3
ENDBRANCH   1   2
BRANCH   1  12
ATOM     12  C   UNL     1     182.701 183.000 202.125  1.00  0.00     0.000 C 
BRANCH  12  13
ATOM     13  C   UNL     1     182.692 181.479 201.906  1.00  0.00    -0.000 C 
BRANCH  13  14
ATOM     14  C   UNL     1     184.092 180.854 202.029  1.00  0.00    -0.000 C 
BRANCH  14  15
ATOM     15  C   UNL     1     184.325 179.708 201.027  1.00  0.00    -0.000 C 
BRANCH  15  16
ATOM     16  C   UNL     1     185.574 179.866 200.142  1.00  0.00    -0.000 C 
BRANCH  16  17
ATOM     17  C   UNL     1     185.676 181.254 199.491  1.00  0.00    -0.000 C 
BRANCH  17  18
ATOM     18  C   UNL     1     187.089 181.830 199.646  1.00  0.00    -0.003 C 
ATOM     19  C   UNL     1     187.169 182.785 200.832  1.00  0.00     0.004 C 
ENDBRANCH  17  18
ENDBRANCH  16  17
ENDBRANCH  15  16
ENDBRANCH  14  15
ENDBRANCH  13  14
ENDBRANCH  12  13
ENDBRANCH   1  12
TORSDOF 14
ENDMDL
MODEL 2
REMARK VINA RESULT:    -3.820      1.428      4.735
REMARK INTER + INTRA:          -9.130
REMARK INTER:                  -6.835
REMARK INTRA:                  -2.295
REMARK UNBOUND:                -2.184
REMARK SMILES CCCCCCCCCCCCCC[C@@H](C)C(=O)[O-]
REMARK SMILES IDX 9 1 10 2 11 3 12 4 13 5 14 6 15 7 16 8 17 9 18 10 19 11 8 12
REMARK SMILES IDX 7 13 6 14 5 15 4 16 3 17 2 18 1 19
REMARK H PARENT
REMARK Flexibility Score: inf
ROOT
ATOM      1  C   UNL     1     184.135 180.549 202.079  1.00  0.00     0.000 C 
ENDROOT
BRANCH   1   2
ATOM      2  C   UNL     1     185.506 180.347 201.414  1.00  0.00     0.000 C 
BRANCH   2   3
ATOM      3  C   UNL     1     185.396 180.111 199.897  1.00  0.00     0.000 C 
BRANCH   3   4
ATOM      4  C   UNL     1     186.628 180.622 199.131  1.00  0.00     0.000 C 
BRANCH   4   5
ATOM      5  C   UNL     1     186.771 182.153 199.191  1.00  0.00     0.001 C 
BRANCH   5   6
ATOM      6  C   UNL     1     185.644 182.887 198.440  1.00  0.00     0.009 C 
BRANCH   6   7
ATOM      7  C   UNL     1     185.651 184.420 198.632  1.00  0.00     0.032 C 
ATOM      8  C   UNL     1     186.518 184.805 199.834  1.00  0.00     0.014 C 
BRANCH   7   9
ATOM      9  C   UNL     1     186.151 185.126 197.400  1.00  0.00     0.044 C 
ATOM     10  O   UNL     1     186.162 186.383 197.353  1.00  0.00    -0.550 OA
ATOM     11  O   UNL     1     186.597 184.396 196.304  1.00  0.00    -0.550 OA
ENDBRANCH   7   9
ENDBRANCH   6   7
ENDBRANCH   5   6
ENDBRANCH   4   5
ENDBRANCH   3   4
ENDBRANCH   2   3
ENDBRANCH   1   2
BRANCH   1  12
ATOM     12  C   UNL     1     183.262 181.572 201.332  1.00  0.00     0.000 C 
BRANCH  12  13
ATOM     13  C   UNL     1     183.699 183.023 201.596  1.00  0.00    -0.000 C 
BRANCH  13  14
ATOM     14  C   UNL     1     182.788 184.051 200.904  1.00  0.00    -0.000 C 
BRANCH  14  15
ATOM     15  C   UNL     1     182.945 185.471 201.480  1.00  0.00    -0.000 C 
BRANCH  15  16
ATOM     16  C   UNL     1     182.372 186.595 200.598  1.00  0.00    -0.000 C 
BRANCH  16  17
ATOM     17  C   UNL     1     183.233 186.882 199.359  1.00  0.00    -0.000 C 
BRANCH  17  18
ATOM     18  C   UNL     1     183.854 188.282 199.436  1.00  0.00    -0.003 C 
ATOM     19  C   UNL     1     185.132 188.275 200.270  1.00  0.00     0.004 C 
ENDBRANCH  17  18
ENDBRANCH  16  17
ENDBRANCH  15  16
ENDBRANCH  14  15
ENDBRANCH  13  14
ENDBRANCH  12  13
ENDBRANCH   1  12
TORSDOF 14
ENDMDL
MODEL 3
REMARK VINA RESULT:    -3.795      2.237      3.447
REMARK INTER + INTRA:          -9.084
REMARK INTER:                  -6.992
REMARK INTRA:                  -2.092
REMARK UNBOUND:                -2.184
REMARK SMILES CCCCCCCCCCCCCC[C@@H](C)C(=O)[O-]
REMARK SMILES IDX 9 1 10 2 11 3 12 4 13 5 14 6 15 7 16 8 17 9 18 10 19 11 8 12
REMARK SMILES IDX 7 13 6 14 5 15 4 16 3 17 2 18 1 19
REMARK H PARENT
REMARK Flexibility Score: inf
ROOT
ATOM      1  C   UNL     1     182.559 181.897 201.050  1.00  0.00     0.000 C 
ENDROOT
BRANCH   1   2
ATOM      2  C   UNL     1     181.755 182.930 201.857  1.00  0.00     0.000 C 
BRANCH   2   3
ATOM      3  C   UNL     1     180.511 183.429 201.103  1.00  0.00     0.000 C 
BRANCH   3   4
ATOM      4  C   UNL     1     180.718 183.458 199.579  1.00  0.00     0.000 C 
BRANCH   4   5
ATOM      5  C   UNL     1     180.230 184.769 198.939  1.00  0.00     0.001 C 
BRANCH   5   6
ATOM      6  C   UNL     1     181.388 185.698 198.528  1.00  0.00     0.009 C 
BRANCH   6   7
ATOM      7  C   UNL     1     182.788 185.174 198.920  1.00  0.00     0.032 C 
ATOM      8  C   UNL     1     183.783 185.402 197.778  1.00  0.00     0.014 C 
BRANCH   7   9
ATOM      9  C   UNL     1     183.293 185.839 200.173  1.00  0.00     0.044 C 
ATOM     10  O   UNL     1     184.510 185.762 200.482  1.00  0.00    -0.550 OA
ATOM     11  O   UNL     1     182.419 186.537 200.999  1.00  0.00    -0.550 OA
ENDBRANCH   7   9
ENDBRANCH   6   7
ENDBRANCH   5   6
ENDBRANCH   4   5
ENDBRANCH   3   4
ENDBRANCH   2   3
ENDBRANCH   1   2
BRANCH   1  12
ATOM     12  C   UNL     1     183.544 181.101 201.924  1.00  0.00     0.000 C 
BRANCH  12  13
ATOM     13  C   UNL     1     184.195 179.934 201.164  1.00  0.00    -0.000 C 
BRANCH  13  14
ATOM     14  C   UNL     1     185.626 179.639 201.644  1.00  0.00    -0.000 C 
BRANCH  14  15
ATOM     15  C   UNL     1     186.367 180.902 202.123  1.00  0.00    -0.000 C 
BRANCH  15  16
ATOM     16  C   UNL     1     187.229 181.593 201.052  1.00  0.00    -0.000 C 
BRANCH  16  17
ATOM     17  C   UNL     1     186.571 182.855 200.475  1.00  0.00    -0.000 C 
BRANCH  17  18
ATOM     18  C   UNL     1     185.803 182.533 199.187  1.00  0.00    -0.003 C 
ATOM     19  C   UNL     1     186.719 181.904 198.141  1.00  0.00     0.004 C 
ENDBRANCH  17  18
ENDBRANCH  16  17
ENDBRANCH  15  16
ENDBRANCH  14  15
ENDBRANCH  13  14
ENDBRANCH  12  13
ENDBRANCH   1  12
TORSDOF 14
ENDMDL
MODEL 4
REMARK VINA RESULT:    -3.792     11.291     15.421
REMARK INTER + INTRA:          -9.079
REMARK INTER:                  -7.053
REMARK INTRA:                  -2.026
REMARK UNBOUND:                -2.184
REMARK SMILES CCCCCCCCCCCCCC[C@@H](C)C(=O)[O-]
REMARK SMILES IDX 9 1 10 2 11 3 12 4 13 5 14 6 15 7 16 8 17 9 18 10 19 11 8 12
REMARK SMILES IDX 7 13 6 14 5 15 4 16 3 17 2 18 1 19
REMARK H PARENT
REMARK Flexibility Score: inf
ROOT
ATOM      1  C   UNL     1     197.442 194.707 201.729  1.00  0.00     0.000 C 
ENDROOT
BRANCH   1   2
ATOM      2  C   UNL     1     196.941 193.712 200.669  1.00  0.00     0.000 C 
BRANCH   2   3
ATOM      3  C   UNL     1     196.577 194.399 199.342  1.00  0.00     0.000 C 
BRANCH   3   4
ATOM      4  C   UNL     1     195.057 194.510 199.134  1.00  0.00     0.000 C 
BRANCH   4   5
ATOM      5  C   UNL     1     194.301 193.251 199.593  1.00  0.00     0.001 C 
BRANCH   5   6
ATOM      6  C   UNL     1     192.832 193.538 199.958  1.00  0.00     0.009 C 
BRANCH   6   7
ATOM      7  C   UNL     1     191.808 192.712 199.147  1.00  0.00     0.032 C 
ATOM      8  C   UNL     1     192.419 192.259 197.817  1.00  0.00     0.014 C 
BRANCH   7   9
ATOM      9  C   UNL     1     191.332 191.512 199.922  1.00  0.00     0.044 C 
ATOM     10  O   UNL     1     190.306 190.886 199.549  1.00  0.00    -0.550 OA
ATOM     11  O   UNL     1     192.018 191.091 201.055  1.00  0.00    -0.550 OA
ENDBRANCH   7   9
ENDBRANCH   6   7
ENDBRANCH   5   6
ENDBRANCH   4   5
ENDBRANCH   3   4
ENDBRANCH   2   3
ENDBRANCH   1   2
BRANCH   1  12
ATOM     12  C   UNL     1     198.260 195.858 201.118  1.00  0.00     0.000 C 
BRANCH  12  13
ATOM     13  C   UNL     1     197.612 197.232 201.359  1.00  0.00    -0.000 C 
BRANCH  13  14
ATOM     14  C   UNL     1     196.156 197.124 201.842  1.00  0.00    -0.000 C 
BRANCH  14  15
ATOM     15  C   UNL     1     195.200 198.049 201.066  1.00  0.00    -0.000 C 
BRANCH  15  16
ATOM     16  C   UNL     1     193.738 197.569 201.010  1.00  0.00    -0.000 C 
BRANCH  16  17
ATOM     17  C   UNL     1     193.001 198.040 199.748  1.00  0.00    -0.000 C 
BRANCH  17  18
ATOM     18  C   UNL     1     191.982 196.991 199.284  1.00  0.00    -0.003 C 
ATOM     19  C   UNL     1     192.261 196.547 197.851  1.00  0.00     0.004 C 
ENDBRANCH  17  18
ENDBRANCH  16  17
ENDBRANCH  15  16
ENDBRANCH  14  15
ENDBRANCH  13  14
ENDBRANCH  12  13
ENDBRANCH   1  12
TORSDOF 14
ENDMDL
MODEL 5
REMARK VINA RESULT:    -3.771      1.827      2.321
REMARK INTER + INTRA:          -9.041
REMARK INTER:                  -7.240
REMARK INTRA:                  -1.801
REMARK UNBOUND:                -2.184
REMARK SMILES CCCCCCCCCCCCCC[C@@H](C)C(=O)[O-]
REMARK SMILES IDX 9 1 10 2 11 3 12 4 13 5 14 6 15 7 16 8 17 9 18 10 19 11 8 12
REMARK SMILES IDX 7 13 6 14 5 15 4 16 3 17 2 18 1 19
REMARK H PARENT
REMARK Flexibility Score: inf
ROOT
ATOM      1  C   UNL     1     183.743 184.019 201.129  1.00  0.00     0.000 C 
ENDROOT
BRANCH   1   2
ATOM      2  C   UNL     1     183.397 183.601 199.690  1.00  0.00     0.000 C 
BRANCH   2   3
ATOM      3  C   UNL     1     183.153 184.808 198.768  1.00  0.00     0.000 C 
BRANCH   3   4
ATOM      4  C   UNL     1     184.437 185.283 198.068  1.00  0.00     0.000 C 
BRANCH   4   5
ATOM      5  C   UNL     1     185.098 186.473 198.784  1.00  0.00     0.001 C 
BRANCH   5   6
ATOM      6  C   UNL     1     186.343 186.064 199.594  1.00  0.00     0.009 C 
BRANCH   6   7
ATOM      7  C   UNL     1     187.625 186.841 199.217  1.00  0.00     0.032 C 
ATOM      8  C   UNL     1     187.272 188.098 198.416  1.00  0.00     0.014 C 
BRANCH   7   9
ATOM      9  C   UNL     1     188.415 187.225 200.440  1.00  0.00     0.044 C 
ATOM     10  O   UNL     1     189.585 186.790 200.598  1.00  0.00    -0.550 OA
ATOM     11  O   UNL     1     187.857 188.054 201.406  1.00  0.00    -0.550 OA
ENDBRANCH   7   9
ENDBRANCH   6   7
ENDBRANCH   5   6
ENDBRANCH   4   5
ENDBRANCH   3   4
ENDBRANCH   2   3
ENDBRANCH   1   2
BRANCH   1  12
ATOM     12  C   UNL     1     183.638 182.851 202.125  1.00  0.00     0.000 C 
BRANCH  12  13
ATOM     13  C   UNL     1     183.440 181.497 201.424  1.00  0.00    -0.000 C 
BRANCH  13  14
ATOM     14  C   UNL     1     184.312 180.383 202.029  1.00  0.00    -0.000 C 
BRANCH  14  15
ATOM     15  C   UNL     1     185.662 180.222 201.304  1.00  0.00    -0.000 C 
BRANCH  15  16
ATOM     16  C   UNL     1     186.694 181.324 201.605  1.00  0.00    -0.000 C 
BRANCH  16  17
ATOM     17  C   UNL     1     187.483 181.761 200.361  1.00  0.00    -0.000 C 
BRANCH  17  18
ATOM     18  C   UNL     1     186.854 181.190 199.084  1.00  0.00    -0.003 C 
ATOM     19  C   UNL     1     186.486 182.301 198.106  1.00  0.00     0.004 C 
ENDBRANCH  17  18
ENDBRANCH  16  17
ENDBRANCH  15  16
ENDBRANCH  14  15
ENDBRANCH  13  14
ENDBRANCH  12  13
ENDBRANCH   1  12
TORSDOF 14
ENDMDL
MODEL 6
REMARK VINA RESULT:    -3.742     11.390     15.340
REMARK INTER + INTRA:          -8.988
REMARK INTER:                  -7.085
REMARK INTRA:                  -1.903
REMARK UNBOUND:                -2.184
REMARK SMILES CCCCCCCCCCCCCC[C@@H](C)C(=O)[O-]
REMARK SMILES IDX 9 1 10 2 11 3 12 4 13 5 14 6 15 7 16 8 17 9 18 10 19 11 8 12
REMARK SMILES IDX 7 13 6 14 5 15 4 16 3 17 2 18 1 19
REMARK H PARENT
REMARK Flexibility Score: inf
ROOT
ATOM      1  C   UNL     1     196.578 194.618 199.474  1.00  0.00     0.000 C 
ENDROOT
BRANCH   1   2
ATOM      2  C   UNL     1     195.080 194.764 199.159  1.00  0.00     0.000 C 
BRANCH   2   3
ATOM      3  C   UNL     1     194.186 194.131 200.239  1.00  0.00     0.000 C 
BRANCH   3   4
ATOM      4  C   UNL     1     193.049 193.285 199.641  1.00  0.00     0.000 C 
BRANCH   4   5
ATOM      5  C   UNL     1     193.462 191.823 199.399  1.00  0.00     0.001 C 
BRANCH   5   6
ATOM      6  C   UNL     1     194.461 191.304 200.451  1.00  0.00     0.009 C 
BRANCH   6   7
ATOM      7  C   UNL     1     194.343 189.790 200.741  1.00  0.00     0.032 C 
ATOM      8  C   UNL     1     192.954 189.277 200.348  1.00  0.00     0.014 C 
BRANCH   7   9
ATOM      9  C   UNL     1     195.399 189.007 200.008  1.00  0.00     0.044 C 
ATOM     10  O   UNL     1     196.459 188.670 200.597  1.00  0.00    -0.550 OA
ATOM     11  O   UNL     1     195.215 188.655 198.676  1.00  0.00    -0.550 OA
ENDBRANCH   7   9
ENDBRANCH   6   7
ENDBRANCH   5   6
ENDBRANCH   4   5
ENDBRANCH   3   4
ENDBRANCH   2   3
ENDBRANCH   1   2
BRANCH   1  12
ATOM     12  C   UNL     1     196.879 194.742 200.978  1.00  0.00     0.000 C 
BRANCH  12  13
ATOM     13  C   UNL     1     197.933 195.820 201.280  1.00  0.00    -0.000 C 
BRANCH  13  14
ATOM     14  C   UNL     1     197.330 197.233 201.358  1.00  0.00    -0.000 C 
BRANCH  14  15
ATOM     15  C   UNL     1     195.994 197.270 202.124  1.00  0.00    -0.000 C 
BRANCH  15  16
ATOM     16  C   UNL     1     194.963 198.275 201.578  1.00  0.00    -0.000 C 
BRANCH  16  17
ATOM     17  C   UNL     1     193.624 197.619 201.209  1.00  0.00    -0.000 C 
BRANCH  17  18
ATOM     18  C   UNL     1     193.200 198.000 199.785  1.00  0.00    -0.003 C 
ATOM     19  C   UNL     1     191.920 197.277 199.378  1.00  0.00     0.004 C 
ENDBRANCH  17  18
ENDBRANCH  16  17
ENDBRANCH  15  16
ENDBRANCH  14  15
ENDBRANCH  13  14
ENDBRANCH  12  13
ENDBRANCH   1  12
TORSDOF 14
ENDMDL
MODEL 7
REMARK VINA RESULT:    -3.715      1.235      2.456
REMARK INTER + INTRA:          -8.940
REMARK INTER:                  -7.125
REMARK INTRA:                  -1.815
REMARK UNBOUND:                -2.184
REMARK SMILES CCCCCCCCCCCCCC[C@@H](C)C(=O)[O-]
REMARK SMILES IDX 9 1 10 2 11 3 12 4 13 5 14 6 15 7 16 8 17 9 18 10 19 11 8 12
REMARK SMILES IDX 7 13 6 14 5 15 4 16 3 17 2 18 1 19
REMARK H PARENT
REMARK Flexibility Score: inf
ROOT
ATOM      1  C   UNL     1     182.801 181.604 201.630  1.00  0.00     0.000 C 
ENDROOT
BRANCH   1   2
ATOM      2  C   UNL     1     183.052 183.039 202.125  1.00  0.00     0.000 C 
BRANCH   2   3
ATOM      3  C   UNL     1     182.455 184.100 201.184  1.00  0.00     0.000 C 
BRANCH   3   4
ATOM      4  C   UNL     1     182.447 183.646 199.714  1.00  0.00     0.000 C 
BRANCH   4   5
ATOM      5  C   UNL     1     183.284 184.562 198.805  1.00  0.00     0.001 C 
BRANCH   5   6
ATOM      6  C   UNL     1     184.771 184.602 199.207  1.00  0.00     0.009 C 
BRANCH   6   7
ATOM      7  C   UNL     1     185.388 186.019 199.204  1.00  0.00     0.032 C 
ATOM      8  C   UNL     1     186.788 185.993 199.824  1.00  0.00     0.014 C 
BRANCH   7   9
ATOM      9  C   UNL     1     185.460 186.585 197.811  1.00  0.00     0.044 C 
ATOM     10  O   UNL     1     186.219 186.060 196.955  1.00  0.00    -0.550 OA
ATOM     11  O   UNL     1     184.696 187.692 197.461  1.00  0.00    -0.550 OA
ENDBRANCH   7   9
ENDBRANCH   6   7
ENDBRANCH   5   6
ENDBRANCH   4   5
ENDBRANCH   3   4
ENDBRANCH   2   3
ENDBRANCH   1   2
BRANCH   1  12
ATOM     12  C   UNL     1     184.016 180.685 201.847  1.00  0.00     0.000 C 
BRANCH  12  13
ATOM     13  C   UNL     1     184.091 179.554 200.809  1.00  0.00    -0.000 C 
BRANCH  13  14
ATOM     14  C   UNL     1     185.320 179.673 199.892  1.00  0.00    -0.000 C 
BRANCH  14  15
ATOM     15  C   UNL     1     185.683 181.133 199.565  1.00  0.00    -0.000 C 
BRANCH  15  16
ATOM     16  C   UNL     1     187.146 181.517 199.852  1.00  0.00    -0.000 C 
BRANCH  16  17
ATOM     17  C   UNL     1     187.386 181.903 201.319  1.00  0.00    -0.000 C 
BRANCH  17  18
ATOM     18  C   UNL     1     188.339 183.100 201.423  1.00  0.00    -0.003 C 
ATOM     19  C   UNL     1     189.742 182.656 201.828  1.00  0.00     0.004 C 
ENDBRANCH  17  18
ENDBRANCH  16  17
ENDBRANCH  15  16
ENDBRANCH  14  15
ENDBRANCH  13  14
ENDBRANCH  12  13
ENDBRANCH   1  12
TORSDOF 14
ENDMDL
MODEL 8
REMARK VINA RESULT:    -3.713      1.549      3.747
REMARK INTER + INTRA:          -8.935
REMARK INTER:                  -7.014
REMARK INTRA:                  -1.921
REMARK UNBOUND:                -2.184
REMARK SMILES CCCCCCCCCCCCCC[C@@H](C)C(=O)[O-]
REMARK SMILES IDX 9 1 10 2 11 3 12 4 13 5 14 6 15 7 16 8 17 9 18 10 19 11 8 12
REMARK SMILES IDX 7 13 6 14 5 15 4 16 3 17 2 18 1 19
REMARK H PARENT
REMARK Flexibility Score: inf
ROOT
ATOM      1  C   UNL     1     186.680 181.438 200.636  1.00  0.00     0.000 C 
ENDROOT
BRANCH   1   2
ATOM      2  C   UNL     1     186.777 181.131 199.132  1.00  0.00     0.000 C 
BRANCH   2   3
ATOM      3  C   UNL     1     186.358 182.326 198.258  1.00  0.00     0.000 C 
BRANCH   3   4
ATOM      4  C   UNL     1     185.203 183.131 198.876  1.00  0.00     0.000 C 
BRANCH   4   5
ATOM      5  C   UNL     1     185.531 184.628 199.017  1.00  0.00     0.001 C 
BRANCH   5   6
ATOM      6  C   UNL     1     185.976 185.268 197.688  1.00  0.00     0.009 C 
BRANCH   6   7
ATOM      7  C   UNL     1     185.935 186.813 197.687  1.00  0.00     0.032 C 
ATOM      8  C   UNL     1     184.494 187.310 197.533  1.00  0.00     0.014 C 
BRANCH   7   9
ATOM      9  C   UNL     1     186.535 187.380 198.946  1.00  0.00     0.044 C 
ATOM     10  O   UNL     1     187.772 187.278 199.158  1.00  0.00    -0.550 OA
ATOM     11  O   UNL     1     185.729 188.012 199.886  1.00  0.00    -0.550 OA
ENDBRANCH   7   9
ENDBRANCH   6   7
ENDBRANCH   5   6
ENDBRANCH   4   5
ENDBRANCH   3   4
ENDBRANCH   2   3
ENDBRANCH   1   2
BRANCH   1  12
ATOM     12  C   UNL     1     186.120 180.256 201.445  1.00  0.00     0.000 C 
BRANCH  12  13
ATOM     13  C   UNL     1     184.782 180.590 202.125  1.00  0.00    -0.000 C 
BRANCH  13  14
ATOM     14  C   UNL     1     183.625 180.727 201.121  1.00  0.00    -0.000 C 
BRANCH  14  15
ATOM     15  C   UNL     1     182.514 181.673 201.616  1.00  0.00    -0.000 C 
BRANCH  15  16
ATOM     16  C   UNL     1     183.005 183.046 202.109  1.00  0.00    -0.000 C 
BRANCH  16  17
ATOM     17  C   UNL     1     182.104 184.203 201.652  1.00  0.00    -0.000 C 
BRANCH  17  18
ATOM     18  C   UNL     1     181.273 183.801 200.427  1.00  0.00    -0.003 C 
ATOM     19  C   UNL     1     181.791 184.479 199.162  1.00  0.00     0.004 C 
ENDBRANCH  17  18
ENDBRANCH  16  17
ENDBRANCH  15  16
ENDBRANCH  14  15
ENDBRANCH  13  14
ENDBRANCH  12  13
ENDBRANCH   1  12
TORSDOF 14
ENDMDL
MODEL 9
REMARK VINA RESULT:    -3.694      1.463      2.777
REMARK INTER + INTRA:          -8.902
REMARK INTER:                  -6.658
REMARK INTRA:                  -2.244
REMARK UNBOUND:                -2.184
REMARK SMILES CCCCCCCCCCCCCC[C@@H](C)C(=O)[O-]
REMARK SMILES IDX 9 1 10 2 11 3 12 4 13 5 14 6 15 7 16 8 17 9 18 10 19 11 8 12
REMARK SMILES IDX 7 13 6 14 5 15 4 16 3 17 2 18 1 19
REMARK H PARENT
REMARK Flexibility Score: inf
ROOT
ATOM      1  C   UNL     1     181.527 183.099 201.374  1.00  0.00     0.000 C 
ENDROOT
BRANCH   1   2
ATOM      2  C   UNL     1     181.422 184.604 201.676  1.00  0.00     0.000 C 
BRANCH   2   3
ATOM      3  C   UNL     1     181.203 185.446 200.407  1.00  0.00     0.000 C 
BRANCH   3   4
ATOM      4  C   UNL     1     181.540 184.671 199.122  1.00  0.00     0.000 C 
BRANCH   4   5
ATOM      5  C   UNL     1     182.744 185.264 198.370  1.00  0.00     0.001 C 
BRANCH   5   6
ATOM      6  C   UNL     1     183.133 186.666 198.879  1.00  0.00     0.009 C 
BRANCH   6   7
ATOM      7  C   UNL     1     184.637 186.992 198.743  1.00  0.00     0.032 C 
ATOM      8  C   UNL     1     185.398 186.533 199.991  1.00  0.00     0.014 C 
BRANCH   7   9
ATOM      9  C   UNL     1     185.232 186.347 197.520  1.00  0.00     0.044 C 
ATOM     10  O   UNL     1     184.980 186.810 196.377  1.00  0.00    -0.550 OA
ATOM     11  O   UNL     1     186.056 185.235 197.643  1.00  0.00    -0.550 OA
ENDBRANCH   7   9
ENDBRANCH   6   7
ENDBRANCH   5   6
ENDBRANCH   4   5
ENDBRANCH   3   4
ENDBRANCH   2   3
ENDBRANCH   1   2
BRANCH   1  12
ATOM     12  C   UNL     1     182.853 182.492 201.862  1.00  0.00     0.000 C 
BRANCH  12  13
ATOM     13  C   UNL     1     184.067 183.368 201.512  1.00  0.00    -0.000 C 
BRANCH  13  14
ATOM     14  C   UNL     1     184.746 182.942 200.199  1.00  0.00    -0.000 C 
BRANCH  14  15
ATOM     15  C   UNL     1     186.257 182.691 200.362  1.00  0.00    -0.000 C 
BRANCH  15  16
ATOM     16  C   UNL     1     186.661 181.208 200.453  1.00  0.00    -0.000 C 
BRANCH  16  17
ATOM     17  C   UNL     1     186.376 180.593 201.831  1.00  0.00    -0.000 C 
BRANCH  17  18
ATOM     18  C   UNL     1     185.209 179.600 201.758  1.00  0.00    -0.003 C 
ATOM     19  C   UNL     1     184.942 179.167 200.320  1.00  0.00     0.004 C 
ENDBRANCH  17  18
ENDBRANCH  16  17
ENDBRANCH  15  16
ENDBRANCH  14  15
ENDBRANCH  13  14
ENDBRANCH  12  13
ENDBRANCH   1  12
TORSDOF 14
ENDMDL
