MODEL 1
REMARK VINA RESULT:    -6.905      0.000      0.000
REMARK INTER + INTRA:         -11.480
REMARK INTER:                 -10.739
REMARK INTRA:                  -0.741
REMARK UNBOUND:                -0.741
REMARK SMILES COc1cc(CNC(=O)CCCCC=CC(C)C)ccc1O
REMARK SMILES IDX 11 1 12 2 13 3 14 4 15 5 16 6 17 7 18 8 10 9 8 10 9 11 7 12
REMARK SMILES IDX 6 14 5 15 4 16 19 17 3 18 20 19 21 20 2 21 1 22 22 23
REMARK H PARENT 7 13 22 24
REMARK Flexibility Score: inf
ROOT
ATOM      1  C   UNL     1      26.866   7.272  32.887  1.00  0.00     0.010 C 
ENDROOT
BRANCH   1   2
ATOM      2  C   UNL     1      27.486   5.873  33.068  1.00  0.00     0.005 C 
BRANCH   2   3
ATOM      3  C   UNL     1      27.943   5.215  31.753  1.00  0.00     0.027 C 
BRANCH   3   4
ATOM      4  C   UNL     1      29.438   4.998  31.702  1.00  0.00    -0.031 C 
ATOM      5  C   UNL     1      30.070   4.111  30.906  1.00  0.00    -0.028 C 
BRANCH   5   6
ATOM      6  C   UNL     1      29.395   3.195  29.903  1.00  0.00     0.005 C 
ATOM      7  C   UNL     1      30.323   2.974  28.706  1.00  0.00     0.012 C 
ATOM      8  C   UNL     1      29.055   1.859  30.572  1.00  0.00     0.012 C 
ENDBRANCH   5   6
ENDBRANCH   3   4
ENDBRANCH   2   3
ENDBRANCH   1   2
BRANCH   1   9
ATOM      9  C   UNL     1      27.898   8.332  32.478  1.00  0.00     0.100 C 
BRANCH   9  10
ATOM     10  C   UNL     1      28.716   8.743  33.664  1.00  0.00     0.220 C 
ATOM     11  O   UNL     1      29.865   8.250  33.835  1.00  0.00    -0.275 OA
ATOM     12  N   UNL     1      28.217   9.746  34.562  1.00  0.00    -0.352 N 
ATOM     13  H   UNL     1      27.313  10.224  34.341  1.00  0.00     0.163 HD
BRANCH  12  14
ATOM     14  C   UNL     1      28.952  10.169  35.751  1.00  0.00     0.151 C 
BRANCH  14  15
ATOM     15  C   UNL     1      28.545  11.562  36.155  1.00  0.00    -0.025 A 
ATOM     16  C   UNL     1      27.620  12.275  35.380  1.00  0.00     0.056 A 
ATOM     17  C   UNL     1      29.072  12.152  37.312  1.00  0.00     0.009 A 
ATOM     18  C   UNL     1      27.226  13.571  35.745  1.00  0.00     0.160 A 
ATOM     19  C   UNL     1      28.715  13.458  37.663  1.00  0.00     0.050 A 
ATOM     20  C   UNL     1      27.822  14.187  36.869  1.00  0.00     0.157 A 
BRANCH  18  21
ATOM     21  O   UNL     1      26.247  14.206  34.969  1.00  0.00    -0.493 OA
ATOM     22  C   UNL     1      26.557  14.980  33.812  1.00  0.00     0.278 C 
ENDBRANCH  18  21
BRANCH  20  23
ATOM     23  O   UNL     1      27.583  15.522  37.198  1.00  0.00    -0.504 OA
ATOM     24  H   UNL     1      28.018  15.971  37.993  1.00  0.00     0.293 HD
ENDBRANCH  20  23
ENDBRANCH  14  15
ENDBRANCH  12  14
ENDBRANCH   9  10
ENDBRANCH   1   9
TORSDOF 10
ENDMDL
MODEL 2
REMARK VINA RESULT:    -6.535      1.317      2.440
REMARK INTER + INTRA:         -10.906
REMARK INTER:                  -9.998
REMARK INTRA:                  -0.908
REMARK UNBOUND:                -0.741
REMARK SMILES COc1cc(CNC(=O)CCCCC=CC(C)C)ccc1O
REMARK SMILES IDX 11 1 12 2 13 3 14 4 15 5 16 6 17 7 18 8 10 9 8 10 9 11 7 12
REMARK SMILES IDX 6 14 5 15 4 16 19 17 3 18 20 19 21 20 2 21 1 22 22 23
REMARK H PARENT 7 13 22 24
REMARK Flexibility Score: inf
ROOT
ATOM      1  C   UNL     1      27.668   8.538  32.986  1.00  0.00     0.010 C 
ENDROOT
BRANCH   1   2
ATOM      2  C   UNL     1      26.877   7.262  32.635  1.00  0.00     0.005 C 
BRANCH   2   3
ATOM      3  C   UNL     1      27.658   5.956  32.872  1.00  0.00     0.027 C 
BRANCH   3   4
ATOM      4  C   UNL     1      27.630   5.038  31.672  1.00  0.00    -0.031 C 
ATOM      5  C   UNL     1      28.662   4.280  31.247  1.00  0.00    -0.028 C 
BRANCH   5   6
ATOM      6  C   UNL     1      30.022   4.196  31.912  1.00  0.00     0.005 C 
ATOM      7  C   UNL     1      30.638   2.820  31.645  1.00  0.00     0.012 C 
ATOM      8  C   UNL     1      30.931   5.304  31.371  1.00  0.00     0.012 C 
ENDBRANCH   5   6
ENDBRANCH   3   4
ENDBRANCH   2   3
ENDBRANCH   1   2
BRANCH   1   9
ATOM      9  C   UNL     1      29.157   8.263  33.239  1.00  0.00     0.100 C 
BRANCH   9  10
ATOM     10  C   UNL     1      29.589   8.896  34.526  1.00  0.00     0.220 C 
ATOM     11  O   UNL     1      30.721   8.620  35.012  1.00  0.00    -0.275 OA
ATOM     12  N   UNL     1      28.743   9.865  35.165  1.00  0.00    -0.352 N 
ATOM     13  H   UNL     1      27.861  10.164  34.689  1.00  0.00     0.163 HD
BRANCH  12  14
ATOM     14  C   UNL     1      29.094  10.495  36.435  1.00  0.00     0.151 C 
BRANCH  14  15
ATOM     15  C   UNL     1      28.656  11.936  36.447  1.00  0.00    -0.025 A 
ATOM     16  C   UNL     1      29.293  12.856  37.290  1.00  0.00     0.056 A 
ATOM     17  C   UNL     1      27.620  12.374  35.610  1.00  0.00     0.009 A 
ATOM     18  C   UNL     1      28.901  14.203  37.310  1.00  0.00     0.160 A 
ATOM     19  C   UNL     1      27.196  13.706  35.650  1.00  0.00     0.050 A 
ATOM     20  C   UNL     1      27.805  14.618  36.520  1.00  0.00     0.157 A 
BRANCH  18  21
ATOM     21  O   UNL     1      29.623  15.089  38.122  1.00  0.00    -0.493 OA
ATOM     22  C   UNL     1      30.869  15.661  37.728  1.00  0.00     0.278 C 
ENDBRANCH  18  21
BRANCH  20  23
ATOM     23  O   UNL     1      27.274  15.906  36.605  1.00  0.00    -0.504 OA
ATOM     24  H   UNL     1      27.676  16.621  37.197  1.00  0.00     0.293 HD
ENDBRANCH  20  23
ENDBRANCH  14  15
ENDBRANCH  12  14
ENDBRANCH   9  10
ENDBRANCH   1   9
TORSDOF 10
ENDMDL
MODEL 3
REMARK VINA RESULT:    -6.305      2.081      9.464
REMARK INTER + INTRA:         -10.548
REMARK INTER:                  -9.918
REMARK INTRA:                  -0.631
REMARK UNBOUND:                -0.741
REMARK SMILES COc1cc(CNC(=O)CCCCC=CC(C)C)ccc1O
REMARK SMILES IDX 11 1 12 2 13 3 14 4 15 5 16 6 17 7 18 8 10 9 8 10 9 11 7 12
REMARK SMILES IDX 6 14 5 15 4 16 19 17 3 18 20 19 21 20 2 21 1 22 22 23
REMARK H PARENT 7 13 22 24
REMARK Flexibility Score: inf
ROOT
ATOM      1  C   UNL     1      28.437  11.767  36.588  1.00  0.00     0.010 C 
ENDROOT
BRANCH   1   2
ATOM      2  C   UNL     1      29.451  12.584  37.412  1.00  0.00     0.005 C 
BRANCH   2   3
ATOM      3  C   UNL     1      29.258  14.108  37.310  1.00  0.00     0.027 C 
BRANCH   3   4
ATOM      4  C   UNL     1      27.801  14.504  37.237  1.00  0.00    -0.031 C 
ATOM      5  C   UNL     1      27.124  14.775  36.102  1.00  0.00    -0.028 C 
BRANCH   5   6
ATOM      6  C   UNL     1      27.696  14.702  34.700  1.00  0.00     0.005 C 
ATOM      7  C   UNL     1      26.584  14.341  33.711  1.00  0.00     0.012 C 
ATOM      8  C   UNL     1      28.324  16.050  34.329  1.00  0.00     0.012 C 
ENDBRANCH   5   6
ENDBRANCH   3   4
ENDBRANCH   2   3
ENDBRANCH   1   2
BRANCH   1   9
ATOM      9  C   UNL     1      29.046  10.488  35.996  1.00  0.00     0.100 C 
BRANCH   9  10
ATOM     10  C   UNL     1      28.350  10.126  34.719  1.00  0.00     0.220 C 
ATOM     11  O   UNL     1      27.611  10.973  34.146  1.00  0.00    -0.275 OA
ATOM     12  N   UNL     1      28.581   8.842  34.119  1.00  0.00    -0.352 N 
ATOM     13  H   UNL     1      29.284   8.197  34.549  1.00  0.00     0.163 HD
BRANCH  12  14
ATOM     14  C   UNL     1      27.911   8.419  32.892  1.00  0.00     0.151 C 
BRANCH  14  15
ATOM     15  C   UNL     1      28.339   7.026  32.512  1.00  0.00    -0.025 A 
ATOM     16  C   UNL     1      29.671   6.773  32.156  1.00  0.00     0.056 A 
ATOM     17  C   UNL     1      27.419   5.968  32.522  1.00  0.00     0.009 A 
ATOM     18  C   UNL     1      30.088   5.481  31.804  1.00  0.00     0.160 A 
ATOM     19  C   UNL     1      27.816   4.684  32.135  1.00  0.00     0.050 A 
ATOM     20  C   UNL     1      29.136   4.438  31.742  1.00  0.00     0.157 A 
BRANCH  18  21
ATOM     21  O   UNL     1      31.447   5.279  31.526  1.00  0.00    -0.493 OA
ATOM     22  C   UNL     1      32.487   6.013  32.169  1.00  0.00     0.278 C 
ENDBRANCH  18  21
BRANCH  20  23
ATOM     23  O   UNL     1      29.457   3.168  31.258  1.00  0.00    -0.504 OA
ATOM     24  H   UNL     1      29.319   2.329  31.805  1.00  0.00     0.293 HD
ENDBRANCH  20  23
ENDBRANCH  14  15
ENDBRANCH  12  14
ENDBRANCH   9  10
ENDBRANCH   1   9
TORSDOF 10
ENDMDL
MODEL 4
REMARK VINA RESULT:    -6.150      5.554     11.100
REMARK INTER + INTRA:         -10.306
REMARK INTER:                  -9.560
REMARK INTRA:                  -0.746
REMARK UNBOUND:                -0.741
REMARK SMILES COc1cc(CNC(=O)CCCCC=CC(C)C)ccc1O
REMARK SMILES IDX 11 1 12 2 13 3 14 4 15 5 16 6 17 7 18 8 10 9 8 10 9 11 7 12
REMARK SMILES IDX 6 14 5 15 4 16 19 17 3 18 20 19 21 20 2 21 1 22 22 23
REMARK H PARENT 7 13 22 24
REMARK Flexibility Score: inf
ROOT
ATOM      1  C   UNL     1      31.091   5.795  31.668  1.00  0.00     0.010 C 
ENDROOT
BRANCH   1   2
ATOM      2  C   UNL     1      29.887   6.442  32.379  1.00  0.00     0.005 C 
BRANCH   2   3
ATOM      3  C   UNL     1      28.521   5.919  31.898  1.00  0.00     0.027 C 
BRANCH   3   4
ATOM      4  C   UNL     1      27.410   6.209  32.881  1.00  0.00    -0.031 C 
ATOM      5  C   UNL     1      26.898   7.431  33.140  1.00  0.00    -0.028 C 
BRANCH   5   6
ATOM      6  C   UNL     1      27.326   8.722  32.470  1.00  0.00     0.005 C 
ATOM      7  C   UNL     1      26.179   9.257  31.609  1.00  0.00     0.012 C 
ATOM      8  C   UNL     1      27.720   9.750  33.536  1.00  0.00     0.012 C 
ENDBRANCH   5   6
ENDBRANCH   3   4
ENDBRANCH   2   3
ENDBRANCH   1   2
BRANCH   1   9
ATOM      9  C   UNL     1      30.986   4.265  31.595  1.00  0.00     0.100 C 
BRANCH   9  10
ATOM     10  C   UNL     1      30.947   3.816  30.165  1.00  0.00     0.220 C 
ATOM     11  O   UNL     1      32.017   3.751  29.500  1.00  0.00    -0.275 OA
ATOM     12  N   UNL     1      29.703   3.399  29.581  1.00  0.00    -0.352 N 
ATOM     13  H   UNL     1      28.848   3.353  30.182  1.00  0.00     0.163 HD
BRANCH  12  14
ATOM     14  C   UNL     1      29.594   2.979  28.187  1.00  0.00     0.151 C 
BRANCH  14  15
ATOM     15  C   UNL     1      28.267   2.313  27.939  1.00  0.00    -0.025 A 
ATOM     16  C   UNL     1      28.112   1.437  26.856  1.00  0.00     0.056 A 
ATOM     17  C   UNL     1      27.179   2.549  28.792  1.00  0.00     0.009 A 
ATOM     18  C   UNL     1      26.884   0.804  26.613  1.00  0.00     0.160 A 
ATOM     19  C   UNL     1      25.940   1.952  28.537  1.00  0.00     0.050 A 
ATOM     20  C   UNL     1      25.774   1.108  27.432  1.00  0.00     0.157 A 
BRANCH  18  21
ATOM     21  O   UNL     1      26.812  -0.114  25.556  1.00  0.00    -0.493 OA
ATOM     22  C   UNL     1      26.471   0.264  24.224  1.00  0.00     0.278 C 
ENDBRANCH  18  21
BRANCH  20  23
ATOM     23  O   UNL     1      24.493   0.627  27.156  1.00  0.00    -0.504 OA
ATOM     24  H   UNL     1      23.751   0.633  27.843  1.00  0.00     0.293 HD
ENDBRANCH  20  23
ENDBRANCH  14  15
ENDBRANCH  12  14
ENDBRANCH   9  10
ENDBRANCH   1   9
TORSDOF 10
ENDMDL
MODEL 5
REMARK VINA RESULT:    -6.100      1.720      3.075
REMARK INTER + INTRA:         -10.229
REMARK INTER:                  -9.773
REMARK INTRA:                  -0.456
REMARK UNBOUND:                -0.741
REMARK SMILES COc1cc(CNC(=O)CCCCC=CC(C)C)ccc1O
REMARK SMILES IDX 11 1 12 2 13 3 14 4 15 5 16 6 17 7 18 8 10 9 8 10 9 11 7 12
REMARK SMILES IDX 6 14 5 15 4 16 19 17 3 18 20 19 21 20 2 21 1 22 22 23
REMARK H PARENT 7 13 22 24
REMARK Flexibility Score: inf
ROOT
ATOM      1  C   UNL     1      27.016   9.677  32.766  1.00  0.00     0.010 C 
ENDROOT
BRANCH   1   2
ATOM      2  C   UNL     1      26.150   8.494  32.291  1.00  0.00     0.005 C 
BRANCH   2   3
ATOM      3  C   UNL     1      26.961   7.294  31.769  1.00  0.00     0.027 C 
BRANCH   3   4
ATOM      4  C   UNL     1      27.242   6.272  32.846  1.00  0.00    -0.031 C 
ATOM      5  C   UNL     1      27.917   5.117  32.667  1.00  0.00    -0.028 C 
BRANCH   5   6
ATOM      6  C   UNL     1      28.535   4.655  31.362  1.00  0.00     0.005 C 
ATOM      7  C   UNL     1      30.048   4.498  31.539  1.00  0.00     0.012 C 
ATOM      8  C   UNL     1      27.905   3.324  30.936  1.00  0.00     0.012 C 
ENDBRANCH   5   6
ENDBRANCH   3   4
ENDBRANCH   2   3
ENDBRANCH   1   2
BRANCH   1   9
ATOM      9  C   UNL     1      28.199   9.234  33.639  1.00  0.00     0.100 C 
BRANCH   9  10
ATOM     10  C   UNL     1      28.408  10.207  34.760  1.00  0.00     0.220 C 
ATOM     11  O   UNL     1      29.294   9.981  35.629  1.00  0.00    -0.275 OA
ATOM     12  N   UNL     1      27.647  11.424  34.801  1.00  0.00    -0.352 N 
ATOM     13  H   UNL     1      26.998  11.646  34.011  1.00  0.00     0.163 HD
BRANCH  12  14
ATOM     14  C   UNL     1      27.783  12.398  35.881  1.00  0.00     0.151 C 
BRANCH  14  15
ATOM     15  C   UNL     1      27.666  13.800  35.344  1.00  0.00    -0.025 A 
ATOM     16  C   UNL     1      28.033  14.891  36.144  1.00  0.00     0.056 A 
ATOM     17  C   UNL     1      27.203  14.029  34.040  1.00  0.00     0.009 A 
ATOM     18  C   UNL     1      27.934  16.203  35.659  1.00  0.00     0.160 A 
ATOM     19  C   UNL     1      27.066  15.335  33.560  1.00  0.00     0.050 A 
ATOM     20  C   UNL     1      27.394  16.428  34.372  1.00  0.00     0.157 A 
BRANCH  18  21
ATOM     21  O   UNL     1      28.382  17.246  36.480  1.00  0.00    -0.493 OA
ATOM     22  C   UNL     1      28.267  17.216  37.902  1.00  0.00     0.278 C 
ENDBRANCH  18  21
BRANCH  20  23
ATOM     23  O   UNL     1      27.134  17.711  33.890  1.00  0.00    -0.504 OA
ATOM     24  H   UNL     1      26.498  18.347  34.353  1.00  0.00     0.293 HD
ENDBRANCH  20  23
ENDBRANCH  14  15
ENDBRANCH  12  14
ENDBRANCH   9  10
ENDBRANCH   1   9
TORSDOF 10
ENDMDL
MODEL 6
REMARK VINA RESULT:    -6.044      7.030     12.678
REMARK INTER + INTRA:         -10.141
REMARK INTER:                  -9.438
REMARK INTRA:                  -0.703
REMARK UNBOUND:                -0.741
REMARK SMILES COc1cc(CNC(=O)CCCCC=CC(C)C)ccc1O
REMARK SMILES IDX 11 1 12 2 13 3 14 4 15 5 16 6 17 7 18 8 10 9 8 10 9 11 7 12
REMARK SMILES IDX 6 14 5 15 4 16 19 17 3 18 20 19 21 20 2 21 1 22 22 23
REMARK H PARENT 7 13 22 24
REMARK Flexibility Score: inf
ROOT
ATOM      1  C   UNL     1      27.646   3.347  30.235  1.00  0.00     0.010 C 
ENDROOT
BRANCH   1   2
ATOM      2  C   UNL     1      29.052   3.679  30.771  1.00  0.00     0.005 C 
BRANCH   2   3
ATOM      3  C   UNL     1      29.102   4.936  31.661  1.00  0.00     0.027 C 
BRANCH   3   4
ATOM      4  C   UNL     1      27.865   5.092  32.515  1.00  0.00    -0.031 C 
ATOM      5  C   UNL     1      27.266   6.264  32.811  1.00  0.00    -0.028 C 
BRANCH   5   6
ATOM      6  C   UNL     1      27.711   7.626  32.318  1.00  0.00     0.005 C 
ATOM      7  C   UNL     1      26.495   8.549  32.197  1.00  0.00     0.012 C 
ATOM      8  C   UNL     1      28.736   8.218  33.292  1.00  0.00     0.012 C 
ENDBRANCH   5   6
ENDBRANCH   3   4
ENDBRANCH   2   3
ENDBRANCH   1   2
BRANCH   1   9
ATOM      9  C   UNL     1      27.678   2.709  28.839  1.00  0.00     0.100 C 
BRANCH   9  10
ATOM     10  C   UNL     1      26.414   1.943  28.590  1.00  0.00     0.220 C 
ATOM     11  O   UNL     1      25.365   2.243  29.224  1.00  0.00    -0.275 OA
ATOM     12  N   UNL     1      26.386   0.919  27.585  1.00  0.00    -0.352 N 
ATOM     13  H   UNL     1      27.234   0.762  26.993  1.00  0.00     0.163 HD
BRANCH  12  14
ATOM     14  C   UNL     1      25.195   0.118  27.315  1.00  0.00     0.151 C 
BRANCH  14  15
ATOM     15  C   UNL     1      24.471   0.642  26.103  1.00  0.00    -0.025 A 
ATOM     16  C   UNL     1      25.142   0.754  24.878  1.00  0.00     0.056 A 
ATOM     17  C   UNL     1      23.119   1.008  26.182  1.00  0.00     0.009 A 
ATOM     18  C   UNL     1      24.481   1.235  23.738  1.00  0.00     0.160 A 
ATOM     19  C   UNL     1      22.462   1.525  25.061  1.00  0.00     0.050 A 
ATOM     20  C   UNL     1      23.142   1.675  23.847  1.00  0.00     0.157 A 
BRANCH  18  21
ATOM     21  O   UNL     1      25.186   1.258  22.527  1.00  0.00    -0.493 OA
ATOM     22  C   UNL     1      26.473   0.662  22.368  1.00  0.00     0.278 C 
ENDBRANCH  18  21
BRANCH  20  23
ATOM     23  O   UNL     1      22.477   2.298  22.790  1.00  0.00    -0.504 OA
ATOM     24  H   UNL     1      21.820   1.808  22.198  1.00  0.00     0.293 HD
ENDBRANCH  20  23
ENDBRANCH  14  15
ENDBRANCH  12  14
ENDBRANCH   9  10
ENDBRANCH   1   9
TORSDOF 10
ENDMDL
MODEL 7
REMARK VINA RESULT:    -6.030      6.131      9.355
REMARK INTER + INTRA:         -10.120
REMARK INTER:                  -9.589
REMARK INTRA:                  -0.531
REMARK UNBOUND:                -0.741
REMARK SMILES COc1cc(CNC(=O)CCCCC=CC(C)C)ccc1O
REMARK SMILES IDX 11 1 12 2 13 3 14 4 15 5 16 6 17 7 18 8 10 9 8 10 9 11 7 12
REMARK SMILES IDX 6 14 5 15 4 16 19 17 3 18 20 19 21 20 2 21 1 22 22 23
REMARK H PARENT 7 13 22 24
REMARK Flexibility Score: inf
ROOT
ATOM      1  C   UNL     1      25.157   0.801  27.122  1.00  0.00     0.010 C 
ENDROOT
BRANCH   1   2
ATOM      2  C   UNL     1      23.714   0.724  26.585  1.00  0.00     0.005 C 
BRANCH   2   3
ATOM      3  C   UNL     1      23.563   1.192  25.125  1.00  0.00     0.027 C 
BRANCH   3   4
ATOM      4  C   UNL     1      22.219   1.829  24.857  1.00  0.00    -0.031 C 
ATOM      5  C   UNL     1      21.877   2.476  23.723  1.00  0.00    -0.028 C 
BRANCH   5   6
ATOM      6  C   UNL     1      22.769   2.652  22.509  1.00  0.00     0.005 C 
ATOM      7  C   UNL     1      21.918   2.598  21.237  1.00  0.00     0.012 C 
ATOM      8  C   UNL     1      23.508   3.991  22.603  1.00  0.00     0.012 C 
ENDBRANCH   5   6
ENDBRANCH   3   4
ENDBRANCH   2   3
ENDBRANCH   1   2
BRANCH   1   9
ATOM      9  C   UNL     1      25.352   1.934  28.139  1.00  0.00     0.100 C 
BRANCH   9  10
ATOM     10  C   UNL     1      26.589   1.694  28.951  1.00  0.00     0.220 C 
ATOM     11  O   UNL     1      27.351   0.730  28.661  1.00  0.00    -0.275 OA
ATOM     12  N   UNL     1      26.937   2.600  30.009  1.00  0.00    -0.352 N 
ATOM     13  H   UNL     1      26.354   3.455  30.159  1.00  0.00     0.163 HD
BRANCH  12  14
ATOM     14  C   UNL     1      28.112   2.404  30.853  1.00  0.00     0.151 C 
BRANCH  14  15
ATOM     15  C   UNL     1      28.674   3.731  31.291  1.00  0.00    -0.025 A 
ATOM     16  C   UNL     1      27.830   4.699  31.853  1.00  0.00     0.056 A 
ATOM     17  C   UNL     1      30.042   4.008  31.154  1.00  0.00     0.009 A 
ATOM     18  C   UNL     1      28.338   5.939  32.270  1.00  0.00     0.160 A 
ATOM     19  C   UNL     1      30.550   5.254  31.532  1.00  0.00     0.050 A 
ATOM     20  C   UNL     1      29.703   6.237  32.057  1.00  0.00     0.157 A 
BRANCH  18  21
ATOM     21  O   UNL     1      27.458   6.838  32.889  1.00  0.00    -0.493 OA
ATOM     22  C   UNL     1      26.658   7.765  32.157  1.00  0.00     0.278 C 
ENDBRANCH  18  21
BRANCH  20  23
ATOM     23  O   UNL     1      30.236   7.501  32.314  1.00  0.00    -0.504 OA
ATOM     24  H   UNL     1      30.100   7.978  33.195  1.00  0.00     0.293 HD
ENDBRANCH  20  23
ENDBRANCH  14  15
ENDBRANCH  12  14
ENDBRANCH   9  10
ENDBRANCH   1   9
TORSDOF 10
ENDMDL
MODEL 8
REMARK VINA RESULT:    -5.819     10.193     13.647
REMARK INTER + INTRA:          -9.791
REMARK INTER:                  -9.002
REMARK INTRA:                  -0.789
REMARK UNBOUND:                -0.741
REMARK SMILES COc1cc(CNC(=O)CCCCC=CC(C)C)ccc1O
REMARK SMILES IDX 11 1 12 2 13 3 14 4 15 5 16 6 17 7 18 8 10 9 8 10 9 11 7 12
REMARK SMILES IDX 6 14 5 15 4 16 19 17 3 18 20 19 21 20 2 21 1 22 22 23
REMARK H PARENT 7 13 22 24
REMARK Flexibility Score: inf
ROOT
ATOM      1  C   UNL     1      27.993   1.398  24.855  1.00  0.00     0.010 C 
ENDROOT
BRANCH   1   2
ATOM      2  C   UNL     1      28.595   0.472  25.929  1.00  0.00     0.005 C 
BRANCH   2   3
ATOM      3  C   UNL     1      28.647   1.094  27.337  1.00  0.00     0.027 C 
BRANCH   3   4
ATOM      4  C   UNL     1      28.733   2.603  27.300  1.00  0.00    -0.031 C 
ATOM      5  C   UNL     1      29.462   3.361  28.146  1.00  0.00    -0.028 C 
BRANCH   5   6
ATOM      6  C   UNL     1      30.342   2.834  29.261  1.00  0.00     0.005 C 
ATOM      7  C   UNL     1      31.573   3.733  29.411  1.00  0.00     0.012 C 
ATOM      8  C   UNL     1      29.547   2.794  30.571  1.00  0.00     0.012 C 
ENDBRANCH   5   6
ENDBRANCH   3   4
ENDBRANCH   2   3
ENDBRANCH   1   2
BRANCH   1   9
ATOM      9  C   UNL     1      28.389   0.992  23.429  1.00  0.00     0.100 C 
BRANCH   9  10
ATOM     10  C   UNL     1      27.257   1.255  22.482  1.00  0.00     0.220 C 
ATOM     11  O   UNL     1      26.999   0.423  21.569  1.00  0.00    -0.275 OA
ATOM     12  N   UNL     1      26.431   2.416  22.660  1.00  0.00    -0.352 N 
ATOM     13  H   UNL     1      26.591   3.032  23.490  1.00  0.00     0.163 HD
BRANCH  12  14
ATOM     14  C   UNL     1      25.333   2.742  21.755  1.00  0.00     0.151 C 
BRANCH  14  15
ATOM     15  C   UNL     1      24.021   2.736  22.495  1.00  0.00    -0.025 A 
ATOM     16  C   UNL     1      22.988   3.596  22.099  1.00  0.00     0.056 A 
ATOM     17  C   UNL     1      23.813   1.864  23.574  1.00  0.00     0.009 A 
ATOM     18  C   UNL     1      21.758   3.600  22.774  1.00  0.00     0.160 A 
ATOM     19  C   UNL     1      22.605   1.887  24.276  1.00  0.00     0.050 A 
ATOM     20  C   UNL     1      21.586   2.774  23.908  1.00  0.00     0.157 A 
BRANCH  18  21
ATOM     21  O   UNL     1      20.741   4.433  22.288  1.00  0.00    -0.493 OA
ATOM     22  C   UNL     1      20.286   4.392  20.936  1.00  0.00     0.278 C 
ENDBRANCH  18  21
BRANCH  20  23
ATOM     23  O   UNL     1      20.444   2.838  24.707  1.00  0.00    -0.504 OA
ATOM     24  H   UNL     1      20.462   3.196  25.653  1.00  0.00     0.293 HD
ENDBRANCH  20  23
ENDBRANCH  14  15
ENDBRANCH  12  14
ENDBRANCH   9  10
ENDBRANCH   1   9
TORSDOF 10
ENDMDL
MODEL 9
REMARK VINA RESULT:    -5.724     13.462     15.117
REMARK INTER + INTRA:          -9.644
REMARK INTER:                  -7.914
REMARK INTRA:                  -1.730
REMARK UNBOUND:                -0.741
REMARK SMILES COc1cc(CNC(=O)CCCCC=CC(C)C)ccc1O
REMARK SMILES IDX 11 1 12 2 13 3 14 4 15 5 16 6 17 7 18 8 10 9 8 10 9 11 7 12
REMARK SMILES IDX 6 14 5 15 4 16 19 17 3 18 20 19 21 20 2 21 1 22 22 23
REMARK H PARENT 7 13 22 24
REMARK Flexibility Score: inf
ROOT
ATOM      1  C   UNL     1      27.432   1.211  24.676  1.00  0.00     0.010 C 
ENDROOT
BRANCH   1   2
ATOM      2  C   UNL     1      26.802  -0.138  25.075  1.00  0.00     0.005 C 
BRANCH   2   3
ATOM      3  C   UNL     1      25.320  -0.040  25.480  1.00  0.00     0.027 C 
BRANCH   3   4
ATOM      4  C   UNL     1      24.411   0.205  24.298  1.00  0.00    -0.031 C 
ATOM      5  C   UNL     1      23.133   0.631  24.373  1.00  0.00    -0.028 C 
BRANCH   5   6
ATOM      6  C   UNL     1      22.393   0.965  25.654  1.00  0.00     0.005 C 
ATOM      7  C   UNL     1      21.310   2.007  25.362  1.00  0.00     0.012 C 
ATOM      8  C   UNL     1      21.768  -0.308  26.235  1.00  0.00     0.012 C 
ENDBRANCH   5   6
ENDBRANCH   3   4
ENDBRANCH   2   3
ENDBRANCH   1   2
BRANCH   1   9
ATOM      9  C   UNL     1      28.172   1.146  23.332  1.00  0.00     0.100 C 
BRANCH   9  10
ATOM     10  C   UNL     1      27.190   1.046  22.204  1.00  0.00     0.220 C 
ATOM     11  O   UNL     1      27.149  -0.001  21.501  1.00  0.00    -0.275 OA
ATOM     12  N   UNL     1      26.258   2.112  21.972  1.00  0.00    -0.352 N 
ATOM     13  H   UNL     1      26.233   2.921  22.635  1.00  0.00     0.163 HD
BRANCH  12  14
ATOM     14  C   UNL     1      25.297   2.087  20.873  1.00  0.00     0.151 C 
BRANCH  14  15
ATOM     15  C   UNL     1      23.999   2.727  21.292  1.00  0.00    -0.025 A 
ATOM     16  C   UNL     1      22.822   2.459  20.580  1.00  0.00     0.056 A 
ATOM     17  C   UNL     1      23.951   3.582  22.402  1.00  0.00     0.009 A 
ATOM     18  C   UNL     1      21.604   3.042  20.960  1.00  0.00     0.160 A 
ATOM     19  C   UNL     1      22.749   4.198  22.766  1.00  0.00     0.050 A 
ATOM     20  C   UNL     1      21.581   3.963  22.032  1.00  0.00     0.157 A 
BRANCH  18  21
ATOM     21  O   UNL     1      20.450   2.681  20.251  1.00  0.00    -0.493 OA
ATOM     22  C   UNL     1      20.223   3.063  18.896  1.00  0.00     0.278 C 
ENDBRANCH  18  21
BRANCH  20  23
ATOM     23  O   UNL     1      20.434   4.687  22.364  1.00  0.00    -0.504 OA
ATOM     24  H   UNL     1      20.343   5.187  23.239  1.00  0.00     0.293 HD
ENDBRANCH  20  23
ENDBRANCH  14  15
ENDBRANCH  12  14
ENDBRANCH   9  10
ENDBRANCH   1   9
TORSDOF 10
ENDMDL
