MODEL 1
REMARK VINA RESULT:    -5.468      0.000      0.000
REMARK INTER + INTRA:          -8.661
REMARK INTER:                  -7.385
REMARK INTRA:                  -1.276
REMARK UNBOUND:                -1.276
REMARK SMILES CC(=O)CCC=C(C)CCC=C(C)C
REMARK SMILES IDX 7 1 6 2 8 3 9 4 10 5 11 6 13 7 12 8 14 9 5 10 4 11 2 12 3 13
REMARK SMILES IDX 1 14
REMARK H PARENT
REMARK Flexibility Score: inf
ROOT
ATOM      1  C   UNL     1      -1.005 -13.176  29.284  1.00  0.00    -0.077 C 
ATOM      2  C   UNL     1      -1.753 -12.099  28.949  1.00  0.00    -0.028 C 
ATOM      3  C   UNL     1      -0.910 -14.390  28.389  1.00  0.00     0.039 C 
ENDROOT
BRANCH   1   4
ATOM      4  C   UNL     1      -0.257 -13.171  30.599  1.00  0.00     0.034 C 
BRANCH   4   5
ATOM      5  C   UNL     1      -1.182 -12.756  31.749  1.00  0.00     0.032 C 
BRANCH   5   6
ATOM      6  C   UNL     1      -2.365 -13.686  31.846  1.00  0.00    -0.028 C 
ATOM      7  C   UNL     1      -4.037 -11.821  31.802  1.00  0.00     0.039 C 
ATOM      8  C   UNL     1      -3.653 -13.280  31.896  1.00  0.00    -0.080 C 
ATOM      9  C   UNL     1      -4.731 -14.324  32.034  1.00  0.00     0.039 C 
ENDBRANCH   5   6
ENDBRANCH   4   5
ENDBRANCH   1   4
BRANCH   2  10
ATOM     10  C   UNL     1      -2.505 -11.955  27.649  1.00  0.00     0.035 C 
BRANCH  10  11
ATOM     11  C   UNL     1      -4.015 -12.021  27.888  1.00  0.00     0.079 C 
BRANCH  11  12
ATOM     12  C   UNL     1      -4.531 -13.416  27.651  1.00  0.00     0.130 C 
ATOM     13  O   UNL     1      -4.020 -14.106  26.781  1.00  0.00    -0.300 OA
ATOM     14  C   UNL     1      -5.656 -13.982  28.465  1.00  0.00     0.087 C 
ENDBRANCH  11  12
ENDBRANCH  10  11
ENDBRANCH   2  10
TORSDOF 6
ENDMDL
MODEL 2
REMARK VINA RESULT:    -5.195      1.519      3.481
REMARK INTER + INTRA:          -8.294
REMARK INTER:                  -7.248
REMARK INTRA:                  -1.046
REMARK UNBOUND:                -1.276
REMARK SMILES CC(=O)CCC=C(C)CCC=C(C)C
REMARK SMILES IDX 7 1 6 2 8 3 9 4 10 5 11 6 13 7 12 8 14 9 5 10 4 11 2 12 3 13
REMARK SMILES IDX 1 14
REMARK H PARENT
REMARK Flexibility Score: inf
ROOT
ATOM      1  C   UNL     1      -4.113 -11.905  31.054  1.00  0.00    -0.077 C 
ATOM      2  C   UNL     1      -4.193 -12.162  29.729  1.00  0.00    -0.028 C 
ATOM      3  C   UNL     1      -4.029 -10.494  31.589  1.00  0.00     0.039 C 
ENDROOT
BRANCH   1   4
ATOM      4  C   UNL     1      -4.089 -13.063  32.028  1.00  0.00     0.034 C 
BRANCH   4   5
ATOM      5  C   UNL     1      -2.917 -14.004  31.724  1.00  0.00     0.032 C 
BRANCH   5   6
ATOM      6  C   UNL     1      -1.599 -13.315  31.975  1.00  0.00    -0.028 C 
ATOM      7  C   UNL     1      -0.821 -13.595  29.611  1.00  0.00     0.039 C 
ATOM      8  C   UNL     1      -0.637 -13.146  31.041  1.00  0.00    -0.080 C 
ATOM      9  C   UNL     1       0.648 -12.473  31.449  1.00  0.00     0.039 C 
ENDBRANCH   5   6
ENDBRANCH   4   5
ENDBRANCH   1   4
BRANCH   2  10
ATOM     10  C   UNL     1      -4.276 -11.102  28.658  1.00  0.00     0.035 C 
BRANCH  10  11
ATOM     11  C   UNL     1      -3.038 -11.143  27.759  1.00  0.00     0.079 C 
BRANCH  11  12
ATOM     12  C   UNL     1      -3.339 -11.862  26.470  1.00  0.00     0.130 C 
ATOM     13  O   UNL     1      -3.270 -11.254  25.412  1.00  0.00    -0.300 OA
ATOM     14  C   UNL     1      -3.717 -13.313  26.456  1.00  0.00     0.087 C 
ENDBRANCH  11  12
ENDBRANCH  10  11
ENDBRANCH   2  10
TORSDOF 6
ENDMDL
MODEL 3
REMARK VINA RESULT:    -5.064      1.926      4.634
REMARK INTER + INTRA:          -8.115
REMARK INTER:                  -7.337
REMARK INTRA:                  -0.779
REMARK UNBOUND:                -1.276
REMARK SMILES CC(=O)CCC=C(C)CCC=C(C)C
REMARK SMILES IDX 7 1 6 2 8 3 9 4 10 5 11 6 13 7 12 8 14 9 5 10 4 11 2 12 3 13
REMARK SMILES IDX 1 14
REMARK H PARENT
REMARK Flexibility Score: inf
ROOT
ATOM      1  C   UNL     1      -3.290 -11.681  31.086  1.00  0.00    -0.077 C 
ATOM      2  C   UNL     1      -1.981 -11.418  30.869  1.00  0.00    -0.028 C 
ATOM      3  C   UNL     1      -3.737 -12.797  32.002  1.00  0.00     0.039 C 
ENDROOT
BRANCH   1   4
ATOM      4  C   UNL     1      -4.335 -10.847  30.379  1.00  0.00     0.034 C 
BRANCH   4   5
ATOM      5  C   UNL     1      -4.060 -10.794  28.872  1.00  0.00     0.032 C 
BRANCH   5   6
ATOM      6  C   UNL     1      -4.232 -12.157  28.248  1.00  0.00    -0.028 C 
ATOM      7  C   UNL     1      -3.027 -11.523  26.146  1.00  0.00     0.039 C 
ATOM      8  C   UNL     1      -3.796 -12.492  27.014  1.00  0.00    -0.080 C 
ATOM      9  C   UNL     1      -4.076 -13.883  26.507  1.00  0.00     0.039 C 
ENDBRANCH   5   6
ENDBRANCH   4   5
ENDBRANCH   1   4
BRANCH   2  10
ATOM     10  C   UNL     1      -0.842 -12.138  31.547  1.00  0.00     0.035 C 
BRANCH  10  11
ATOM     11  C   UNL     1      -0.717 -13.569  31.020  1.00  0.00     0.079 C 
BRANCH  11  12
ATOM     12  C   UNL     1      -0.333 -13.568  29.563  1.00  0.00     0.130 C 
ATOM     13  O   UNL     1       0.622 -12.902  29.194  1.00  0.00    -0.300 OA
ATOM     14  C   UNL     1      -1.096 -14.375  28.555  1.00  0.00     0.087 C 
ENDBRANCH  11  12
ENDBRANCH  10  11
ENDBRANCH   2  10
TORSDOF 6
ENDMDL
MODEL 4
REMARK VINA RESULT:    -4.998      1.919      3.923
REMARK INTER + INTRA:          -8.027
REMARK INTER:                  -6.710
REMARK INTRA:                  -1.317
REMARK UNBOUND:                -1.276
REMARK SMILES CC(=O)CCC=C(C)CCC=C(C)C
REMARK SMILES IDX 7 1 6 2 8 3 9 4 10 5 11 6 13 7 12 8 14 9 5 10 4 11 2 12 3 13
REMARK SMILES IDX 1 14
REMARK H PARENT
REMARK Flexibility Score: inf
ROOT
ATOM      1  C   UNL     1      -2.893 -13.053  27.857  1.00  0.00    -0.077 C 
ATOM      2  C   UNL     1      -1.907 -13.873  28.285  1.00  0.00    -0.028 C 
ATOM      3  C   UNL     1      -2.666 -11.574  27.647  1.00  0.00     0.039 C 
ENDROOT
BRANCH   1   4
ATOM      4  C   UNL     1      -4.268 -13.629  27.599  1.00  0.00     0.034 C 
BRANCH   4   5
ATOM      5  C   UNL     1      -5.254 -13.192  28.689  1.00  0.00     0.032 C 
BRANCH   5   6
ATOM      6  C   UNL     1      -5.051 -13.996  29.948  1.00  0.00    -0.028 C 
ATOM      7  C   UNL     1      -4.126 -12.054  31.230  1.00  0.00     0.039 C 
ATOM      8  C   UNL     1      -4.522 -13.505  31.090  1.00  0.00    -0.080 C 
ATOM      9  C   UNL     1      -4.342 -14.440  32.258  1.00  0.00     0.039 C 
ENDBRANCH   5   6
ENDBRANCH   4   5
ENDBRANCH   1   4
BRANCH   2  10
ATOM     10  C   UNL     1      -0.483 -13.438  28.530  1.00  0.00     0.035 C 
BRANCH  10  11
ATOM     11  C   UNL     1       0.003 -13.925  29.897  1.00  0.00     0.079 C 
BRANCH  11  12
ATOM     12  C   UNL     1      -0.607 -13.104  31.003  1.00  0.00     0.130 C 
ATOM     13  O   UNL     1      -1.065 -13.666  31.987  1.00  0.00    -0.300 OA
ATOM     14  C   UNL     1      -0.659 -11.607  30.926  1.00  0.00     0.087 C 
ENDBRANCH  11  12
ENDBRANCH  10  11
ENDBRANCH   2  10
TORSDOF 6
ENDMDL
MODEL 5
REMARK VINA RESULT:    -4.951      2.016      4.174
REMARK INTER + INTRA:          -7.963
REMARK INTER:                  -7.187
REMARK INTRA:                  -0.776
REMARK UNBOUND:                -1.276
REMARK SMILES CC(=O)CCC=C(C)CCC=C(C)C
REMARK SMILES IDX 7 1 6 2 8 3 9 4 10 5 11 6 13 7 12 8 14 9 5 10 4 11 2 12 3 13
REMARK SMILES IDX 1 14
REMARK H PARENT
REMARK Flexibility Score: inf
ROOT
ATOM      1  C   UNL     1      -1.781 -12.779  31.155  1.00  0.00    -0.077 C 
ATOM      2  C   UNL     1      -2.923 -13.415  31.502  1.00  0.00    -0.028 C 
ATOM      3  C   UNL     1      -1.602 -11.292  31.359  1.00  0.00     0.039 C 
ENDROOT
BRANCH   1   4
ATOM      4  C   UNL     1      -0.657 -13.575  30.530  1.00  0.00     0.034 C 
BRANCH   4   5
ATOM      5  C   UNL     1      -0.584 -13.320  29.020  1.00  0.00     0.032 C 
BRANCH   5   6
ATOM      6  C   UNL     1      -1.802 -13.874  28.325  1.00  0.00    -0.028 C 
ATOM      7  C   UNL     1      -2.704 -11.608  27.752  1.00  0.00     0.039 C 
ATOM      8  C   UNL     1      -2.776 -13.117  27.772  1.00  0.00    -0.080 C 
ATOM      9  C   UNL     1      -3.957 -13.813  27.145  1.00  0.00     0.039 C 
ENDBRANCH   5   6
ENDBRANCH   4   5
ENDBRANCH   1   4
BRANCH   2  10
ATOM     10  C   UNL     1      -4.097 -12.751  32.177  1.00  0.00     0.035 C 
BRANCH  10  11
ATOM     11  C   UNL     1      -4.806 -13.730  33.117  1.00  0.00     0.079 C 
BRANCH  11  12
ATOM     12  C   UNL     1      -5.207 -14.980  32.379  1.00  0.00     0.130 C 
ATOM     13  O   UNL     1      -4.934 -16.072  32.855  1.00  0.00    -0.300 OA
ATOM     14  C   UNL     1      -5.941 -14.914  31.073  1.00  0.00     0.087 C 
ENDBRANCH  11  12
ENDBRANCH  10  11
ENDBRANCH   2  10
TORSDOF 6
ENDMDL
MODEL 6
REMARK VINA RESULT:    -4.823      2.144      4.582
REMARK INTER + INTRA:          -7.791
REMARK INTER:                  -6.734
REMARK INTRA:                  -1.057
REMARK UNBOUND:                -1.276
REMARK SMILES CC(=O)CCC=C(C)CCC=C(C)C
REMARK SMILES IDX 7 1 6 2 8 3 9 4 10 5 11 6 13 7 12 8 14 9 5 10 4 11 2 12 3 13
REMARK SMILES IDX 1 14
REMARK H PARENT
REMARK Flexibility Score: inf
ROOT
ATOM      1  C   UNL     1      -2.678 -11.458  30.315  1.00  0.00    -0.077 C 
ATOM      2  C   UNL     1      -3.732 -11.804  31.089  1.00  0.00    -0.028 C 
ATOM      3  C   UNL     1      -1.298 -12.029  30.543  1.00  0.00     0.039 C 
ENDROOT
BRANCH   1   4
ATOM      4  C   UNL     1      -2.884 -10.457  29.198  1.00  0.00     0.034 C 
BRANCH   4   5
ATOM      5  C   UNL     1      -4.078 -10.857  28.323  1.00  0.00     0.032 C 
BRANCH   5   6
ATOM      6  C   UNL     1      -3.710 -11.995  27.405  1.00  0.00    -0.028 C 
ATOM      7  C   UNL     1      -5.397 -13.555  28.402  1.00  0.00     0.039 C 
ATOM      8  C   UNL     1      -4.277 -13.221  27.445  1.00  0.00    -0.080 C 
ATOM      9  C   UNL     1      -3.778 -14.274  26.489  1.00  0.00     0.039 C 
ENDBRANCH   5   6
ENDBRANCH   4   5
ENDBRANCH   1   4
BRANCH   2  10
ATOM     10  C   UNL     1      -3.675 -12.824  32.199  1.00  0.00     0.035 C 
BRANCH  10  11
ATOM     11  C   UNL     1      -4.129 -14.197  31.696  1.00  0.00     0.079 C 
BRANCH  11  12
ATOM     12  C   UNL     1      -5.137 -14.802  32.637  1.00  0.00     0.130 C 
ATOM     13  O   UNL     1      -5.542 -15.937  32.436  1.00  0.00    -0.300 OA
ATOM     14  C   UNL     1      -5.651 -14.042  33.824  1.00  0.00     0.087 C 
ENDBRANCH  11  12
ENDBRANCH  10  11
ENDBRANCH   2  10
TORSDOF 6
ENDMDL
MODEL 7
REMARK VINA RESULT:    -4.809      1.535      3.513
REMARK INTER + INTRA:          -7.772
REMARK INTER:                  -7.217
REMARK INTRA:                  -0.555
REMARK UNBOUND:                -1.276
REMARK SMILES CC(=O)CCC=C(C)CCC=C(C)C
REMARK SMILES IDX 7 1 6 2 8 3 9 4 10 5 11 6 13 7 12 8 14 9 5 10 4 11 2 12 3 13
REMARK SMILES IDX 1 14
REMARK H PARENT
REMARK Flexibility Score: inf
ROOT
ATOM      1  C   UNL     1      -5.263 -14.224  30.432  1.00  0.00    -0.077 C 
ATOM      2  C   UNL     1      -4.709 -13.329  29.584  1.00  0.00    -0.028 C 
ATOM      3  C   UNL     1      -6.374 -15.152  30.000  1.00  0.00     0.039 C 
ENDROOT
BRANCH   1   4
ATOM      4  C   UNL     1      -4.767 -14.288  31.860  1.00  0.00     0.034 C 
BRANCH   4   5
ATOM      5  C   UNL     1      -3.834 -13.111  32.165  1.00  0.00     0.032 C 
BRANCH   5   6
ATOM      6  C   UNL     1      -2.408 -13.453  31.815  1.00  0.00    -0.028 C 
ATOM      7  C   UNL     1      -1.825 -11.096  31.198  1.00  0.00     0.039 C 
ATOM      8  C   UNL     1      -1.500 -12.564  31.355  1.00  0.00    -0.080 C 
ATOM      9  C   UNL     1      -0.120 -13.060  31.008  1.00  0.00     0.039 C 
ENDBRANCH   5   6
ENDBRANCH   4   5
ENDBRANCH   1   4
BRANCH   2  10
ATOM     10  C   UNL     1      -5.075 -13.197  28.126  1.00  0.00     0.035 C 
BRANCH  10  11
ATOM     11  C   UNL     1      -3.883 -13.551  27.234  1.00  0.00     0.079 C 
BRANCH  11  12
ATOM     12  C   UNL     1      -2.917 -12.399  27.154  1.00  0.00     0.130 C 
ATOM     13  O   UNL     1      -1.979 -12.344  27.936  1.00  0.00    -0.300 OA
ATOM     14  C   UNL     1      -3.076 -11.317  26.127  1.00  0.00     0.087 C 
ENDBRANCH  11  12
ENDBRANCH  10  11
ENDBRANCH   2  10
TORSDOF 6
ENDMDL
MODEL 8
REMARK VINA RESULT:    -4.771      2.055      4.389
REMARK INTER + INTRA:          -7.720
REMARK INTER:                  -6.935
REMARK INTRA:                  -0.785
REMARK UNBOUND:                -1.276
REMARK SMILES CC(=O)CCC=C(C)CCC=C(C)C
REMARK SMILES IDX 7 1 6 2 8 3 9 4 10 5 11 6 13 7 12 8 14 9 5 10 4 11 2 12 3 13
REMARK SMILES IDX 1 14
REMARK H PARENT
REMARK Flexibility Score: inf
ROOT
ATOM      1  C   UNL     1      -2.740 -13.014  27.945  1.00  0.00    -0.077 C 
ATOM      2  C   UNL     1      -1.794 -13.816  28.483  1.00  0.00    -0.028 C 
ATOM      3  C   UNL     1      -2.587 -11.511  27.910  1.00  0.00     0.039 C 
ENDROOT
BRANCH   1   4
ATOM      4  C   UNL     1      -3.996 -13.638  27.375  1.00  0.00     0.034 C 
BRANCH   4   5
ATOM      5  C   UNL     1      -5.208 -13.326  28.261  1.00  0.00     0.032 C 
BRANCH   5   6
ATOM      6  C   UNL     1      -6.234 -14.427  28.170  1.00  0.00    -0.028 C 
ATOM      7  C   UNL     1      -6.077 -14.993  30.605  1.00  0.00     0.039 C 
ATOM      8  C   UNL     1      -6.618 -15.201  29.209  1.00  0.00    -0.080 C 
ATOM      9  C   UNL     1      -7.627 -16.291  28.958  1.00  0.00     0.039 C 
ENDBRANCH   5   6
ENDBRANCH   4   5
ENDBRANCH   1   4
BRANCH   2  10
ATOM     10  C   UNL     1      -0.479 -13.329  29.037  1.00  0.00     0.035 C 
BRANCH  10  11
ATOM     11  C   UNL     1      -0.403 -13.572  30.547  1.00  0.00     0.079 C 
BRANCH  11  12
ATOM     12  C   UNL     1      -1.396 -12.706  31.276  1.00  0.00     0.130 C 
ATOM     13  O   UNL     1      -1.138 -11.527  31.469  1.00  0.00    -0.300 OA
ATOM     14  C   UNL     1      -2.702 -13.258  31.765  1.00  0.00     0.087 C 
ENDBRANCH  11  12
ENDBRANCH  10  11
ENDBRANCH   2  10
TORSDOF 6
ENDMDL
MODEL 9
REMARK VINA RESULT:    -4.630      1.318      2.636
REMARK INTER + INTRA:          -7.530
REMARK INTER:                  -6.174
REMARK INTRA:                  -1.356
REMARK UNBOUND:                -1.276
REMARK SMILES CC(=O)CCC=C(C)CCC=C(C)C
REMARK SMILES IDX 7 1 6 2 8 3 9 4 10 5 11 6 13 7 12 8 14 9 5 10 4 11 2 12 3 13
REMARK SMILES IDX 1 14
REMARK H PARENT
REMARK Flexibility Score: inf
ROOT
ATOM      1  C   UNL     1      -3.731 -10.465  29.710  1.00  0.00    -0.077 C 
ATOM      2  C   UNL     1      -2.652 -11.100  29.199  1.00  0.00    -0.028 C 
ATOM      3  C   UNL     1      -5.013 -10.313  28.924  1.00  0.00     0.039 C 
ENDROOT
BRANCH   1   4
ATOM      4  C   UNL     1      -3.647  -9.876  31.101  1.00  0.00     0.034 C 
BRANCH   4   5
ATOM      5  C   UNL     1      -3.232 -10.944  32.120  1.00  0.00     0.032 C 
BRANCH   5   6
ATOM      6  C   UNL     1      -4.212 -12.090  32.122  1.00  0.00    -0.028 C 
ATOM      7  C   UNL     1      -2.438 -13.818  31.750  1.00  0.00     0.039 C 
ATOM      8  C   UNL     1      -3.874 -13.384  31.932  1.00  0.00    -0.080 C 
ATOM      9  C   UNL     1      -4.969 -14.419  31.920  1.00  0.00     0.039 C 
ENDBRANCH   5   6
ENDBRANCH   4   5
ENDBRANCH   1   4
BRANCH   2  10
ATOM     10  C   UNL     1      -2.619 -11.774  27.849  1.00  0.00     0.035 C 
BRANCH  10  11
ATOM     11  C   UNL     1      -2.830 -13.283  27.992  1.00  0.00     0.079 C 
BRANCH  11  12
ATOM     12  C   UNL     1      -4.187 -13.682  27.474  1.00  0.00     0.130 C 
ATOM     13  O   UNL     1      -4.308 -14.019  26.305  1.00  0.00    -0.300 OA
ATOM     14  C   UNL     1      -5.394 -13.683  28.364  1.00  0.00     0.087 C 
ENDBRANCH  11  12
ENDBRANCH  10  11
ENDBRANCH   2  10
TORSDOF 6
ENDMDL
