MODEL 1
REMARK VINA RESULT:    -2.523      0.000      0.000
REMARK INTER + INTRA:          -1.964
REMARK INTER:                  -2.892
REMARK INTRA:                   0.927
REMARK UNBOUND:                 0.927
REMARK SMILES C=C(C)[C@H]1CC[C@]2(C(=O)[O-])CC[C@]3(C)[C@H](CC[C@@H]4[C@]5(C)CC[C@H](O)C(C)(C)[C@@H]5CC[C@@]43C)[C@@H]12
REMARK SMILES IDX 7 1 6 2 33 3 11 4 5 5 15 6 4 7 12 8 16 9 13 10 17 11 31 12
REMARK SMILES IDX 14 13 18 14 30 15 32 16 19 17 29 18 21 19 20 20 28 21 22 22
REMARK SMILES IDX 25 23 23 24 26 25 27 26 8 27 9 28 10 29 2 30 3 31 1 32 24 33
REMARK H PARENT 24 34
REMARK Flexibility Score: inf
ROOT
ATOM      1  C   UNL     1      27.796   2.100  27.509  1.00  0.00     0.014 C 
ATOM      2  C   UNL     1      28.964   1.992  28.508  1.00  0.00     0.014 C 
ATOM      3  C   UNL     1      27.580   0.594  27.216  1.00  0.00     0.012 C 
ATOM      4  C   UNL     1      26.490   2.704  28.089  1.00  0.00     0.014 C 
ATOM      5  C   UNL     1      29.893   0.920  27.894  1.00  0.00     0.009 C 
ATOM      6  C   UNL     1      26.380   0.318  26.276  1.00  0.00     0.000 C 
ATOM      7  C   UNL     1      28.988  -0.029  27.069  1.00  0.00     0.018 C 
ATOM      8  C   UNL     1      25.234   2.371  27.211  1.00  0.00     0.008 C 
ATOM      9  C   UNL     1      26.218  -1.125  25.805  1.00  0.00     0.005 C 
ATOM     10  C   UNL     1      25.017   0.836  26.886  1.00  0.00    -0.024 C 
ATOM     11  C   UNL     1      25.436  -1.124  24.489  1.00  0.00     0.005 C 
ATOM     12  C   UNL     1      23.771   0.489  25.845  1.00  0.00    -0.024 C 
ATOM     13  C   UNL     1      24.729   0.196  28.305  1.00  0.00     0.012 C 
ATOM     14  C   UNL     1      24.204  -0.143  24.425  1.00  0.00     0.002 C 
ATOM     15  C   UNL     1      22.872   1.743  25.586  1.00  0.00     0.008 C 
ATOM     16  C   UNL     1      22.805  -0.594  26.475  1.00  0.00     0.012 C 
ATOM     17  C   UNL     1      24.153   0.819  23.143  1.00  0.00    -0.026 C 
ATOM     18  C   UNL     1      21.953   1.570  24.378  1.00  0.00     0.005 C 
ATOM     19  C   UNL     1      25.327   1.826  23.216  1.00  0.00     0.010 C 
ATOM     20  C   UNL     1      24.345  -0.072  21.870  1.00  0.00     0.012 C 
ATOM     21  C   UNL     1      22.732   1.564  23.022  1.00  0.00     0.003 C 
ATOM     22  C   UNL     1      25.269   2.944  22.186  1.00  0.00     0.033 C 
ATOM     23  C   UNL     1      22.705   2.949  22.192  1.00  0.00    -0.006 C 
ATOM     24  C   UNL     1      24.005   3.788  22.377  1.00  0.00     0.120 C 
ATOM     25  C   UNL     1      21.499   3.860  22.568  1.00  0.00     0.014 C 
ATOM     26  C   UNL     1      22.504   2.671  20.669  1.00  0.00     0.014 C 
ENDROOT
BRANCH   1  27
ATOM     27  C   UNL     1      28.242   2.970  26.320  1.00  0.00     0.048 C 
ATOM     28  O   UNL     1      28.757   4.106  26.512  1.00  0.00    -0.550 OA
ATOM     29  O   UNL     1      27.996   2.596  25.010  1.00  0.00    -0.550 OA
ENDBRANCH   1  27
BRANCH   7  30
ATOM     30  C   UNL     1      29.516  -0.311  25.656  1.00  0.00    -0.077 C 
ATOM     31  C   UNL     1      28.800   0.149  24.410  1.00  0.00     0.039 C 
ATOM     32  C   UNL     1      30.675  -0.981  25.510  1.00  0.00     0.008 C 
ENDBRANCH   7  30
BRANCH  24  33
ATOM     33  O   UNL     1      24.028   4.399  23.645  1.00  0.00    -0.393 OA
ATOM     34  H   UNL     1      23.226   4.085  24.136  1.00  0.00     0.210 HD
ENDBRANCH  24  33
TORSDOF 3
ENDMDL
MODEL 2
REMARK VINA RESULT:    -1.209      2.032      3.813
REMARK INTER + INTRA:          -0.458
REMARK INTER:                  -0.949
REMARK INTRA:                   0.491
REMARK UNBOUND:                 0.927
REMARK SMILES C=C(C)[C@H]1CC[C@]2(C(=O)[O-])CC[C@]3(C)[C@H](CC[C@@H]4[C@]5(C)CC[C@H](O)C(C)(C)[C@@H]5CC[C@@]43C)[C@@H]12
REMARK SMILES IDX 7 1 6 2 33 3 11 4 5 5 15 6 4 7 12 8 16 9 13 10 17 11 31 12
REMARK SMILES IDX 14 13 18 14 30 15 32 16 19 17 29 18 21 19 20 20 28 21 22 22
REMARK SMILES IDX 25 23 23 24 26 25 27 26 8 27 9 28 10 29 2 30 3 31 1 32 24 33
REMARK H PARENT 24 34
REMARK Flexibility Score: inf
ROOT
ATOM      1  C   UNL     1      26.583   0.161  27.578  1.00  0.00     0.014 C 
ATOM      2  C   UNL     1      27.262  -0.082  28.940  1.00  0.00     0.014 C 
ATOM      3  C   UNL     1      27.744   0.878  26.846  1.00  0.00     0.012 C 
ATOM      4  C   UNL     1      26.198  -1.125  26.799  1.00  0.00     0.014 C 
ATOM      5  C   UNL     1      28.004   1.241  29.237  1.00  0.00     0.009 C 
ATOM      6  C   UNL     1      27.425   1.206  25.365  1.00  0.00     0.000 C 
ATOM      7  C   UNL     1      28.359   1.867  27.864  1.00  0.00     0.018 C 
ATOM      8  C   UNL     1      25.953  -0.850  25.275  1.00  0.00     0.008 C 
ATOM      9  C   UNL     1      28.452   2.068  24.636  1.00  0.00     0.005 C 
ATOM     10  C   UNL     1      27.125  -0.095  24.521  1.00  0.00    -0.024 C 
ATOM     11  C   UNL     1      27.754   2.780  23.475  1.00  0.00     0.005 C 
ATOM     12  C   UNL     1      26.816   0.321  22.943  1.00  0.00    -0.024 C 
ATOM     13  C   UNL     1      28.325  -1.125  24.583  1.00  0.00     0.012 C 
ATOM     14  C   UNL     1      26.744   1.904  22.641  1.00  0.00     0.002 C 
ATOM     15  C   UNL     1      25.506  -0.354  22.417  1.00  0.00     0.008 C 
ATOM     16  C   UNL     1      27.968  -0.205  21.994  1.00  0.00     0.012 C 
ATOM     17  C   UNL     1      25.291   2.547  22.420  1.00  0.00    -0.026 C 
ATOM     18  C   UNL     1      24.999   0.276  21.121  1.00  0.00     0.005 C 
ATOM     19  C   UNL     1      24.558   2.627  23.781  1.00  0.00     0.010 C 
ATOM     20  C   UNL     1      25.492   4.002  21.881  1.00  0.00     0.012 C 
ATOM     21  C   UNL     1      24.442   1.723  21.330  1.00  0.00     0.003 C 
ATOM     22  C   UNL     1      23.087   3.003  23.688  1.00  0.00     0.033 C 
ATOM     23  C   UNL     1      22.834   1.849  21.413  1.00  0.00    -0.006 C 
ATOM     24  C   UNL     1      22.313   1.960  22.878  1.00  0.00     0.120 C 
ATOM     25  C   UNL     1      22.094   0.655  20.739  1.00  0.00     0.014 C 
ATOM     26  C   UNL     1      22.341   3.095  20.614  1.00  0.00     0.014 C 
ENDROOT
BRANCH   1  27
ATOM     27  C   UNL     1      25.304   0.986  27.806  1.00  0.00     0.048 C 
ATOM     28  O   UNL     1      25.042   1.468  28.942  1.00  0.00    -0.550 OA
ATOM     29  O   UNL     1      24.347   1.135  26.817  1.00  0.00    -0.550 OA
ENDBRANCH   1  27
BRANCH   7  30
ATOM     30  C   UNL     1      27.991   3.352  27.751  1.00  0.00    -0.077 C 
ATOM     31  C   UNL     1      26.923   3.997  28.599  1.00  0.00     0.039 C 
ATOM     32  C   UNL     1      28.656   4.127  26.872  1.00  0.00     0.008 C 
ENDBRANCH   7  30
BRANCH  24  33
ATOM     33  O   UNL     1      22.377   0.711  23.526  1.00  0.00    -0.393 OA
ATOM     34  H   UNL     1      22.752   0.870  24.430  1.00  0.00     0.210 HD
ENDBRANCH  24  33
TORSDOF 3
ENDMDL
MODEL 3
REMARK VINA RESULT:    -0.737      0.891      1.134
REMARK INTER + INTRA:           0.082
REMARK INTER:                  -0.594
REMARK INTRA:                   0.677
REMARK UNBOUND:                 0.927
REMARK SMILES C=C(C)[C@H]1CC[C@]2(C(=O)[O-])CC[C@]3(C)[C@H](CC[C@@H]4[C@]5(C)CC[C@H](O)C(C)(C)[C@@H]5CC[C@@]43C)[C@@H]12
REMARK SMILES IDX 7 1 6 2 33 3 11 4 5 5 15 6 4 7 12 8 16 9 13 10 17 11 31 12
REMARK SMILES IDX 14 13 18 14 30 15 32 16 19 17 29 18 21 19 20 20 28 21 22 22
REMARK SMILES IDX 25 23 23 24 26 25 27 26 8 27 9 28 10 29 2 30 3 31 1 32 24 33
REMARK H PARENT 24 34
REMARK Flexibility Score: inf
ROOT
ATOM      1  C   UNL     1      27.780   2.650  28.182  1.00  0.00     0.014 C 
ATOM      2  C   UNL     1      28.776   2.772  29.351  1.00  0.00     0.014 C 
ATOM      3  C   UNL     1      27.716   1.107  28.070  1.00  0.00     0.012 C 
ATOM      4  C   UNL     1      26.360   3.205  28.470  1.00  0.00     0.014 C 
ATOM      5  C   UNL     1      29.863   1.718  29.038  1.00  0.00     0.009 C 
ATOM      6  C   UNL     1      26.705   0.610  27.007  1.00  0.00     0.000 C 
ATOM      7  C   UNL     1      29.169   0.597  28.224  1.00  0.00     0.018 C 
ATOM      8  C   UNL     1      25.287   2.655  27.466  1.00  0.00     0.008 C 
ATOM      9  C   UNL     1      26.719  -0.889  26.720  1.00  0.00     0.005 C 
ATOM     10  C   UNL     1      25.230   1.078  27.327  1.00  0.00    -0.024 C 
ATOM     11  C   UNL     1      26.162  -1.122  25.314  1.00  0.00     0.005 C 
ATOM     12  C   UNL     1      24.194   0.494  26.167  1.00  0.00    -0.024 C 
ATOM     13  C   UNL     1      24.761   0.599  28.760  1.00  0.00     0.012 C 
ATOM     14  C   UNL     1      24.892  -0.270  24.930  1.00  0.00     0.002 C 
ATOM     15  C   UNL     1      23.267   1.622  25.606  1.00  0.00     0.008 C 
ATOM     16  C   UNL     1      23.214  -0.582  26.788  1.00  0.00     0.012 C 
ATOM     17  C   UNL     1      24.984   0.515  23.535  1.00  0.00    -0.026 C 
ATOM     18  C   UNL     1      22.568   1.218  24.308  1.00  0.00     0.005 C 
ATOM     19  C   UNL     1      26.060   1.623  23.645  1.00  0.00     0.010 C 
ATOM     20  C   UNL     1      25.438  -0.508  22.441  1.00  0.00     0.012 C 
ATOM     21  C   UNL     1      23.554   1.110  23.099  1.00  0.00     0.003 C 
ATOM     22  C   UNL     1      26.093   2.594  22.474  1.00  0.00     0.033 C 
ATOM     23  C   UNL     1      23.567   2.372  22.092  1.00  0.00    -0.006 C 
ATOM     24  C   UNL     1      24.761   3.340  22.353  1.00  0.00     0.120 C 
ATOM     25  C   UNL     1      22.257   3.214  22.152  1.00  0.00     0.014 C 
ATOM     26  C   UNL     1      23.634   1.889  20.609  1.00  0.00     0.014 C 
ENDROOT
BRANCH   1  27
ATOM     27  C   UNL     1      28.352   3.400  26.966  1.00  0.00     0.048 C 
ATOM     28  O   UNL     1      27.924   3.163  25.803  1.00  0.00    -0.550 OA
ATOM     29  O   UNL     1      29.424   4.269  27.083  1.00  0.00    -0.550 OA
ENDBRANCH   1  27
BRANCH   7  30
ATOM     30  C   UNL     1      29.935   0.188  26.960  1.00  0.00    -0.077 C 
ATOM     31  C   UNL     1      29.345   0.299  25.576  1.00  0.00     0.039 C 
ATOM     32  C   UNL     1      31.194  -0.275  27.077  1.00  0.00     0.008 C 
ENDBRANCH   7  30
BRANCH  24  33
ATOM     33  O   UNL     1      24.538   4.105  23.514  1.00  0.00    -0.393 OA
ATOM     34  H   UNL     1      24.402   3.468  24.262  1.00  0.00     0.210 HD
ENDBRANCH  24  33
TORSDOF 3
ENDMDL
