MODEL 1
REMARK VINA RESULT:    28.157      0.000      0.000
REMARK INTER + INTRA:          34.379
REMARK INTER:                  33.918
REMARK INTRA:                   0.461
REMARK UNBOUND:                 0.461
REMARK SMILES O=c1c(O)c(-c2ccc(O)c(O)c2)oc2cc(O)cc(O)c12
REMARK SMILES IDX 5 1 3 2 2 3 1 4 22 5 20 6 19 7 17 8 16 9 15 10 14 11 6 12
REMARK SMILES IDX 7 13 8 14 9 15 13 16 11 17 10 18 12 20 4 22 21 24 18 26
REMARK H PARENT 10 19 12 21 4 23 21 25 18 27
REMARK Flexibility Score: inf
ROOT
ATOM      1  C   UNL     1     -37.730  26.921  -4.980  1.00  0.00     0.180 A 
ATOM      2  C   UNL     1     -36.324  27.008  -4.991  1.00  0.00     0.208 A 
ATOM      3  C   UNL     1     -35.571  25.824  -4.954  1.00  0.00     0.238 A 
ATOM      4  O   UNL     1     -34.312  25.889  -4.952  1.00  0.00    -0.285 OA
ATOM      5  C   UNL     1     -36.233  24.578  -4.927  1.00  0.00     0.111 A 
ATOM      6  C   UNL     1     -35.548  23.339  -4.893  1.00  0.00     0.134 A 
ATOM      7  C   UNL     1     -36.278  22.142  -4.877  1.00  0.00     0.093 A 
ATOM      8  C   UNL     1     -37.677  22.160  -4.895  1.00  0.00     0.123 A 
ATOM      9  C   UNL     1     -38.357  23.379  -4.928  1.00  0.00     0.094 A 
ATOM     10  C   UNL     1     -37.647  24.584  -4.943  1.00  0.00     0.146 A 
ATOM     11  O   UNL     1     -38.319  25.729  -4.969  1.00  0.00    -0.452 OA
ENDROOT
BRANCH   1  12
ATOM     12  C   UNL     1     -38.593  28.125  -4.998  1.00  0.00     0.025 A 
ATOM     13  C   UNL     1     -38.045  29.417  -5.015  1.00  0.00     0.016 A 
ATOM     14  C   UNL     1     -38.879  30.537  -5.008  1.00  0.00     0.051 A 
ATOM     15  C   UNL     1     -40.270  30.391  -4.970  1.00  0.00     0.157 A 
ATOM     16  C   UNL     1     -39.987  27.977  -4.938  1.00  0.00     0.062 A 
ATOM     17  C   UNL     1     -40.832  29.094  -4.930  1.00  0.00     0.158 A 
BRANCH  15  18
ATOM     18  O   UNL     1     -41.047  31.552  -4.969  1.00  0.00    -0.504 OA
ATOM     19  H   UNL     1     -41.369  32.016  -5.807  1.00  0.00     0.293 HD
ENDBRANCH  15  18
BRANCH  17  20
ATOM     20  O   UNL     1     -42.209  28.870  -4.881  1.00  0.00    -0.504 OA
ATOM     21  H   UNL     1     -42.685  28.154  -5.412  1.00  0.00     0.293 HD
ENDBRANCH  17  20
ENDBRANCH   1  12
BRANCH   2  22
ATOM     22  O   UNL     1     -35.695  28.253  -5.067  1.00  0.00    -0.502 OA
ATOM     23  H   UNL     1     -36.207  29.110  -5.241  1.00  0.00     0.293 HD
ENDBRANCH   2  22
BRANCH   6  24
ATOM     24  O   UNL     1     -34.153  23.289  -4.875  1.00  0.00    -0.507 OA
ATOM     25  H   UNL     1     -33.589  23.976  -5.360  1.00  0.00     0.293 HD
ENDBRANCH   6  24
BRANCH   8  26
ATOM     26  O   UNL     1     -38.403  20.971  -4.880  1.00  0.00    -0.508 OA
ATOM     27  H   UNL     1     -38.353  20.309  -5.646  1.00  0.00     0.293 HD
ENDBRANCH   8  26
TORSDOF 6
ENDMDL
