MODEL 1
REMARK VINA RESULT:    -4.332      0.000      0.000
REMARK INTER + INTRA:          -4.332
REMARK INTER:                  -4.332
REMARK INTRA:                   0.000
REMARK UNBOUND:                 0.000
REMARK SMILES CC1=CC[C@@H]2[C@H](C1)C2(C)C
REMARK SMILES IDX 1 1 2 2 3 3 4 4 5 5 6 6 7 7 8 8 9 9 10 10
REMARK H PARENT
REMARK Flexibility Score: inf
ROOT
ATOM      1  C   UNL     1      21.572  49.416  -3.436  1.00  0.00     0.039 C 
ATOM      2  C   UNL     1      22.135  50.134  -2.240  1.00  0.00    -0.077 C 
ATOM      3  C   UNL     1      22.736  51.325  -2.406  1.00  0.00    -0.028 C 
ATOM      4  C   UNL     1      23.310  52.087  -1.246  1.00  0.00     0.031 C 
ATOM      5  C   UNL     1      23.972  51.149  -0.213  1.00  0.00     0.003 C 
ATOM      6  C   UNL     1      23.285  49.780  -0.010  1.00  0.00     0.003 C 
ATOM      7  C   UNL     1      22.023  49.522  -0.863  1.00  0.00     0.034 C 
ATOM      8  C   UNL     1      23.266  50.828   1.115  1.00  0.00    -0.029 C 
ATOM      9  C   UNL     1      24.211  50.526   2.282  1.00  0.00     0.012 C 
ATOM     10  C   UNL     1      21.953  51.542   1.490  1.00  0.00     0.012 C 
ENDROOT
TORSDOF 0
ENDMDL
MODEL 2
REMARK VINA RESULT:    -4.200      1.798      3.816
REMARK INTER + INTRA:          -4.200
REMARK INTER:                  -4.200
REMARK INTRA:                   0.000
REMARK UNBOUND:                 0.000
REMARK SMILES CC1=CC[C@@H]2[C@H](C1)C2(C)C
REMARK SMILES IDX 1 1 2 2 3 3 4 4 5 5 6 6 7 7 8 8 9 9 10 10
REMARK H PARENT
REMARK Flexibility Score: inf
ROOT
ATOM      1  C   UNL     1      25.947  54.562  -0.513  1.00  0.00     0.039 C 
ATOM      2  C   UNL     1      25.134  53.380  -0.060  1.00  0.00    -0.077 C 
ATOM      3  C   UNL     1      25.570  52.634   0.970  1.00  0.00    -0.028 C 
ATOM      4  C   UNL     1      24.796  51.447   1.466  1.00  0.00     0.031 C 
ATOM      5  C   UNL     1      24.143  50.661   0.308  1.00  0.00     0.003 C 
ATOM      6  C   UNL     1      23.633  51.510  -0.878  1.00  0.00     0.003 C 
ATOM      7  C   UNL     1      23.838  53.037  -0.756  1.00  0.00     0.034 C 
ATOM      8  C   UNL     1      22.634  50.781   0.036  1.00  0.00    -0.029 C 
ATOM      9  C   UNL     1      21.998  49.533  -0.584  1.00  0.00     0.012 C 
ATOM     10  C   UNL     1      21.732  51.580   0.995  1.00  0.00     0.012 C 
ENDROOT
TORSDOF 0
ENDMDL
MODEL 3
REMARK VINA RESULT:    -4.148      2.393      3.674
REMARK INTER + INTRA:          -4.148
REMARK INTER:                  -4.148
REMARK INTRA:                   0.000
REMARK UNBOUND:                 0.000
REMARK SMILES CC1=CC[C@@H]2[C@H](C1)C2(C)C
REMARK SMILES IDX 1 1 2 2 3 3 4 4 5 5 6 6 7 7 8 8 9 9 10 10
REMARK H PARENT
REMARK Flexibility Score: inf
ROOT
ATOM      1  C   UNL     1      25.322  49.387  -6.124  1.00  0.00     0.039 C 
ATOM      2  C   UNL     1      24.248  49.756  -5.137  1.00  0.00    -0.077 C 
ATOM      3  C   UNL     1      23.347  50.699  -5.463  1.00  0.00    -0.028 C 
ATOM      4  C   UNL     1      22.251  51.101  -4.518  1.00  0.00     0.031 C 
ATOM      5  C   UNL     1      22.736  51.126  -3.052  1.00  0.00     0.003 C 
ATOM      6  C   UNL     1      23.768  50.043  -2.666  1.00  0.00     0.003 C 
ATOM      7  C   UNL     1      24.183  49.070  -3.793  1.00  0.00     0.034 C 
ATOM      8  C   UNL     1      22.346  49.999  -2.081  1.00  0.00    -0.029 C 
ATOM      9  C   UNL     1      22.248  50.427  -0.614  1.00  0.00     0.012 C 
ATOM     10  C   UNL     1      21.359  48.901  -2.520  1.00  0.00     0.012 C 
ENDROOT
TORSDOF 0
ENDMDL
MODEL 4
REMARK VINA RESULT:    -4.103      1.783      3.791
REMARK INTER + INTRA:          -4.103
REMARK INTER:                  -4.103
REMARK INTRA:                   0.000
REMARK UNBOUND:                 0.000
REMARK SMILES CC1=CC[C@@H]2[C@H](C1)C2(C)C
REMARK SMILES IDX 1 1 2 2 3 3 4 4 5 5 6 6 7 7 8 8 9 9 10 10
REMARK H PARENT
REMARK Flexibility Score: inf
ROOT
ATOM      1  C   UNL     1      25.996  53.801   1.327  1.00  0.00     0.039 C 
ATOM      2  C   UNL     1      25.003  52.865   0.692  1.00  0.00    -0.077 C 
ATOM      3  C   UNL     1      24.497  53.160  -0.518  1.00  0.00    -0.028 C 
ATOM      4  C   UNL     1      23.508  52.259  -1.199  1.00  0.00     0.031 C 
ATOM      5  C   UNL     1      22.510  51.638  -0.197  1.00  0.00     0.003 C 
ATOM      6  C   UNL     1      23.084  51.290   1.195  1.00  0.00     0.003 C 
ATOM      7  C   UNL     1      24.581  51.604   1.409  1.00  0.00     0.034 C 
ATOM      8  C   UNL     1      22.650  50.169   0.236  1.00  0.00    -0.029 C 
ATOM      9  C   UNL     1      21.331  49.486   0.609  1.00  0.00     0.012 C 
ATOM     10  C   UNL     1      23.704  49.261  -0.425  1.00  0.00     0.012 C 
ENDROOT
TORSDOF 0
ENDMDL
MODEL 5
REMARK VINA RESULT:    -4.099      1.661      3.317
REMARK INTER + INTRA:          -4.099
REMARK INTER:                  -4.099
REMARK INTRA:                   0.000
REMARK UNBOUND:                 0.000
REMARK SMILES CC1=CC[C@@H]2[C@H](C1)C2(C)C
REMARK SMILES IDX 1 1 2 2 3 3 4 4 5 5 6 6 7 7 8 8 9 9 10 10
REMARK H PARENT
REMARK Flexibility Score: inf
ROOT
ATOM      1  C   UNL     1      19.745  49.903   2.166  1.00  0.00     0.039 C 
ATOM      2  C   UNL     1      21.011  50.174   1.400  1.00  0.00    -0.077 C 
ATOM      3  C   UNL     1      21.603  49.171   0.728  1.00  0.00    -0.028 C 
ATOM      4  C   UNL     1      22.865  49.388  -0.058  1.00  0.00     0.031 C 
ATOM      5  C   UNL     1      23.825  50.367   0.653  1.00  0.00     0.003 C 
ATOM      6  C   UNL     1      23.153  51.526   1.425  1.00  0.00     0.003 C 
ATOM      7  C   UNL     1      21.609  51.561   1.385  1.00  0.00     0.034 C 
ATOM      8  C   UNL     1      23.973  51.814   0.156  1.00  0.00    -0.029 C 
ATOM      9  C   UNL     1      25.347  52.439   0.414  1.00  0.00     0.012 C 
ATOM     10  C   UNL     1      23.269  52.268  -1.138  1.00  0.00     0.012 C 
ENDROOT
TORSDOF 0
ENDMDL
MODEL 6
REMARK VINA RESULT:    -4.084      1.739      4.308
REMARK INTER + INTRA:          -4.084
REMARK INTER:                  -4.084
REMARK INTRA:                   0.000
REMARK UNBOUND:                 0.000
REMARK SMILES CC1=CC[C@@H]2[C@H](C1)C2(C)C
REMARK SMILES IDX 1 1 2 2 3 3 4 4 5 5 6 6 7 7 8 8 9 9 10 10
REMARK H PARENT
REMARK Flexibility Score: inf
ROOT
ATOM      1  C   UNL     1      21.084  48.669   0.047  1.00  0.00     0.039 C 
ATOM      2  C   UNL     1      21.836  49.382  -1.044  1.00  0.00    -0.077 C 
ATOM      3  C   UNL     1      22.599  50.445  -0.734  1.00  0.00    -0.028 C 
ATOM      4  C   UNL     1      23.376  51.188  -1.783  1.00  0.00     0.031 C 
ATOM      5  C   UNL     1      22.592  51.298  -3.109  1.00  0.00     0.003 C 
ATOM      6  C   UNL     1      21.716  50.079  -3.476  1.00  0.00     0.003 C 
ATOM      7  C   UNL     1      21.737  48.904  -2.473  1.00  0.00     0.034 C 
ATOM      8  C   UNL     1      22.964  50.413  -4.311  1.00  0.00    -0.029 C 
ATOM      9  C   UNL     1      22.666  51.038  -5.678  1.00  0.00     0.012 C 
ATOM     10  C   UNL     1      24.206  49.504  -4.252  1.00  0.00     0.012 C 
ENDROOT
TORSDOF 0
ENDMDL
MODEL 7
REMARK VINA RESULT:    -4.059     13.989     15.622
REMARK INTER + INTRA:          -4.059
REMARK INTER:                  -4.059
REMARK INTRA:                   0.000
REMARK UNBOUND:                 0.000
REMARK SMILES CC1=CC[C@@H]2[C@H](C1)C2(C)C
REMARK SMILES IDX 1 1 2 2 3 3 4 4 5 5 6 6 7 7 8 8 9 9 10 10
REMARK H PARENT
REMARK Flexibility Score: inf
ROOT
ATOM      1  C   UNL     1      30.446  63.233   9.630  1.00  0.00     0.039 C 
ATOM      2  C   UNL     1      30.113  61.780   9.418  1.00  0.00    -0.077 C 
ATOM      3  C   UNL     1      30.113  61.277   8.172  1.00  0.00    -0.028 C 
ATOM      4  C   UNL     1      29.794  59.834   7.905  1.00  0.00     0.031 C 
ATOM      5  C   UNL     1      28.673  59.312   8.830  1.00  0.00     0.003 C 
ATOM      6  C   UNL     1      28.668  59.881  10.267  1.00  0.00     0.003 C 
ATOM      7  C   UNL     1      29.784  60.896  10.598  1.00  0.00     0.034 C 
ATOM      8  C   UNL     1      29.006  58.401  10.023  1.00  0.00    -0.029 C 
ATOM      9  C   UNL     1      27.893  57.421  10.407  1.00  0.00     0.012 C 
ATOM     10  C   UNL     1      30.444  57.887  10.232  1.00  0.00     0.012 C 
ENDROOT
TORSDOF 0
ENDMDL
MODEL 8
REMARK VINA RESULT:    -3.942      1.232      3.888
REMARK INTER + INTRA:          -3.942
REMARK INTER:                  -3.942
REMARK INTRA:                   0.000
REMARK UNBOUND:                 0.000
REMARK SMILES CC1=CC[C@@H]2[C@H](C1)C2(C)C
REMARK SMILES IDX 1 1 2 2 3 3 4 4 5 5 6 6 7 7 8 8 9 9 10 10
REMARK H PARENT
REMARK Flexibility Score: inf
ROOT
ATOM      1  C   UNL     1      22.546  50.651   2.870  1.00  0.00     0.039 C 
ATOM      2  C   UNL     1      23.016  50.857   1.455  1.00  0.00    -0.077 C 
ATOM      3  C   UNL     1      24.018  51.719   1.211  1.00  0.00    -0.028 C 
ATOM      4  C   UNL     1      24.530  51.957  -0.181  1.00  0.00     0.031 C 
ATOM      5  C   UNL     1      23.389  51.955  -1.222  1.00  0.00     0.003 C 
ATOM      6  C   UNL     1      22.235  50.963  -0.952  1.00  0.00     0.003 C 
ATOM      7  C   UNL     1      22.368  50.098   0.321  1.00  0.00     0.034 C 
ATOM      8  C   UNL     1      23.178  50.745  -2.147  1.00  0.00    -0.029 C 
ATOM      9  C   UNL     1      22.569  51.084  -3.510  1.00  0.00     0.012 C 
ATOM     10  C   UNL     1      24.183  49.577  -2.140  1.00  0.00     0.012 C 
ENDROOT
TORSDOF 0
ENDMDL
MODEL 9
REMARK VINA RESULT:    -3.638      2.667      4.887
REMARK INTER + INTRA:          -3.638
REMARK INTER:                  -3.638
REMARK INTRA:                   0.000
REMARK UNBOUND:                 0.000
REMARK SMILES CC1=CC[C@@H]2[C@H](C1)C2(C)C
REMARK SMILES IDX 1 1 2 2 3 3 4 4 5 5 6 6 7 7 8 8 9 9 10 10
REMARK H PARENT
REMARK Flexibility Score: inf
ROOT
ATOM      1  C   UNL     1      18.825  49.014   4.442  1.00  0.00     0.039 C 
ATOM      2  C   UNL     1      20.031  49.390   3.624  1.00  0.00    -0.077 C 
ATOM      3  C   UNL     1      21.238  49.449   4.215  1.00  0.00    -0.028 C 
ATOM      4  C   UNL     1      22.474  49.813   3.444  1.00  0.00     0.031 C 
ATOM      5  C   UNL     1      22.196  50.910   2.394  1.00  0.00     0.003 C 
ATOM      6  C   UNL     1      20.813  50.847   1.705  1.00  0.00     0.003 C 
ATOM      7  C   UNL     1      19.886  49.694   2.152  1.00  0.00     0.034 C 
ATOM      8  C   UNL     1      22.091  50.554   0.902  1.00  0.00    -0.029 C 
ATOM      9  C   UNL     1      22.515  51.675  -0.052  1.00  0.00     0.012 C 
ATOM     10  C   UNL     1      22.396  49.122   0.421  1.00  0.00     0.012 C 
ENDROOT
TORSDOF 0
ENDMDL
