MODEL 1
REMARK VINA RESULT:    -4.654      0.000      0.000
REMARK INTER + INTRA:          -4.654
REMARK INTER:                  -4.654
REMARK INTRA:                   0.000
REMARK UNBOUND:                 0.000
REMARK SMILES c1ccc2ccccc2c1
REMARK SMILES IDX 2 1 1 2 10 3 9 4 8 5 7 6 6 7 5 8 4 9 3 10
REMARK H PARENT
REMARK Flexibility Score: inf
ROOT
ATOM      1  C   UNL     1      10.884 -16.978 -23.597  1.00  0.00     0.001 A 
ATOM      2  C   UNL     1      10.719 -15.891 -24.460  1.00  0.00     0.001 A 
ATOM      3  C   UNL     1      10.491 -14.612 -23.946  1.00  0.00     0.009 A 
ATOM      4  C   UNL     1      10.425 -14.413 -22.558  1.00  0.00    -0.018 A 
ATOM      5  C   UNL     1      10.197 -13.134 -22.028  1.00  0.00     0.009 A 
ATOM      6  C   UNL     1      10.135 -12.949 -20.643  1.00  0.00     0.001 A 
ATOM      7  C   UNL     1      10.300 -14.037 -19.780  1.00  0.00     0.001 A 
ATOM      8  C   UNL     1      10.528 -15.316 -20.294  1.00  0.00     0.009 A 
ATOM      9  C   UNL     1      10.593 -15.515 -21.683  1.00  0.00    -0.018 A 
ATOM     10  C   UNL     1      10.822 -16.794 -22.213  1.00  0.00     0.009 A 
ENDROOT
TORSDOF 0
ENDMDL
MODEL 2
REMARK VINA RESULT:    -4.640     12.154     13.646
REMARK INTER + INTRA:          -4.640
REMARK INTER:                  -4.640
REMARK INTRA:                   0.000
REMARK UNBOUND:                 0.000
REMARK SMILES c1ccc2ccccc2c1
REMARK SMILES IDX 2 1 1 2 10 3 9 4 8 5 7 6 6 7 5 8 4 9 3 10
REMARK H PARENT
REMARK Flexibility Score: inf
ROOT
ATOM      1  C   UNL     1       8.874  -6.859 -31.257  1.00  0.00     0.001 A 
ATOM      2  C   UNL     1       8.566  -7.031 -29.904  1.00  0.00     0.001 A 
ATOM      3  C   UNL     1       8.240  -5.928 -29.111  1.00  0.00     0.009 A 
ATOM      4  C   UNL     1       8.219  -4.640 -29.669  1.00  0.00    -0.018 A 
ATOM      5  C   UNL     1       7.892  -3.524 -28.885  1.00  0.00     0.009 A 
ATOM      6  C   UNL     1       7.875  -2.247 -29.454  1.00  0.00     0.001 A 
ATOM      7  C   UNL     1       8.183  -2.075 -30.806  1.00  0.00     0.001 A 
ATOM      8  C   UNL     1       8.510  -3.178 -31.600  1.00  0.00     0.009 A 
ATOM      9  C   UNL     1       8.530  -4.466 -31.041  1.00  0.00    -0.018 A 
ATOM     10  C   UNL     1       8.857  -5.582 -31.826  1.00  0.00     0.009 A 
ENDROOT
TORSDOF 0
ENDMDL
MODEL 3
REMARK VINA RESULT:    -4.636      0.074      2.083
REMARK INTER + INTRA:          -4.636
REMARK INTER:                  -4.636
REMARK INTRA:                   0.000
REMARK UNBOUND:                 0.000
REMARK SMILES c1ccc2ccccc2c1
REMARK SMILES IDX 2 1 1 2 10 3 9 4 8 5 7 6 6 7 5 8 4 9 3 10
REMARK H PARENT
REMARK Flexibility Score: inf
ROOT
ATOM      1  C   UNL     1      10.747 -15.961 -24.415  1.00  0.00     0.001 A 
ATOM      2  C   UNL     1      10.936 -17.036 -23.542  1.00  0.00     0.001 A 
ATOM      3  C   UNL     1      10.883 -16.838 -22.160  1.00  0.00     0.009 A 
ATOM      4  C   UNL     1      10.640 -15.557 -21.640  1.00  0.00    -0.018 A 
ATOM      5  C   UNL     1      10.585 -15.344 -20.255  1.00  0.00     0.009 A 
ATOM      6  C   UNL     1      10.341 -14.063 -19.751  1.00  0.00     0.001 A 
ATOM      7  C   UNL     1      10.152 -12.987 -20.624  1.00  0.00     0.001 A 
ATOM      8  C   UNL     1      10.204 -13.185 -22.007  1.00  0.00     0.009 A 
ATOM      9  C   UNL     1      10.448 -14.467 -22.526  1.00  0.00    -0.018 A 
ATOM     10  C   UNL     1      10.503 -14.679 -23.912  1.00  0.00     0.009 A 
ENDROOT
TORSDOF 0
ENDMDL
MODEL 4
REMARK VINA RESULT:    -4.620      0.093      3.436
REMARK INTER + INTRA:          -4.620
REMARK INTER:                  -4.620
REMARK INTRA:                   0.000
REMARK UNBOUND:                 0.000
REMARK SMILES c1ccc2ccccc2c1
REMARK SMILES IDX 2 1 1 2 10 3 9 4 8 5 7 6 6 7 5 8 4 9 3 10
REMARK H PARENT
REMARK Flexibility Score: inf
ROOT
ATOM      1  C   UNL     1      10.280 -13.942 -19.840  1.00  0.00     0.001 A 
ATOM      2  C   UNL     1      10.154 -12.888 -20.750  1.00  0.00     0.001 A 
ATOM      3  C   UNL     1      10.242 -13.129 -22.124  1.00  0.00     0.009 A 
ATOM      4  C   UNL     1      10.458 -14.433 -22.597  1.00  0.00    -0.018 A 
ATOM      5  C   UNL     1      10.549 -14.689 -23.974  1.00  0.00     0.009 A 
ATOM      6  C   UNL     1      10.764 -15.992 -24.432  1.00  0.00     0.001 A 
ATOM      7  C   UNL     1      10.890 -17.046 -23.522  1.00  0.00     0.001 A 
ATOM      8  C   UNL     1      10.801 -16.806 -22.148  1.00  0.00     0.009 A 
ATOM      9  C   UNL     1      10.585 -15.502 -21.675  1.00  0.00    -0.018 A 
ATOM     10  C   UNL     1      10.495 -15.246 -20.298  1.00  0.00     0.009 A 
ENDROOT
TORSDOF 0
ENDMDL
MODEL 5
REMARK VINA RESULT:    -4.617      0.097      4.017
REMARK INTER + INTRA:          -4.617
REMARK INTER:                  -4.617
REMARK INTRA:                   0.000
REMARK UNBOUND:                 0.000
REMARK SMILES c1ccc2ccccc2c1
REMARK SMILES IDX 2 1 1 2 10 3 9 4 8 5 7 6 6 7 5 8 4 9 3 10
REMARK H PARENT
REMARK Flexibility Score: inf
ROOT
ATOM      1  C   UNL     1      10.136 -12.893 -20.765  1.00  0.00     0.001 A 
ATOM      2  C   UNL     1      10.265 -13.946 -19.855  1.00  0.00     0.001 A 
ATOM      3  C   UNL     1      10.487 -15.248 -20.312  1.00  0.00     0.009 A 
ATOM      4  C   UNL     1      10.581 -15.504 -21.690  1.00  0.00    -0.018 A 
ATOM      5  C   UNL     1      10.804 -16.806 -22.163  1.00  0.00     0.009 A 
ATOM      6  C   UNL     1      10.896 -17.047 -23.537  1.00  0.00     0.001 A 
ATOM      7  C   UNL     1      10.767 -15.994 -24.446  1.00  0.00     0.001 A 
ATOM      8  C   UNL     1      10.545 -14.692 -23.989  1.00  0.00     0.009 A 
ATOM      9  C   UNL     1      10.451 -14.436 -22.612  1.00  0.00    -0.018 A 
ATOM     10  C   UNL     1      10.229 -13.134 -22.139  1.00  0.00     0.009 A 
ENDROOT
TORSDOF 0
ENDMDL
MODEL 6
REMARK VINA RESULT:    -4.570      0.963      3.778
REMARK INTER + INTRA:          -4.570
REMARK INTER:                  -4.570
REMARK INTRA:                   0.000
REMARK UNBOUND:                 0.000
REMARK SMILES c1ccc2ccccc2c1
REMARK SMILES IDX 2 1 1 2 10 3 9 4 8 5 7 6 6 7 5 8 4 9 3 10
REMARK H PARENT
REMARK Flexibility Score: inf
ROOT
ATOM      1  C   UNL     1      10.487 -13.768 -19.533  1.00  0.00     0.001 A 
ATOM      2  C   UNL     1      10.808 -15.110 -19.756  1.00  0.00     0.001 A 
ATOM      3  C   UNL     1      10.763 -15.640 -21.048  1.00  0.00     0.009 A 
ATOM      4  C   UNL     1      10.394 -14.825 -22.131  1.00  0.00    -0.018 A 
ATOM      5  C   UNL     1      10.345 -15.344 -23.433  1.00  0.00     0.009 A 
ATOM      6  C   UNL     1       9.977 -14.521 -24.502  1.00  0.00     0.001 A 
ATOM      7  C   UNL     1       9.656 -13.179 -24.279  1.00  0.00     0.001 A 
ATOM      8  C   UNL     1       9.701 -12.649 -22.987  1.00  0.00     0.009 A 
ATOM      9  C   UNL     1      10.069 -13.464 -21.905  1.00  0.00    -0.018 A 
ATOM     10  C   UNL     1      10.119 -12.946 -20.602  1.00  0.00     0.009 A 
ENDROOT
TORSDOF 0
ENDMDL
MODEL 7
REMARK VINA RESULT:    -4.563      0.962      3.357
REMARK INTER + INTRA:          -4.563
REMARK INTER:                  -4.563
REMARK INTRA:                   0.000
REMARK UNBOUND:                 0.000
REMARK SMILES c1ccc2ccccc2c1
REMARK SMILES IDX 2 1 1 2 10 3 9 4 8 5 7 6 6 7 5 8 4 9 3 10
REMARK H PARENT
REMARK Flexibility Score: inf
ROOT
ATOM      1  C   UNL     1      10.687 -15.190 -19.786  1.00  0.00     0.001 A 
ATOM      2  C   UNL     1      10.472 -13.828 -19.557  1.00  0.00     0.001 A 
ATOM      3  C   UNL     1      10.159 -12.976 -20.620  1.00  0.00     0.009 A 
ATOM      4  C   UNL     1      10.058 -13.486 -21.925  1.00  0.00    -0.018 A 
ATOM      5  C   UNL     1       9.745 -12.643 -23.001  1.00  0.00     0.009 A 
ATOM      6  C   UNL     1       9.647 -13.163 -24.295  1.00  0.00     0.001 A 
ATOM      7  C   UNL     1       9.862 -14.526 -24.523  1.00  0.00     0.001 A 
ATOM      8  C   UNL     1      10.175 -15.377 -23.460  1.00  0.00     0.009 A 
ATOM      9  C   UNL     1      10.275 -14.867 -22.156  1.00  0.00    -0.018 A 
ATOM     10  C   UNL     1      10.589 -15.711 -21.079  1.00  0.00     0.009 A 
ENDROOT
TORSDOF 0
ENDMDL
MODEL 8
REMARK VINA RESULT:    -4.556      1.012      1.924
REMARK INTER + INTRA:          -4.556
REMARK INTER:                  -4.556
REMARK INTRA:                   0.000
REMARK UNBOUND:                 0.000
REMARK SMILES c1ccc2ccccc2c1
REMARK SMILES IDX 2 1 1 2 10 3 9 4 8 5 7 6 6 7 5 8 4 9 3 10
REMARK H PARENT
REMARK Flexibility Score: inf
ROOT
ATOM      1  C   UNL     1       9.767 -14.411 -24.493  1.00  0.00     0.001 A 
ATOM      2  C   UNL     1       9.608 -13.044 -24.246  1.00  0.00     0.001 A 
ATOM      3  C   UNL     1       9.752 -12.541 -22.950  1.00  0.00     0.009 A 
ATOM      4  C   UNL     1      10.058 -13.407 -21.889  1.00  0.00    -0.018 A 
ATOM      5  C   UNL     1      10.206 -12.915 -20.583  1.00  0.00     0.009 A 
ATOM      6  C   UNL     1      10.512 -13.789 -19.536  1.00  0.00     0.001 A 
ATOM      7  C   UNL     1      10.671 -15.156 -19.782  1.00  0.00     0.001 A 
ATOM      8  C   UNL     1      10.527 -15.659 -21.078  1.00  0.00     0.009 A 
ATOM      9  C   UNL     1      10.221 -14.793 -22.140  1.00  0.00    -0.018 A 
ATOM     10  C   UNL     1      10.073 -15.284 -23.445  1.00  0.00     0.009 A 
ENDROOT
TORSDOF 0
ENDMDL
MODEL 9
REMARK VINA RESULT:    -4.209     15.744     16.752
REMARK INTER + INTRA:          -4.209
REMARK INTER:                  -4.209
REMARK INTRA:                   0.000
REMARK UNBOUND:                 0.000
REMARK SMILES c1ccc2ccccc2c1
REMARK SMILES IDX 2 1 1 2 10 3 9 4 8 5 7 6 6 7 5 8 4 9 3 10
REMARK H PARENT
REMARK Flexibility Score: inf
ROOT
ATOM      1  C   UNL     1      23.429  -6.798 -25.998  1.00  0.00     0.001 A 
ATOM      2  C   UNL     1      23.268  -5.578 -26.661  1.00  0.00     0.001 A 
ATOM      3  C   UNL     1      23.291  -5.528 -28.058  1.00  0.00     0.009 A 
ATOM      4  C   UNL     1      23.476  -6.704 -28.802  1.00  0.00    -0.018 A 
ATOM      5  C   UNL     1      23.501  -6.669 -30.204  1.00  0.00     0.009 A 
ATOM      6  C   UNL     1      23.685  -7.847 -30.932  1.00  0.00     0.001 A 
ATOM      7  C   UNL     1      23.846  -9.067 -30.269  1.00  0.00     0.001 A 
ATOM      8  C   UNL     1      23.823  -9.118 -28.872  1.00  0.00     0.009 A 
ATOM      9  C   UNL     1      23.638  -7.941 -28.128  1.00  0.00    -0.018 A 
ATOM     10  C   UNL     1      23.613  -7.977 -26.726  1.00  0.00     0.009 A 
ENDROOT
TORSDOF 0
ENDMDL
