MODEL 1
REMARK VINA RESULT:    -3.379      0.000      0.000
REMARK INTER + INTRA:          -4.896
REMARK INTER:                  -4.762
REMARK INTRA:                  -0.134
REMARK UNBOUND:                -0.134
REMARK SMILES CC1=CCC(=C(C)C)C(=O)CC(C)=CCC1
REMARK SMILES IDX 12 1 14 2 13 3 15 4 16 5 2 6 1 7 3 8 11 10 9 11 10 12 5 13
REMARK SMILES IDX 6 14 7 15 8 16 4 17
REMARK H PARENT
REMARK Flexibility Score: 60.00
ROOT
ATOM      1  C   UNL     1       4.483  25.842  66.302  1.00  0.00    -0.070 C 
ATOM      2  C   UNL     1       5.263  25.270  65.355  1.00  0.00    -0.027 C 
ATOM      3  C   UNL     1       5.150  26.660  67.378  1.00  0.00     0.039 C 
ENDROOT
BRANCH   2   4
ATOM      4  C   UNL     1       4.789  24.321  64.281  1.00  0.00     0.032 C 
BRANCH   4   5
ATOM      5  C   UNL     1       4.277  24.988  62.996  1.00  0.00     0.034 C 
BRANCH   5   6
ATOM      6  C   UNL     1       2.944  24.453  62.512  1.00  0.00    -0.077 C 
ATOM      7  C   UNL     1       2.922  23.078  61.889  1.00  0.00     0.039 C 
ATOM      8  C   UNL     1       1.754  25.088  62.663  1.00  0.00    -0.023 CG0
ATOM      9  G   UNL     1       1.497  26.512  63.120  1.00  0.00     0.000 G0
ENDBRANCH   5   6
ENDBRANCH   4   5
ENDBRANCH   2   4
BRANCH   1  10
ATOM     10  C   UNL     1       2.972  25.772  66.289  1.00  0.00     0.111 C 
BRANCH  10  11
ATOM     11  C   UNL     1       2.382  26.910  65.496  1.00  0.00     0.163 C 
ATOM     12  O   UNL     1       2.907  28.052  65.584  1.00  0.00    -0.294 OA
BRANCH  11  13
ATOM     13  C   UNL     1       1.206  26.727  64.604  1.00  0.00    -0.002 C 
ATOM     14  C   UNL     1      -0.056  26.908  65.083  1.00  0.00    -0.069 C 
ATOM     15  C   UNL     1      -1.261  26.860  64.174  1.00  0.00     0.039 C 
ATOM     16  C   UNL     1      -0.292  27.142  66.558  1.00  0.00     0.039 C 
BRANCH  13  17
ATOM     17  C   UNL     1       1.490  26.512  63.129  1.00  0.00     0.066 CG0
ATOM     18  G   UNL     1       1.751  25.088  62.674  1.00  0.00     0.000 G0
ENDBRANCH  13  17
ENDBRANCH  11  13
ENDBRANCH  10  11
ENDBRANCH   1  10
TORSDOF 0
ENDMDL
MODEL 2
REMARK VINA RESULT:    -3.308      3.872      6.448
REMARK INTER + INTRA:          -4.797
REMARK INTER:                  -4.609
REMARK INTRA:                  -0.187
REMARK UNBOUND:                -0.134
REMARK SMILES CC1=CCC(=C(C)C)C(=O)CC(C)=CCC1
REMARK SMILES IDX 12 1 14 2 13 3 15 4 16 5 2 6 1 7 3 8 11 10 9 11 10 12 5 13
REMARK SMILES IDX 6 14 7 15 8 16 4 17
REMARK H PARENT
REMARK Flexibility Score: 60.00
ROOT
ATOM      1  C   UNL     1      -2.347  23.252  62.655  1.00  0.00    -0.070 C 
ATOM      2  C   UNL     1      -3.452  23.532  61.925  1.00  0.00    -0.027 C 
ATOM      3  C   UNL     1      -2.028  21.806  62.940  1.00  0.00     0.039 C 
ENDROOT
BRANCH   2   4
ATOM      4  C   UNL     1      -3.994  24.914  61.648  1.00  0.00     0.032 C 
BRANCH   4   5
ATOM      5  C   UNL     1      -3.653  25.487  60.264  1.00  0.00     0.034 C 
BRANCH   5   6
ATOM      6  C   UNL     1      -3.158  26.920  60.296  1.00  0.00    -0.077 C 
ATOM      7  C   UNL     1      -4.189  28.021  60.250  1.00  0.00     0.039 C 
ATOM      8  C   UNL     1      -1.859  27.287  60.436  1.00  0.00    -0.023 CG0
ATOM      9  G   UNL     1      -0.620  26.413  60.370  1.00  0.00     0.000 G0
ENDBRANCH   5   6
ENDBRANCH   4   5
ENDBRANCH   2   4
BRANCH   1  10
ATOM     10  C   UNL     1      -1.372  24.307  63.128  1.00  0.00     0.111 C 
BRANCH  10  11
ATOM     11  C   UNL     1      -0.311  24.571  62.091  1.00  0.00     0.163 C 
ATOM     12  O   UNL     1       0.302  23.594  61.582  1.00  0.00    -0.294 OA
BRANCH  11  13
ATOM     13  C   UNL     1       0.032  25.946  61.640  1.00  0.00    -0.002 C 
ATOM     14  C   UNL     1       0.987  26.666  62.291  1.00  0.00    -0.069 C 
ATOM     15  C   UNL     1       1.450  28.010  61.779  1.00  0.00     0.039 C 
ATOM     16  C   UNL     1       1.601  26.147  63.571  1.00  0.00     0.039 C 
BRANCH  13  17
ATOM     17  C   UNL     1      -0.596  26.419  60.342  1.00  0.00     0.066 CG0
ATOM     18  G   UNL     1      -1.843  27.277  60.447  1.00  0.00     0.000 G0
ENDBRANCH  13  17
ENDBRANCH  11  13
ENDBRANCH  10  11
ENDBRANCH   1  10
TORSDOF 0
ENDMDL
MODEL 3
REMARK VINA RESULT:    -3.221      3.639      5.925
REMARK INTER + INTRA:          -4.674
REMARK INTER:                  -4.627
REMARK INTRA:                  -0.047
REMARK UNBOUND:                -0.134
REMARK SMILES CC1=CCC(=C(C)C)C(=O)CC(C)=CCC1
REMARK SMILES IDX 12 1 14 2 13 3 15 4 16 5 2 6 1 7 3 8 11 10 9 11 10 12 5 13
REMARK SMILES IDX 6 14 7 15 8 16 4 17
REMARK H PARENT
REMARK Flexibility Score: 60.00
ROOT
ATOM      1  C   UNL     1       0.024  27.539  69.400  1.00  0.00    -0.070 C 
ATOM      2  C   UNL     1      -0.089  26.548  68.486  1.00  0.00    -0.027 C 
ATOM      3  C   UNL     1      -0.728  27.401  70.700  1.00  0.00     0.039 C 
ENDROOT
BRANCH   2   4
ATOM      4  C   UNL     1       0.486  26.571  67.090  1.00  0.00     0.032 C 
BRANCH   4   5
ATOM      5  C   UNL     1       1.978  26.220  66.989  1.00  0.00     0.034 C 
BRANCH   5   6
ATOM      6  C   UNL     1       2.798  27.232  66.213  1.00  0.00    -0.077 C 
ATOM      7  C   UNL     1       2.551  27.348  64.728  1.00  0.00     0.039 C 
ATOM      8  C   UNL     1       3.689  28.094  66.766  1.00  0.00    -0.023 CG0
ATOM      9  G   UNL     1       4.229  28.110  68.184  1.00  0.00     0.000 G0
ENDBRANCH   5   6
ENDBRANCH   4   5
ENDBRANCH   2   4
BRANCH   1  10
ATOM     10  C   UNL     1       0.930  28.738  69.222  1.00  0.00     0.111 C 
BRANCH  10  11
ATOM     11  C   UNL     1       2.292  28.483  69.815  1.00  0.00     0.163 C 
ATOM     12  O   UNL     1       2.381  27.787  70.863  1.00  0.00    -0.294 OA
BRANCH  11  13
ATOM     13  C   UNL     1       3.536  29.017  69.200  1.00  0.00    -0.002 C 
ATOM     14  C   UNL     1       4.081  30.181  69.649  1.00  0.00    -0.069 C 
ATOM     15  C   UNL     1       5.411  30.681  69.136  1.00  0.00     0.039 C 
ATOM     16  C   UNL     1       3.351  31.029  70.665  1.00  0.00     0.039 C 
BRANCH  13  17
ATOM     17  C   UNL     1       4.243  28.125  68.197  1.00  0.00     0.066 CG0
ATOM     18  G   UNL     1       3.690  28.096  66.784  1.00  0.00     0.000 G0
ENDBRANCH  13  17
ENDBRANCH  11  13
ENDBRANCH  10  11
ENDBRANCH   1  10
TORSDOF 0
ENDMDL
MODEL 4
REMARK VINA RESULT:    -3.178      1.557      3.385
REMARK INTER + INTRA:          -4.613
REMARK INTER:                  -4.449
REMARK INTRA:                  -0.164
REMARK UNBOUND:                -0.134
REMARK SMILES CC1=CCC(=C(C)C)C(=O)CC(C)=CCC1
REMARK SMILES IDX 12 1 14 2 13 3 15 4 16 5 2 6 1 7 3 8 11 10 9 11 10 12 5 13
REMARK SMILES IDX 6 14 7 15 8 16 4 17
REMARK H PARENT
REMARK Flexibility Score: 60.00
ROOT
ATOM      1  C   UNL     1       0.458  27.486  66.988  1.00  0.00    -0.070 C 
ATOM      2  C   UNL     1       1.713  27.401  67.488  1.00  0.00    -0.027 C 
ATOM      3  C   UNL     1      -0.438  28.590  67.491  1.00  0.00     0.039 C 
ENDROOT
BRANCH   2   4
ATOM      4  C   UNL     1       2.701  26.297  67.198  1.00  0.00     0.032 C 
BRANCH   4   5
ATOM      5  C   UNL     1       3.684  26.581  66.053  1.00  0.00     0.034 C 
BRANCH   5   6
ATOM      6  C   UNL     1       3.887  25.411  65.110  1.00  0.00    -0.077 C 
ATOM      7  C   UNL     1       4.825  24.311  65.544  1.00  0.00     0.039 C 
ATOM      8  C   UNL     1       3.230  25.243  63.934  1.00  0.00    -0.023 CG0
ATOM      9  G   UNL     1       2.351  26.234  63.195  1.00  0.00     0.000 G0
ENDBRANCH   5   6
ENDBRANCH   4   5
ENDBRANCH   2   4
BRANCH   1  10
ATOM     10  C   UNL     1      -0.065  26.585  65.891  1.00  0.00     0.111 C 
BRANCH  10  11
ATOM     11  C   UNL     1       0.345  27.089  64.531  1.00  0.00     0.163 C 
ATOM     12  O   UNL     1       0.268  28.324  64.290  1.00  0.00    -0.294 OA
BRANCH  11  13
ATOM     13  C   UNL     1       0.846  26.180  63.467  1.00  0.00    -0.002 C 
ATOM     14  C   UNL     1      -0.027  25.471  62.700  1.00  0.00    -0.069 C 
ATOM     15  C   UNL     1       0.443  24.642  61.528  1.00  0.00     0.039 C 
ATOM     16  C   UNL     1      -1.505  25.473  63.016  1.00  0.00     0.039 C 
BRANCH  13  17
ATOM     17  C   UNL     1       2.334  26.223  63.173  1.00  0.00     0.066 CG0
ATOM     18  G   UNL     1       3.221  25.261  63.940  1.00  0.00     0.000 G0
ENDBRANCH  13  17
ENDBRANCH  11  13
ENDBRANCH  10  11
ENDBRANCH   1  10
TORSDOF 0
ENDMDL
MODEL 5
REMARK VINA RESULT:    -3.158     10.840     12.276
REMARK INTER + INTRA:          -4.585
REMARK INTER:                  -4.450
REMARK INTRA:                  -0.135
REMARK UNBOUND:                -0.134
REMARK SMILES CC1=CCC(=C(C)C)C(=O)CC(C)=CCC1
REMARK SMILES IDX 12 1 14 2 13 3 15 4 16 5 2 6 1 7 3 8 11 10 9 11 10 12 5 13
REMARK SMILES IDX 6 14 7 15 8 16 4 17
REMARK H PARENT
REMARK Flexibility Score: 60.00
ROOT
ATOM      1  C   UNL     1      -6.652  30.405  72.923  1.00  0.00    -0.070 C 
ATOM      2  C   UNL     1      -5.893  31.503  73.151  1.00  0.00    -0.027 C 
ATOM      3  C   UNL     1      -7.609  29.963  74.001  1.00  0.00     0.039 C 
ENDROOT
BRANCH   2   4
ATOM      4  C   UNL     1      -4.799  32.017  72.247  1.00  0.00     0.032 C 
BRANCH   4   5
ATOM      5  C   UNL     1      -5.262  32.965  71.130  1.00  0.00     0.034 C 
BRANCH   5   6
ATOM      6  C   UNL     1      -4.693  32.633  69.764  1.00  0.00    -0.077 C 
ATOM      7  C   UNL     1      -3.236  32.939  69.516  1.00  0.00     0.039 C 
ATOM      8  C   UNL     1      -5.379  32.014  68.770  1.00  0.00    -0.023 CG0
ATOM      9  G   UNL     1      -6.866  31.720  68.692  1.00  0.00     0.000 G0
ENDBRANCH   5   6
ENDBRANCH   4   5
ENDBRANCH   2   4
BRANCH   1  10
ATOM     10  C   UNL     1      -6.650  29.648  71.613  1.00  0.00     0.111 C 
BRANCH  10  11
ATOM     11  C   UNL     1      -7.635  30.243  70.641  1.00  0.00     0.163 C 
ATOM     12  O   UNL     1      -8.742  30.665  71.073  1.00  0.00    -0.294 OA
BRANCH  11  13
ATOM     13  C   UNL     1      -7.343  30.359  69.188  1.00  0.00    -0.002 C 
ATOM     14  C   UNL     1      -7.640  29.334  68.342  1.00  0.00    -0.069 C 
ATOM     15  C   UNL     1      -7.477  29.470  66.846  1.00  0.00     0.039 C 
ATOM     16  C   UNL     1      -8.124  28.008  68.882  1.00  0.00     0.039 C 
BRANCH  13  17
ATOM     17  C   UNL     1      -6.874  31.713  68.687  1.00  0.00     0.066 CG0
ATOM     18  G   UNL     1      -5.387  32.003  68.760  1.00  0.00     0.000 G0
ENDBRANCH  13  17
ENDBRANCH  11  13
ENDBRANCH  10  11
ENDBRANCH   1  10
TORSDOF 0
ENDMDL
MODEL 6
REMARK VINA RESULT:    -3.147      7.230     10.085
REMARK INTER + INTRA:          -4.570
REMARK INTER:                  -4.419
REMARK INTRA:                  -0.151
REMARK UNBOUND:                -0.134
REMARK SMILES CC1=CCC(=C(C)C)C(=O)CC(C)=CCC1
REMARK SMILES IDX 12 1 14 2 13 3 15 4 16 5 2 6 1 7 3 8 11 10 9 11 10 12 5 13
REMARK SMILES IDX 6 14 7 15 8 16 4 17
REMARK H PARENT
REMARK Flexibility Score: 60.00
ROOT
ATOM      1  C   UNL     1      -7.789  27.096  63.309  1.00  0.00    -0.070 C 
ATOM      2  C   UNL     1      -6.806  27.822  62.727  1.00  0.00    -0.027 C 
ATOM      3  C   UNL     1      -9.124  27.757  63.540  1.00  0.00     0.039 C 
ENDROOT
BRANCH   2   4
ATOM      4  C   UNL     1      -5.379  27.371  62.533  1.00  0.00     0.032 C 
BRANCH   4   5
ATOM      5  C   UNL     1      -5.100  26.624  61.219  1.00  0.00     0.034 C 
BRANCH   5   6
ATOM      6  C   UNL     1      -4.307  25.344  61.394  1.00  0.00    -0.077 C 
ATOM      7  C   UNL     1      -2.828  25.465  61.668  1.00  0.00     0.039 C 
ATOM      8  C   UNL     1      -4.842  24.096  61.394  1.00  0.00    -0.023 CG0
ATOM      9  G   UNL     1      -6.249  23.674  61.013  1.00  0.00     0.000 G0
ENDBRANCH   5   6
ENDBRANCH   4   5
ENDBRANCH   2   4
BRANCH   1  10
ATOM     10  C   UNL     1      -7.645  25.632  63.663  1.00  0.00     0.111 C 
BRANCH  10  11
ATOM     11  C   UNL     1      -8.043  24.751  62.507  1.00  0.00     0.163 C 
ATOM     12  O   UNL     1      -9.058  25.060  61.826  1.00  0.00    -0.294 OA
BRANCH  11  13
ATOM     13  C   UNL     1      -7.274  23.534  62.137  1.00  0.00    -0.002 C 
ATOM     14  C   UNL     1      -7.589  22.327  62.684  1.00  0.00    -0.069 C 
ATOM     15  C   UNL     1      -6.914  21.054  62.231  1.00  0.00     0.039 C 
ATOM     16  C   UNL     1      -8.616  22.229  63.788  1.00  0.00     0.039 C 
BRANCH  13  17
ATOM     17  C   UNL     1      -6.265  23.676  61.012  1.00  0.00     0.066 CG0
ATOM     18  G   UNL     1      -4.856  24.090  61.393  1.00  0.00     0.000 G0
ENDBRANCH  13  17
ENDBRANCH  11  13
ENDBRANCH  10  11
ENDBRANCH   1  10
TORSDOF 0
ENDMDL
MODEL 7
REMARK VINA RESULT:    -3.111      4.041      6.026
REMARK INTER + INTRA:          -4.518
REMARK INTER:                  -4.428
REMARK INTRA:                  -0.090
REMARK UNBOUND:                -0.134
REMARK SMILES CC1=CCC(=C(C)C)C(=O)CC(C)=CCC1
REMARK SMILES IDX 12 1 14 2 13 3 15 4 16 5 2 6 1 7 3 8 11 10 9 11 10 12 5 13
REMARK SMILES IDX 6 14 7 15 8 16 4 17
REMARK H PARENT
REMARK Flexibility Score: 60.00
ROOT
ATOM      1  C   UNL     1       0.193  26.672  67.867  1.00  0.00    -0.070 C 
ATOM      2  C   UNL     1       0.843  26.610  66.681  1.00  0.00    -0.027 C 
ATOM      3  C   UNL     1      -0.465  25.418  68.387  1.00  0.00     0.039 C 
ENDROOT
BRANCH   2   4
ATOM      4  C   UNL     1       1.448  27.783  65.949  1.00  0.00     0.032 C 
BRANCH   4   5
ATOM      5  C   UNL     1       2.983  27.834  65.947  1.00  0.00     0.034 C 
BRANCH   5   6
ATOM      6  C   UNL     1       3.555  29.204  66.255  1.00  0.00    -0.077 C 
ATOM      7  C   UNL     1       3.890  30.104  65.090  1.00  0.00     0.039 C 
ATOM      8  C   UNL     1       3.722  29.710  67.503  1.00  0.00    -0.023 CG0
ATOM      9  G   UNL     1       3.603  28.993  68.835  1.00  0.00     0.000 G0
ENDBRANCH   5   6
ENDBRANCH   4   5
ENDBRANCH   2   4
BRANCH   1  10
ATOM     10  C   UNL     1       0.165  27.909  68.738  1.00  0.00     0.111 C 
BRANCH  10  11
ATOM     11  C   UNL     1       1.388  27.985  69.614  1.00  0.00     0.163 C 
ATOM     12  O   UNL     1       1.650  27.020  70.382  1.00  0.00    -0.294 OA
BRANCH  11  13
ATOM     13  C   UNL     1       2.302  29.157  69.597  1.00  0.00    -0.002 C 
ATOM     14  C   UNL     1       2.036  30.250  70.365  1.00  0.00    -0.069 C 
ATOM     15  C   UNL     1       3.010  31.399  70.470  1.00  0.00     0.039 C 
ATOM     16  C   UNL     1       0.732  30.357  71.123  1.00  0.00     0.039 C 
BRANCH  13  17
ATOM     17  C   UNL     1       3.607  28.999  68.838  1.00  0.00     0.066 CG0
ATOM     18  G   UNL     1       3.720  29.706  67.500  1.00  0.00     0.000 G0
ENDBRANCH  13  17
ENDBRANCH  11  13
ENDBRANCH  10  11
ENDBRANCH   1  10
TORSDOF 0
ENDMDL
MODEL 8
REMARK VINA RESULT:    -3.073      1.752      4.362
REMARK INTER + INTRA:          -4.465
REMARK INTER:                  -4.683
REMARK INTRA:                   0.218
REMARK UNBOUND:                -0.134
REMARK SMILES CC1=CCC(=C(C)C)C(=O)CC(C)=CCC1
REMARK SMILES IDX 12 1 14 2 13 3 15 4 16 5 2 6 1 7 3 8 11 10 9 11 10 12 5 13
REMARK SMILES IDX 6 14 7 15 8 16 4 17
REMARK H PARENT
REMARK Flexibility Score: 60.00
ROOT
ATOM      1  C   UNL     1      -1.737  26.101  62.957  1.00  0.00    -0.070 C 
ATOM      2  C   UNL     1      -1.929  25.226  61.943  1.00  0.00    -0.027 C 
ATOM      3  C   UNL     1      -2.621  27.321  63.025  1.00  0.00     0.039 C 
ENDROOT
BRANCH   2   4
ATOM      4  C   UNL     1      -1.065  24.025  61.644  1.00  0.00     0.032 C 
BRANCH   4   5
ATOM      5  C   UNL     1       0.270  24.333  60.949  1.00  0.00     0.034 C 
BRANCH   5   6
ATOM      6  C   UNL     1       1.481  23.761  61.660  1.00  0.00    -0.077 C 
ATOM      7  C   UNL     1       1.690  22.267  61.602  1.00  0.00     0.039 C 
ATOM      8  C   UNL     1       2.433  24.500  62.284  1.00  0.00    -0.023 CG0
ATOM      9  G   UNL     1       2.412  25.982  62.610  1.00  0.00     0.000 G0
ENDBRANCH   5   6
ENDBRANCH   4   5
ENDBRANCH   2   4
BRANCH   1  10
ATOM     10  C   UNL     1      -0.740  25.877  64.073  1.00  0.00     0.111 C 
BRANCH  10  11
ATOM     11  C   UNL     1       0.415  26.839  63.972  1.00  0.00     0.163 C 
ATOM     12  O   UNL     1       0.176  28.074  63.896  1.00  0.00    -0.294 OA
BRANCH  11  13
ATOM     13  C   UNL     1       1.829  26.380  63.967  1.00  0.00    -0.002 C 
ATOM     14  C   UNL     1       2.494  26.187  65.139  1.00  0.00    -0.069 C 
ATOM     15  C   UNL     1       3.885  25.598  65.172  1.00  0.00     0.039 C 
ATOM     16  C   UNL     1       1.864  26.584  66.455  1.00  0.00     0.039 C 
BRANCH  13  17
ATOM     17  C   UNL     1       2.416  25.978  62.627  1.00  0.00     0.066 CG0
ATOM     18  G   UNL     1       2.421  24.498  62.288  1.00  0.00     0.000 G0
ENDBRANCH  13  17
ENDBRANCH  11  13
ENDBRANCH  10  11
ENDBRANCH   1  10
TORSDOF 0
ENDMDL
MODEL 9
REMARK VINA RESULT:    -3.030      3.872      6.772
REMARK INTER + INTRA:          -4.405
REMARK INTER:                  -4.282
REMARK INTRA:                  -0.123
REMARK UNBOUND:                -0.134
REMARK SMILES CC1=CCC(=C(C)C)C(=O)CC(C)=CCC1
REMARK SMILES IDX 12 1 14 2 13 3 15 4 16 5 2 6 1 7 3 8 11 10 9 11 10 12 5 13
REMARK SMILES IDX 6 14 7 15 8 16 4 17
REMARK H PARENT
REMARK Flexibility Score: 60.00
ROOT
ATOM      1  C   UNL     1       0.416  26.556  69.206  1.00  0.00    -0.070 C 
ATOM      2  C   UNL     1      -0.063  27.564  69.971  1.00  0.00    -0.027 C 
ATOM      3  C   UNL     1      -0.556  25.519  68.702  1.00  0.00     0.039 C 
ENDROOT
BRANCH   2   4
ATOM      4  C   UNL     1       0.772  28.615  70.663  1.00  0.00     0.032 C 
BRANCH   4   5
ATOM      5  C   UNL     1       0.856  29.967  69.939  1.00  0.00     0.034 C 
BRANCH   5   6
ATOM      6  C   UNL     1       2.271  30.481  69.755  1.00  0.00    -0.077 C 
ATOM      7  C   UNL     1       2.881  31.280  70.880  1.00  0.00     0.039 C 
ATOM      8  C   UNL     1       3.057  30.214  68.681  1.00  0.00    -0.023 CG0
ATOM      9  G   UNL     1       2.668  29.565  67.366  1.00  0.00     0.000 G0
ENDBRANCH   5   6
ENDBRANCH   4   5
ENDBRANCH   2   4
BRANCH   1  10
ATOM     10  C   UNL     1       1.859  26.461  68.760  1.00  0.00     0.111 C 
BRANCH  10  11
ATOM     11  C   UNL     1       2.050  27.086  67.403  1.00  0.00     0.163 C 
ATOM     12  O   UNL     1       1.300  26.729  66.454  1.00  0.00    -0.294 OA
BRANCH  11  13
ATOM     13  C   UNL     1       3.089  28.119  67.146  1.00  0.00    -0.002 C 
ATOM     14  C   UNL     1       4.287  27.769  66.601  1.00  0.00    -0.069 C 
ATOM     15  C   UNL     1       5.310  28.809  66.207  1.00  0.00     0.039 C 
ATOM     16  C   UNL     1       4.642  26.315  66.394  1.00  0.00     0.039 C 
BRANCH  13  17
ATOM     17  C   UNL     1       2.683  29.566  67.351  1.00  0.00     0.066 CG0
ATOM     18  G   UNL     1       3.059  30.211  68.672  1.00  0.00     0.000 G0
ENDBRANCH  13  17
ENDBRANCH  11  13
ENDBRANCH  10  11
ENDBRANCH   1  10
TORSDOF 0
ENDMDL
