MODEL 1
REMARK VINA RESULT:     4.877      0.000      0.000
REMARK INTER + INTRA:           5.145
REMARK INTER:                   5.162
REMARK INTRA:                  -0.017
REMARK UNBOUND:                -0.017
REMARK SMILES O=C([O-])c1cccnc1
REMARK SMILES IDX 4 1 5 2 9 3 6 4 8 5 7 6 2 7 1 8 3 9
REMARK H PARENT
REMARK Flexibility Score: inf
ROOT
ATOM      1  C   UNL     1       5.634   5.945  -3.083  1.00  0.00     0.016 A 
ATOM      2  C   UNL     1       4.279   6.266  -2.896  1.00  0.00     0.013 A 
ATOM      3  C   UNL     1       6.604   6.773  -2.493  1.00  0.00     0.120 A 
ATOM      4  C   UNL     1       3.922   7.384  -2.140  1.00  0.00     0.021 A 
ATOM      5  N   UNL     1       6.229   7.856  -1.761  1.00  0.00    -0.264 NA
ATOM      6  C   UNL     1       4.921   8.175  -1.574  1.00  0.00     0.111 A 
ENDROOT
BRANCH   1   7
ATOM      7  C   UNL     1       6.025   4.764  -3.882  1.00  0.00     0.073 C 
ATOM      8  O   UNL     1       5.757   4.704  -5.111  1.00  0.00    -0.545 OA
ATOM      9  O   UNL     1       6.695   3.701  -3.286  1.00  0.00    -0.545 OA
ENDBRANCH   1   7
TORSDOF 1
ENDMDL
MODEL 2
REMARK VINA RESULT:     4.971      0.973      1.611
REMARK INTER + INTRA:           5.244
REMARK INTER:                   5.262
REMARK INTRA:                  -0.018
REMARK UNBOUND:                -0.017
REMARK SMILES O=C([O-])c1cccnc1
REMARK SMILES IDX 4 1 5 2 9 3 6 4 8 5 7 6 2 7 1 8 3 9
REMARK H PARENT
REMARK Flexibility Score: inf
ROOT
ATOM      1  C   UNL     1       5.568   5.865  -3.175  1.00  0.00     0.016 A 
ATOM      2  C   UNL     1       6.461   6.700  -2.483  1.00  0.00     0.013 A 
ATOM      3  C   UNL     1       4.194   6.155  -3.107  1.00  0.00     0.120 A 
ATOM      4  C   UNL     1       5.980   7.786  -1.750  1.00  0.00     0.021 A 
ATOM      5  N   UNL     1       3.752   7.219  -2.386  1.00  0.00    -0.264 NA
ATOM      6  C   UNL     1       4.608   8.033  -1.713  1.00  0.00     0.111 A 
ENDROOT
BRANCH   1   7
ATOM      7  C   UNL     1       6.065   4.712  -3.955  1.00  0.00     0.073 C 
ATOM      8  O   UNL     1       5.869   4.645  -5.198  1.00  0.00    -0.545 OA
ATOM      9  O   UNL     1       6.756   3.682  -3.327  1.00  0.00    -0.545 OA
ENDBRANCH   1   7
TORSDOF 1
ENDMDL
MODEL 3
REMARK VINA RESULT:     6.921      5.574      6.224
REMARK INTER + INTRA:           7.308
REMARK INTER:                   7.324
REMARK INTRA:                  -0.016
REMARK UNBOUND:                -0.017
REMARK SMILES O=C([O-])c1cccnc1
REMARK SMILES IDX 4 1 5 2 9 3 6 4 8 5 7 6 2 7 1 8 3 9
REMARK H PARENT
REMARK Flexibility Score: inf
ROOT
ATOM      1  C   UNL     1       0.952   8.519  -5.906  1.00  0.00     0.016 A 
ATOM      2  C   UNL     1       0.224   9.619  -5.423  1.00  0.00     0.013 A 
ATOM      3  C   UNL     1       1.206   7.449  -5.031  1.00  0.00     0.120 A 
ATOM      4  C   UNL     1      -0.228   9.634  -4.102  1.00  0.00     0.021 A 
ATOM      5  N   UNL     1       0.754   7.488  -3.749  1.00  0.00    -0.264 NA
ATOM      6  C   UNL     1       0.049   8.548  -3.272  1.00  0.00     0.111 A 
ENDROOT
BRANCH   1   7
ATOM      7  C   UNL     1       1.437   8.491  -7.303  1.00  0.00     0.073 C 
ATOM      8  O   UNL     1       0.690   8.088  -8.233  1.00  0.00    -0.545 OA
ATOM      9  O   UNL     1       2.727   8.909  -7.608  1.00  0.00    -0.545 OA
ENDBRANCH   1   7
TORSDOF 1
ENDMDL
MODEL 4
REMARK VINA RESULT:     7.736      6.070      6.852
REMARK INTER + INTRA:           8.171
REMARK INTER:                   8.188
REMARK INTRA:                  -0.017
REMARK UNBOUND:                -0.017
REMARK SMILES O=C([O-])c1cccnc1
REMARK SMILES IDX 4 1 5 2 9 3 6 4 8 5 7 6 2 7 1 8 3 9
REMARK H PARENT
REMARK Flexibility Score: inf
ROOT
ATOM      1  C   UNL     1       0.983   8.474  -5.868  1.00  0.00     0.016 A 
ATOM      2  C   UNL     1      -0.022   8.277  -6.829  1.00  0.00     0.013 A 
ATOM      3  C   UNL     1       2.285   8.763  -6.312  1.00  0.00     0.120 A 
ATOM      4  C   UNL     1       0.280   8.371  -8.189  1.00  0.00     0.021 A 
ATOM      5  N   UNL     1       2.553   8.849  -7.642  1.00  0.00    -0.264 NA
ATOM      6  C   UNL     1       1.587   8.661  -8.580  1.00  0.00     0.111 A 
ENDROOT
BRANCH   1   7
ATOM      7  C   UNL     1       0.676   8.377  -4.424  1.00  0.00     0.073 C 
ATOM      8  O   UNL     1       1.172   7.456  -3.723  1.00  0.00    -0.545 OA
ATOM      9  O   UNL     1      -0.167   9.304  -3.821  1.00  0.00    -0.545 OA
ENDBRANCH   1   7
TORSDOF 1
ENDMDL
