MODEL 1
REMARK VINA RESULT:    -6.538      0.000      0.000
REMARK INTER + INTRA:          -7.910
REMARK INTER:                  -7.684
REMARK INTRA:                  -0.226
REMARK UNBOUND:                -0.226
REMARK SMILES O=c1c(O)c(-c2ccc(O)cc2)oc2cc(O)cc(O)c12
REMARK SMILES IDX 5 1 3 2 2 3 1 4 21 5 19 6 18 7 16 8 15 9 14 10 13 11 6 12
REMARK SMILES IDX 7 13 8 14 9 15 12 16 11 17 10 18 4 20 20 22 17 24
REMARK H PARENT 10 19 4 21 20 23 17 25
REMARK Flexibility Score: inf
ROOT
ATOM      1  C   UNL     1      12.985  -8.543   2.142  1.00  0.00     0.180 A 
ATOM      2  C   UNL     1      13.828  -7.806   2.991  1.00  0.00     0.208 A 
ATOM      3  C   UNL     1      14.162  -6.488   2.644  1.00  0.00     0.238 A 
ATOM      4  O   UNL     1      14.978  -5.861   3.369  1.00  0.00    -0.285 OA
ATOM      5  C   UNL     1      13.606  -5.902   1.481  1.00  0.00     0.111 A 
ATOM      6  C   UNL     1      13.839  -4.560   1.056  1.00  0.00     0.134 A 
ATOM      7  C   UNL     1      13.319  -4.121  -0.168  1.00  0.00     0.093 A 
ATOM      8  C   UNL     1      12.522  -4.955  -0.952  1.00  0.00     0.123 A 
ATOM      9  C   UNL     1      12.241  -6.252  -0.519  1.00  0.00     0.094 A 
ATOM     10  C   UNL     1      12.777  -6.730   0.679  1.00  0.00     0.146 A 
ATOM     11  O   UNL     1      12.503  -7.977   1.041  1.00  0.00    -0.452 OA
ENDROOT
BRANCH   1  12
ATOM     12  C   UNL     1      12.599  -9.942   2.434  1.00  0.00     0.021 A 
ATOM     13  C   UNL     1      13.133 -11.019   1.703  1.00  0.00     0.016 A 
ATOM     14  C   UNL     1      12.734 -12.330   1.980  1.00  0.00     0.047 A 
ATOM     15  C   UNL     1      11.786 -12.580   2.982  1.00  0.00     0.115 A 
ATOM     16  C   UNL     1      11.634 -10.201   3.421  1.00  0.00     0.016 A 
ATOM     17  C   UNL     1      11.236 -11.512   3.697  1.00  0.00     0.047 A 
BRANCH  15  18
ATOM     18  O   UNL     1      11.382 -13.882   3.267  1.00  0.00    -0.508 OA
ATOM     19  H   UNL     1      10.408 -14.109   3.431  1.00  0.00     0.293 HD
ENDBRANCH  15  18
ENDBRANCH   1  12
BRANCH   2  20
ATOM     20  O   UNL     1      14.307  -8.377   4.175  1.00  0.00    -0.502 OA
ATOM     21  H   UNL     1      15.267  -8.273   4.478  1.00  0.00     0.293 HD
ENDBRANCH   2  20
BRANCH   6  22
ATOM     22  O   UNL     1      14.548  -3.613   1.804  1.00  0.00    -0.507 OA
ATOM     23  H   UNL     1      15.358  -3.109   1.478  1.00  0.00     0.293 HD
ENDBRANCH   6  22
BRANCH   8  24
ATOM     24  O   UNL     1      12.007  -4.480  -2.156  1.00  0.00    -0.508 OA
ATOM     25  H   UNL     1      11.308  -5.000  -2.674  1.00  0.00     0.293 HD
ENDBRANCH   8  24
TORSDOF 5
ENDMDL
MODEL 2
REMARK VINA RESULT:    -6.240      1.857      6.619
REMARK INTER + INTRA:          -7.560
REMARK INTER:                  -7.479
REMARK INTRA:                  -0.080
REMARK UNBOUND:                -0.226
REMARK SMILES O=c1c(O)c(-c2ccc(O)cc2)oc2cc(O)cc(O)c12
REMARK SMILES IDX 5 1 3 2 2 3 1 4 21 5 19 6 18 7 16 8 15 9 14 10 13 11 6 12
REMARK SMILES IDX 7 13 8 14 9 15 12 16 11 17 10 18 4 20 20 22 17 24
REMARK H PARENT 10 19 4 21 20 23 17 25
REMARK Flexibility Score: inf
ROOT
ATOM      1  C   UNL     1      12.950  -7.782   1.216  1.00  0.00     0.180 A 
ATOM      2  C   UNL     1      12.401  -8.134   2.461  1.00  0.00     0.208 A 
ATOM      3  C   UNL     1      12.392  -9.484   2.844  1.00  0.00     0.238 A 
ATOM      4  O   UNL     1      11.831  -9.801   3.926  1.00  0.00    -0.285 OA
ATOM      5  C   UNL     1      12.981 -10.460   2.005  1.00  0.00     0.111 A 
ATOM      6  C   UNL     1      13.069 -11.851   2.312  1.00  0.00     0.134 A 
ATOM      7  C   UNL     1      13.579 -12.740   1.358  1.00  0.00     0.093 A 
ATOM      8  C   UNL     1      14.065 -12.281   0.133  1.00  0.00     0.123 A 
ATOM      9  C   UNL     1      14.035 -10.916  -0.156  1.00  0.00     0.094 A 
ATOM     10  C   UNL     1      13.496 -10.010   0.761  1.00  0.00     0.146 A 
ATOM     11  O   UNL     1      13.467  -8.723   0.436  1.00  0.00    -0.452 OA
ENDROOT
BRANCH   1  12
ATOM     12  C   UNL     1      12.984  -6.382   0.737  1.00  0.00     0.021 A 
ATOM     13  C   UNL     1      12.350  -6.000  -0.460  1.00  0.00     0.016 A 
ATOM     14  C   UNL     1      12.418  -4.676  -0.905  1.00  0.00     0.047 A 
ATOM     15  C   UNL     1      13.129  -3.721  -0.167  1.00  0.00     0.115 A 
ATOM     16  C   UNL     1      13.712  -5.422   1.459  1.00  0.00     0.016 A 
ATOM     17  C   UNL     1      13.778  -4.098   1.012  1.00  0.00     0.047 A 
BRANCH  15  18
ATOM     18  O   UNL     1      13.202  -2.399  -0.600  1.00  0.00    -0.508 OA
ATOM     19  H   UNL     1      13.280  -2.168  -1.584  1.00  0.00     0.293 HD
ENDBRANCH  15  18
ENDBRANCH   1  12
BRANCH   2  20
ATOM     20  O   UNL     1      11.892  -7.146   3.311  1.00  0.00    -0.502 OA
ATOM     21  H   UNL     1      12.482  -6.454   3.754  1.00  0.00     0.293 HD
ENDBRANCH   2  20
BRANCH   6  22
ATOM     22  O   UNL     1      12.695 -12.407   3.540  1.00  0.00    -0.507 OA
ATOM     23  H   UNL     1      12.548 -13.390   3.709  1.00  0.00     0.293 HD
ENDBRANCH   6  22
BRANCH   8  24
ATOM     24  O   UNL     1      14.582 -13.191  -0.786  1.00  0.00    -0.508 OA
ATOM     25  H   UNL     1      13.999 -13.904  -1.209  1.00  0.00     0.293 HD
ENDBRANCH   8  24
TORSDOF 5
ENDMDL
MODEL 3
REMARK VINA RESULT:    -6.097      1.631      6.943
REMARK INTER + INTRA:          -7.392
REMARK INTER:                  -7.116
REMARK INTRA:                  -0.276
REMARK UNBOUND:                -0.226
REMARK SMILES O=c1c(O)c(-c2ccc(O)cc2)oc2cc(O)cc(O)c12
REMARK SMILES IDX 5 1 3 2 2 3 1 4 21 5 19 6 18 7 16 8 15 9 14 10 13 11 6 12
REMARK SMILES IDX 7 13 8 14 9 15 12 16 11 17 10 18 4 20 20 22 17 24
REMARK H PARENT 10 19 4 21 20 23 17 25
REMARK Flexibility Score: inf
ROOT
ATOM      1  C   UNL     1      13.134  -8.427   1.317  1.00  0.00     0.180 A 
ATOM      2  C   UNL     1      13.882  -9.383   0.609  1.00  0.00     0.208 A 
ATOM      3  C   UNL     1      13.774 -10.736   0.968  1.00  0.00     0.238 A 
ATOM      4  O   UNL     1      14.504 -11.577   0.381  1.00  0.00    -0.285 OA
ATOM      5  C   UNL     1      12.876 -11.124   1.992  1.00  0.00     0.111 A 
ATOM      6  C   UNL     1      12.651 -12.471   2.409  1.00  0.00     0.134 A 
ATOM      7  C   UNL     1      11.818 -12.726   3.505  1.00  0.00     0.093 A 
ATOM      8  C   UNL     1      11.151 -11.690   4.160  1.00  0.00     0.123 A 
ATOM      9  C   UNL     1      11.320 -10.375   3.726  1.00  0.00     0.094 A 
ATOM     10  C   UNL     1      12.175 -10.085   2.660  1.00  0.00     0.146 A 
ATOM     11  O   UNL     1      12.324  -8.818   2.294  1.00  0.00    -0.452 OA
ENDROOT
BRANCH   1  12
ATOM     12  C   UNL     1      13.206  -6.982   1.006  1.00  0.00     0.021 A 
ATOM     13  C   UNL     1      12.446  -6.416  -0.034  1.00  0.00     0.016 A 
ATOM     14  C   UNL     1      12.551  -5.052  -0.326  1.00  0.00     0.047 A 
ATOM     15  C   UNL     1      13.424  -4.240   0.409  1.00  0.00     0.115 A 
ATOM     16  C   UNL     1      14.095  -6.164   1.724  1.00  0.00     0.016 A 
ATOM     17  C   UNL     1      14.197  -4.801   1.430  1.00  0.00     0.047 A 
BRANCH  15  18
ATOM     18  O   UNL     1      13.536  -2.880   0.129  1.00  0.00    -0.508 OA
ATOM     19  H   UNL     1      14.079  -2.261   0.719  1.00  0.00     0.293 HD
ENDBRANCH  15  18
ENDBRANCH   1  12
BRANCH   2  20
ATOM     20  O   UNL     1      14.706  -8.989  -0.450  1.00  0.00    -0.502 OA
ATOM     21  H   UNL     1      14.385  -8.377  -1.190  1.00  0.00     0.293 HD
ENDBRANCH   2  20
BRANCH   6  22
ATOM     22  O   UNL     1      13.197 -13.590   1.771  1.00  0.00    -0.507 OA
ATOM     23  H   UNL     1      14.161 -13.878   1.834  1.00  0.00     0.293 HD
ENDBRANCH   6  22
BRANCH   8  24
ATOM     24  O   UNL     1      10.316 -11.982   5.236  1.00  0.00    -0.508 OA
ATOM     25  H   UNL     1      10.603 -12.618   5.971  1.00  0.00     0.293 HD
ENDBRANCH   8  24
TORSDOF 5
ENDMDL
MODEL 4
REMARK VINA RESULT:    -5.963     12.936     14.221
REMARK INTER + INTRA:          -7.235
REMARK INTER:                  -7.032
REMARK INTRA:                  -0.202
REMARK UNBOUND:                -0.226
REMARK SMILES O=c1c(O)c(-c2ccc(O)cc2)oc2cc(O)cc(O)c12
REMARK SMILES IDX 5 1 3 2 2 3 1 4 21 5 19 6 18 7 16 8 15 9 14 10 13 11 6 12
REMARK SMILES IDX 7 13 8 14 9 15 12 16 11 17 10 18 4 20 20 22 17 24
REMARK H PARENT 10 19 4 21 20 23 17 25
REMARK Flexibility Score: inf
ROOT
ATOM      1  C   UNL     1      22.427 -12.628  -6.066  1.00  0.00     0.180 A 
ATOM      2  C   UNL     1      22.839 -11.850  -7.161  1.00  0.00     0.208 A 
ATOM      3  C   UNL     1      22.344 -12.154  -8.439  1.00  0.00     0.238 A 
ATOM      4  O   UNL     1      22.776 -11.502  -9.425  1.00  0.00    -0.285 OA
ATOM      5  C   UNL     1      21.400 -13.197  -8.599  1.00  0.00     0.111 A 
ATOM      6  C   UNL     1      20.797 -13.564  -9.840  1.00  0.00     0.134 A 
ATOM      7  C   UNL     1      19.955 -14.682  -9.896  1.00  0.00     0.093 A 
ATOM      8  C   UNL     1      19.643 -15.407  -8.746  1.00  0.00     0.123 A 
ATOM      9  C   UNL     1      20.183 -15.024  -7.518  1.00  0.00     0.094 A 
ATOM     10  C   UNL     1      21.056 -13.937  -7.437  1.00  0.00     0.146 A 
ATOM     11  O   UNL     1      21.565 -13.621  -6.252  1.00  0.00    -0.452 OA
ENDROOT
BRANCH   1  12
ATOM     12  C   UNL     1      22.916 -12.377  -4.692  1.00  0.00     0.021 A 
ATOM     13  C   UNL     1      24.249 -12.643  -4.326  1.00  0.00     0.016 A 
ATOM     14  C   UNL     1      24.681 -12.422  -3.015  1.00  0.00     0.047 A 
ATOM     15  C   UNL     1      23.784 -11.945  -2.050  1.00  0.00     0.115 A 
ATOM     16  C   UNL     1      22.019 -11.920  -3.712  1.00  0.00     0.016 A 
ATOM     17  C   UNL     1      22.454 -11.699  -2.401  1.00  0.00     0.047 A 
BRANCH  15  18
ATOM     18  O   UNL     1      24.204 -11.720  -0.740  1.00  0.00    -0.508 OA
ATOM     19  H   UNL     1      23.653 -11.165  -0.097  1.00  0.00     0.293 HD
ENDBRANCH  15  18
ENDBRANCH   1  12
BRANCH   2  20
ATOM     20  O   UNL     1      23.714 -10.775  -6.971  1.00  0.00    -0.502 OA
ATOM     21  H   UNL     1      24.698 -10.829  -7.201  1.00  0.00     0.293 HD
ENDBRANCH   2  20
BRANCH   6  22
ATOM     22  O   UNL     1      20.969 -12.856 -11.034  1.00  0.00    -0.507 OA
ATOM     23  H   UNL     1      20.339 -12.889 -11.821  1.00  0.00     0.293 HD
ENDBRANCH   6  22
BRANCH   8  24
ATOM     24  O   UNL     1      18.788 -16.504  -8.836  1.00  0.00    -0.508 OA
ATOM     25  H   UNL     1      18.855 -17.166  -9.600  1.00  0.00     0.293 HD
ENDBRANCH   8  24
TORSDOF 5
ENDMDL
MODEL 5
REMARK VINA RESULT:    -5.883      2.476      6.437
REMARK INTER + INTRA:          -7.141
REMARK INTER:                  -6.853
REMARK INTRA:                  -0.288
REMARK UNBOUND:                -0.226
REMARK SMILES O=c1c(O)c(-c2ccc(O)cc2)oc2cc(O)cc(O)c12
REMARK SMILES IDX 5 1 3 2 2 3 1 4 21 5 19 6 18 7 16 8 15 9 14 10 13 11 6 12
REMARK SMILES IDX 7 13 8 14 9 15 12 16 11 17 10 18 4 20 20 22 17 24
REMARK H PARENT 10 19 4 21 20 23 17 25
REMARK Flexibility Score: inf
ROOT
ATOM      1  C   UNL     1      12.436  -7.603   2.192  1.00  0.00     0.180 A 
ATOM      2  C   UNL     1      13.410  -7.608   1.179  1.00  0.00     0.208 A 
ATOM      3  C   UNL     1      13.895  -8.837   0.706  1.00  0.00     0.238 A 
ATOM      4  O   UNL     1      14.822  -8.832  -0.147  1.00  0.00    -0.285 OA
ATOM      5  C   UNL     1      13.361 -10.048   1.210  1.00  0.00     0.111 A 
ATOM      6  C   UNL     1      13.745 -11.350   0.771  1.00  0.00     0.134 A 
ATOM      7  C   UNL     1      13.225 -12.479   1.417  1.00  0.00     0.093 A 
ATOM      8  C   UNL     1      12.286 -12.354   2.441  1.00  0.00     0.123 A 
ATOM      9  C   UNL     1      11.862 -11.086   2.841  1.00  0.00     0.094 A 
ATOM     10  C   UNL     1      12.392  -9.941   2.242  1.00  0.00     0.146 A 
ATOM     11  O   UNL     1      11.977  -8.754   2.668  1.00  0.00    -0.452 OA
ENDROOT
BRANCH   1  12
ATOM     12  C   UNL     1      11.887  -6.347   2.751  1.00  0.00     0.021 A 
ATOM     13  C   UNL     1      10.785  -5.701   2.162  1.00  0.00     0.016 A 
ATOM     14  C   UNL     1      10.301  -4.502   2.694  1.00  0.00     0.047 A 
ATOM     15  C   UNL     1      10.918  -3.928   3.813  1.00  0.00     0.115 A 
ATOM     16  C   UNL     1      12.513  -5.753   3.860  1.00  0.00     0.016 A 
ATOM     17  C   UNL     1      12.026  -4.554   4.390  1.00  0.00     0.047 A 
BRANCH  15  18
ATOM     18  O   UNL     1      10.443  -2.734   4.352  1.00  0.00    -0.508 OA
ATOM     19  H   UNL     1      10.062  -2.692   5.289  1.00  0.00     0.293 HD
ENDBRANCH  15  18
ENDBRANCH   1  12
BRANCH   2  20
ATOM     20  O   UNL     1      13.872  -6.402   0.640  1.00  0.00    -0.502 OA
ATOM     21  H   UNL     1      13.319  -5.555   0.652  1.00  0.00     0.293 HD
ENDBRANCH   2  20
BRANCH   6  22
ATOM     22  O   UNL     1      14.608 -11.593  -0.302  1.00  0.00    -0.507 OA
ATOM     23  H   UNL     1      14.315 -11.821  -1.240  1.00  0.00     0.293 HD
ENDBRANCH   6  22
BRANCH   8  24
ATOM     24  O   UNL     1      11.776 -13.499   3.050  1.00  0.00    -0.508 OA
ATOM     25  H   UNL     1      10.826 -13.808   2.883  1.00  0.00     0.293 HD
ENDBRANCH   8  24
TORSDOF 5
ENDMDL
MODEL 6
REMARK VINA RESULT:    -5.833      1.866      1.993
REMARK INTER + INTRA:          -7.082
REMARK INTER:                  -6.997
REMARK INTRA:                  -0.085
REMARK UNBOUND:                -0.226
REMARK SMILES O=c1c(O)c(-c2ccc(O)cc2)oc2cc(O)cc(O)c12
REMARK SMILES IDX 5 1 3 2 2 3 1 4 21 5 19 6 18 7 16 8 15 9 14 10 13 11 6 12
REMARK SMILES IDX 7 13 8 14 9 15 12 16 11 17 10 18 4 20 20 22 17 24
REMARK H PARENT 10 19 4 21 20 23 17 25
REMARK Flexibility Score: inf
ROOT
ATOM      1  C   UNL     1      12.676  -9.196   2.356  1.00  0.00     0.180 A 
ATOM      2  C   UNL     1      13.915  -8.944   1.741  1.00  0.00     0.208 A 
ATOM      3  C   UNL     1      14.160  -7.673   1.198  1.00  0.00     0.238 A 
ATOM      4  O   UNL     1      15.241  -7.478   0.583  1.00  0.00    -0.285 OA
ATOM      5  C   UNL     1      13.187  -6.652   1.323  1.00  0.00     0.111 A 
ATOM      6  C   UNL     1      13.346  -5.315   0.850  1.00  0.00     0.134 A 
ATOM      7  C   UNL     1      12.274  -4.418   0.936  1.00  0.00     0.093 A 
ATOM      8  C   UNL     1      11.071  -4.790   1.536  1.00  0.00     0.123 A 
ATOM      9  C   UNL     1      10.923  -6.078   2.052  1.00  0.00     0.094 A 
ATOM     10  C   UNL     1      11.962  -7.006   1.946  1.00  0.00     0.146 A 
ATOM     11  O   UNL     1      11.771  -8.227   2.430  1.00  0.00    -0.452 OA
ENDROOT
BRANCH   1  12
ATOM     12  C   UNL     1      12.339 -10.513   2.939  1.00  0.00     0.021 A 
ATOM     13  C   UNL     1      12.357 -11.687   2.162  1.00  0.00     0.016 A 
ATOM     14  C   UNL     1      12.010 -12.916   2.730  1.00  0.00     0.047 A 
ATOM     15  C   UNL     1      11.628 -12.987   4.076  1.00  0.00     0.115 A 
ATOM     16  C   UNL     1      11.934 -10.591   4.282  1.00  0.00     0.016 A 
ATOM     17  C   UNL     1      11.587 -11.822   4.847  1.00  0.00     0.047 A 
BRANCH  15  18
ATOM     18  O   UNL     1      11.281 -14.207   4.652  1.00  0.00    -0.508 OA
ATOM     19  H   UNL     1      10.542 -14.275   5.342  1.00  0.00     0.293 HD
ENDBRANCH  15  18
ENDBRANCH   1  12
BRANCH   2  20
ATOM     20  O   UNL     1      14.893  -9.942   1.694  1.00  0.00    -0.502 OA
ATOM     21  H   UNL     1      14.996 -10.638   2.422  1.00  0.00     0.293 HD
ENDBRANCH   2  20
BRANCH   6  22
ATOM     22  O   UNL     1      14.536  -4.810   0.314  1.00  0.00    -0.507 OA
ATOM     23  H   UNL     1      14.595  -4.197  -0.485  1.00  0.00     0.293 HD
ENDBRANCH   6  22
BRANCH   8  24
ATOM     24  O   UNL     1      10.031  -3.867   1.620  1.00  0.00    -0.508 OA
ATOM     25  H   UNL     1       9.494  -3.751   2.471  1.00  0.00     0.293 HD
ENDBRANCH   8  24
TORSDOF 5
ENDMDL
MODEL 7
REMARK VINA RESULT:    -5.813     13.291     14.604
REMARK INTER + INTRA:          -7.059
REMARK INTER:                  -6.983
REMARK INTRA:                  -0.075
REMARK UNBOUND:                -0.226
REMARK SMILES O=c1c(O)c(-c2ccc(O)cc2)oc2cc(O)cc(O)c12
REMARK SMILES IDX 5 1 3 2 2 3 1 4 21 5 19 6 18 7 16 8 15 9 14 10 13 11 6 12
REMARK SMILES IDX 7 13 8 14 9 15 12 16 11 17 10 18 4 20 20 22 17 24
REMARK H PARENT 10 19 4 21 20 23 17 25
REMARK Flexibility Score: inf
ROOT
ATOM      1  C   UNL     1      21.755 -13.869  -6.548  1.00  0.00     0.180 A 
ATOM      2  C   UNL     1      22.905 -14.323  -7.218  1.00  0.00     0.208 A 
ATOM      3  C   UNL     1      22.771 -14.893  -8.493  1.00  0.00     0.238 A 
ATOM      4  O   UNL     1      23.794 -15.365  -9.054  1.00  0.00    -0.285 OA
ATOM      5  C   UNL     1      21.497 -14.951  -9.110  1.00  0.00     0.111 A 
ATOM      6  C   UNL     1      21.250 -15.466 -10.418  1.00  0.00     0.134 A 
ATOM      7  C   UNL     1      19.933 -15.571 -10.883  1.00  0.00     0.093 A 
ATOM      8  C   UNL     1      18.860 -15.121 -10.114  1.00  0.00     0.123 A 
ATOM      9  C   UNL     1      19.095 -14.564  -8.856  1.00  0.00     0.094 A 
ATOM     10  C   UNL     1      20.394 -14.482  -8.349  1.00  0.00     0.146 A 
ATOM     11  O   UNL     1      20.570 -13.966  -7.139  1.00  0.00    -0.452 OA
ENDROOT
BRANCH   1  12
ATOM     12  C   UNL     1      21.814 -13.270  -5.196  1.00  0.00     0.021 A 
ATOM     13  C   UNL     1      22.578 -12.117  -4.937  1.00  0.00     0.016 A 
ATOM     14  C   UNL     1      22.639 -11.585  -3.645  1.00  0.00     0.047 A 
ATOM     15  C   UNL     1      21.949 -12.204  -2.595  1.00  0.00     0.115 A 
ATOM     16  C   UNL     1      21.143 -13.896  -4.133  1.00  0.00     0.016 A 
ATOM     17  C   UNL     1      21.205 -13.362  -2.842  1.00  0.00     0.047 A 
BRANCH  15  18
ATOM     18  O   UNL     1      22.002 -11.682  -1.305  1.00  0.00    -0.508 OA
ATOM     19  H   UNL     1      22.397 -10.768  -1.120  1.00  0.00     0.293 HD
ENDBRANCH  15  18
ENDBRANCH   1  12
BRANCH   2  20
ATOM     20  O   UNL     1      24.164 -14.187  -6.624  1.00  0.00    -0.502 OA
ATOM     21  H   UNL     1      24.286 -13.833  -5.684  1.00  0.00     0.293 HD
ENDBRANCH   2  20
BRANCH   6  22
ATOM     22  O   UNL     1      22.255 -15.863 -11.306  1.00  0.00    -0.507 OA
ATOM     23  H   UNL     1      22.511 -15.369 -12.148  1.00  0.00     0.293 HD
ENDBRANCH   6  22
BRANCH   8  24
ATOM     24  O   UNL     1      17.564 -15.225 -10.615  1.00  0.00    -0.508 OA
ATOM     25  H   UNL     1      16.831 -15.691 -10.093  1.00  0.00     0.293 HD
ENDBRANCH   8  24
TORSDOF 5
ENDMDL
MODEL 8
REMARK VINA RESULT:    -5.756      3.480      5.613
REMARK INTER + INTRA:          -6.992
REMARK INTER:                  -6.829
REMARK INTRA:                  -0.163
REMARK UNBOUND:                -0.226
REMARK SMILES O=c1c(O)c(-c2ccc(O)cc2)oc2cc(O)cc(O)c12
REMARK SMILES IDX 5 1 3 2 2 3 1 4 21 5 19 6 18 7 16 8 15 9 14 10 13 11 6 12
REMARK SMILES IDX 7 13 8 14 9 15 12 16 11 17 10 18 4 20 20 22 17 24
REMARK H PARENT 10 19 4 21 20 23 17 25
REMARK Flexibility Score: inf
ROOT
ATOM      1  C   UNL     1      11.524 -12.743   4.003  1.00  0.00     0.180 A 
ATOM      2  C   UNL     1      11.245 -11.384   4.227  1.00  0.00     0.208 A 
ATOM      3  C   UNL     1      11.777 -10.425   3.351  1.00  0.00     0.238 A 
ATOM      4  O   UNL     1      11.587  -9.206   3.602  1.00  0.00    -0.285 OA
ATOM      5  C   UNL     1      12.535 -10.838   2.229  1.00  0.00     0.111 A 
ATOM      6  C   UNL     1      13.085  -9.957   1.250  1.00  0.00     0.134 A 
ATOM      7  C   UNL     1      13.907 -10.472   0.240  1.00  0.00     0.093 A 
ATOM      8  C   UNL     1      14.147 -11.842   0.134  1.00  0.00     0.123 A 
ATOM      9  C   UNL     1      13.568 -12.719   1.053  1.00  0.00     0.094 A 
ATOM     10  C   UNL     1      12.776 -12.231   2.095  1.00  0.00     0.146 A 
ATOM     11  O   UNL     1      12.264 -13.098   2.959  1.00  0.00    -0.452 OA
ENDROOT
BRANCH   1  12
ATOM     12  C   UNL     1      11.010 -13.810   4.890  1.00  0.00     0.021 A 
ATOM     13  C   UNL     1      11.424 -13.913   6.231  1.00  0.00     0.016 A 
ATOM     14  C   UNL     1      10.945 -14.945   7.043  1.00  0.00     0.047 A 
ATOM     15  C   UNL     1      10.055 -15.895   6.522  1.00  0.00     0.115 A 
ATOM     16  C   UNL     1      10.135 -14.779   4.371  1.00  0.00     0.016 A 
ATOM     17  C   UNL     1       9.656 -15.810   5.185  1.00  0.00     0.047 A 
BRANCH  15  18
ATOM     18  O   UNL     1       9.570 -16.927   7.322  1.00  0.00    -0.508 OA
ATOM     19  H   UNL     1       8.722 -16.821   7.866  1.00  0.00     0.293 HD
ENDBRANCH  15  18
ENDBRANCH   1  12
BRANCH   2  20
ATOM     20  O   UNL     1      10.432 -11.000   5.298  1.00  0.00    -0.502 OA
ATOM     21  H   UNL     1       9.799 -11.642   5.758  1.00  0.00     0.293 HD
ENDBRANCH   2  20
BRANCH   6  22
ATOM     22  O   UNL     1      12.838  -8.581   1.208  1.00  0.00    -0.507 OA
ATOM     23  H   UNL     1      12.123  -8.139   0.651  1.00  0.00     0.293 HD
ENDBRANCH   6  22
BRANCH   8  24
ATOM     24  O   UNL     1      14.956 -12.321  -0.894  1.00  0.00    -0.508 OA
ATOM     25  H   UNL     1      14.872 -13.272  -1.233  1.00  0.00     0.293 HD
ENDBRANCH   8  24
TORSDOF 5
ENDMDL
MODEL 9
REMARK VINA RESULT:    -5.654     13.168     14.328
REMARK INTER + INTRA:          -6.871
REMARK INTER:                  -6.620
REMARK INTRA:                  -0.251
REMARK UNBOUND:                -0.226
REMARK SMILES O=c1c(O)c(-c2ccc(O)cc2)oc2cc(O)cc(O)c12
REMARK SMILES IDX 5 1 3 2 2 3 1 4 21 5 19 6 18 7 16 8 15 9 14 10 13 11 6 12
REMARK SMILES IDX 7 13 8 14 9 15 12 16 11 17 10 18 4 20 20 22 17 24
REMARK H PARENT 10 19 4 21 20 23 17 25
REMARK Flexibility Score: inf
ROOT
ATOM      1  C   UNL     1      22.001 -13.969  -7.177  1.00  0.00     0.180 A 
ATOM      2  C   UNL     1      23.298 -13.431  -7.248  1.00  0.00     0.208 A 
ATOM      3  C   UNL     1      23.823 -12.769  -6.127  1.00  0.00     0.238 A 
ATOM      4  O   UNL     1      24.955 -12.225  -6.223  1.00  0.00    -0.285 OA
ATOM      5  C   UNL     1      23.070 -12.699  -4.931  1.00  0.00     0.111 A 
ATOM      6  C   UNL     1      23.520 -12.092  -3.720  1.00  0.00     0.134 A 
ATOM      7  C   UNL     1      22.646 -11.990  -2.630  1.00  0.00     0.093 A 
ATOM      8  C   UNL     1      21.360 -12.529  -2.685  1.00  0.00     0.123 A 
ATOM      9  C   UNL     1      20.929 -13.174  -3.845  1.00  0.00     0.094 A 
ATOM     10  C   UNL     1      21.764 -13.258  -4.961  1.00  0.00     0.146 A 
ATOM     11  O   UNL     1      21.306 -13.860  -6.051  1.00  0.00    -0.452 OA
ENDROOT
BRANCH   1  12
ATOM     12  C   UNL     1      21.375 -14.668  -8.321  1.00  0.00     0.021 A 
ATOM     13  C   UNL     1      20.395 -14.045  -9.115  1.00  0.00     0.016 A 
ATOM     14  C   UNL     1      19.799 -14.736 -10.175  1.00  0.00     0.047 A 
ATOM     15  C   UNL     1      20.165 -16.061 -10.446  1.00  0.00     0.115 A 
ATOM     16  C   UNL     1      21.720 -16.004  -8.587  1.00  0.00     0.016 A 
ATOM     17  C   UNL     1      21.122 -16.692  -9.647  1.00  0.00     0.047 A 
BRANCH  15  18
ATOM     18  O   UNL     1      19.578 -16.759 -11.499  1.00  0.00    -0.508 OA
ATOM     19  H   UNL     1      20.087 -16.952 -12.354  1.00  0.00     0.293 HD
ENDBRANCH  15  18
ENDBRANCH   1  12
BRANCH   2  20
ATOM     20  O   UNL     1      24.058 -13.576  -8.413  1.00  0.00    -0.502 OA
ATOM     21  H   UNL     1      23.690 -14.010  -9.251  1.00  0.00     0.293 HD
ENDBRANCH   2  20
BRANCH   6  22
ATOM     22  O   UNL     1      24.814 -11.599  -3.525  1.00  0.00    -0.507 OA
ATOM     23  H   UNL     1      25.597 -11.774  -4.136  1.00  0.00     0.293 HD
ENDBRANCH   6  22
BRANCH   8  24
ATOM     24  O   UNL     1      20.523 -12.424  -1.577  1.00  0.00    -0.508 OA
ATOM     25  H   UNL     1      20.417 -13.188  -0.920  1.00  0.00     0.293 HD
ENDBRANCH   8  24
TORSDOF 5
ENDMDL
