MODEL 1
REMARK VINA RESULT:    -7.421      0.000      0.000
REMARK INTER + INTRA:          -7.421
REMARK INTER:                  -7.421
REMARK INTRA:                   0.000
REMARK UNBOUND:                 0.000
REMARK SMILES CC1=CC[C@]2(C)CCCC(C)(C)[C@]23C[C@H]13
REMARK SMILES IDX 1 1 2 2 3 3 4 4 5 5 7 6 8 7 9 8 10 9 13 10 15 11 14 12 11 13
REMARK SMILES IDX 12 14 6 15
REMARK H PARENT
REMARK Flexibility Score: inf
ROOT
ATOM      1  C   UNL     1      -1.796 -16.732  13.688  1.00  0.00     0.039 C 
ATOM      2  C   UNL     1      -2.245 -15.978  12.468  1.00  0.00    -0.074 C 
ATOM      3  C   UNL     1      -2.035 -14.646  12.402  1.00  0.00    -0.027 C 
ATOM      4  C   UNL     1      -2.470 -13.828  11.211  1.00  0.00     0.034 C 
ATOM      5  C   UNL     1      -2.345 -14.647   9.893  1.00  0.00    -0.022 C 
ATOM      6  C   UNL     1      -2.968 -13.832   8.735  1.00  0.00     0.008 C 
ATOM      7  C   UNL     1      -3.034 -14.609   7.409  1.00  0.00     0.001 C 
ATOM      8  C   UNL     1      -3.796 -15.938   7.543  1.00  0.00     0.007 C 
ATOM      9  C   UNL     1      -3.269 -16.881   8.662  1.00  0.00    -0.029 C 
ATOM     10  C   UNL     1      -3.109 -16.029   9.993  1.00  0.00    -0.012 C 
ATOM     11  C   UNL     1      -2.925 -16.743  11.341  1.00  0.00     0.022 C 
ATOM     12  C   UNL     1      -4.292 -16.157  10.993  1.00  0.00     0.017 C 
ATOM     13  C   UNL     1      -4.286 -18.056   8.761  1.00  0.00     0.012 C 
ATOM     14  C   UNL     1      -1.918 -17.522   8.250  1.00  0.00     0.012 C 
ATOM     15  C   UNL     1      -0.817 -14.853   9.648  1.00  0.00     0.012 C 
ENDROOT
TORSDOF 0
ENDMDL
MODEL 2
REMARK VINA RESULT:    -7.285      1.394      4.794
REMARK INTER + INTRA:          -7.285
REMARK INTER:                  -7.285
REMARK INTRA:                   0.000
REMARK UNBOUND:                 0.000
REMARK SMILES CC1=CC[C@]2(C)CCCC(C)(C)[C@]23C[C@H]13
REMARK SMILES IDX 1 1 2 2 3 3 4 4 5 5 7 6 8 7 9 8 10 9 13 10 15 11 14 12 11 13
REMARK SMILES IDX 12 14 6 15
REMARK H PARENT
REMARK Flexibility Score: inf
ROOT
ATOM      1  C   UNL     1      -5.000 -15.375   5.006  1.00  0.00     0.039 C 
ATOM      2  C   UNL     1      -4.820 -15.609   6.479  1.00  0.00    -0.074 C 
ATOM      3  C   UNL     1      -5.523 -16.593   7.080  1.00  0.00    -0.027 C 
ATOM      4  C   UNL     1      -5.398 -16.875   8.556  1.00  0.00     0.034 C 
ATOM      5  C   UNL     1      -3.946 -16.614   9.056  1.00  0.00    -0.022 C 
ATOM      6  C   UNL     1      -3.915 -16.744  10.597  1.00  0.00     0.008 C 
ATOM      7  C   UNL     1      -2.558 -16.360  11.214  1.00  0.00     0.001 C 
ATOM      8  C   UNL     1      -2.119 -14.938  10.828  1.00  0.00     0.007 C 
ATOM      9  C   UNL     1      -2.081 -14.659   9.298  1.00  0.00    -0.029 C 
ATOM     10  C   UNL     1      -3.451 -15.162   8.670  1.00  0.00    -0.012 C 
ATOM     11  C   UNL     1      -3.846 -14.730   7.250  1.00  0.00     0.022 C 
ATOM     12  C   UNL     1      -4.511 -14.049   8.445  1.00  0.00     0.017 C 
ATOM     13  C   UNL     1      -1.814 -13.133   9.136  1.00  0.00     0.012 C 
ATOM     14  C   UNL     1      -0.875 -15.375   8.638  1.00  0.00     0.012 C 
ATOM     15  C   UNL     1      -3.054 -17.717   8.402  1.00  0.00     0.012 C 
ENDROOT
TORSDOF 0
ENDMDL
MODEL 3
REMARK VINA RESULT:    -6.632      1.048      3.092
REMARK INTER + INTRA:          -6.632
REMARK INTER:                  -6.632
REMARK INTRA:                   0.000
REMARK UNBOUND:                 0.000
REMARK SMILES CC1=CC[C@]2(C)CCCC(C)(C)[C@]23C[C@H]13
REMARK SMILES IDX 1 1 2 2 3 3 4 4 5 5 7 6 8 7 9 8 10 9 13 10 15 11 14 12 11 13
REMARK SMILES IDX 12 14 6 15
REMARK H PARENT
REMARK Flexibility Score: inf
ROOT
ATOM      1  C   UNL     1      -2.381 -13.705  12.834  1.00  0.00     0.039 C 
ATOM      2  C   UNL     1      -2.446 -14.902  11.928  1.00  0.00    -0.074 C 
ATOM      3  C   UNL     1      -2.413 -16.139  12.468  1.00  0.00    -0.027 C 
ATOM      4  C   UNL     1      -2.464 -17.383  11.616  1.00  0.00     0.034 C 
ATOM      5  C   UNL     1      -3.356 -17.165  10.359  1.00  0.00    -0.022 C 
ATOM      6  C   UNL     1      -3.231 -18.399   9.434  1.00  0.00     0.008 C 
ATOM      7  C   UNL     1      -3.957 -18.228   8.088  1.00  0.00     0.001 C 
ATOM      8  C   UNL     1      -3.483 -16.984   7.319  1.00  0.00     0.007 C 
ATOM      9  C   UNL     1      -3.569 -15.652   8.117  1.00  0.00    -0.029 C 
ATOM     10  C   UNL     1      -2.908 -15.886   9.542  1.00  0.00    -0.012 C 
ATOM     11  C   UNL     1      -2.547 -14.682  10.425  1.00  0.00     0.022 C 
ATOM     12  C   UNL     1      -1.436 -15.402   9.664  1.00  0.00     0.017 C 
ATOM     13  C   UNL     1      -2.866 -14.571   7.244  1.00  0.00     0.012 C 
ATOM     14  C   UNL     1      -5.042 -15.191   8.260  1.00  0.00     0.012 C 
ATOM     15  C   UNL     1      -4.822 -17.027  10.881  1.00  0.00     0.012 C 
ENDROOT
TORSDOF 0
ENDMDL
MODEL 4
REMARK VINA RESULT:    -6.498      1.536      3.442
REMARK INTER + INTRA:          -6.498
REMARK INTER:                  -6.498
REMARK INTRA:                   0.000
REMARK UNBOUND:                 0.000
REMARK SMILES CC1=CC[C@]2(C)CCCC(C)(C)[C@]23C[C@H]13
REMARK SMILES IDX 1 1 2 2 3 3 4 4 5 5 7 6 8 7 9 8 10 9 13 10 15 11 14 12 11 13
REMARK SMILES IDX 12 14 6 15
REMARK H PARENT
REMARK Flexibility Score: inf
ROOT
ATOM      1  C   UNL     1      -1.991 -12.378  10.199  1.00  0.00     0.039 C 
ATOM      2  C   UNL     1      -1.965 -13.760   9.609  1.00  0.00    -0.074 C 
ATOM      3  C   UNL     1      -0.916 -14.568   9.870  1.00  0.00    -0.027 C 
ATOM      4  C   UNL     1      -0.822 -15.962   9.302  1.00  0.00     0.034 C 
ATOM      5  C   UNL     1      -2.230 -16.618   9.190  1.00  0.00    -0.022 C 
ATOM      6  C   UNL     1      -2.098 -17.965   8.441  1.00  0.00     0.008 C 
ATOM      7  C   UNL     1      -3.453 -18.631   8.141  1.00  0.00     0.001 C 
ATOM      8  C   UNL     1      -4.395 -17.714   7.346  1.00  0.00     0.007 C 
ATOM      9  C   UNL     1      -4.644 -16.319   7.988  1.00  0.00    -0.029 C 
ATOM     10  C   UNL     1      -3.236 -15.699   8.385  1.00  0.00    -0.012 C 
ATOM     11  C   UNL     1      -3.127 -14.207   8.734  1.00  0.00     0.022 C 
ATOM     12  C   UNL     1      -2.660 -14.684   7.360  1.00  0.00     0.017 C 
ATOM     13  C   UNL     1      -5.447 -15.490   6.942  1.00  0.00     0.012 C 
ATOM     14  C   UNL     1      -5.563 -16.441   9.231  1.00  0.00     0.012 C 
ATOM     15  C   UNL     1      -2.719 -16.858  10.653  1.00  0.00     0.012 C 
ENDROOT
TORSDOF 0
ENDMDL
MODEL 5
REMARK VINA RESULT:    -6.490      1.245      3.616
REMARK INTER + INTRA:          -6.490
REMARK INTER:                  -6.490
REMARK INTRA:                   0.000
REMARK UNBOUND:                 0.000
REMARK SMILES CC1=CC[C@]2(C)CCCC(C)(C)[C@]23C[C@H]13
REMARK SMILES IDX 1 1 2 2 3 3 4 4 5 5 7 6 8 7 9 8 10 9 13 10 15 11 14 12 11 13
REMARK SMILES IDX 12 14 6 15
REMARK H PARENT
REMARK Flexibility Score: inf
ROOT
ATOM      1  C   UNL     1       0.719 -14.890   9.043  1.00  0.00     0.039 C 
ATOM      2  C   UNL     1      -0.770 -15.033   8.905  1.00  0.00    -0.074 C 
ATOM      3  C   UNL     1      -1.323 -15.011   7.673  1.00  0.00    -0.027 C 
ATOM      4  C   UNL     1      -2.811 -15.139   7.464  1.00  0.00     0.034 C 
ATOM      5  C   UNL     1      -3.447 -16.084   8.525  1.00  0.00    -0.022 C 
ATOM      6  C   UNL     1      -4.987 -16.039   8.379  1.00  0.00     0.008 C 
ATOM      7  C   UNL     1      -5.726 -16.824   9.477  1.00  0.00     0.001 C 
ATOM      8  C   UNL     1      -5.350 -16.352  10.891  1.00  0.00     0.007 C 
ATOM      9  C   UNL     1      -3.826 -16.360  11.198  1.00  0.00    -0.029 C 
ATOM     10  C   UNL     1      -3.076 -15.638   9.998  1.00  0.00    -0.012 C 
ATOM     11  C   UNL     1      -1.613 -15.200  10.162  1.00  0.00     0.022 C 
ATOM     12  C   UNL     1      -2.716 -14.149  10.257  1.00  0.00     0.017 C 
ATOM     13  C   UNL     1      -3.652 -15.668  12.582  1.00  0.00     0.012 C 
ATOM     14  C   UNL     1      -3.309 -17.811  11.379  1.00  0.00     0.012 C 
ATOM     15  C   UNL     1      -2.915 -17.518   8.209  1.00  0.00     0.012 C 
ENDROOT
TORSDOF 0
ENDMDL
MODEL 6
REMARK VINA RESULT:    -6.293      1.123      3.837
REMARK INTER + INTRA:          -6.293
REMARK INTER:                  -6.293
REMARK INTRA:                   0.000
REMARK UNBOUND:                 0.000
REMARK SMILES CC1=CC[C@]2(C)CCCC(C)(C)[C@]23C[C@H]13
REMARK SMILES IDX 1 1 2 2 3 3 4 4 5 5 7 6 8 7 9 8 10 9 13 10 15 11 14 12 11 13
REMARK SMILES IDX 12 14 6 15
REMARK H PARENT
REMARK Flexibility Score: inf
ROOT
ATOM      1  C   UNL     1      -6.380 -16.847  10.429  1.00  0.00     0.039 C 
ATOM      2  C   UNL     1      -4.952 -16.832   9.962  1.00  0.00    -0.074 C 
ATOM      3  C   UNL     1      -4.551 -17.733   9.039  1.00  0.00    -0.027 C 
ATOM      4  C   UNL     1      -3.131 -17.779   8.535  1.00  0.00     0.034 C 
ATOM      5  C   UNL     1      -2.511 -16.352   8.470  1.00  0.00    -0.022 C 
ATOM      6  C   UNL     1      -1.009 -16.472   8.122  1.00  0.00     0.008 C 
ATOM      7  C   UNL     1      -0.261 -15.128   8.177  1.00  0.00     0.001 C 
ATOM      8  C   UNL     1      -0.398 -14.435   9.542  1.00  0.00     0.007 C 
ATOM      9  C   UNL     1      -1.862 -14.224  10.023  1.00  0.00    -0.029 C 
ATOM     10  C   UNL     1      -2.641 -15.599   9.855  1.00  0.00    -0.012 C 
ATOM     11  C   UNL     1      -3.999 -15.799  10.545  1.00  0.00     0.022 C 
ATOM     12  C   UNL     1      -2.756 -16.444  11.155  1.00  0.00     0.017 C 
ATOM     13  C   UNL     1      -1.774 -13.702  11.488  1.00  0.00     0.012 C 
ATOM     14  C   UNL     1      -2.551 -13.097   9.211  1.00  0.00     0.012 C 
ATOM     15  C   UNL     1      -3.271 -15.597   7.334  1.00  0.00     0.012 C 
ENDROOT
TORSDOF 0
ENDMDL
MODEL 7
REMARK VINA RESULT:    -5.985      1.756      4.556
REMARK INTER + INTRA:          -5.985
REMARK INTER:                  -5.985
REMARK INTRA:                   0.000
REMARK UNBOUND:                 0.000
REMARK SMILES CC1=CC[C@]2(C)CCCC(C)(C)[C@]23C[C@H]13
REMARK SMILES IDX 1 1 2 2 3 3 4 4 5 5 7 6 8 7 9 8 10 9 13 10 15 11 14 12 11 13
REMARK SMILES IDX 12 14 6 15
REMARK H PARENT
REMARK Flexibility Score: inf
ROOT
ATOM      1  C   UNL     1      -5.375 -13.016   6.873  1.00  0.00     0.039 C 
ATOM      2  C   UNL     1      -4.921 -14.419   7.158  1.00  0.00    -0.074 C 
ATOM      3  C   UNL     1      -4.310 -15.125   6.183  1.00  0.00    -0.027 C 
ATOM      4  C   UNL     1      -3.839 -16.541   6.399  1.00  0.00     0.034 C 
ATOM      5  C   UNL     1      -3.347 -16.752   7.861  1.00  0.00    -0.022 C 
ATOM      6  C   UNL     1      -3.046 -18.254   8.078  1.00  0.00     0.008 C 
ATOM      7  C   UNL     1      -2.694 -18.601   9.535  1.00  0.00     0.001 C 
ATOM      8  C   UNL     1      -3.789 -18.168  10.524  1.00  0.00     0.007 C 
ATOM      9  C   UNL     1      -4.188 -16.667  10.439  1.00  0.00    -0.029 C 
ATOM     10  C   UNL     1      -4.443 -16.309   8.912  1.00  0.00    -0.012 C 
ATOM     11  C   UNL     1      -5.164 -15.004   8.543  1.00  0.00     0.022 C 
ATOM     12  C   UNL     1      -5.936 -16.321   8.482  1.00  0.00     0.017 C 
ATOM     13  C   UNL     1      -5.428 -16.490  11.364  1.00  0.00     0.012 C 
ATOM     14  C   UNL     1      -3.077 -15.768  11.039  1.00  0.00     0.012 C 
ATOM     15  C   UNL     1      -2.039 -15.912   8.008  1.00  0.00     0.012 C 
ENDROOT
TORSDOF 0
ENDMDL
MODEL 8
REMARK VINA RESULT:    -5.966      1.245      4.237
REMARK INTER + INTRA:          -5.966
REMARK INTER:                  -5.966
REMARK INTRA:                   0.000
REMARK UNBOUND:                 0.000
REMARK SMILES CC1=CC[C@]2(C)CCCC(C)(C)[C@]23C[C@H]13
REMARK SMILES IDX 1 1 2 2 3 3 4 4 5 5 7 6 8 7 9 8 10 9 13 10 15 11 14 12 11 13
REMARK SMILES IDX 12 14 6 15
REMARK H PARENT
REMARK Flexibility Score: inf
ROOT
ATOM      1  C   UNL     1      -5.378 -15.784   5.773  1.00  0.00     0.039 C 
ATOM      2  C   UNL     1      -4.271 -15.820   6.788  1.00  0.00    -0.074 C 
ATOM      3  C   UNL     1      -3.199 -15.016   6.623  1.00  0.00    -0.027 C 
ATOM      4  C   UNL     1      -2.049 -15.010   7.598  1.00  0.00     0.034 C 
ATOM      5  C   UNL     1      -2.545 -15.264   9.052  1.00  0.00    -0.022 C 
ATOM      6  C   UNL     1      -1.317 -15.426   9.980  1.00  0.00     0.008 C 
ATOM      7  C   UNL     1      -1.690 -15.830  11.418  1.00  0.00     0.001 C 
ATOM      8  C   UNL     1      -2.522 -17.122  11.468  1.00  0.00     0.007 C 
ATOM      9  C   UNL     1      -3.809 -17.104  10.595  1.00  0.00    -0.029 C 
ATOM     10  C   UNL     1      -3.415 -16.582   9.147  1.00  0.00    -0.012 C 
ATOM     11  C   UNL     1      -4.393 -16.764   7.976  1.00  0.00     0.022 C 
ATOM     12  C   UNL     1      -3.192 -17.700   8.091  1.00  0.00     0.017 C 
ATOM     13  C   UNL     1      -4.384 -18.551  10.630  1.00  0.00     0.012 C 
ATOM     14  C   UNL     1      -4.894 -16.199  11.232  1.00  0.00     0.012 C 
ATOM     15  C   UNL     1      -3.369 -14.002   9.460  1.00  0.00     0.012 C 
ENDROOT
TORSDOF 0
ENDMDL
MODEL 9
REMARK VINA RESULT:    -5.543      1.544      2.746
REMARK INTER + INTRA:          -5.543
REMARK INTER:                  -5.543
REMARK INTRA:                   0.000
REMARK UNBOUND:                 0.000
REMARK SMILES CC1=CC[C@]2(C)CCCC(C)(C)[C@]23C[C@H]13
REMARK SMILES IDX 1 1 2 2 3 3 4 4 5 5 7 6 8 7 9 8 10 9 13 10 15 11 14 12 11 13
REMARK SMILES IDX 12 14 6 15
REMARK H PARENT
REMARK Flexibility Score: inf
ROOT
ATOM      1  C   UNL     1       0.559 -14.778   9.683  1.00  0.00     0.039 C 
ATOM      2  C   UNL     1      -0.922 -14.732   9.434  1.00  0.00    -0.074 C 
ATOM      3  C   UNL     1      -1.457 -13.644   8.841  1.00  0.00    -0.027 C 
ATOM      4  C   UNL     1      -2.937 -13.529   8.571  1.00  0.00     0.034 C 
ATOM      5  C   UNL     1      -3.554 -14.917   8.228  1.00  0.00    -0.022 C 
ATOM      6  C   UNL     1      -5.092 -14.774   8.138  1.00  0.00     0.008 C 
ATOM      7  C   UNL     1      -5.818 -16.118   7.950  1.00  0.00     0.001 C 
ATOM      8  C   UNL     1      -5.480 -17.129   9.057  1.00  0.00     0.007 C 
ATOM      9  C   UNL     1      -3.960 -17.395   9.255  1.00  0.00    -0.029 C 
ATOM     10  C   UNL     1      -3.220 -15.992   9.340  1.00  0.00    -0.012 C 
ATOM     11  C   UNL     1      -1.776 -15.919   9.858  1.00  0.00     0.022 C 
ATOM     12  C   UNL     1      -2.918 -15.502  10.783  1.00  0.00     0.017 C 
ATOM     13  C   UNL     1      -3.831 -18.276  10.533  1.00  0.00     0.012 C 
ATOM     14  C   UNL     1      -3.394 -18.249   8.091  1.00  0.00     0.012 C 
ATOM     15  C   UNL     1      -2.967 -15.326   6.840  1.00  0.00     0.012 C 
ENDROOT
TORSDOF 0
ENDMDL
