MODEL 1
REMARK VINA RESULT:     0.444      0.000      0.000
REMARK INTER + INTRA:           1.294
REMARK INTER:                   0.769
REMARK INTRA:                   0.525
REMARK UNBOUND:                 0.525
REMARK SMILES OC[C@@H]1O[C@H](O[C@H]2[C@H](O)[C@H](O)[C@H](O)O[C@H]2CO)[C@H](O)[C@@H](O)[C@H]1O[C@@H]1O[C@H](CO)[C@H](O)[C@H](O)[C@@H]1O
REMARK SMILES IDX 22 1 3 2 4 3 5 4 18 5 20 6 23 7 24 8 26 9 29 10 25 11 31 12
REMARK SMILES IDX 33 13 27 14 28 15 30 17 32 19 34 21 2 23 1 24 21 26 19 28
REMARK SMILES IDX 6 30 7 31 15 32 8 33 14 34 10 35 12 36 16 37 17 38 9 40
REMARK SMILES IDX 11 42 13 44
REMARK H PARENT 28 16 30 18 32 20 34 22 1 25 21 27 19 29 17 39 9 41 11 43
REMARK H PARENT 13 45
REMARK Flexibility Score: inf
ROOT
ATOM      1  C   UNL     1      13.849  -6.861  -2.195  1.00  0.00     0.184 C 
ATOM      2  C   UNL     1      12.520  -7.385  -1.548  1.00  0.00     0.178 C 
ATOM      3  O   UNL     1      11.424  -6.557  -1.895  1.00  0.00    -0.341 OA
ATOM      4  C   UNL     1      11.543  -5.261  -1.316  1.00  0.00     0.282 C 
ATOM      5  C   UNL     1      12.907  -4.590  -1.651  1.00  0.00     0.202 C 
ATOM      6  C   UNL     1      13.654  -5.416  -2.710  1.00  0.00     0.180 C 
ENDROOT
BRANCH   1   7
ATOM      7  O   UNL     1      14.893  -6.843  -1.229  1.00  0.00    -0.341 OA
BRANCH   7   8
ATOM      8  C   UNL     1      15.279  -8.137  -0.788  1.00  0.00     0.282 C 
ATOM      9  C   UNL     1      17.497  -7.564  -0.049  1.00  0.00     0.178 C 
ATOM     10  C   UNL     1      18.130  -8.254  -1.295  1.00  0.00     0.177 C 
ATOM     11  O   UNL     1      16.198  -8.042   0.293  1.00  0.00    -0.341 OA
ATOM     12  C   UNL     1      17.161  -8.396  -2.482  1.00  0.00     0.179 C 
ATOM     13  C   UNL     1      15.839  -8.972  -1.957  1.00  0.00     0.202 C 
BRANCH   9  14
ATOM     14  C   UNL     1      17.603  -6.026   0.029  1.00  0.00     0.191 C 
BRANCH  14  15
ATOM     15  O   UNL     1      18.921  -5.577  -0.101  1.00  0.00    -0.394 OA
ATOM     16  H   UNL     1      18.860  -4.636  -0.415  1.00  0.00     0.210 HD
ENDBRANCH  14  15
ENDBRANCH   9  14
BRANCH  10  17
ATOM     17  O   UNL     1      19.353  -7.666  -1.672  1.00  0.00    -0.387 OA
ATOM     18  H   UNL     1      19.678  -8.120  -2.490  1.00  0.00     0.211 HD
ENDBRANCH  10  17
BRANCH  12  19
ATOM     19  O   UNL     1      16.942  -7.164  -3.123  1.00  0.00    -0.387 OA
ATOM     20  H   UNL     1      17.544  -6.500  -2.699  1.00  0.00     0.211 HD
ENDBRANCH  12  19
BRANCH  13  21
ATOM     21  O   UNL     1      14.889  -9.125  -2.985  1.00  0.00    -0.385 OA
ATOM     22  H   UNL     1      14.016  -9.344  -2.569  1.00  0.00     0.211 HD
ENDBRANCH  13  21
ENDBRANCH   7   8
ENDBRANCH   1   7
BRANCH   2  23
ATOM     23  C   UNL     1      12.174  -8.809  -2.008  1.00  0.00     0.191 C 
BRANCH  23  24
ATOM     24  O   UNL     1      11.184  -8.787  -2.997  1.00  0.00    -0.394 OA
ATOM     25  H   UNL     1      10.793  -9.700  -3.016  1.00  0.00     0.210 HD
ENDBRANCH  23  24
ENDBRANCH   2  23
BRANCH   6  26
ATOM     26  O   UNL     1      14.894  -4.820  -2.993  1.00  0.00    -0.387 OA
ATOM     27  H   UNL     1      14.706  -4.030  -3.568  1.00  0.00     0.211 HD
ENDBRANCH   6  26
BRANCH   5  28
ATOM     28  O   UNL     1      12.725  -3.272  -2.095  1.00  0.00    -0.385 OA
ATOM     29  H   UNL     1      13.216  -2.679  -1.469  1.00  0.00     0.211 HD
ENDBRANCH   5  28
BRANCH   4  30
ATOM     30  O   UNL     1      10.457  -4.397  -1.661  1.00  0.00    -0.341 OA
BRANCH  30  31
ATOM     31  C   UNL     1       9.574  -4.903  -2.660  1.00  0.00     0.184 C 
ATOM     32  C   UNL     1       8.480  -3.841  -3.026  1.00  0.00     0.178 C 
ATOM     33  C   UNL     1       8.852  -6.162  -2.123  1.00  0.00     0.180 C 
ATOM     34  O   UNL     1       7.291  -3.914  -2.241  1.00  0.00    -0.342 OA
ATOM     35  C   UNL     1       8.015  -5.803  -0.869  1.00  0.00     0.201 C 
ATOM     36  C   UNL     1       7.545  -4.325  -0.911  1.00  0.00     0.279 C 
BRANCH  32  37
ATOM     37  C   UNL     1       8.998  -2.389  -3.076  1.00  0.00     0.191 C 
BRANCH  37  38
ATOM     38  O   UNL     1       8.074  -1.499  -2.507  1.00  0.00    -0.394 OA
ATOM     39  H   UNL     1       8.365  -1.325  -1.573  1.00  0.00     0.210 HD
ENDBRANCH  37  38
ENDBRANCH  32  37
BRANCH  33  40
ATOM     40  O   UNL     1       8.023  -6.697  -3.125  1.00  0.00    -0.387 OA
ATOM     41  H   UNL     1       7.288  -7.180  -2.662  1.00  0.00     0.211 HD
ENDBRANCH  33  40
BRANCH  35  42
ATOM     42  O   UNL     1       6.913  -6.670  -0.756  1.00  0.00    -0.385 OA
ATOM     43  H   UNL     1       6.201  -6.303  -1.346  1.00  0.00     0.211 HD
ENDBRANCH  35  42
BRANCH  36  44
ATOM     44  O   UNL     1       6.396  -4.142  -0.123  1.00  0.00    -0.366 OA
ATOM     45  H   UNL     1       6.697  -3.956   0.806  1.00  0.00     0.213 HD
ENDBRANCH  36  44
ENDBRANCH  30  31
ENDBRANCH   4  30
TORSDOF 18
ENDMDL
MODEL 2
REMARK VINA RESULT:     0.838      1.472      3.151
REMARK INTER + INTRA:           1.975
REMARK INTER:                  -1.440
REMARK INTRA:                   3.416
REMARK UNBOUND:                 0.525
REMARK SMILES OC[C@@H]1O[C@H](O[C@H]2[C@H](O)[C@H](O)[C@H](O)O[C@H]2CO)[C@H](O)[C@@H](O)[C@H]1O[C@@H]1O[C@H](CO)[C@H](O)[C@H](O)[C@@H]1O
REMARK SMILES IDX 22 1 3 2 4 3 5 4 18 5 20 6 23 7 24 8 26 9 29 10 25 11 31 12
REMARK SMILES IDX 33 13 27 14 28 15 30 17 32 19 34 21 2 23 1 24 21 26 19 28
REMARK SMILES IDX 6 30 7 31 15 32 8 33 14 34 10 35 12 36 16 37 17 38 9 40
REMARK SMILES IDX 11 42 13 44
REMARK H PARENT 28 16 30 18 32 20 34 22 1 25 21 27 19 29 17 39 9 41 11 43
REMARK H PARENT 13 45
REMARK Flexibility Score: inf
ROOT
ATOM      1  C   UNL     1      13.887  -5.071  -1.265  1.00  0.00     0.184 C 
ATOM      2  C   UNL     1      13.351  -4.677  -2.685  1.00  0.00     0.178 C 
ATOM      3  O   UNL     1      11.935  -4.659  -2.706  1.00  0.00    -0.341 OA
ATOM      4  C   UNL     1      11.391  -5.965  -2.537  1.00  0.00     0.282 C 
ATOM      5  C   UNL     1      11.944  -6.672  -1.266  1.00  0.00     0.202 C 
ATOM      6  C   UNL     1      12.745  -5.674  -0.415  1.00  0.00     0.180 C 
ENDROOT
BRANCH   1   7
ATOM      7  O   UNL     1      14.911  -6.053  -1.381  1.00  0.00    -0.341 OA
BRANCH   7   8
ATOM      8  C   UNL     1      14.550  -7.315  -0.838  1.00  0.00     0.282 C 
ATOM      9  C   UNL     1      16.724  -7.927  -0.004  1.00  0.00     0.178 C 
ATOM     10  C   UNL     1      16.922  -8.948  -1.164  1.00  0.00     0.177 C 
ATOM     11  O   UNL     1      15.361  -7.623   0.288  1.00  0.00    -0.341 OA
ATOM     12  C   UNL     1      16.045  -8.663  -2.396  1.00  0.00     0.179 C 
ATOM     13  C   UNL     1      14.608  -8.415  -1.917  1.00  0.00     0.202 C 
BRANCH   9  14
ATOM     14  C   UNL     1      17.622  -6.671  -0.016  1.00  0.00     0.191 C 
BRANCH  14  15
ATOM     15  O   UNL     1      18.976  -6.988  -0.164  1.00  0.00    -0.394 OA
ATOM     16  H   UNL     1      19.007  -7.808  -0.724  1.00  0.00     0.210 HD
ENDBRANCH  14  15
ENDBRANCH   9  14
BRANCH  10  17
ATOM     17  O   UNL     1      18.278  -9.122  -1.503  1.00  0.00    -0.387 OA
ATOM     18  H   UNL     1      18.786  -8.344  -1.162  1.00  0.00     0.211 HD
ENDBRANCH  10  17
BRANCH  12  19
ATOM     19  O   UNL     1      16.519  -7.558  -3.125  1.00  0.00    -0.387 OA
ATOM     20  H   UNL     1      17.365  -7.834  -3.563  1.00  0.00     0.211 HD
ENDBRANCH  12  19
BRANCH  13  21
ATOM     21  O   UNL     1      13.739  -8.135  -2.988  1.00  0.00    -0.385 OA
ATOM     22  H   UNL     1      13.649  -8.956  -3.537  1.00  0.00     0.211 HD
ENDBRANCH  13  21
ENDBRANCH   7   8
ENDBRANCH   1   7
BRANCH   2  23
ATOM     23  C   UNL     1      13.828  -3.283  -3.118  1.00  0.00     0.191 C 
BRANCH  23  24
ATOM     24  O   UNL     1      14.466  -2.623  -2.062  1.00  0.00    -0.394 OA
ATOM     25  H   UNL     1      15.070  -3.292  -1.645  1.00  0.00     0.210 HD
ENDBRANCH  23  24
ENDBRANCH   2  23
BRANCH   6  26
ATOM     26  O   UNL     1      13.261  -6.321   0.720  1.00  0.00    -0.387 OA
ATOM     27  H   UNL     1      14.175  -5.955   0.865  1.00  0.00     0.211 HD
ENDBRANCH   6  26
BRANCH   5  28
ATOM     28  O   UNL     1      10.905  -7.236  -0.511  1.00  0.00    -0.385 OA
ATOM     29  H   UNL     1      10.557  -6.526   0.090  1.00  0.00     0.211 HD
ENDBRANCH   5  28
BRANCH   4  30
ATOM     30  O   UNL     1       9.961  -5.976  -2.540  1.00  0.00    -0.341 OA
BRANCH  30  31
ATOM     31  C   UNL     1       9.351  -5.797  -1.263  1.00  0.00     0.184 C 
ATOM     32  C   UNL     1       7.901  -6.395  -1.250  1.00  0.00     0.178 C 
ATOM     33  C   UNL     1       9.245  -4.286  -0.949  1.00  0.00     0.180 C 
ATOM     34  O   UNL     1       6.875  -5.480  -1.631  1.00  0.00    -0.342 OA
ATOM     35  C   UNL     1       8.365  -3.580  -2.012  1.00  0.00     0.201 C 
ATOM     36  C   UNL     1       7.313  -4.552  -2.607  1.00  0.00     0.279 C 
BRANCH  32  37
ATOM     37  C   UNL     1       7.754  -7.717  -2.029  1.00  0.00     0.191 C 
BRANCH  37  38
ATOM     38  O   UNL     1       6.825  -8.570  -1.413  1.00  0.00    -0.394 OA
ATOM     39  H   UNL     1       7.229  -9.478  -1.383  1.00  0.00     0.210 HD
ENDBRANCH  37  38
ENDBRANCH  32  37
BRANCH  33  40
ATOM     40  O   UNL     1       8.696  -4.106   0.333  1.00  0.00    -0.387 OA
ATOM     41  H   UNL     1       9.346  -4.489   0.981  1.00  0.00     0.211 HD
ENDBRANCH  33  40
BRANCH  35  42
ATOM     42  O   UNL     1       7.738  -2.452  -1.454  1.00  0.00    -0.385 OA
ATOM     43  H   UNL     1       7.166  -2.062  -2.168  1.00  0.00     0.211 HD
ENDBRANCH  35  42
BRANCH  36  44
ATOM     44  O   UNL     1       6.214  -3.845  -3.125  1.00  0.00    -0.366 OA
ATOM     45  H   UNL     1       6.531  -3.347  -3.924  1.00  0.00     0.213 HD
ENDBRANCH  36  44
ENDBRANCH  30  31
ENDBRANCH   4  30
TORSDOF 18
ENDMDL
MODEL 3
REMARK VINA RESULT:     1.239      1.976      8.455
REMARK INTER + INTRA:           2.669
REMARK INTER:                   0.515
REMARK INTRA:                   2.155
REMARK UNBOUND:                 0.525
REMARK SMILES OC[C@@H]1O[C@H](O[C@H]2[C@H](O)[C@H](O)[C@H](O)O[C@H]2CO)[C@H](O)[C@@H](O)[C@H]1O[C@@H]1O[C@H](CO)[C@H](O)[C@H](O)[C@@H]1O
REMARK SMILES IDX 22 1 3 2 4 3 5 4 18 5 20 6 23 7 24 8 26 9 29 10 25 11 31 12
REMARK SMILES IDX 33 13 27 14 28 15 30 17 32 19 34 21 2 23 1 24 21 26 19 28
REMARK SMILES IDX 6 30 7 31 15 32 8 33 14 34 10 35 12 36 16 37 17 38 9 40
REMARK SMILES IDX 11 42 13 44
REMARK H PARENT 28 16 30 18 32 20 34 22 1 25 21 27 19 29 17 39 9 41 11 43
REMARK H PARENT 13 45
REMARK Flexibility Score: inf
ROOT
ATOM      1  C   UNL     1      13.086  -6.236  -1.896  1.00  0.00     0.184 C 
ATOM      2  C   UNL     1      14.200  -5.419  -1.154  1.00  0.00     0.178 C 
ATOM      3  O   UNL     1      15.482  -5.711  -1.682  1.00  0.00    -0.341 OA
ATOM      4  C   UNL     1      15.868  -7.054  -1.407  1.00  0.00     0.282 C 
ATOM      5  C   UNL     1      14.798  -8.081  -1.877  1.00  0.00     0.202 C 
ATOM      6  C   UNL     1      13.726  -7.376  -2.721  1.00  0.00     0.180 C 
ENDROOT
BRANCH   1   7
ATOM      7  O   UNL     1      12.198  -6.824  -0.953  1.00  0.00    -0.341 OA
BRANCH   7   8
ATOM      8  C   UNL     1      11.259  -5.908  -0.410  1.00  0.00     0.282 C 
ATOM      9  C   UNL     1       9.431  -7.453  -0.149  1.00  0.00     0.178 C 
ATOM     10  C   UNL     1       8.691  -6.842  -1.377  1.00  0.00     0.177 C 
ATOM     11  O   UNL     1      10.366  -6.573   0.474  1.00  0.00    -0.341 OA
ATOM     12  C   UNL     1       9.620  -6.093  -2.349  1.00  0.00     0.179 C 
ATOM     13  C   UNL     1      10.515  -5.153  -1.530  1.00  0.00     0.202 C 
BRANCH   9  14
ATOM     14  C   UNL     1       9.980  -8.887  -0.305  1.00  0.00     0.191 C 
BRANCH  14  15
ATOM     15  O   UNL     1      10.642  -9.074  -1.523  1.00  0.00    -0.394 OA
ATOM     16  H   UNL     1      10.661 -10.055  -1.677  1.00  0.00     0.210 HD
ENDBRANCH  14  15
ENDBRANCH   9  14
BRANCH  10  17
ATOM     17  O   UNL     1       7.876  -7.782  -2.036  1.00  0.00    -0.387 OA
ATOM     18  H   UNL     1       8.379  -8.632  -2.112  1.00  0.00     0.211 HD
ENDBRANCH  10  17
BRANCH  12  19
ATOM     19  O   UNL     1      10.403  -6.982  -3.108  1.00  0.00    -0.387 OA
ATOM     20  H   UNL     1      11.328  -6.625  -3.117  1.00  0.00     0.211 HD
ENDBRANCH  12  19
BRANCH  13  21
ATOM     21  O   UNL     1      11.407  -4.434  -2.349  1.00  0.00    -0.385 OA
ATOM     22  H   UNL     1      11.056  -4.448  -3.276  1.00  0.00     0.211 HD
ENDBRANCH  13  21
ENDBRANCH   7   8
ENDBRANCH   1   7
BRANCH   2  23
ATOM     23  C   UNL     1      13.992  -3.903  -1.285  1.00  0.00     0.191 C 
BRANCH  23  24
ATOM     24  O   UNL     1      14.069  -3.503  -2.624  1.00  0.00    -0.394 OA
ATOM     25  H   UNL     1      14.766  -2.795  -2.659  1.00  0.00     0.210 HD
ENDBRANCH  23  24
ENDBRANCH   2  23
BRANCH   6  26
ATOM     26  O   UNL     1      12.750  -8.302  -3.125  1.00  0.00    -0.387 OA
ATOM     27  H   UNL     1      13.092  -9.203  -2.877  1.00  0.00     0.211 HD
ENDBRANCH   6  26
BRANCH   5  28
ATOM     28  O   UNL     1      15.388  -9.125  -2.606  1.00  0.00    -0.385 OA
ATOM     29  H   UNL     1      14.657  -9.611  -3.070  1.00  0.00     0.211 HD
ENDBRANCH   5  28
BRANCH   4  30
ATOM     30  O   UNL     1      17.154  -7.382  -1.941  1.00  0.00    -0.341 OA
BRANCH  30  31
ATOM     31  C   UNL     1      17.918  -8.299  -1.160  1.00  0.00     0.184 C 
ATOM     32  C   UNL     1      17.702  -8.040   0.372  1.00  0.00     0.178 C 
ATOM     33  C   UNL     1      19.423  -8.109  -1.466  1.00  0.00     0.180 C 
ATOM     34  O   UNL     1      18.615  -7.111   0.955  1.00  0.00    -0.342 OA
ATOM     35  C   UNL     1      19.865  -6.669  -1.099  1.00  0.00     0.201 C 
ATOM     36  C   UNL     1      19.000  -6.091   0.052  1.00  0.00     0.279 C 
BRANCH  32  37
ATOM     37  C   UNL     1      16.254  -7.676   0.755  1.00  0.00     0.191 C 
BRANCH  37  38
ATOM     38  O   UNL     1      15.749  -8.551   1.729  1.00  0.00    -0.394 OA
ATOM     39  H   UNL     1      14.943  -8.989   1.347  1.00  0.00     0.210 HD
ENDBRANCH  37  38
ENDBRANCH  32  37
BRANCH  33  40
ATOM     40  O   UNL     1      20.177  -9.048  -0.740  1.00  0.00    -0.387 OA
ATOM     41  H   UNL     1      19.603  -9.359   0.011  1.00  0.00     0.211 HD
ENDBRANCH  33  40
BRANCH  35  42
ATOM     42  O   UNL     1      21.228  -6.652  -0.751  1.00  0.00    -0.385 OA
ATOM     43  H   UNL     1      21.346  -5.909  -0.101  1.00  0.00     0.211 HD
ENDBRANCH  35  42
BRANCH  36  44
ATOM     44  O   UNL     1      19.691  -5.078   0.737  1.00  0.00    -0.366 OA
ATOM     45  H   UNL     1      19.789  -4.310   0.114  1.00  0.00     0.213 HD
ENDBRANCH  36  44
ENDBRANCH  30  31
ENDBRANCH   4  30
TORSDOF 18
ENDMDL
MODEL 4
REMARK VINA RESULT:     1.291      0.975      2.136
REMARK INTER + INTRA:           2.760
REMARK INTER:                   0.899
REMARK INTRA:                   1.861
REMARK UNBOUND:                 0.525
REMARK SMILES OC[C@@H]1O[C@H](O[C@H]2[C@H](O)[C@H](O)[C@H](O)O[C@H]2CO)[C@H](O)[C@@H](O)[C@H]1O[C@@H]1O[C@H](CO)[C@H](O)[C@H](O)[C@@H]1O
REMARK SMILES IDX 22 1 3 2 4 3 5 4 18 5 20 6 23 7 24 8 26 9 29 10 25 11 31 12
REMARK SMILES IDX 33 13 27 14 28 15 30 17 32 19 34 21 2 23 1 24 21 26 19 28
REMARK SMILES IDX 6 30 7 31 15 32 8 33 14 34 10 35 12 36 16 37 17 38 9 40
REMARK SMILES IDX 11 42 13 44
REMARK H PARENT 28 16 30 18 32 20 34 22 1 25 21 27 19 29 17 39 9 41 11 43
REMARK H PARENT 13 45
REMARK Flexibility Score: inf
ROOT
ATOM      1  C   UNL     1      13.990  -6.825  -2.447  1.00  0.00     0.184 C 
ATOM      2  C   UNL     1      12.575  -7.365  -2.043  1.00  0.00     0.178 C 
ATOM      3  O   UNL     1      11.549  -6.519  -2.532  1.00  0.00    -0.341 OA
ATOM      4  C   UNL     1      11.571  -5.246  -1.893  1.00  0.00     0.282 C 
ATOM      5  C   UNL     1      12.971  -4.571  -1.978  1.00  0.00     0.202 C 
ATOM      6  C   UNL     1      13.880  -5.360  -2.932  1.00  0.00     0.180 C 
ENDROOT
BRANCH   1   7
ATOM      7  O   UNL     1      14.864  -6.849  -1.325  1.00  0.00    -0.341 OA
BRANCH   7   8
ATOM      8  C   UNL     1      15.138  -8.158  -0.848  1.00  0.00     0.282 C 
ATOM      9  C   UNL     1      17.266  -7.678   0.170  1.00  0.00     0.178 C 
ATOM     10  C   UNL     1      18.024  -8.392  -0.991  1.00  0.00     0.177 C 
ATOM     11  O   UNL     1      15.915  -8.103   0.341  1.00  0.00    -0.341 OA
ATOM     12  C   UNL     1      17.208  -8.492  -2.292  1.00  0.00     0.179 C 
ATOM     13  C   UNL     1      15.808  -9.014  -1.942  1.00  0.00     0.202 C 
BRANCH   9  14
ATOM     14  C   UNL     1      17.424  -6.146   0.271  1.00  0.00     0.191 C 
BRANCH  14  15
ATOM     15  O   UNL     1      18.755  -5.738   0.130  1.00  0.00    -0.394 OA
ATOM     16  H   UNL     1      18.873  -4.971   0.750  1.00  0.00     0.210 HD
ENDBRANCH  14  15
ENDBRANCH   9  14
BRANCH  10  17
ATOM     17  O   UNL     1      19.308  -7.854  -1.206  1.00  0.00    -0.387 OA
ATOM     18  H   UNL     1      19.903  -8.584  -1.511  1.00  0.00     0.211 HD
ENDBRANCH  10  17
BRANCH  12  19
ATOM     19  O   UNL     1      17.122  -7.251  -2.947  1.00  0.00    -0.387 OA
ATOM     20  H   UNL     1      16.361  -6.758  -2.545  1.00  0.00     0.211 HD
ENDBRANCH  12  19
BRANCH  13  21
ATOM     21  O   UNL     1      14.990  -9.125  -3.083  1.00  0.00    -0.385 OA
ATOM     22  H   UNL     1      14.044  -9.048  -2.795  1.00  0.00     0.211 HD
ENDBRANCH  13  21
ENDBRANCH   7   8
ENDBRANCH   1   7
BRANCH   2  23
ATOM     23  C   UNL     1      12.308  -8.770  -2.606  1.00  0.00     0.191 C 
BRANCH  23  24
ATOM     24  O   UNL     1      10.934  -9.003  -2.734  1.00  0.00    -0.394 OA
ATOM     25  H   UNL     1      10.662  -8.580  -3.591  1.00  0.00     0.210 HD
ENDBRANCH  23  24
ENDBRANCH   2  23
BRANCH   6  26
ATOM     26  O   UNL     1      15.149  -4.761  -2.989  1.00  0.00    -0.387 OA
ATOM     27  H   UNL     1      15.782  -5.394  -2.556  1.00  0.00     0.211 HD
ENDBRANCH   6  26
BRANCH   5  28
ATOM     28  O   UNL     1      12.862  -3.236  -2.396  1.00  0.00    -0.385 OA
ATOM     29  H   UNL     1      13.620  -2.737  -1.992  1.00  0.00     0.211 HD
ENDBRANCH   5  28
BRANCH   4  30
ATOM     30  O   UNL     1      10.555  -4.364  -2.376  1.00  0.00    -0.341 OA
BRANCH  30  31
ATOM     31  C   UNL     1       9.731  -3.779  -1.369  1.00  0.00     0.184 C 
ATOM     32  C   UNL     1       8.949  -4.886  -0.578  1.00  0.00     0.178 C 
ATOM     33  C   UNL     1       8.691  -2.844  -2.030  1.00  0.00     0.180 C 
ATOM     34  O   UNL     1       7.675  -5.222  -1.124  1.00  0.00    -0.342 OA
ATOM     35  C   UNL     1       7.784  -3.651  -2.993  1.00  0.00     0.201 C 
ATOM     36  C   UNL     1       7.649  -5.127  -2.536  1.00  0.00     0.279 C 
BRANCH  32  37
ATOM     37  C   UNL     1       9.766  -6.164  -0.302  1.00  0.00     0.191 C 
BRANCH  37  38
ATOM     38  O   UNL     1       9.053  -7.314  -0.674  1.00  0.00    -0.394 OA
ATOM     39  H   UNL     1       9.664  -7.880  -1.218  1.00  0.00     0.210 HD
ENDBRANCH  37  38
ENDBRANCH  32  37
BRANCH  33  40
ATOM     40  O   UNL     1       7.913  -2.223  -1.036  1.00  0.00    -0.387 OA
ATOM     41  H   UNL     1       7.043  -2.703  -1.009  1.00  0.00     0.211 HD
ENDBRANCH  33  40
BRANCH  35  42
ATOM     42  O   UNL     1       6.518  -3.046  -3.091  1.00  0.00    -0.385 OA
ATOM     43  H   UNL     1       6.639  -2.091  -2.841  1.00  0.00     0.211 HD
ENDBRANCH  35  42
BRANCH  36  44
ATOM     44  O   UNL     1       6.468  -5.701  -3.035  1.00  0.00    -0.366 OA
ATOM     45  H   UNL     1       6.372  -5.411  -3.981  1.00  0.00     0.213 HD
ENDBRANCH  36  44
ENDBRANCH  30  31
ENDBRANCH   4  30
TORSDOF 18
ENDMDL
MODEL 5
REMARK VINA RESULT:     1.313      1.594      8.410
REMARK INTER + INTRA:           2.797
REMARK INTER:                  -0.492
REMARK INTRA:                   3.289
REMARK UNBOUND:                 0.525
REMARK SMILES OC[C@@H]1O[C@H](O[C@H]2[C@H](O)[C@H](O)[C@H](O)O[C@H]2CO)[C@H](O)[C@@H](O)[C@H]1O[C@@H]1O[C@H](CO)[C@H](O)[C@H](O)[C@@H]1O
REMARK SMILES IDX 22 1 3 2 4 3 5 4 18 5 20 6 23 7 24 8 26 9 29 10 25 11 31 12
REMARK SMILES IDX 33 13 27 14 28 15 30 17 32 19 34 21 2 23 1 24 21 26 19 28
REMARK SMILES IDX 6 30 7 31 15 32 8 33 14 34 10 35 12 36 16 37 17 38 9 40
REMARK SMILES IDX 11 42 13 44
REMARK H PARENT 28 16 30 18 32 20 34 22 1 25 21 27 19 29 17 39 9 41 11 43
REMARK H PARENT 13 45
REMARK Flexibility Score: inf
ROOT
ATOM      1  C   UNL     1      12.853  -6.121  -2.504  1.00  0.00     0.184 C 
ATOM      2  C   UNL     1      13.966  -5.146  -1.986  1.00  0.00     0.178 C 
ATOM      3  O   UNL     1      15.253  -5.589  -2.380  1.00  0.00    -0.341 OA
ATOM      4  C   UNL     1      15.607  -6.809  -1.735  1.00  0.00     0.282 C 
ATOM      5  C   UNL     1      14.527  -7.912  -1.932  1.00  0.00     0.202 C 
ATOM      6  C   UNL     1      13.487  -7.453  -2.966  1.00  0.00     0.180 C 
ENDROOT
BRANCH   1   7
ATOM      7  O   UNL     1      11.933  -6.415  -1.459  1.00  0.00    -0.341 OA
BRANCH   7   8
ATOM      8  C   UNL     1      10.777  -7.113  -1.901  1.00  0.00     0.282 C 
ATOM      9  C   UNL     1       9.683  -5.256  -2.974  1.00  0.00     0.178 C 
ATOM     10  C   UNL     1       8.657  -5.139  -1.806  1.00  0.00     0.177 C 
ATOM     11  O   UNL     1      10.281  -6.544  -3.106  1.00  0.00    -0.341 OA
ATOM     12  C   UNL     1       9.147  -5.762  -0.487  1.00  0.00     0.179 C 
ATOM     13  C   UNL     1       9.705  -7.159  -0.793  1.00  0.00     0.202 C 
BRANCH   9  14
ATOM     14  C   UNL     1      10.705  -4.110  -3.125  1.00  0.00     0.191 C 
BRANCH  14  15
ATOM     15  O   UNL     1      10.439  -3.042  -2.261  1.00  0.00    -0.394 OA
ATOM     16  H   UNL     1      11.073  -3.139  -1.502  1.00  0.00     0.210 HD
ENDBRANCH  14  15
ENDBRANCH   9  14
BRANCH  10  17
ATOM     17  O   UNL     1       8.188  -3.822  -1.632  1.00  0.00    -0.387 OA
ATOM     18  H   UNL     1       8.046  -3.667  -0.665  1.00  0.00     0.211 HD
ENDBRANCH  10  17
BRANCH  12  19
ATOM     19  O   UNL     1      10.127  -4.965   0.131  1.00  0.00    -0.387 OA
ATOM     20  H   UNL     1      10.294  -5.347   1.030  1.00  0.00     0.211 HD
ENDBRANCH  12  19
BRANCH  13  21
ATOM     21  O   UNL     1      10.187  -7.796   0.366  1.00  0.00    -0.385 OA
ATOM     22  H   UNL     1       9.843  -8.727   0.373  1.00  0.00     0.211 HD
ENDBRANCH  13  21
ENDBRANCH   7   8
ENDBRANCH   1   7
BRANCH   2  23
ATOM     23  C   UNL     1      13.791  -3.722  -2.536  1.00  0.00     0.191 C 
BRANCH  23  24
ATOM     24  O   UNL     1      14.189  -2.770  -1.590  1.00  0.00    -0.394 OA
ATOM     25  H   UNL     1      14.275  -3.257  -0.729  1.00  0.00     0.210 HD
ENDBRANCH  23  24
ENDBRANCH   2  23
BRANCH   6  26
ATOM     26  O   UNL     1      12.502  -8.441  -3.125  1.00  0.00    -0.387 OA
ATOM     27  H   UNL     1      11.717  -8.150  -2.587  1.00  0.00     0.211 HD
ENDBRANCH   6  26
BRANCH   5  28
ATOM     28  O   UNL     1      15.111  -9.124  -2.330  1.00  0.00    -0.385 OA
ATOM     29  H   UNL     1      14.373  -9.764  -2.505  1.00  0.00     0.211 HD
ENDBRANCH   5  28
BRANCH   4  30
ATOM     30  O   UNL     1      16.896  -7.289  -2.124  1.00  0.00    -0.341 OA
BRANCH  30  31
ATOM     31  C   UNL     1      17.517  -8.177  -1.197  1.00  0.00     0.184 C 
ATOM     32  C   UNL     1      17.285  -7.695   0.277  1.00  0.00     0.178 C 
ATOM     33  C   UNL     1      19.043  -8.207  -1.452  1.00  0.00     0.180 C 
ATOM     34  O   UNL     1      18.285  -6.811   0.780  1.00  0.00    -0.342 OA
ATOM     35  C   UNL     1      19.645  -6.794  -1.250  1.00  0.00     0.201 C 
ATOM     36  C   UNL     1      18.822  -5.971  -0.225  1.00  0.00     0.279 C 
BRANCH  32  37
ATOM     37  C   UNL     1      15.880  -7.116   0.540  1.00  0.00     0.191 C 
BRANCH  37  38
ATOM     38  O   UNL     1      15.306  -7.677   1.692  1.00  0.00    -0.394 OA
ATOM     39  H   UNL     1      14.624  -7.036   2.027  1.00  0.00     0.210 HD
ENDBRANCH  37  38
ENDBRANCH  32  37
BRANCH  33  40
ATOM     40  O   UNL     1      19.652  -9.125  -0.577  1.00  0.00    -0.387 OA
ATOM     41  H   UNL     1      20.538  -9.350  -0.967  1.00  0.00     0.211 HD
ENDBRANCH  33  40
BRANCH  35  42
ATOM     42  O   UNL     1      20.988  -6.891  -0.842  1.00  0.00    -0.385 OA
ATOM     43  H   UNL     1      21.205  -7.861  -0.806  1.00  0.00     0.211 HD
ENDBRANCH  35  42
BRANCH  36  44
ATOM     44  O   UNL     1      19.609  -4.965   0.358  1.00  0.00    -0.366 OA
ATOM     45  H   UNL     1      20.518  -5.030  -0.038  1.00  0.00     0.213 HD
ENDBRANCH  36  44
ENDBRANCH  30  31
ENDBRANCH   4  30
TORSDOF 18
ENDMDL
MODEL 6
REMARK VINA RESULT:     1.843      1.848      3.966
REMARK INTER + INTRA:           3.714
REMARK INTER:                   1.979
REMARK INTRA:                   1.735
REMARK UNBOUND:                 0.525
REMARK SMILES OC[C@@H]1O[C@H](O[C@H]2[C@H](O)[C@H](O)[C@H](O)O[C@H]2CO)[C@H](O)[C@@H](O)[C@H]1O[C@@H]1O[C@H](CO)[C@H](O)[C@H](O)[C@@H]1O
REMARK SMILES IDX 22 1 3 2 4 3 5 4 18 5 20 6 23 7 24 8 26 9 29 10 25 11 31 12
REMARK SMILES IDX 33 13 27 14 28 15 30 17 32 19 34 21 2 23 1 24 21 26 19 28
REMARK SMILES IDX 6 30 7 31 15 32 8 33 14 34 10 35 12 36 16 37 17 38 9 40
REMARK SMILES IDX 11 42 13 44
REMARK H PARENT 28 16 30 18 32 20 34 22 1 25 21 27 19 29 17 39 9 41 11 43
REMARK H PARENT 13 45
REMARK Flexibility Score: inf
ROOT
ATOM      1  C   UNL     1      12.322  -5.260  -1.738  1.00  0.00     0.184 C 
ATOM      2  C   UNL     1      11.854  -4.467  -3.007  1.00  0.00     0.178 C 
ATOM      3  O   UNL     1      10.453  -4.255  -2.986  1.00  0.00    -0.341 OA
ATOM      4  C   UNL     1       9.737  -5.479  -3.123  1.00  0.00     0.282 C 
ATOM      5  C   UNL     1      10.180  -6.539  -2.073  1.00  0.00     0.202 C 
ATOM      6  C   UNL     1      11.103  -5.893  -1.028  1.00  0.00     0.180 C 
ENDROOT
BRANCH   1   7
ATOM      7  O   UNL     1      13.204  -6.311  -2.113  1.00  0.00    -0.341 OA
BRANCH   7   8
ATOM      8  C   UNL     1      14.539  -5.880  -2.334  1.00  0.00     0.282 C 
ATOM      9  C   UNL     1      15.554  -8.060  -2.456  1.00  0.00     0.178 C 
ATOM     10  C   UNL     1      16.175  -7.890  -1.037  1.00  0.00     0.177 C 
ATOM     11  O   UNL     1      15.248  -6.833  -3.116  1.00  0.00    -0.341 OA
ATOM     12  C   UNL     1      15.450  -6.850  -0.164  1.00  0.00     0.179 C 
ATOM     13  C   UNL     1      15.249  -5.578  -0.999  1.00  0.00     0.202 C 
BRANCH   9  14
ATOM     14  C   UNL     1      14.434  -9.111  -2.609  1.00  0.00     0.191 C 
BRANCH  14  15
ATOM     15  O   UNL     1      13.434  -8.967  -1.641  1.00  0.00    -0.394 OA
ATOM     16  H   UNL     1      13.851  -8.472  -0.887  1.00  0.00     0.210 HD
ENDBRANCH  14  15
ENDBRANCH   9  14
BRANCH  10  17
ATOM     17  O   UNL     1      16.342  -9.121  -0.372  1.00  0.00    -0.387 OA
ATOM     18  H   UNL     1      16.268  -9.848  -1.040  1.00  0.00     0.211 HD
ENDBRANCH  10  17
BRANCH  12  19
ATOM     19  O   UNL     1      14.214  -7.335   0.300  1.00  0.00    -0.387 OA
ATOM     20  H   UNL     1      14.405  -7.973   1.035  1.00  0.00     0.211 HD
ENDBRANCH  12  19
BRANCH  13  21
ATOM     21  O   UNL     1      14.579  -4.575  -0.273  1.00  0.00    -0.385 OA
ATOM     22  H   UNL     1      13.670  -4.907  -0.053  1.00  0.00     0.211 HD
ENDBRANCH  13  21
ENDBRANCH   7   8
ENDBRANCH   1   7
BRANCH   2  23
ATOM     23  C   UNL     1      12.518  -3.085  -3.105  1.00  0.00     0.191 C 
BRANCH  23  24
ATOM     24  O   UNL     1      13.812  -3.114  -2.571  1.00  0.00    -0.394 OA
ATOM     25  H   UNL     1      14.362  -2.526  -3.152  1.00  0.00     0.210 HD
ENDBRANCH  23  24
ENDBRANCH   2  23
BRANCH   6  26
ATOM     26  O   UNL     1      11.519  -6.857  -0.096  1.00  0.00    -0.387 OA
ATOM     27  H   UNL     1      11.476  -7.737  -0.557  1.00  0.00     0.211 HD
ENDBRANCH   6  26
BRANCH   5  28
ATOM     28  O   UNL     1       9.069  -7.126  -1.449  1.00  0.00    -0.385 OA
ATOM     29  H   UNL     1       8.434  -6.395  -1.229  1.00  0.00     0.211 HD
ENDBRANCH   5  28
BRANCH   4  30
ATOM     30  O   UNL     1       8.319  -5.299  -3.091  1.00  0.00    -0.341 OA
BRANCH  30  31
ATOM     31  C   UNL     1       7.768  -5.051  -1.798  1.00  0.00     0.184 C 
ATOM     32  C   UNL     1       6.302  -4.506  -1.913  1.00  0.00     0.178 C 
ATOM     33  C   UNL     1       8.617  -3.982  -1.071  1.00  0.00     0.180 C 
ATOM     34  O   UNL     1       6.199  -3.085  -1.995  1.00  0.00    -0.342 OA
ATOM     35  C   UNL     1       8.601  -2.654  -1.870  1.00  0.00     0.201 C 
ATOM     36  C   UNL     1       7.290  -2.501  -2.683  1.00  0.00     0.279 C 
BRANCH  32  37
ATOM     37  C   UNL     1       5.465  -5.167  -3.027  1.00  0.00     0.191 C 
BRANCH  37  38
ATOM     38  O   UNL     1       5.267  -6.533  -2.772  1.00  0.00    -0.394 OA
ATOM     39  H   UNL     1       5.160  -6.640  -1.790  1.00  0.00     0.210 HD
ENDBRANCH  37  38
ENDBRANCH  32  37
BRANCH  33  40
ATOM     40  O   UNL     1       8.111  -3.776   0.225  1.00  0.00    -0.387 OA
ATOM     41  H   UNL     1       7.664  -2.887   0.222  1.00  0.00     0.211 HD
ENDBRANCH  33  40
BRANCH  35  42
ATOM     42  O   UNL     1       8.774  -1.561  -1.000  1.00  0.00    -0.385 OA
ATOM     43  H   UNL     1       7.876  -1.347  -0.631  1.00  0.00     0.211 HD
ENDBRANCH  35  42
BRANCH  36  44
ATOM     44  O   UNL     1       7.021  -1.149  -2.952  1.00  0.00    -0.366 OA
ATOM     45  H   UNL     1       7.501  -0.608  -2.271  1.00  0.00     0.213 HD
ENDBRANCH  36  44
ENDBRANCH  30  31
ENDBRANCH   4  30
TORSDOF 18
ENDMDL
MODEL 7
REMARK VINA RESULT:     2.644      1.853      8.294
REMARK INTER + INTRA:           5.101
REMARK INTER:                   2.170
REMARK INTRA:                   2.931
REMARK UNBOUND:                 0.525
REMARK SMILES OC[C@@H]1O[C@H](O[C@H]2[C@H](O)[C@H](O)[C@H](O)O[C@H]2CO)[C@H](O)[C@@H](O)[C@H]1O[C@@H]1O[C@H](CO)[C@H](O)[C@H](O)[C@@H]1O
REMARK SMILES IDX 22 1 3 2 4 3 5 4 18 5 20 6 23 7 24 8 26 9 29 10 25 11 31 12
REMARK SMILES IDX 33 13 27 14 28 15 30 17 32 19 34 21 2 23 1 24 21 26 19 28
REMARK SMILES IDX 6 30 7 31 15 32 8 33 14 34 10 35 12 36 16 37 17 38 9 40
REMARK SMILES IDX 11 42 13 44
REMARK H PARENT 28 16 30 18 32 20 34 22 1 25 21 27 19 29 17 39 9 41 11 43
REMARK H PARENT 13 45
REMARK Flexibility Score: inf
ROOT
ATOM      1  C   UNL     1       8.756  -6.266  -1.736  1.00  0.00     0.184 C 
ATOM      2  C   UNL     1       9.209  -7.530  -2.546  1.00  0.00     0.178 C 
ATOM      3  O   UNL     1      10.607  -7.731  -2.435  1.00  0.00    -0.341 OA
ATOM      4  C   UNL     1      11.338  -6.691  -3.078  1.00  0.00     0.282 C 
ATOM      5  C   UNL     1      10.912  -5.279  -2.581  1.00  0.00     0.202 C 
ATOM      6  C   UNL     1       9.985  -5.407  -1.362  1.00  0.00     0.180 C 
ENDROOT
BRANCH   1   7
ATOM      7  O   UNL     1       7.886  -5.463  -2.525  1.00  0.00    -0.341 OA
BRANCH   7   8
ATOM      8  C   UNL     1       6.515  -5.808  -2.388  1.00  0.00     0.282 C 
ATOM      9  C   UNL     1       5.613  -3.584  -2.576  1.00  0.00     0.178 C 
ATOM     10  C   UNL     1       5.324  -3.532  -1.046  1.00  0.00     0.177 C 
ATOM     11  O   UNL     1       5.697  -4.902  -3.116  1.00  0.00    -0.341 OA
ATOM     12  C   UNL     1       6.175  -4.515  -0.221  1.00  0.00     0.179 C 
ATOM     13  C   UNL     1       6.114  -5.890  -0.901  1.00  0.00     0.202 C 
BRANCH   9  14
ATOM     14  C   UNL     1       6.721  -2.653  -3.112  1.00  0.00     0.191 C 
BRANCH  14  15
ATOM     15  O   UNL     1       7.738  -2.443  -2.174  1.00  0.00    -0.394 OA
ATOM     16  H   UNL     1       8.513  -2.089  -2.685  1.00  0.00     0.210 HD
ENDBRANCH  14  15
ENDBRANCH   9  14
BRANCH  10  17
ATOM     17  O   UNL     1       5.376  -2.221  -0.533  1.00  0.00    -0.387 OA
ATOM     18  H   UNL     1       5.141  -1.592  -1.261  1.00  0.00     0.211 HD
ENDBRANCH  10  17
BRANCH  12  19
ATOM     19  O   UNL     1       7.507  -4.080  -0.110  1.00  0.00    -0.387 OA
ATOM     20  H   UNL     1       7.830  -4.347   0.789  1.00  0.00     0.211 HD
ENDBRANCH  12  19
BRANCH  13  21
ATOM     21  O   UNL     1       6.879  -6.849  -0.211  1.00  0.00    -0.385 OA
ATOM     22  H   UNL     1       6.639  -7.746  -0.560  1.00  0.00     0.211 HD
ENDBRANCH  13  21
ENDBRANCH   7   8
ENDBRANCH   1   7
BRANCH   2  23
ATOM     23  C   UNL     1       8.527  -8.813  -2.047  1.00  0.00     0.191 C 
BRANCH  23  24
ATOM     24  O   UNL     1       8.442  -8.822  -0.649  1.00  0.00    -0.394 OA
ATOM     25  H   UNL     1       8.949  -8.026  -0.339  1.00  0.00     0.210 HD
ENDBRANCH  23  24
ENDBRANCH   2  23
BRANCH   6  26
ATOM     26  O   UNL     1       9.585  -4.132  -0.929  1.00  0.00    -0.387 OA
ATOM     27  H   UNL     1       9.827  -4.069   0.033  1.00  0.00     0.211 HD
ENDBRANCH   6  26
BRANCH   5  28
ATOM     28  O   UNL     1      12.033  -4.497  -2.264  1.00  0.00    -0.385 OA
ATOM     29  H   UNL     1      12.778  -5.120  -2.056  1.00  0.00     0.211 HD
ENDBRANCH   5  28
BRANCH   4  30
ATOM     30  O   UNL     1      12.754  -6.859  -2.970  1.00  0.00    -0.341 OA
BRANCH  30  31
ATOM     31  C   UNL     1      13.319  -6.452  -1.725  1.00  0.00     0.184 C 
ATOM     32  C   UNL     1      14.557  -5.516  -1.955  1.00  0.00     0.178 C 
ATOM     33  C   UNL     1      13.804  -7.697  -0.946  1.00  0.00     0.180 C 
ATOM     34  O   UNL     1      15.807  -6.195  -2.058  1.00  0.00    -0.342 OA
ATOM     35  C   UNL     1      14.895  -8.443  -1.756  1.00  0.00     0.201 C 
ATOM     36  C   UNL     1      15.684  -7.467  -2.667  1.00  0.00     0.279 C 
BRANCH  32  37
ATOM     37  C   UNL     1      14.391  -4.522  -3.122  1.00  0.00     0.191 C 
BRANCH  37  38
ATOM     38  O   UNL     1      14.207  -3.212  -2.653  1.00  0.00    -0.394 OA
ATOM     39  H   UNL     1      14.816  -3.085  -1.879  1.00  0.00     0.210 HD
ENDBRANCH  37  38
ENDBRANCH  32  37
BRANCH  33  40
ATOM     40  O   UNL     1      14.311  -7.305   0.307  1.00  0.00    -0.387 OA
ATOM     41  H   UNL     1      14.590  -6.355   0.219  1.00  0.00     0.211 HD
ENDBRANCH  33  40
BRANCH  35  42
ATOM     42  O   UNL     1      15.767  -9.123  -0.886  1.00  0.00    -0.385 OA
ATOM     43  H   UNL     1      15.381  -9.039   0.026  1.00  0.00     0.211 HD
ENDBRANCH  35  42
BRANCH  36  44
ATOM     44  O   UNL     1      16.957  -7.981  -2.969  1.00  0.00    -0.366 OA
ATOM     45  H   UNL     1      17.409  -8.182  -2.107  1.00  0.00     0.213 HD
ENDBRANCH  36  44
ENDBRANCH  30  31
ENDBRANCH   4  30
TORSDOF 18
ENDMDL
MODEL 8
REMARK VINA RESULT:     2.759      1.560      3.010
REMARK INTER + INTRA:           5.299
REMARK INTER:                   1.732
REMARK INTRA:                   3.568
REMARK UNBOUND:                 0.525
REMARK SMILES OC[C@@H]1O[C@H](O[C@H]2[C@H](O)[C@H](O)[C@H](O)O[C@H]2CO)[C@H](O)[C@@H](O)[C@H]1O[C@@H]1O[C@H](CO)[C@H](O)[C@H](O)[C@@H]1O
REMARK SMILES IDX 22 1 3 2 4 3 5 4 18 5 20 6 23 7 24 8 26 9 29 10 25 11 31 12
REMARK SMILES IDX 33 13 27 14 28 15 30 17 32 19 34 21 2 23 1 24 21 26 19 28
REMARK SMILES IDX 6 30 7 31 15 32 8 33 14 34 10 35 12 36 16 37 17 38 9 40
REMARK SMILES IDX 11 42 13 44
REMARK H PARENT 28 16 30 18 32 20 34 22 1 25 21 27 19 29 17 39 9 41 11 43
REMARK H PARENT 13 45
REMARK Flexibility Score: inf
ROOT
ATOM      1  C   UNL     1      14.630  -5.879  -0.975  1.00  0.00     0.184 C 
ATOM      2  C   UNL     1      14.074  -5.075  -2.201  1.00  0.00     0.178 C 
ATOM      3  O   UNL     1      12.668  -5.210  -2.303  1.00  0.00    -0.341 OA
ATOM      4  C   UNL     1      12.293  -6.545  -2.631  1.00  0.00     0.282 C 
ATOM      5  C   UNL     1      12.908  -7.586  -1.652  1.00  0.00     0.202 C 
ATOM      6  C   UNL     1      13.559  -6.868  -0.460  1.00  0.00     0.180 C 
ENDROOT
BRANCH   1   7
ATOM      7  O   UNL     1      15.772  -6.634  -1.360  1.00  0.00    -0.341 OA
BRANCH   7   8
ATOM      8  C   UNL     1      15.842  -7.912  -0.743  1.00  0.00     0.282 C 
ATOM      9  C   UNL     1      18.110  -7.752   0.048  1.00  0.00     0.178 C 
ATOM     10  C   UNL     1      18.606  -8.723  -1.066  1.00  0.00     0.177 C 
ATOM     11  O   UNL     1      16.726  -7.880   0.369  1.00  0.00    -0.341 OA
ATOM     12  C   UNL     1      17.664  -8.803  -2.281  1.00  0.00     0.179 C 
ATOM     13  C   UNL     1      16.231  -8.997  -1.767  1.00  0.00     0.202 C 
BRANCH   9  14
ATOM     14  C   UNL     1      18.560  -6.279  -0.057  1.00  0.00     0.191 C 
BRANCH  14  15
ATOM     15  O   UNL     1      19.671  -6.121  -0.893  1.00  0.00    -0.394 OA
ATOM     16  H   UNL     1      20.194  -5.366  -0.514  1.00  0.00     0.210 HD
ENDBRANCH  14  15
ENDBRANCH   9  14
BRANCH  10  17
ATOM     17  O   UNL     1      19.941  -8.476  -1.440  1.00  0.00    -0.387 OA
ATOM     18  H   UNL     1      20.023  -8.626  -2.416  1.00  0.00     0.211 HD
ENDBRANCH  10  17
BRANCH  12  19
ATOM     19  O   UNL     1      17.749  -7.649  -3.079  1.00  0.00    -0.387 OA
ATOM     20  H   UNL     1      16.833  -7.443  -3.398  1.00  0.00     0.211 HD
ENDBRANCH  12  19
BRANCH  13  21
ATOM     21  O   UNL     1      15.302  -9.070  -2.821  1.00  0.00    -0.385 OA
ATOM     22  H   UNL     1      15.164 -10.026  -3.047  1.00  0.00     0.211 HD
ENDBRANCH  13  21
ENDBRANCH   7   8
ENDBRANCH   1   7
BRANCH   2  23
ATOM     23  C   UNL     1      14.377  -3.572  -2.094  1.00  0.00     0.191 C 
BRANCH  23  24
ATOM     24  O   UNL     1      13.342  -2.814  -2.656  1.00  0.00    -0.394 OA
ATOM     25  H   UNL     1      13.775  -2.196  -3.302  1.00  0.00     0.210 HD
ENDBRANCH  23  24
ENDBRANCH   2  23
BRANCH   6  26
ATOM     26  O   UNL     1      14.132  -7.808   0.411  1.00  0.00    -0.387 OA
ATOM     27  H   UNL     1      13.385  -8.200   0.939  1.00  0.00     0.211 HD
ENDBRANCH   6  26
BRANCH   5  28
ATOM     28  O   UNL     1      11.935  -8.493  -1.205  1.00  0.00    -0.385 OA
ATOM     29  H   UNL     1      12.229  -9.401  -1.483  1.00  0.00     0.211 HD
ENDBRANCH   5  28
BRANCH   4  30
ATOM     30  O   UNL     1      10.876  -6.716  -2.727  1.00  0.00    -0.341 OA
BRANCH  30  31
ATOM     31  C   UNL     1      10.100  -5.604  -2.284  1.00  0.00     0.184 C 
ATOM     32  C   UNL     1       9.688  -5.777  -0.780  1.00  0.00     0.178 C 
ATOM     33  C   UNL     1       8.804  -5.511  -3.123  1.00  0.00     0.180 C 
ATOM     34  O   UNL     1       8.448  -6.452  -0.575  1.00  0.00    -0.342 OA
ATOM     35  C   UNL     1       7.959  -6.797  -2.945  1.00  0.00     0.201 C 
ATOM     36  C   UNL     1       8.202  -7.443  -1.556  1.00  0.00     0.279 C 
BRANCH  32  37
ATOM     37  C   UNL     1      10.785  -6.394   0.111  1.00  0.00     0.191 C 
BRANCH  37  38
ATOM     38  O   UNL     1      11.332  -5.438   0.981  1.00  0.00    -0.394 OA
ATOM     39  H   UNL     1      11.562  -4.639   0.438  1.00  0.00     0.210 HD
ENDBRANCH  37  38
ENDBRANCH  32  37
BRANCH  33  40
ATOM     40  O   UNL     1       8.063  -4.383  -2.727  1.00  0.00    -0.387 OA
ATOM     41  H   UNL     1       7.922  -4.461  -1.746  1.00  0.00     0.211 HD
ENDBRANCH  33  40
BRANCH  35  42
ATOM     42  O   UNL     1       6.593  -6.510  -3.125  1.00  0.00    -0.385 OA
ATOM     43  H   UNL     1       6.116  -7.383  -3.118  1.00  0.00     0.211 HD
ENDBRANCH  35  42
BRANCH  36  44
ATOM     44  O   UNL     1       7.109  -8.238  -1.174  1.00  0.00    -0.366 OA
ATOM     45  H   UNL     1       7.443  -9.166  -1.050  1.00  0.00     0.213 HD
ENDBRANCH  36  44
ENDBRANCH  30  31
ENDBRANCH   4  30
TORSDOF 18
ENDMDL
MODEL 9
REMARK VINA RESULT:     2.805      1.751      8.596
REMARK INTER + INTRA:           5.379
REMARK INTER:                   5.009
REMARK INTRA:                   0.370
REMARK UNBOUND:                 0.525
REMARK SMILES OC[C@@H]1O[C@H](O[C@H]2[C@H](O)[C@H](O)[C@H](O)O[C@H]2CO)[C@H](O)[C@@H](O)[C@H]1O[C@@H]1O[C@H](CO)[C@H](O)[C@H](O)[C@@H]1O
REMARK SMILES IDX 22 1 3 2 4 3 5 4 18 5 20 6 23 7 24 8 26 9 29 10 25 11 31 12
REMARK SMILES IDX 33 13 27 14 28 15 30 17 32 19 34 21 2 23 1 24 21 26 19 28
REMARK SMILES IDX 6 30 7 31 15 32 8 33 14 34 10 35 12 36 16 37 17 38 9 40
REMARK SMILES IDX 11 42 13 44
REMARK H PARENT 28 16 30 18 32 20 34 22 1 25 21 27 19 29 17 39 9 41 11 43
REMARK H PARENT 13 45
REMARK Flexibility Score: inf
ROOT
ATOM      1  C   UNL     1       9.573  -5.144  -1.025  1.00  0.00     0.184 C 
ATOM      2  C   UNL     1      10.330  -5.728  -2.267  1.00  0.00     0.178 C 
ATOM      3  O   UNL     1      11.450  -6.498  -1.865  1.00  0.00    -0.341 OA
ATOM      4  C   UNL     1      12.453  -5.686  -1.262  1.00  0.00     0.282 C 
ATOM      5  C   UNL     1      11.890  -4.825  -0.095  1.00  0.00     0.202 C 
ATOM      6  C   UNL     1      10.456  -5.263   0.239  1.00  0.00     0.180 C 
ENDROOT
BRANCH   1   7
ATOM      7  O   UNL     1       9.285  -3.766  -1.228  1.00  0.00    -0.341 OA
BRANCH   7   8
ATOM      8  C   UNL     1       8.353  -3.237  -0.295  1.00  0.00     0.282 C 
ATOM      9  C   UNL     1       6.389  -4.323  -1.167  1.00  0.00     0.178 C 
ATOM     10  C   UNL     1       5.886  -2.988  -1.795  1.00  0.00     0.177 C 
ATOM     11  O   UNL     1       7.292  -4.157  -0.075  1.00  0.00    -0.341 OA
ATOM     12  C   UNL     1       7.003  -1.955  -2.030  1.00  0.00     0.179 C 
ATOM     13  C   UNL     1       7.843  -1.855  -0.750  1.00  0.00     0.202 C 
BRANCH   9  14
ATOM     14  C   UNL     1       6.838  -5.430  -2.144  1.00  0.00     0.191 C 
BRANCH  14  15
ATOM     15  O   UNL     1       5.856  -5.731  -3.093  1.00  0.00    -0.394 OA
ATOM     16  H   UNL     1       6.322  -5.762  -3.970  1.00  0.00     0.210 HD
ENDBRANCH  14  15
ENDBRANCH   9  14
BRANCH  10  17
ATOM     17  O   UNL     1       5.101  -3.197  -2.946  1.00  0.00    -0.387 OA
ATOM     18  H   UNL     1       4.624  -2.355  -3.155  1.00  0.00     0.211 HD
ENDBRANCH  10  17
BRANCH  12  19
ATOM     19  O   UNL     1       7.812  -2.307  -3.125  1.00  0.00    -0.387 OA
ATOM     20  H   UNL     1       7.491  -3.184  -3.459  1.00  0.00     0.211 HD
ENDBRANCH  12  19
BRANCH  13  21
ATOM     21  O   UNL     1       8.898  -0.934  -0.886  1.00  0.00    -0.385 OA
ATOM     22  H   UNL     1       9.752  -1.418  -0.746  1.00  0.00     0.211 HD
ENDBRANCH  13  21
ENDBRANCH   7   8
ENDBRANCH   1   7
BRANCH   2  23
ATOM     23  C   UNL     1       9.434  -6.644  -3.115  1.00  0.00     0.191 C 
BRANCH  23  24
ATOM     24  O   UNL     1       9.814  -7.984  -2.973  1.00  0.00    -0.394 OA
ATOM     25  H   UNL     1      10.544  -7.992  -2.300  1.00  0.00     0.210 HD
ENDBRANCH  23  24
ENDBRANCH   2  23
BRANCH   6  26
ATOM     26  O   UNL     1       9.943  -4.469   1.277  1.00  0.00    -0.387 OA
ATOM     27  H   UNL     1      10.276  -4.862   2.128  1.00  0.00     0.211 HD
ENDBRANCH   6  26
BRANCH   5  28
ATOM     28  O   UNL     1      12.708  -4.920   1.041  1.00  0.00    -0.385 OA
ATOM     29  H   UNL     1      12.173  -5.355   1.755  1.00  0.00     0.211 HD
ENDBRANCH   5  28
BRANCH   4  30
ATOM     30  O   UNL     1      13.591  -6.439  -0.832  1.00  0.00    -0.341 OA
BRANCH  30  31
ATOM     31  C   UNL     1      14.441  -6.903  -1.879  1.00  0.00     0.184 C 
ATOM     32  C   UNL     1      14.454  -8.471  -1.932  1.00  0.00     0.178 C 
ATOM     33  C   UNL     1      15.890  -6.425  -1.619  1.00  0.00     0.180 C 
ATOM     34  O   UNL     1      15.460  -9.087  -1.130  1.00  0.00    -0.342 OA
ATOM     35  C   UNL     1      16.409  -7.002  -0.278  1.00  0.00     0.201 C 
ATOM     36  C   UNL     1      15.732  -8.357   0.053  1.00  0.00     0.279 C 
BRANCH  32  37
ATOM     37  C   UNL     1      13.083  -9.125  -1.663  1.00  0.00     0.191 C 
BRANCH  37  38
ATOM     38  O   UNL     1      12.264  -9.076  -2.802  1.00  0.00    -0.394 OA
ATOM     39  H   UNL     1      11.468  -9.642  -2.620  1.00  0.00     0.210 HD
ENDBRANCH  37  38
ENDBRANCH  32  37
BRANCH  33  40
ATOM     40  O   UNL     1      16.721  -6.833  -2.678  1.00  0.00    -0.387 OA
ATOM     41  H   UNL     1      17.567  -7.159  -2.271  1.00  0.00     0.211 HD
ENDBRANCH  33  40
BRANCH  35  42
ATOM     42  O   UNL     1      17.808  -7.144  -0.319  1.00  0.00    -0.385 OA
ATOM     43  H   UNL     1      18.187  -6.373   0.183  1.00  0.00     0.211 HD
ENDBRANCH  35  42
BRANCH  36  44
ATOM     44  O   UNL     1      16.535  -9.122   0.915  1.00  0.00    -0.366 OA
ATOM     45  H   UNL     1      17.314  -9.445   0.389  1.00  0.00     0.213 HD
ENDBRANCH  36  44
ENDBRANCH  30  31
ENDBRANCH   4  30
TORSDOF 18
ENDMDL
