MODEL 1
REMARK VINA RESULT:    -2.788      0.000      0.000
REMARK INTER + INTRA:          -7.551
REMARK INTER:                  -5.152
REMARK INTRA:                  -2.400
REMARK UNBOUND:                -2.400
REMARK SMILES CCCCCCCCCCCCCCCCO
REMARK SMILES IDX 9 1 8 2 7 3 6 4 5 5 4 6 3 7 2 8 1 9 10 10 11 11 12 12 13 13
REMARK SMILES IDX 14 14 15 15 16 16 17 17
REMARK H PARENT 17 18
REMARK Flexibility Score: inf
ROOT
ATOM      1  C   UNL     1     146.453 161.973 152.782  1.00  0.00     0.000 C 
ENDROOT
BRANCH   1   2
ATOM      2  C   UNL     1     145.969 163.427 152.711  1.00  0.00    -0.000 C 
BRANCH   2   3
ATOM      3  C   UNL     1     146.308 164.184 154.001  1.00  0.00    -0.000 C 
BRANCH   3   4
ATOM      4  C   UNL     1     147.429 165.206 153.760  1.00  0.00    -0.000 C 
BRANCH   4   5
ATOM      5  C   UNL     1     148.773 164.763 154.360  1.00  0.00    -0.000 C 
BRANCH   5   6
ATOM      6  C   UNL     1     148.610 163.696 155.452  1.00  0.00    -0.000 C 
BRANCH   6   7
ATOM      7  C   UNL     1     149.653 162.583 155.293  1.00  0.00    -0.000 C 
BRANCH   7   8
ATOM      8  C   UNL     1     148.997 161.199 155.360  1.00  0.00    -0.003 C 
ATOM      9  C   UNL     1     147.660 161.259 156.094  1.00  0.00     0.004 C 
ENDBRANCH   7   8
ENDBRANCH   6   7
ENDBRANCH   5   6
ENDBRANCH   4   5
ENDBRANCH   3   4
ENDBRANCH   2   3
ENDBRANCH   1   2
BRANCH   1  10
ATOM     10  C   UNL     1     147.246 161.594 151.524  1.00  0.00     0.000 C 
BRANCH  10  11
ATOM     11  C   UNL     1     148.394 162.585 151.280  1.00  0.00     0.000 C 
BRANCH  11  12
ATOM     12  C   UNL     1     149.751 162.053 151.768  1.00  0.00     0.000 C 
BRANCH  12  13
ATOM     13  C   UNL     1     149.909 160.540 151.540  1.00  0.00     0.000 C 
BRANCH  13  14
ATOM     14  C   UNL     1     151.194 159.978 152.172  1.00  0.00     0.002 C 
BRANCH  14  15
ATOM     15  C   UNL     1     150.913 158.884 153.216  1.00  0.00     0.028 C 
BRANCH  15  16
ATOM     16  C   UNL     1     151.818 157.668 153.016  1.00  0.00     0.156 C 
BRANCH  16  17
ATOM     17  O   UNL     1     151.055 156.494 152.996  1.00  0.00    -0.396 OA
ATOM     18  H   UNL     1     150.105 156.784 152.994  1.00  0.00     0.210 HD
ENDBRANCH  16  17
ENDBRANCH  15  16
ENDBRANCH  14  15
ENDBRANCH  13  14
ENDBRANCH  12  13
ENDBRANCH  11  12
ENDBRANCH  10  11
ENDBRANCH   1  10
TORSDOF 15
ENDMDL
MODEL 2
REMARK VINA RESULT:    -2.767      3.486      5.810
REMARK INTER + INTRA:          -7.511
REMARK INTER:                  -5.430
REMARK INTRA:                  -2.081
REMARK UNBOUND:                -2.400
REMARK SMILES CCCCCCCCCCCCCCCCO
REMARK SMILES IDX 9 1 8 2 7 3 6 4 5 5 4 6 3 7 2 8 1 9 10 10 11 11 12 12 13 13
REMARK SMILES IDX 14 14 15 15 16 16 17 17
REMARK H PARENT 17 18
REMARK Flexibility Score: inf
ROOT
ATOM      1  C   UNL     1     149.365 160.623 151.683  1.00  0.00     0.000 C 
ENDROOT
BRANCH   1   2
ATOM      2  C   UNL     1     149.859 160.526 153.131  1.00  0.00    -0.000 C 
BRANCH   2   3
ATOM      3  C   UNL     1     149.908 161.910 153.791  1.00  0.00    -0.000 C 
BRANCH   3   4
ATOM      4  C   UNL     1     149.241 161.883 155.175  1.00  0.00    -0.000 C 
BRANCH   4   5
ATOM      5  C   UNL     1     147.808 161.329 155.130  1.00  0.00    -0.000 C 
BRANCH   5   6
ATOM      6  C   UNL     1     146.784 162.286 155.759  1.00  0.00    -0.000 C 
BRANCH   6   7
ATOM      7  C   UNL     1     147.305 163.728 155.752  1.00  0.00    -0.000 C 
BRANCH   7   8
ATOM      8  C   UNL     1     146.147 164.732 155.775  1.00  0.00    -0.003 C 
ATOM      9  C   UNL     1     146.657 166.166 155.662  1.00  0.00     0.004 C 
ENDBRANCH   7   8
ENDBRANCH   6   7
ENDBRANCH   5   6
ENDBRANCH   4   5
ENDBRANCH   3   4
ENDBRANCH   2   3
ENDBRANCH   1   2
BRANCH   1  10
ATOM     10  C   UNL     1     148.564 161.912 151.459  1.00  0.00     0.000 C 
BRANCH  10  11
ATOM     11  C   UNL     1     147.054 161.639 151.527  1.00  0.00     0.000 C 
BRANCH  11  12
ATOM     12  C   UNL     1     146.240 162.891 151.891  1.00  0.00     0.000 C 
BRANCH  12  13
ATOM     13  C   UNL     1     147.131 164.079 152.295  1.00  0.00     0.000 C 
BRANCH  13  14
ATOM     14  C   UNL     1     146.666 165.406 151.672  1.00  0.00     0.002 C 
BRANCH  14  15
ATOM     15  C   UNL     1     147.467 166.614 152.185  1.00  0.00     0.028 C 
BRANCH  15  16
ATOM     16  C   UNL     1     148.246 167.294 151.058  1.00  0.00     0.156 C 
BRANCH  16  17
ATOM     17  O   UNL     1     147.897 168.648 150.977  1.00  0.00    -0.396 OA
ATOM     18  H   UNL     1     148.244 169.071 151.806  1.00  0.00     0.210 HD
ENDBRANCH  16  17
ENDBRANCH  15  16
ENDBRANCH  14  15
ENDBRANCH  13  14
ENDBRANCH  12  13
ENDBRANCH  11  12
ENDBRANCH  10  11
ENDBRANCH   1  10
TORSDOF 15
ENDMDL
MODEL 3
REMARK VINA RESULT:    -2.714      3.136      5.887
REMARK INTER + INTRA:          -7.414
REMARK INTER:                  -4.870
REMARK INTRA:                  -2.543
REMARK UNBOUND:                -2.400
REMARK SMILES CCCCCCCCCCCCCCCCO
REMARK SMILES IDX 9 1 8 2 7 3 6 4 5 5 4 6 3 7 2 8 1 9 10 10 11 11 12 12 13 13
REMARK SMILES IDX 14 14 15 15 16 16 17 17
REMARK H PARENT 17 18
REMARK Flexibility Score: inf
ROOT
ATOM      1  C   UNL     1     148.869 163.639 155.375  1.00  0.00     0.000 C 
ENDROOT
BRANCH   1   2
ATOM      2  C   UNL     1     147.557 162.859 155.524  1.00  0.00    -0.000 C 
BRANCH   2   3
ATOM      3  C   UNL     1     147.531 161.641 154.592  1.00  0.00    -0.000 C 
BRANCH   3   4
ATOM      4  C   UNL     1     146.740 161.947 153.311  1.00  0.00    -0.000 C 
BRANCH   4   5
ATOM      5  C   UNL     1     147.556 161.687 152.035  1.00  0.00    -0.000 C 
BRANCH   5   6
ATOM      6  C   UNL     1     148.959 161.136 152.332  1.00  0.00    -0.000 C 
BRANCH   6   7
ATOM      7  C   UNL     1     150.043 162.099 151.832  1.00  0.00    -0.000 C 
BRANCH   7   8
ATOM      8  C   UNL     1     149.843 162.430 150.348  1.00  0.00    -0.003 C 
ATOM      9  C   UNL     1     150.326 163.842 150.028  1.00  0.00     0.004 C 
ENDBRANCH   7   8
ENDBRANCH   6   7
ENDBRANCH   5   6
ENDBRANCH   4   5
ENDBRANCH   3   4
ENDBRANCH   2   3
ENDBRANCH   1   2
BRANCH   1  10
ATOM     10  C   UNL     1     148.610 165.065 154.875  1.00  0.00     0.000 C 
BRANCH  10  11
ATOM     11  C   UNL     1     149.321 165.316 153.537  1.00  0.00     0.000 C 
BRANCH  11  12
ATOM     12  C   UNL     1     148.381 165.885 152.462  1.00  0.00     0.000 C 
BRANCH  12  13
ATOM     13  C   UNL     1     146.899 165.785 152.861  1.00  0.00     0.000 C 
BRANCH  13  14
ATOM     14  C   UNL     1     146.010 165.281 151.711  1.00  0.00     0.002 C 
BRANCH  14  15
ATOM     15  C   UNL     1     146.825 164.729 150.529  1.00  0.00     0.028 C 
BRANCH  15  16
ATOM     16  C   UNL     1     146.639 165.577 149.270  1.00  0.00     0.156 C 
BRANCH  16  17
ATOM     17  O   UNL     1     147.010 164.846 148.135  1.00  0.00    -0.396 OA
ATOM     18  H   UNL     1     147.233 165.516 147.437  1.00  0.00     0.210 HD
ENDBRANCH  16  17
ENDBRANCH  15  16
ENDBRANCH  14  15
ENDBRANCH  13  14
ENDBRANCH  12  13
ENDBRANCH  11  12
ENDBRANCH  10  11
ENDBRANCH   1  10
TORSDOF 15
ENDMDL
MODEL 4
REMARK VINA RESULT:    -2.700      3.047      5.602
REMARK INTER + INTRA:          -7.388
REMARK INTER:                  -4.749
REMARK INTRA:                  -2.638
REMARK UNBOUND:                -2.400
REMARK SMILES CCCCCCCCCCCCCCCCO
REMARK SMILES IDX 9 1 8 2 7 3 6 4 5 5 4 6 3 7 2 8 1 9 10 10 11 11 12 12 13 13
REMARK SMILES IDX 14 14 15 15 16 16 17 17
REMARK H PARENT 17 18
REMARK Flexibility Score: inf
ROOT
ATOM      1  C   UNL     1     150.435 163.980 154.915  1.00  0.00     0.000 C 
ENDROOT
BRANCH   1   2
ATOM      2  C   UNL     1     149.129 164.346 155.631  1.00  0.00    -0.000 C 
BRANCH   2   3
ATOM      3  C   UNL     1     148.045 163.292 155.374  1.00  0.00    -0.000 C 
BRANCH   3   4
ATOM      4  C   UNL     1     146.802 163.927 154.732  1.00  0.00    -0.000 C 
BRANCH   4   5
ATOM      5  C   UNL     1     146.217 163.069 153.599  1.00  0.00    -0.000 C 
BRANCH   5   6
ATOM      6  C   UNL     1     146.987 161.756 153.394  1.00  0.00    -0.000 C 
BRANCH   6   7
ATOM      7  C   UNL     1     147.317 161.540 151.912  1.00  0.00    -0.000 C 
BRANCH   7   8
ATOM      8  C   UNL     1     148.740 160.998 151.738  1.00  0.00    -0.003 C 
ATOM      9  C   UNL     1     149.351 160.611 153.082  1.00  0.00     0.004 C 
ENDBRANCH   7   8
ENDBRANCH   6   7
ENDBRANCH   5   6
ENDBRANCH   4   5
ENDBRANCH   3   4
ENDBRANCH   2   3
ENDBRANCH   1   2
BRANCH   1  10
ATOM     10  C   UNL     1     150.658 164.869 153.686  1.00  0.00     0.000 C 
BRANCH  10  11
ATOM     11  C   UNL     1     150.367 164.097 152.390  1.00  0.00     0.000 C 
BRANCH  11  12
ATOM     12  C   UNL     1     149.225 164.720 151.572  1.00  0.00     0.000 C 
BRANCH  12  13
ATOM     13  C   UNL     1     148.589 165.933 152.272  1.00  0.00     0.000 C 
BRANCH  13  14
ATOM     14  C   UNL     1     147.120 166.146 151.869  1.00  0.00     0.002 C 
BRANCH  14  15
ATOM     15  C   UNL     1     146.960 166.516 150.385  1.00  0.00     0.028 C 
BRANCH  15  16
ATOM     16  C   UNL     1     145.877 165.675 149.708  1.00  0.00     0.156 C 
BRANCH  16  17
ATOM     17  O   UNL     1     145.876 164.375 150.231  1.00  0.00    -0.396 OA
ATOM     18  H   UNL     1     145.369 163.819 149.584  1.00  0.00     0.210 HD
ENDBRANCH  16  17
ENDBRANCH  15  16
ENDBRANCH  14  15
ENDBRANCH  13  14
ENDBRANCH  12  13
ENDBRANCH  11  12
ENDBRANCH  10  11
ENDBRANCH   1  10
TORSDOF 15
ENDMDL
MODEL 5
REMARK VINA RESULT:    -2.687      3.312      5.811
REMARK INTER + INTRA:          -7.363
REMARK INTER:                  -4.844
REMARK INTRA:                  -2.519
REMARK UNBOUND:                -2.400
REMARK SMILES CCCCCCCCCCCCCCCCO
REMARK SMILES IDX 9 1 8 2 7 3 6 4 5 5 4 6 3 7 2 8 1 9 10 10 11 11 12 12 13 13
REMARK SMILES IDX 14 14 15 15 16 16 17 17
REMARK H PARENT 17 18
REMARK Flexibility Score: inf
ROOT
ATOM      1  C   UNL     1     149.984 162.168 150.788  1.00  0.00     0.000 C 
ENDROOT
BRANCH   1   2
ATOM      2  C   UNL     1     150.351 163.656 150.714  1.00  0.00    -0.000 C 
BRANCH   2   3
ATOM      3  C   UNL     1     150.319 164.300 152.106  1.00  0.00    -0.000 C 
BRANCH   3   4
ATOM      4  C   UNL     1     149.993 165.798 152.010  1.00  0.00    -0.000 C 
BRANCH   4   5
ATOM      5  C   UNL     1     148.635 166.150 152.637  1.00  0.00    -0.000 C 
BRANCH   5   6
ATOM      6  C   UNL     1     147.562 166.468 151.585  1.00  0.00    -0.000 C 
BRANCH   6   7
ATOM      7  C   UNL     1     146.333 165.570 151.767  1.00  0.00    -0.000 C 
BRANCH   7   8
ATOM      8  C   UNL     1     146.217 164.558 150.621  1.00  0.00    -0.003 C 
ATOM      9  C   UNL     1     147.099 164.957 149.441  1.00  0.00     0.004 C 
ENDBRANCH   7   8
ENDBRANCH   6   7
ENDBRANCH   5   6
ENDBRANCH   4   5
ENDBRANCH   3   4
ENDBRANCH   2   3
ENDBRANCH   1   2
BRANCH   1  10
ATOM     10  C   UNL     1     148.640 161.967 151.499  1.00  0.00     0.000 C 
BRANCH  10  11
ATOM     11  C   UNL     1     148.776 160.966 152.656  1.00  0.00     0.000 C 
BRANCH  11  12
ATOM     12  C   UNL     1     148.341 161.557 154.007  1.00  0.00     0.000 C 
BRANCH  12  13
ATOM     13  C   UNL     1     147.466 162.812 153.848  1.00  0.00     0.000 C 
BRANCH  13  14
ATOM     14  C   UNL     1     147.524 163.733 155.078  1.00  0.00     0.002 C 
BRANCH  14  15
ATOM     15  C   UNL     1     146.164 164.375 155.403  1.00  0.00     0.028 C 
BRANCH  15  16
ATOM     16  C   UNL     1     146.299 165.874 155.676  1.00  0.00     0.156 C 
BRANCH  16  17
ATOM     17  O   UNL     1     147.612 166.181 156.056  1.00  0.00    -0.396 OA
ATOM     18  H   UNL     1     148.133 166.246 155.214  1.00  0.00     0.210 HD
ENDBRANCH  16  17
ENDBRANCH  15  16
ENDBRANCH  14  15
ENDBRANCH  13  14
ENDBRANCH  12  13
ENDBRANCH  11  12
ENDBRANCH  10  11
ENDBRANCH   1  10
TORSDOF 15
ENDMDL
MODEL 6
REMARK VINA RESULT:    -2.685      3.482      5.991
REMARK INTER + INTRA:          -7.361
REMARK INTER:                  -5.006
REMARK INTRA:                  -2.355
REMARK UNBOUND:                -2.400
REMARK SMILES CCCCCCCCCCCCCCCCO
REMARK SMILES IDX 9 1 8 2 7 3 6 4 5 5 4 6 3 7 2 8 1 9 10 10 11 11 12 12 13 13
REMARK SMILES IDX 14 14 15 15 16 16 17 17
REMARK H PARENT 17 18
REMARK Flexibility Score: inf
ROOT
ATOM      1  C   UNL     1     146.777 163.519 150.736  1.00  0.00     0.000 C 
ENDROOT
BRANCH   1   2
ATOM      2  C   UNL     1     146.176 162.591 151.799  1.00  0.00    -0.000 C 
BRANCH   2   3
ATOM      3  C   UNL     1     146.981 161.291 151.914  1.00  0.00    -0.000 C 
BRANCH   3   4
ATOM      4  C   UNL     1     148.041 161.397 153.021  1.00  0.00    -0.000 C 
BRANCH   4   5
ATOM      5  C   UNL     1     149.469 161.185 152.495  1.00  0.00    -0.000 C 
BRANCH   5   6
ATOM      6  C   UNL     1     150.147 162.498 152.078  1.00  0.00    -0.000 C 
BRANCH   6   7
ATOM      7  C   UNL     1     150.511 162.478 150.589  1.00  0.00    -0.000 C 
BRANCH   7   8
ATOM      8  C   UNL     1     150.333 163.866 149.960  1.00  0.00    -0.003 C 
ATOM      9  C   UNL     1     149.722 163.765 148.566  1.00  0.00     0.004 C 
ENDBRANCH   7   8
ENDBRANCH   6   7
ENDBRANCH   5   6
ENDBRANCH   4   5
ENDBRANCH   3   4
ENDBRANCH   2   3
ENDBRANCH   1   2
BRANCH   1  10
ATOM     10  C   UNL     1     146.037 164.862 150.694  1.00  0.00     0.000 C 
BRANCH  10  11
ATOM     11  C   UNL     1     146.663 165.801 149.652  1.00  0.00     0.000 C 
BRANCH  11  12
ATOM     12  C   UNL     1     147.852 166.599 150.211  1.00  0.00     0.000 C 
BRANCH  12  13
ATOM     13  C   UNL     1     147.721 166.877 151.718  1.00  0.00     0.000 C 
BRANCH  13  14
ATOM     14  C   UNL     1     148.845 166.225 152.540  1.00  0.00     0.002 C 
BRANCH  14  15
ATOM     15  C   UNL     1     148.311 165.367 153.700  1.00  0.00     0.028 C 
BRANCH  15  16
ATOM     16  C   UNL     1     146.949 165.863 154.187  1.00  0.00     0.156 C 
BRANCH  16  17
ATOM     17  O   UNL     1     147.114 166.803 155.212  1.00  0.00    -0.396 OA
ATOM     18  H   UNL     1     148.068 167.078 155.181  1.00  0.00     0.210 HD
ENDBRANCH  16  17
ENDBRANCH  15  16
ENDBRANCH  14  15
ENDBRANCH  13  14
ENDBRANCH  12  13
ENDBRANCH  11  12
ENDBRANCH  10  11
ENDBRANCH   1  10
TORSDOF 15
ENDMDL
MODEL 7
REMARK VINA RESULT:    -2.673      3.264      5.934
REMARK INTER + INTRA:          -7.338
REMARK INTER:                  -4.912
REMARK INTRA:                  -2.426
REMARK UNBOUND:                -2.400
REMARK SMILES CCCCCCCCCCCCCCCCO
REMARK SMILES IDX 9 1 8 2 7 3 6 4 5 5 4 6 3 7 2 8 1 9 10 10 11 11 12 12 13 13
REMARK SMILES IDX 14 14 15 15 16 16 17 17
REMARK H PARENT 17 18
REMARK Flexibility Score: inf
ROOT
ATOM      1  C   UNL     1     147.275 162.823 155.676  1.00  0.00     0.000 C 
ENDROOT
BRANCH   1   2
ATOM      2  C   UNL     1     147.675 161.640 154.785  1.00  0.00    -0.000 C 
BRANCH   2   3
ATOM      3  C   UNL     1     147.060 161.772 153.386  1.00  0.00    -0.000 C 
BRANCH   3   4
ATOM      4  C   UNL     1     148.089 161.425 152.299  1.00  0.00    -0.000 C 
BRANCH   4   5
ATOM      5  C   UNL     1     148.614 162.667 151.562  1.00  0.00    -0.000 C 
BRANCH   5   6
ATOM      6  C   UNL     1     149.803 163.323 152.281  1.00  0.00    -0.000 C 
BRANCH   6   7
ATOM      7  C   UNL     1     150.412 164.440 151.424  1.00  0.00    -0.000 C 
BRANCH   7   8
ATOM      8  C   UNL     1     150.745 165.669 152.279  1.00  0.00    -0.003 C 
ATOM      9  C   UNL     1     151.173 165.262 153.686  1.00  0.00     0.004 C 
ENDBRANCH   7   8
ENDBRANCH   6   7
ENDBRANCH   5   6
ENDBRANCH   4   5
ENDBRANCH   3   4
ENDBRANCH   2   3
ENDBRANCH   1   2
BRANCH   1  10
ATOM     10  C   UNL     1     148.223 164.012 155.472  1.00  0.00     0.000 C 
BRANCH  10  11
ATOM     11  C   UNL     1     147.437 165.326 155.352  1.00  0.00     0.000 C 
BRANCH  11  12
ATOM     12  C   UNL     1     146.024 165.122 154.782  1.00  0.00     0.000 C 
BRANCH  12  13
ATOM     13  C   UNL     1     145.980 165.243 153.250  1.00  0.00     0.000 C 
BRANCH  13  14
ATOM     14  C   UNL     1     147.072 166.176 152.699  1.00  0.00     0.002 C 
BRANCH  14  15
ATOM     15  C   UNL     1     147.176 166.126 151.165  1.00  0.00     0.028 C 
BRANCH  15  16
ATOM     16  C   UNL     1     145.991 165.386 150.543  1.00  0.00     0.156 C 
BRANCH  16  17
ATOM     17  O   UNL     1     146.428 164.573 149.490  1.00  0.00    -0.396 OA
ATOM     18  H   UNL     1     146.210 165.064 148.655  1.00  0.00     0.210 HD
ENDBRANCH  16  17
ENDBRANCH  15  16
ENDBRANCH  14  15
ENDBRANCH  13  14
ENDBRANCH  12  13
ENDBRANCH  11  12
ENDBRANCH  10  11
ENDBRANCH   1  10
TORSDOF 15
ENDMDL
MODEL 8
REMARK VINA RESULT:    -2.658      2.062      4.752
REMARK INTER + INTRA:          -7.311
REMARK INTER:                  -5.342
REMARK INTRA:                  -1.969
REMARK UNBOUND:                -2.400
REMARK SMILES CCCCCCCCCCCCCCCCO
REMARK SMILES IDX 9 1 8 2 7 3 6 4 5 5 4 6 3 7 2 8 1 9 10 10 11 11 12 12 13 13
REMARK SMILES IDX 14 14 15 15 16 16 17 17
REMARK H PARENT 17 18
REMARK Flexibility Score: inf
ROOT
ATOM      1  C   UNL     1     148.374 165.944 152.999  1.00  0.00     0.000 C 
ENDROOT
BRANCH   1   2
ATOM      2  C   UNL     1     147.002 166.344 152.442  1.00  0.00    -0.000 C 
BRANCH   2   3
ATOM      3  C   UNL     1     146.638 165.499 151.214  1.00  0.00    -0.000 C 
BRANCH   3   4
ATOM      4  C   UNL     1     145.912 164.211 151.630  1.00  0.00    -0.000 C 
BRANCH   4   5
ATOM      5  C   UNL     1     146.601 162.945 151.098  1.00  0.00    -0.000 C 
BRANCH   5   6
ATOM      6  C   UNL     1     147.785 162.504 151.972  1.00  0.00    -0.000 C 
BRANCH   6   7
ATOM      7  C   UNL     1     148.065 161.006 151.800  1.00  0.00    -0.000 C 
BRANCH   7   8
ATOM      8  C   UNL     1     149.568 160.714 151.890  1.00  0.00    -0.003 C 
ATOM      9  C   UNL     1     150.286 161.120 150.607  1.00  0.00     0.004 C 
ENDBRANCH   7   8
ENDBRANCH   6   7
ENDBRANCH   5   6
ENDBRANCH   4   5
ENDBRANCH   3   4
ENDBRANCH   2   3
ENDBRANCH   1   2
BRANCH   1  10
ATOM     10  C   UNL     1     148.247 165.363 154.412  1.00  0.00     0.000 C 
BRANCH  10  11
ATOM     11  C   UNL     1     146.999 165.912 155.121  1.00  0.00     0.000 C 
BRANCH  11  12
ATOM     12  C   UNL     1     146.221 164.825 155.879  1.00  0.00     0.000 C 
BRANCH  12  13
ATOM     13  C   UNL     1     146.278 163.458 155.176  1.00  0.00     0.000 C 
BRANCH  13  14
ATOM     14  C   UNL     1     146.959 162.379 156.034  1.00  0.00     0.002 C 
BRANCH  14  15
ATOM     15  C   UNL     1     148.423 162.135 155.629  1.00  0.00     0.028 C 
BRANCH  15  16
ATOM     16  C   UNL     1     148.783 160.650 155.681  1.00  0.00     0.156 C 
BRANCH  16  17
ATOM     17  O   UNL     1     147.691 159.873 155.273  1.00  0.00    -0.396 OA
ATOM     18  H   UNL     1     147.827 158.976 155.675  1.00  0.00     0.210 HD
ENDBRANCH  16  17
ENDBRANCH  15  16
ENDBRANCH  14  15
ENDBRANCH  13  14
ENDBRANCH  12  13
ENDBRANCH  11  12
ENDBRANCH  10  11
ENDBRANCH   1  10
TORSDOF 15
ENDMDL
MODEL 9
REMARK VINA RESULT:    -2.586      6.098      8.752
REMARK INTER + INTRA:          -7.177
REMARK INTER:                  -5.024
REMARK INTRA:                  -2.153
REMARK UNBOUND:                -2.400
REMARK SMILES CCCCCCCCCCCCCCCCO
REMARK SMILES IDX 9 1 8 2 7 3 6 4 5 5 4 6 3 7 2 8 1 9 10 10 11 11 12 12 13 13
REMARK SMILES IDX 14 14 15 15 16 16 17 17
REMARK H PARENT 17 18
REMARK Flexibility Score: inf
ROOT
ATOM      1  C   UNL     1     146.766 160.261 161.064  1.00  0.00     0.000 C 
ENDROOT
BRANCH   1   2
ATOM      2  C   UNL     1     145.875 159.641 159.980  1.00  0.00    -0.000 C 
BRANCH   2   3
ATOM      3  C   UNL     1     146.373 160.015 158.578  1.00  0.00    -0.000 C 
BRANCH   3   4
ATOM      4  C   UNL     1     147.097 158.831 157.919  1.00  0.00    -0.000 C 
BRANCH   4   5
ATOM      5  C   UNL     1     148.571 159.136 157.610  1.00  0.00    -0.000 C 
BRANCH   5   6
ATOM      6  C   UNL     1     149.533 158.140 158.273  1.00  0.00    -0.000 C 
BRANCH   6   7
ATOM      7  C   UNL     1     149.625 158.389 159.783  1.00  0.00    -0.000 C 
BRANCH   7   8
ATOM      8  C   UNL     1     150.774 159.348 160.114  1.00  0.00    -0.003 C 
ATOM      9  C   UNL     1     150.445 160.203 161.335  1.00  0.00     0.004 C 
ENDBRANCH   7   8
ENDBRANCH   6   7
ENDBRANCH   5   6
ENDBRANCH   4   5
ENDBRANCH   3   4
ENDBRANCH   2   3
ENDBRANCH   1   2
BRANCH   1  10
ATOM     10  C   UNL     1     146.863 159.343 162.289  1.00  0.00     0.000 C 
BRANCH  10  11
ATOM     11  C   UNL     1     146.079 158.041 162.062  1.00  0.00     0.000 C 
BRANCH  11  12
ATOM     12  C   UNL     1     146.794 156.810 162.643  1.00  0.00     0.000 C 
BRANCH  12  13
ATOM     13  C   UNL     1     147.680 156.097 161.608  1.00  0.00     0.000 C 
BRANCH  13  14
ATOM     14  C   UNL     1     146.947 155.836 160.281  1.00  0.00     0.002 C 
BRANCH  14  15
ATOM     15  C   UNL     1     145.888 154.727 160.397  1.00  0.00     0.028 C 
BRANCH  15  16
ATOM     16  C   UNL     1     146.206 153.546 159.478  1.00  0.00     0.156 C 
BRANCH  16  17
ATOM     17  O   UNL     1     147.212 153.897 158.569  1.00  0.00    -0.396 OA
ATOM     18  H   UNL     1     147.004 154.821 158.273  1.00  0.00     0.210 HD
ENDBRANCH  16  17
ENDBRANCH  15  16
ENDBRANCH  14  15
ENDBRANCH  13  14
ENDBRANCH  12  13
ENDBRANCH  11  12
ENDBRANCH  10  11
ENDBRANCH   1  10
TORSDOF 15
ENDMDL
