MODEL 1
REMARK VINA RESULT:    -3.551      0.000      0.000
REMARK INTER + INTRA:          -4.115
REMARK INTER:                  -4.070
REMARK INTRA:                  -0.045
REMARK UNBOUND:                -0.045
REMARK SMILES CC(C)[C@H]([NH3+])C(=O)[O-]
REMARK SMILES IDX 4 1 5 2 6 6 7 7 8 8 2 9 1 10 3 11
REMARK H PARENT 5 3 5 4 5 5
REMARK Flexibility Score: inf
ROOT
ATOM      1  C   UNL     1     -24.740  95.809 -28.749  1.00  0.00     0.230 C 
ENDROOT
BRANCH   1   2
ATOM      2  N   UNL     1     -25.411  97.094 -28.508  1.00  0.00    -0.350 N 
ATOM      3  H   UNL     1     -26.386  97.070 -28.884  1.00  0.00     0.345 HD
ATOM      4  H   UNL     1     -24.881  97.879 -28.955  1.00  0.00     0.345 HD
ATOM      5  H   UNL     1     -25.483  97.275 -27.479  1.00  0.00     0.345 HD
ENDBRANCH   1   2
BRANCH   1   6
ATOM      6  C   UNL     1     -24.477  95.654 -30.226  1.00  0.00     0.099 C 
ATOM      7  O   UNL     1     -23.421  96.116 -30.734  1.00  0.00    -0.544 OA
ATOM      8  O   UNL     1     -25.397  95.000 -31.037  1.00  0.00    -0.544 OA
ENDBRANCH   1   6
BRANCH   1   9
ATOM      9  C   UNL     1     -25.576  94.608 -28.210  1.00  0.00     0.047 C 
ATOM     10  C   UNL     1     -24.711  93.343 -28.071  1.00  0.00     0.014 C 
ATOM     11  C   UNL     1     -26.226  94.924 -26.852  1.00  0.00     0.014 C 
ENDBRANCH   1   9
TORSDOF 3
ENDMDL
MODEL 2
REMARK VINA RESULT:    -3.512     18.909     19.714
REMARK INTER + INTRA:          -4.070
REMARK INTER:                  -3.994
REMARK INTRA:                  -0.076
REMARK UNBOUND:                -0.045
REMARK SMILES CC(C)[C@H]([NH3+])C(=O)[O-]
REMARK SMILES IDX 4 1 5 2 6 6 7 7 8 8 2 9 1 10 3 11
REMARK H PARENT 5 3 5 4 5 5
REMARK Flexibility Score: inf
ROOT
ATOM      1  C   UNL     1     -35.880  83.010 -18.359  1.00  0.00     0.230 C 
ENDROOT
BRANCH   1   2
ATOM      2  N   UNL     1     -35.852  82.166 -17.156  1.00  0.00    -0.350 N 
ATOM      3  H   UNL     1     -35.387  82.673 -16.369  1.00  0.00     0.345 HD
ATOM      4  H   UNL     1     -35.346  81.269 -17.343  1.00  0.00     0.345 HD
ATOM      5  H   UNL     1     -36.829  81.949 -16.847  1.00  0.00     0.345 HD
ENDBRANCH   1   2
BRANCH   1   6
ATOM      6  C   UNL     1     -35.699  84.454 -17.959  1.00  0.00     0.099 C 
ATOM      7  O   UNL     1     -36.603  85.050 -17.315  1.00  0.00    -0.544 OA
ATOM      8  O   UNL     1     -34.535  85.134 -18.296  1.00  0.00    -0.544 OA
ENDBRANCH   1   6
BRANCH   1   9
ATOM      9  C   UNL     1     -37.200  82.825 -19.167  1.00  0.00     0.047 C 
ATOM     10  C   UNL     1     -37.122  83.530 -20.533  1.00  0.00     0.014 C 
ATOM     11  C   UNL     1     -37.535  81.340 -19.387  1.00  0.00     0.014 C 
ENDBRANCH   1   9
TORSDOF 3
ENDMDL
MODEL 3
REMARK VINA RESULT:    -3.449     12.753     13.746
REMARK INTER + INTRA:          -3.998
REMARK INTER:                  -3.951
REMARK INTRA:                  -0.047
REMARK UNBOUND:                -0.045
REMARK SMILES CC(C)[C@H]([NH3+])C(=O)[O-]
REMARK SMILES IDX 4 1 5 2 6 6 7 7 8 8 2 9 1 10 3 11
REMARK H PARENT 5 3 5 4 5 5
REMARK Flexibility Score: inf
ROOT
ATOM      1  C   UNL     1     -22.133  83.698 -22.215  1.00  0.00     0.230 C 
ENDROOT
BRANCH   1   2
ATOM      2  N   UNL     1     -20.677  83.904 -22.231  1.00  0.00    -0.350 N 
ATOM      3  H   UNL     1     -20.351  84.255 -21.301  1.00  0.00     0.345 HD
ATOM      4  H   UNL     1     -20.406  84.586 -22.978  1.00  0.00     0.345 HD
ATOM      5  H   UNL     1     -20.187  82.995 -22.405  1.00  0.00     0.345 HD
ENDBRANCH   1   2
BRANCH   1   6
ATOM      6  C   UNL     1     -22.805  84.845 -22.928  1.00  0.00     0.099 C 
ATOM      7  O   UNL     1     -23.983  84.722 -23.356  1.00  0.00    -0.544 OA
ATOM      8  O   UNL     1     -22.130  86.045 -23.115  1.00  0.00    -0.544 OA
ENDBRANCH   1   6
BRANCH   1   9
ATOM      9  C   UNL     1     -22.682  83.553 -20.764  1.00  0.00     0.047 C 
ATOM     10  C   UNL     1     -23.654  82.364 -20.651  1.00  0.00     0.014 C 
ATOM     11  C   UNL     1     -21.552  83.377 -19.736  1.00  0.00     0.014 C 
ENDBRANCH   1   9
TORSDOF 3
ENDMDL
MODEL 4
REMARK VINA RESULT:    -3.444     13.697     14.689
REMARK INTER + INTRA:          -3.992
REMARK INTER:                  -3.949
REMARK INTRA:                  -0.043
REMARK UNBOUND:                -0.045
REMARK SMILES CC(C)[C@H]([NH3+])C(=O)[O-]
REMARK SMILES IDX 4 1 5 2 6 6 7 7 8 8 2 9 1 10 3 11
REMARK H PARENT 5 3 5 4 5 5
REMARK Flexibility Score: inf
ROOT
ATOM      1  C   UNL     1     -22.296  84.342 -20.912  1.00  0.00     0.230 C 
ENDROOT
BRANCH   1   2
ATOM      2  N   UNL     1     -21.719  85.475 -20.174  1.00  0.00    -0.350 N 
ATOM      3  H   UNL     1     -20.901  85.867 -20.695  1.00  0.00     0.345 HD
ATOM      4  H   UNL     1     -21.417  85.180 -19.216  1.00  0.00     0.345 HD
ATOM      5  H   UNL     1     -22.424  86.244 -20.087  1.00  0.00     0.345 HD
ENDBRANCH   1   2
BRANCH   1   6
ATOM      6  C   UNL     1     -22.413  83.155 -19.988  1.00  0.00     0.099 C 
ATOM      7  O   UNL     1     -21.417  82.774 -19.315  1.00  0.00    -0.544 OA
ATOM      8  O   UNL     1     -23.618  82.474 -19.871  1.00  0.00    -0.544 OA
ENDBRANCH   1   6
BRANCH   1   9
ATOM      9  C   UNL     1     -21.449  83.978 -22.170  1.00  0.00     0.047 C 
ATOM     10  C   UNL     1     -21.992  82.714 -22.861  1.00  0.00     0.014 C 
ATOM     11  C   UNL     1     -21.410  85.130 -23.188  1.00  0.00     0.014 C 
ENDBRANCH   1   9
TORSDOF 3
ENDMDL
MODEL 5
REMARK VINA RESULT:    -3.399     13.052     13.964
REMARK INTER + INTRA:          -3.941
REMARK INTER:                  -3.891
REMARK INTRA:                  -0.050
REMARK UNBOUND:                -0.045
REMARK SMILES CC(C)[C@H]([NH3+])C(=O)[O-]
REMARK SMILES IDX 4 1 5 2 6 6 7 7 8 8 2 9 1 10 3 11
REMARK H PARENT 5 3 5 4 5 5
REMARK Flexibility Score: inf
ROOT
ATOM      1  C   UNL     1     -22.785  84.183 -21.834  1.00  0.00     0.230 C 
ENDROOT
BRANCH   1   2
ATOM      2  N   UNL     1     -24.057  83.866 -22.499  1.00  0.00    -0.350 N 
ATOM      3  H   UNL     1     -24.169  84.444 -23.362  1.00  0.00     0.345 HD
ATOM      4  H   UNL     1     -24.865  84.037 -21.855  1.00  0.00     0.345 HD
ATOM      5  H   UNL     1     -24.066  82.862 -22.798  1.00  0.00     0.345 HD
ENDBRANCH   1   2
BRANCH   1   6
ATOM      6  C   UNL     1     -21.693  84.282 -22.870  1.00  0.00     0.099 C 
ATOM      7  O   UNL     1     -21.008  85.335 -22.970  1.00  0.00    -0.544 OA
ATOM      8  O   UNL     1     -21.435  83.214 -23.721  1.00  0.00    -0.544 OA
ENDBRANCH   1   6
BRANCH   1   9
ATOM      9  C   UNL     1     -22.419  83.125 -20.749  1.00  0.00     0.047 C 
ATOM     10  C   UNL     1     -21.714  83.779 -19.547  1.00  0.00     0.014 C 
ATOM     11  C   UNL     1     -23.657  82.361 -20.250  1.00  0.00     0.014 C 
ENDBRANCH   1   9
TORSDOF 3
ENDMDL
MODEL 6
REMARK VINA RESULT:    -3.386     17.397     18.210
REMARK INTER + INTRA:          -3.925
REMARK INTER:                  -3.848
REMARK INTRA:                  -0.077
REMARK UNBOUND:                -0.045
REMARK SMILES CC(C)[C@H]([NH3+])C(=O)[O-]
REMARK SMILES IDX 4 1 5 2 6 6 7 7 8 8 2 9 1 10 3 11
REMARK H PARENT 5 3 5 4 5 5
REMARK Flexibility Score: inf
ROOT
ATOM      1  C   UNL     1     -33.422  83.370 -19.433  1.00  0.00     0.230 C 
ENDROOT
BRANCH   1   2
ATOM      2  N   UNL     1     -32.318  84.023 -18.714  1.00  0.00    -0.350 N 
ATOM      3  H   UNL     1     -32.260  85.033 -18.979  1.00  0.00     0.345 HD
ATOM      4  H   UNL     1     -31.407  83.552 -18.925  1.00  0.00     0.345 HD
ATOM      5  H   UNL     1     -32.489  83.986 -17.682  1.00  0.00     0.345 HD
ENDBRANCH   1   2
BRANCH   1   6
ATOM      6  C   UNL     1     -34.650  84.242 -19.355  1.00  0.00     0.099 C 
ATOM      7  O   UNL     1     -35.145  84.543 -18.236  1.00  0.00    -0.544 OA
ATOM      8  O   UNL     1     -35.245  84.720 -20.517  1.00  0.00    -0.544 OA
ENDBRANCH   1   6
BRANCH   1   9
ATOM      9  C   UNL     1     -33.719  81.948 -18.868  1.00  0.00     0.047 C 
ATOM     10  C   UNL     1     -34.861  81.267 -19.645  1.00  0.00     0.014 C 
ATOM     11  C   UNL     1     -32.477  81.043 -18.906  1.00  0.00     0.014 C 
ENDBRANCH   1   9
TORSDOF 3
ENDMDL
MODEL 7
REMARK VINA RESULT:    -3.366     14.690     15.676
REMARK INTER + INTRA:          -3.903
REMARK INTER:                  -3.839
REMARK INTRA:                  -0.064
REMARK UNBOUND:                -0.045
REMARK SMILES CC(C)[C@H]([NH3+])C(=O)[O-]
REMARK SMILES IDX 4 1 5 2 6 6 7 7 8 8 2 9 1 10 3 11
REMARK H PARENT 5 3 5 4 5 5
REMARK Flexibility Score: inf
ROOT
ATOM      1  C   UNL     1     -22.905  82.391 -21.706  1.00  0.00     0.230 C 
ENDROOT
BRANCH   1   2
ATOM      2  N   UNL     1     -24.130  82.412 -20.895  1.00  0.00    -0.350 N 
ATOM      3  H   UNL     1     -24.043  83.114 -20.125  1.00  0.00     0.345 HD
ATOM      4  H   UNL     1     -24.322  81.467 -20.487  1.00  0.00     0.345 HD
ATOM      5  H   UNL     1     -24.946  82.701 -21.483  1.00  0.00     0.345 HD
ENDBRANCH   1   2
BRANCH   1   6
ATOM      6  C   UNL     1     -22.411  80.971 -21.826  1.00  0.00     0.099 C 
ATOM      7  O   UNL     1     -21.244  80.738 -22.240  1.00  0.00    -0.544 OA
ATOM      8  O   UNL     1     -23.239  79.909 -21.480  1.00  0.00    -0.544 OA
ENDBRANCH   1   6
BRANCH   1   9
ATOM      9  C   UNL     1     -21.797  83.310 -21.107  1.00  0.00     0.047 C 
ATOM     10  C   UNL     1     -22.089  84.794 -21.392  1.00  0.00     0.014 C 
ATOM     11  C   UNL     1     -21.644  83.110 -19.590  1.00  0.00     0.014 C 
ENDBRANCH   1   9
TORSDOF 3
ENDMDL
MODEL 8
REMARK VINA RESULT:    -3.366      3.292      3.984
REMARK INTER + INTRA:          -3.903
REMARK INTER:                  -3.847
REMARK INTRA:                  -0.056
REMARK UNBOUND:                -0.045
REMARK SMILES CC(C)[C@H]([NH3+])C(=O)[O-]
REMARK SMILES IDX 4 1 5 2 6 6 7 7 8 8 2 9 1 10 3 11
REMARK H PARENT 5 3 5 4 5 5
REMARK Flexibility Score: inf
ROOT
ATOM      1  C   UNL     1     -25.499  94.072 -27.375  1.00  0.00     0.230 C 
ENDROOT
BRANCH   1   2
ATOM      2  N   UNL     1     -25.543  92.606 -27.474  1.00  0.00    -0.350 N 
ATOM      3  H   UNL     1     -25.003  92.283 -28.309  1.00  0.00     0.345 HD
ATOM      4  H   UNL     1     -26.531  92.267 -27.542  1.00  0.00     0.345 HD
ATOM      5  H   UNL     1     -25.092  92.176 -26.633  1.00  0.00     0.345 HD
ENDBRANCH   1   2
BRANCH   1   6
ATOM      6  C   UNL     1     -26.717  94.557 -26.628  1.00  0.00     0.099 C 
ATOM      7  O   UNL     1     -26.592  95.356 -25.663  1.00  0.00    -0.544 OA
ATOM      8  O   UNL     1     -27.985  94.125 -27.000  1.00  0.00    -0.544 OA
ENDBRANCH   1   6
BRANCH   1   9
ATOM      9  C   UNL     1     -25.411  94.745 -28.779  1.00  0.00     0.047 C 
ATOM     10  C   UNL     1     -24.829  96.167 -28.680  1.00  0.00     0.014 C 
ATOM     11  C   UNL     1     -24.559  93.921 -29.758  1.00  0.00     0.014 C 
ENDBRANCH   1   9
TORSDOF 3
ENDMDL
MODEL 9
REMARK VINA RESULT:    -3.332     18.617     19.703
REMARK INTER + INTRA:          -3.864
REMARK INTER:                  -3.806
REMARK INTRA:                  -0.058
REMARK UNBOUND:                -0.045
REMARK SMILES CC(C)[C@H]([NH3+])C(=O)[O-]
REMARK SMILES IDX 4 1 5 2 6 6 7 7 8 8 2 9 1 10 3 11
REMARK H PARENT 5 3 5 4 5 5
REMARK Flexibility Score: inf
ROOT
ATOM      1  C   UNL     1     -36.842  83.145 -19.106  1.00  0.00     0.230 C 
ENDROOT
BRANCH   1   2
ATOM      2  N   UNL     1     -37.380  83.464 -17.776  1.00  0.00    -0.350 N 
ATOM      3  H   UNL     1     -36.666  83.263 -17.039  1.00  0.00     0.345 HD
ATOM      4  H   UNL     1     -38.247  82.911 -17.584  1.00  0.00     0.345 HD
ATOM      5  H   UNL     1     -37.605  84.484 -17.715  1.00  0.00     0.345 HD
ENDBRANCH   1   2
BRANCH   1   6
ATOM      6  C   UNL     1     -36.746  81.647 -19.258  1.00  0.00     0.099 C 
ATOM      7  O   UNL     1     -37.781  80.965 -19.483  1.00  0.00    -0.544 OA
ATOM      8  O   UNL     1     -35.516  81.009 -19.151  1.00  0.00    -0.544 OA
ENDBRANCH   1   6
BRANCH   1   9
ATOM      9  C   UNL     1     -35.453  83.812 -19.345  1.00  0.00     0.047 C 
ATOM     10  C   UNL     1     -35.372  84.446 -20.746  1.00  0.00     0.014 C 
ATOM     11  C   UNL     1     -35.142  84.886 -18.289  1.00  0.00     0.014 C 
ENDBRANCH   1   9
TORSDOF 3
ENDMDL
