MODEL 1
REMARK VINA RESULT:    -4.966      0.000      0.000
REMARK INTER + INTRA:          -6.743
REMARK INTER:                  -7.289
REMARK INTRA:                   0.547
REMARK UNBOUND:                 0.547
REMARK SMILES C=C1CC=CC(C)(C)CC=C(C)CCC1
REMARK SMILES IDX 2 1 1 2 15 3 14 4 13 5 11 6 12 7 10 8 3 10 4 11 5 12 6 13
REMARK SMILES IDX 7 14 8 15 9 16
REMARK H PARENT
REMARK Flexibility Score: 60.00
ROOT
ATOM      1  C   UNL     1     109.293 111.569 113.043  1.00  0.00    -0.074 C 
ATOM      2  C   UNL     1     109.219 112.731 112.371  1.00  0.00     0.008 C 
ENDROOT
BRANCH   1   3
ATOM      3  C   UNL     1     109.446 110.260 112.289  1.00  0.00     0.031 C 
BRANCH   3   4
ATOM      4  C   UNL     1     110.489 110.360 111.154  1.00  0.00     0.009 C 
BRANCH   4   5
ATOM      5  C   UNL     1     111.923 110.027 111.621  1.00  0.00     0.030 C 
BRANCH   5   6
ATOM      6  C   UNL     1     112.616 111.243 112.212  1.00  0.00    -0.077 C 
ATOM      7  C   UNL     1     113.073 112.318 111.258  1.00  0.00     0.039 C 
ATOM      8  C   UNL     1     112.876 111.421 113.533  1.00  0.00    -0.027 CG0
ATOM      9  G   UNL     1     112.520 110.482 114.673  1.00  0.00     0.000 G0
ENDBRANCH   5   6
ENDBRANCH   4   5
ENDBRANCH   3   4
ENDBRANCH   1   3
BRANCH   1  10
ATOM     10  C   UNL     1     109.200 111.574 114.551  1.00  0.00     0.057 C 
BRANCH  10  11
ATOM     11  C   UNL     1     110.085 112.657 115.116  1.00  0.00    -0.026 C 
ATOM     12  C   UNL     1     111.289 112.500 115.705  1.00  0.00    -0.024 C 
BRANCH  12  13
ATOM     13  C   UNL     1     112.056 111.201 115.983  1.00  0.00    -0.014 C 
ATOM     14  C   UNL     1     111.108 110.251 116.757  1.00  0.00     0.016 C 
ATOM     15  C   UNL     1     113.269 111.471 116.902  1.00  0.00     0.016 C 
BRANCH  13  16
ATOM     16  C   UNL     1     112.521 110.485 114.677  1.00  0.00     0.038 CG0
ATOM     17  G   UNL     1     112.861 111.445 113.549  1.00  0.00     0.000 G0
ENDBRANCH  13  16
ENDBRANCH  12  13
ENDBRANCH  10  11
ENDBRANCH   1  10
TORSDOF 0
ENDMDL
MODEL 2
REMARK VINA RESULT:    -4.944      1.575      3.420
REMARK INTER + INTRA:          -6.710
REMARK INTER:                  -7.261
REMARK INTRA:                   0.551
REMARK UNBOUND:                 0.547
REMARK SMILES C=C1CC=CC(C)(C)CC=C(C)CCC1
REMARK SMILES IDX 2 1 1 2 15 3 14 4 13 5 11 6 12 7 10 8 3 10 4 11 5 12 6 13
REMARK SMILES IDX 7 14 8 15 9 16
REMARK H PARENT
REMARK Flexibility Score: 60.00
ROOT
ATOM      1  C   UNL     1     113.040 110.839 112.824  1.00  0.00    -0.074 C 
ATOM      2  C   UNL     1     113.188 109.599 112.328  1.00  0.00     0.008 C 
ENDROOT
BRANCH   1   3
ATOM      3  C   UNL     1     112.883 112.023 111.885  1.00  0.00     0.031 C 
BRANCH   3   4
ATOM      4  C   UNL     1     111.653 111.876 110.964  1.00  0.00     0.009 C 
BRANCH   4   5
ATOM      5  C   UNL     1     110.331 112.277 111.654  1.00  0.00     0.030 C 
BRANCH   5   6
ATOM      6  C   UNL     1     109.617 111.070 112.241  1.00  0.00    -0.077 C 
ATOM      7  C   UNL     1     109.038 110.065 111.277  1.00  0.00     0.039 C 
ATOM      8  C   UNL     1     109.441 110.844 113.568  1.00  0.00    -0.027 CG0
ATOM      9  G   UNL     1     109.926 111.709 114.718  1.00  0.00     0.000 G0
ENDBRANCH   5   6
ENDBRANCH   4   5
ENDBRANCH   3   4
ENDBRANCH   1   3
BRANCH   1  10
ATOM     10  C   UNL     1     113.053 111.049 114.320  1.00  0.00     0.057 C 
BRANCH  10  11
ATOM     11  C   UNL     1     112.477 109.839 115.013  1.00  0.00    -0.026 C 
ATOM     12  C   UNL     1     111.322 109.772 115.709  1.00  0.00    -0.024 C 
BRANCH  12  13
ATOM     13  C   UNL     1     110.316 110.891 116.005  1.00  0.00    -0.014 C 
ATOM     14  C   UNL     1     110.974 111.857 117.023  1.00  0.00     0.016 C 
ATOM     15  C   UNL     1     109.049 110.321 116.680  1.00  0.00     0.016 C 
BRANCH  13  16
ATOM     16  C   UNL     1     109.926 111.703 114.730  1.00  0.00     0.038 CG0
ATOM     17  G   UNL     1     109.446 110.832 113.582  1.00  0.00     0.000 G0
ENDBRANCH  13  16
ENDBRANCH  12  13
ENDBRANCH  10  11
ENDBRANCH   1  10
TORSDOF 0
ENDMDL
MODEL 3
REMARK VINA RESULT:    -4.869      3.156      5.237
REMARK INTER + INTRA:          -6.599
REMARK INTER:                  -7.154
REMARK INTRA:                   0.555
REMARK UNBOUND:                 0.547
REMARK SMILES C=C1CC=CC(C)(C)CC=C(C)CCC1
REMARK SMILES IDX 2 1 1 2 15 3 14 4 13 5 11 6 12 7 10 8 3 10 4 11 5 12 6 13
REMARK SMILES IDX 7 14 8 15 9 16
REMARK H PARENT
REMARK Flexibility Score: 60.00
ROOT
ATOM      1  C   UNL     1     112.762 110.944 107.557  1.00  0.00    -0.074 C 
ATOM      2  C   UNL     1     113.108 112.112 106.990  1.00  0.00     0.008 C 
ENDROOT
BRANCH   1   3
ATOM      3  C   UNL     1     111.899 109.952 106.796  1.00  0.00     0.031 C 
BRANCH   3   4
ATOM      4  C   UNL     1     110.452 110.460 106.614  1.00  0.00     0.009 C 
BRANCH   4   5
ATOM      5  C   UNL     1     109.580 110.266 107.874  1.00  0.00     0.030 C 
BRANCH   5   6
ATOM      6  C   UNL     1     109.472 111.549 108.682  1.00  0.00    -0.077 C 
ATOM      7  C   UNL     1     108.979 112.783 107.969  1.00  0.00     0.039 C 
ATOM      8  C   UNL     1     109.811 111.671 109.991  1.00  0.00    -0.027 CG0
ATOM      9  G   UNL     1     110.332 110.579 110.910  1.00  0.00     0.000 G0
ENDBRANCH   5   6
ENDBRANCH   4   5
ENDBRANCH   3   4
ENDBRANCH   1   3
BRANCH   1  10
ATOM     10  C   UNL     1     113.219 110.636 108.964  1.00  0.00     0.057 C 
BRANCH  10  11
ATOM     11  C   UNL     1     113.141 111.880 109.813  1.00  0.00    -0.026 C 
ATOM     12  C   UNL     1     112.477 112.030 110.979  1.00  0.00    -0.024 C 
BRANCH  12  13
ATOM     13  C   UNL     1     111.614 111.007 111.728  1.00  0.00    -0.014 C 
ATOM     14  C   UNL     1     111.162 111.660 113.059  1.00  0.00     0.016 C 
ATOM     15  C   UNL     1     112.445 109.759 112.099  1.00  0.00     0.016 C 
BRANCH  13  16
ATOM     16  C   UNL     1     110.345 110.587 110.923  1.00  0.00     0.038 CG0
ATOM     17  G   UNL     1     109.826 111.675 109.999  1.00  0.00     0.000 G0
ENDBRANCH  13  16
ENDBRANCH  12  13
ENDBRANCH  10  11
ENDBRANCH   1  10
TORSDOF 0
ENDMDL
MODEL 4
REMARK VINA RESULT:    -4.862      3.237      4.722
REMARK INTER + INTRA:          -6.590
REMARK INTER:                  -7.175
REMARK INTRA:                   0.585
REMARK UNBOUND:                 0.547
REMARK SMILES C=C1CC=CC(C)(C)CC=C(C)CCC1
REMARK SMILES IDX 2 1 1 2 15 3 14 4 13 5 11 6 12 7 10 8 3 10 4 11 5 12 6 13
REMARK SMILES IDX 7 14 8 15 9 16
REMARK H PARENT
REMARK Flexibility Score: 60.00
ROOT
ATOM      1  C   UNL     1     109.500 111.917 108.463  1.00  0.00    -0.074 C 
ATOM      2  C   UNL     1     108.972 112.877 107.684  1.00  0.00     0.008 C 
ENDROOT
BRANCH   1   3
ATOM      3  C   UNL     1     109.592 110.488 107.956  1.00  0.00     0.031 C 
BRANCH   3   4
ATOM      4  C   UNL     1     110.436 110.381 106.668  1.00  0.00     0.009 C 
BRANCH   4   5
ATOM      5  C   UNL     1     111.878 109.891 106.929  1.00  0.00     0.030 C 
BRANCH   5   6
ATOM      6  C   UNL     1     112.724 110.967 107.589  1.00  0.00    -0.077 C 
ATOM      7  C   UNL     1     113.177 112.122 106.730  1.00  0.00     0.039 C 
ATOM      8  C   UNL     1     113.123 110.953 108.886  1.00  0.00    -0.027 CG0
ATOM      9  G   UNL     1     112.798 109.903 109.935  1.00  0.00     0.000 G0
ENDBRANCH   5   6
ENDBRANCH   4   5
ENDBRANCH   3   4
ENDBRANCH   1   3
BRANCH   1  10
ATOM     10  C   UNL     1     109.978 112.266 109.853  1.00  0.00     0.057 C 
BRANCH  10  11
ATOM     11  C   UNL     1     109.769 111.092 110.777  1.00  0.00    -0.026 C 
ATOM     12  C   UNL     1     110.722 110.352 111.382  1.00  0.00    -0.024 C 
BRANCH  12  13
ATOM     13  C   UNL     1     112.247 110.479 111.273  1.00  0.00    -0.014 C 
ATOM     14  C   UNL     1     112.870 109.692 112.454  1.00  0.00     0.016 C 
ATOM     15  C   UNL     1     112.684 111.952 111.435  1.00  0.00     0.016 C 
BRANCH  13  16
ATOM     16  C   UNL     1     112.806 109.898 109.937  1.00  0.00     0.038 CG0
ATOM     17  G   UNL     1     113.131 110.962 108.902  1.00  0.00     0.000 G0
ENDBRANCH  13  16
ENDBRANCH  12  13
ENDBRANCH  10  11
ENDBRANCH   1  10
TORSDOF 0
ENDMDL
MODEL 5
REMARK VINA RESULT:    -4.858      1.258      2.876
REMARK INTER + INTRA:          -6.583
REMARK INTER:                  -7.211
REMARK INTRA:                   0.627
REMARK UNBOUND:                 0.547
REMARK SMILES C=C1CC=CC(C)(C)CC=C(C)CCC1
REMARK SMILES IDX 2 1 1 2 15 3 14 4 13 5 11 6 12 7 10 8 3 10 4 11 5 12 6 13
REMARK SMILES IDX 7 14 8 15 9 16
REMARK H PARENT
REMARK Flexibility Score: 60.00
ROOT
ATOM      1  C   UNL     1     112.687 110.883 112.344  1.00  0.00    -0.074 C 
ATOM      2  C   UNL     1     112.943 112.103 111.843  1.00  0.00     0.008 C 
ENDROOT
BRANCH   1   3
ATOM      3  C   UNL     1     111.821 109.905 111.569  1.00  0.00     0.031 C 
BRANCH   3   4
ATOM      4  C   UNL     1     110.360 110.390 111.449  1.00  0.00     0.009 C 
BRANCH   4   5
ATOM      5  C   UNL     1     109.571 110.261 112.771  1.00  0.00     0.030 C 
BRANCH   5   6
ATOM      6  C   UNL     1     109.594 111.556 113.565  1.00  0.00    -0.077 C 
ATOM      7  C   UNL     1     109.204 112.823 112.845  1.00  0.00     0.039 C 
ATOM      8  C   UNL     1     109.964 111.661 114.867  1.00  0.00    -0.027 CG0
ATOM      9  G   UNL     1     110.398 110.536 115.791  1.00  0.00     0.000 G0
ENDBRANCH   5   6
ENDBRANCH   4   5
ENDBRANCH   3   4
ENDBRANCH   1   3
BRANCH   1  10
ATOM     10  C   UNL     1     113.247 110.500 113.694  1.00  0.00     0.057 C 
BRANCH  10  11
ATOM     11  C   UNL     1     113.248 111.700 114.608  1.00  0.00    -0.026 C 
ATOM     12  C   UNL     1     112.631 111.813 115.803  1.00  0.00    -0.024 C 
BRANCH  12  13
ATOM     13  C   UNL     1     111.754 110.786 116.530  1.00  0.00    -0.014 C 
ATOM     14  C   UNL     1     111.452 111.342 117.944  1.00  0.00     0.016 C 
ATOM     15  C   UNL     1     112.517 109.457 116.724  1.00  0.00     0.016 C 
BRANCH  13  16
ATOM     16  C   UNL     1     110.401 110.525 115.798  1.00  0.00     0.038 CG0
ATOM     17  G   UNL     1     109.990 111.652 114.866  1.00  0.00     0.000 G0
ENDBRANCH  13  16
ENDBRANCH  12  13
ENDBRANCH  10  11
ENDBRANCH   1  10
TORSDOF 0
ENDMDL
MODEL 6
REMARK VINA RESULT:    -4.850      1.547      4.580
REMARK INTER + INTRA:          -6.571
REMARK INTER:                  -7.116
REMARK INTRA:                   0.545
REMARK UNBOUND:                 0.547
REMARK SMILES C=C1CC=CC(C)(C)CC=C(C)CCC1
REMARK SMILES IDX 2 1 1 2 15 3 14 4 13 5 11 6 12 7 10 8 3 10 4 11 5 12 6 13
REMARK SMILES IDX 7 14 8 15 9 16
REMARK H PARENT
REMARK Flexibility Score: 60.00
ROOT
ATOM      1  C   UNL     1     112.612 110.569 115.116  1.00  0.00    -0.074 C 
ATOM      2  C   UNL     1     112.867 111.404 116.139  1.00  0.00     0.008 C 
ENDROOT
BRANCH   1   3
ATOM      3  C   UNL     1     111.606 109.443 115.282  1.00  0.00     0.031 C 
BRANCH   3   4
ATOM      4  C   UNL     1     110.174 109.971 115.514  1.00  0.00     0.009 C 
BRANCH   4   5
ATOM      5  C   UNL     1     109.449 110.346 114.203  1.00  0.00     0.030 C 
BRANCH   5   6
ATOM      6  C   UNL     1     109.825 111.742 113.735  1.00  0.00    -0.077 C 
ATOM      7  C   UNL     1     109.710 112.867 114.733  1.00  0.00     0.039 C 
ATOM      8  C   UNL     1     110.232 112.055 112.478  1.00  0.00    -0.027 CG0
ATOM      9  G   UNL     1     110.418 111.101 111.310  1.00  0.00     0.000 G0
ENDBRANCH   5   6
ENDBRANCH   4   5
ENDBRANCH   3   4
ENDBRANCH   1   3
BRANCH   1  10
ATOM     10  C   UNL     1     113.349 110.747 113.809  1.00  0.00     0.057 C 
BRANCH  10  11
ATOM     11  C   UNL     1     113.073 109.575 112.901  1.00  0.00    -0.026 C 
ATOM     12  C   UNL     1     112.477 109.605 111.690  1.00  0.00    -0.024 C 
BRANCH  12  13
ATOM     13  C   UNL     1     111.904 110.811 110.935  1.00  0.00    -0.014 C 
ATOM     14  C   UNL     1     111.990 110.501 109.419  1.00  0.00     0.016 C 
ATOM     15  C   UNL     1     112.763 112.070 111.185  1.00  0.00     0.016 C 
BRANCH  13  16
ATOM     16  C   UNL     1     110.414 111.097 111.301  1.00  0.00     0.038 CG0
ATOM     17  G   UNL     1     110.250 112.044 112.478  1.00  0.00     0.000 G0
ENDBRANCH  13  16
ENDBRANCH  12  13
ENDBRANCH  10  11
ENDBRANCH   1  10
TORSDOF 0
ENDMDL
MODEL 7
REMARK VINA RESULT:    -4.837      3.258      5.079
REMARK INTER + INTRA:          -6.552
REMARK INTER:                  -7.152
REMARK INTRA:                   0.600
REMARK UNBOUND:                 0.547
REMARK SMILES C=C1CC=CC(C)(C)CC=C(C)CCC1
REMARK SMILES IDX 2 1 1 2 15 3 14 4 13 5 11 6 12 7 10 8 3 10 4 11 5 12 6 13
REMARK SMILES IDX 7 14 8 15 9 16
REMARK H PARENT
REMARK Flexibility Score: 60.00
ROOT
ATOM      1  C   UNL     1     109.520 111.402 107.327  1.00  0.00    -0.074 C 
ATOM      2  C   UNL     1     109.151 110.266 106.712  1.00  0.00     0.008 C 
ENDROOT
BRANCH   1   3
ATOM      3  C   UNL     1     110.452 112.379 106.630  1.00  0.00     0.031 C 
BRANCH   3   4
ATOM      4  C   UNL     1     111.849 111.772 106.378  1.00  0.00     0.009 C 
BRANCH   4   5
ATOM      5  C   UNL     1     112.793 111.907 107.594  1.00  0.00     0.030 C 
BRANCH   5   6
ATOM      6  C   UNL     1     112.823 110.633 108.423  1.00  0.00    -0.077 C 
ATOM      7  C   UNL     1     113.195 109.352 107.720  1.00  0.00     0.039 C 
ATOM      8  C   UNL     1     112.514 110.561 109.743  1.00  0.00    -0.027 CG0
ATOM      9  G   UNL     1     112.110 111.706 110.655  1.00  0.00     0.000 G0
ENDBRANCH   5   6
ENDBRANCH   4   5
ENDBRANCH   3   4
ENDBRANCH   1   3
BRANCH   1  10
ATOM     10  C   UNL     1     109.020 111.690 108.723  1.00  0.00     0.057 C 
BRANCH  10  11
ATOM     11  C   UNL     1     109.178 110.464 109.588  1.00  0.00    -0.026 C 
ATOM     12  C   UNL     1     109.898 110.356 110.724  1.00  0.00    -0.024 C 
BRANCH  12  13
ATOM     13  C   UNL     1     110.757 111.420 111.418  1.00  0.00    -0.014 C 
ATOM     14  C   UNL     1     111.079 110.907 112.845  1.00  0.00     0.016 C 
ATOM     15  C   UNL     1     109.968 112.738 111.582  1.00  0.00     0.016 C 
BRANCH  13  16
ATOM     16  C   UNL     1     112.101 111.689 110.671  1.00  0.00     0.038 CG0
ATOM     17  G   UNL     1     112.507 110.567 109.732  1.00  0.00     0.000 G0
ENDBRANCH  13  16
ENDBRANCH  12  13
ENDBRANCH  10  11
ENDBRANCH   1  10
TORSDOF 0
ENDMDL
MODEL 8
REMARK VINA RESULT:    -4.829      3.646      5.880
REMARK INTER + INTRA:          -6.541
REMARK INTER:                  -7.199
REMARK INTRA:                   0.658
REMARK UNBOUND:                 0.547
REMARK SMILES C=C1CC=CC(C)(C)CC=C(C)CCC1
REMARK SMILES IDX 2 1 1 2 15 3 14 4 13 5 11 6 12 7 10 8 3 10 4 11 5 12 6 13
REMARK SMILES IDX 7 14 8 15 9 16
REMARK H PARENT
REMARK Flexibility Score: 60.00
ROOT
ATOM      1  C   UNL     1     112.955 110.573 108.452  1.00  0.00    -0.074 C 
ATOM      2  C   UNL     1     113.068 109.421 107.768  1.00  0.00     0.008 C 
ENDROOT
BRANCH   1   3
ATOM      3  C   UNL     1     112.885 111.897 107.711  1.00  0.00     0.031 C 
BRANCH   3   4
ATOM      4  C   UNL     1     111.991 111.814 106.454  1.00  0.00     0.009 C 
BRANCH   4   5
ATOM      5  C   UNL     1     110.535 112.256 106.719  1.00  0.00     0.030 C 
BRANCH   5   6
ATOM      6  C   UNL     1     109.733 111.161 107.403  1.00  0.00    -0.077 C 
ATOM      7  C   UNL     1     109.433 109.915 106.607  1.00  0.00     0.039 C 
ATOM      8  C   UNL     1     109.245 111.233 108.668  1.00  0.00    -0.027 CG0
ATOM      9  G   UNL     1     109.412 112.378 109.652  1.00  0.00     0.000 G0
ENDBRANCH   5   6
ENDBRANCH   4   5
ENDBRANCH   3   4
ENDBRANCH   1   3
BRANCH   1  10
ATOM     10  C   UNL     1     112.923 110.541 109.962  1.00  0.00     0.057 C 
BRANCH  10  11
ATOM     11  C   UNL     1     112.784 111.943 110.502  1.00  0.00    -0.026 C 
ATOM     12  C   UNL     1     111.652 112.544 110.925  1.00  0.00    -0.024 C 
BRANCH  12  13
ATOM     13  C   UNL     1     110.222 111.988 110.944  1.00  0.00    -0.014 C 
ATOM     14  C   UNL     1     109.504 112.582 112.183  1.00  0.00     0.016 C 
ATOM     15  C   UNL     1     110.236 110.454 111.126  1.00  0.00     0.016 C 
BRANCH  13  16
ATOM     16  C   UNL     1     109.410 112.371 109.668  1.00  0.00     0.038 CG0
ATOM     17  G   UNL     1     109.246 111.222 108.688  1.00  0.00     0.000 G0
ENDBRANCH  13  16
ENDBRANCH  12  13
ENDBRANCH  10  11
ENDBRANCH   1  10
TORSDOF 0
ENDMDL
MODEL 9
REMARK VINA RESULT:    -4.694      4.247      6.042
REMARK INTER + INTRA:          -6.343
REMARK INTER:                  -6.945
REMARK INTRA:                   0.603
REMARK UNBOUND:                 0.547
REMARK SMILES C=C1CC=CC(C)(C)CC=C(C)CCC1
REMARK SMILES IDX 2 1 1 2 15 3 14 4 13 5 11 6 12 7 10 8 3 10 4 11 5 12 6 13
REMARK SMILES IDX 7 14 8 15 9 16
REMARK H PARENT
REMARK Flexibility Score: 60.00
ROOT
ATOM      1  C   UNL     1     109.556 110.645 106.280  1.00  0.00    -0.074 C 
ATOM      2  C   UNL     1     109.236 111.725 105.547  1.00  0.00     0.008 C 
ENDROOT
BRANCH   1   3
ATOM      3  C   UNL     1     110.325 109.496 105.652  1.00  0.00     0.031 C 
BRANCH   3   4
ATOM      4  C   UNL     1     111.742 109.917 105.207  1.00  0.00     0.009 C 
BRANCH   4   5
ATOM      5  C   UNL     1     112.736 110.029 106.384  1.00  0.00     0.030 C 
BRANCH   5   6
ATOM      6  C   UNL     1     112.827 111.454 106.906  1.00  0.00    -0.077 C 
ATOM      7  C   UNL     1     113.305 112.518 105.950  1.00  0.00     0.039 C 
ATOM      8  C   UNL     1     112.536 111.833 108.176  1.00  0.00    -0.027 CG0
ATOM      9  G   UNL     1     112.046 110.948 109.309  1.00  0.00     0.000 G0
ENDBRANCH   5   6
ENDBRANCH   4   5
ENDBRANCH   3   4
ENDBRANCH   1   3
BRANCH   1  10
ATOM     10  C   UNL     1     109.125 110.574 107.727  1.00  0.00     0.057 C 
BRANCH  10  11
ATOM     11  C   UNL     1     109.141 111.954 108.336  1.00  0.00    -0.026 C 
ATOM     12  C   UNL     1     109.908 112.383 109.360  1.00  0.00    -0.024 C 
BRANCH  12  13
ATOM     13  C   UNL     1     110.930 111.593 110.188  1.00  0.00    -0.014 C 
ATOM     14  C   UNL     1     110.165 110.464 110.925  1.00  0.00     0.016 C 
ATOM     15  C   UNL     1     111.562 112.491 111.274  1.00  0.00     0.016 C 
BRANCH  13  16
ATOM     16  C   UNL     1     112.046 110.948 109.309  1.00  0.00     0.038 CG0
ATOM     17  G   UNL     1     112.520 111.843 108.177  1.00  0.00     0.000 G0
ENDBRANCH  13  16
ENDBRANCH  12  13
ENDBRANCH  10  11
ENDBRANCH   1  10
TORSDOF 0
ENDMDL
