MODEL 1
REMARK VINA RESULT:    -4.627      0.000      0.000
REMARK INTER + INTRA:          -6.881
REMARK INTER:                  -7.062
REMARK INTRA:                   0.181
REMARK UNBOUND:                 0.181
REMARK SMILES CC1=CCC[C@H](C)C(=O)C[C@@H](C(C)C)C(=O)C1
REMARK SMILES IDX 8 1 9 2 6 3 7 4 5 5 4 6 3 7 2 8 1 9 10 11 11 12 15 13 16 14
REMARK SMILES IDX 17 15 12 17 13 18 14 19
REMARK H PARENT
REMARK Flexibility Score: 70.00
ROOT
ATOM      1  C   UNL     1       3.744  12.068  31.205  1.00  0.00     0.136 C 
ATOM      2  O   UNL     1       4.255  12.504  32.228  1.00  0.00    -0.299 OA
ENDROOT
BRANCH   1   3
ATOM      3  C   UNL     1       2.414  11.342  31.289  1.00  0.00     0.053 C 
ATOM      4  C   UNL     1       2.613   9.918  31.826  1.00  0.00     0.016 C 
BRANCH   3   5
ATOM      5  C   UNL     1       1.422  12.132  32.175  1.00  0.00     0.015 C 
BRANCH   5   6
ATOM      6  C   UNL     1       1.177  13.550  31.625  1.00  0.00     0.028 C 
BRANCH   6   7
ATOM      7  C   UNL     1       0.109  13.600  30.559  1.00  0.00    -0.028 C 
ATOM      8  C   UNL     1       0.319  13.905  29.253  1.00  0.00    -0.070 CG0
ATOM      9  C   UNL     1      -0.843  13.835  28.294  1.00  0.00     0.039 C 
ATOM     10  G   UNL     1       1.638  14.432  28.711  1.00  0.00     0.000 G0
ENDBRANCH   6   7
ENDBRANCH   5   6
ENDBRANCH   3   5
ENDBRANCH   1   3
BRANCH   1  11
ATOM     11  C   UNL     1       4.462  12.256  29.887  1.00  0.00     0.087 C 
BRANCH  11  12
ATOM     12  C   UNL     1       4.034  13.564  29.173  1.00  0.00     0.066 C 
BRANCH  12  13
ATOM     13  C   UNL     1       2.685  13.399  28.488  1.00  0.00     0.140 C 
ATOM     14  O   UNL     1       2.469  12.442  27.759  1.00  0.00    -0.299 OA
BRANCH  13  15
ATOM     15  C   UNL     1       1.613  14.443  28.689  1.00  0.00     0.106 CG0
ATOM     16  G   UNL     1       0.314  13.895  29.259  1.00  0.00     0.000 G0
ENDBRANCH  13  15
ENDBRANCH  12  13
BRANCH  12  17
ATOM     17  C   UNL     1       5.157  14.130  28.246  1.00  0.00    -0.006 C 
ATOM     18  C   UNL     1       6.032  15.156  28.982  1.00  0.00     0.008 C 
ATOM     19  C   UNL     1       4.655  14.711  26.912  1.00  0.00     0.008 C 
ENDBRANCH  12  17
ENDBRANCH  11  12
ENDBRANCH   1  11
TORSDOF 1
ENDMDL
MODEL 2
REMARK VINA RESULT:    -4.572      1.742      3.939
REMARK INTER + INTRA:          -6.797
REMARK INTER:                  -7.501
REMARK INTRA:                   0.704
REMARK UNBOUND:                 0.181
REMARK SMILES CC1=CCC[C@H](C)C(=O)C[C@@H](C(C)C)C(=O)C1
REMARK SMILES IDX 8 1 9 2 6 3 7 4 5 5 4 6 3 7 2 8 1 9 10 11 11 12 15 13 16 14
REMARK SMILES IDX 17 15 12 17 13 18 14 19
REMARK H PARENT
REMARK Flexibility Score: 70.00
ROOT
ATOM      1  C   UNL     1       4.865  14.376  30.736  1.00  0.00     0.136 C 
ATOM      2  O   UNL     1       5.822  15.026  31.137  1.00  0.00    -0.299 OA
ENDROOT
BRANCH   1   3
ATOM      3  C   UNL     1       4.669  14.183  29.244  1.00  0.00     0.053 C 
ATOM      4  C   UNL     1       5.755  14.932  28.459  1.00  0.00     0.016 C 
BRANCH   3   5
ATOM      5  C   UNL     1       4.671  12.677  28.889  1.00  0.00     0.015 C 
BRANCH   5   6
ATOM      6  C   UNL     1       3.574  12.335  27.864  1.00  0.00     0.028 C 
BRANCH   6   7
ATOM      7  C   UNL     1       2.414  13.301  27.888  1.00  0.00    -0.028 C 
ATOM      8  C   UNL     1       1.399  13.285  28.790  1.00  0.00    -0.070 CG0
ATOM      9  C   UNL     1       0.352  14.369  28.727  1.00  0.00     0.039 C 
ATOM     10  G   UNL     1       1.181  12.165  29.796  1.00  0.00     0.000 G0
ENDBRANCH   6   7
ENDBRANCH   5   6
ENDBRANCH   3   5
ENDBRANCH   1   3
BRANCH   1  11
ATOM     11  C   UNL     1       3.900  13.794  31.745  1.00  0.00     0.087 C 
BRANCH  11  12
ATOM     12  C   UNL     1       3.346  12.419  31.294  1.00  0.00     0.066 C 
BRANCH  12  13
ATOM     13  C   UNL     1       1.831  12.455  31.157  1.00  0.00     0.140 C 
ATOM     14  O   UNL     1       1.123  12.691  32.126  1.00  0.00    -0.299 OA
BRANCH  13  15
ATOM     15  C   UNL     1       1.194  12.168  29.818  1.00  0.00     0.106 CG0
ATOM     16  G   UNL     1       1.393  13.270  28.789  1.00  0.00     0.000 G0
ENDBRANCH  13  15
ENDBRANCH  12  13
BRANCH  12  17
ATOM     17  C   UNL     1       3.881  11.244  32.174  1.00  0.00    -0.006 C 
ATOM     18  C   UNL     1       4.878  11.739  33.232  1.00  0.00     0.008 C 
ATOM     19  C   UNL     1       4.478  10.069  31.381  1.00  0.00     0.008 C 
ENDBRANCH  12  17
ENDBRANCH  11  12
ENDBRANCH   1  11
TORSDOF 1
ENDMDL
MODEL 3
REMARK VINA RESULT:    -4.529      1.281      1.600
REMARK INTER + INTRA:          -6.731
REMARK INTER:                  -7.176
REMARK INTRA:                   0.445
REMARK UNBOUND:                 0.181
REMARK SMILES CC1=CCC[C@H](C)C(=O)C[C@@H](C(C)C)C(=O)C1
REMARK SMILES IDX 8 1 9 2 6 3 7 4 5 5 4 6 3 7 2 8 1 9 10 11 11 12 15 13 16 14
REMARK SMILES IDX 17 15 12 17 13 18 14 19
REMARK H PARENT
REMARK Flexibility Score: 70.00
ROOT
ATOM      1  C   UNL     1       4.483  10.715  30.203  1.00  0.00     0.136 C 
ATOM      2  O   UNL     1       5.347   9.878  30.427  1.00  0.00    -0.299 OA
ENDROOT
BRANCH   1   3
ATOM      3  C   UNL     1       3.518  11.102  31.307  1.00  0.00     0.053 C 
ATOM      4  C   UNL     1       3.185   9.883  32.180  1.00  0.00     0.016 C 
BRANCH   3   5
ATOM      5  C   UNL     1       4.106  12.249  32.162  1.00  0.00     0.015 C 
BRANCH   5   6
ATOM      6  C   UNL     1       3.334  13.566  31.953  1.00  0.00     0.028 C 
BRANCH   6   7
ATOM      7  C   UNL     1       1.850  13.362  31.761  1.00  0.00    -0.028 C 
ATOM      8  C   UNL     1       1.184  13.513  30.588  1.00  0.00    -0.070 CG0
ATOM      9  C   UNL     1      -0.290  13.196  30.542  1.00  0.00     0.039 C 
ATOM     10  G   UNL     1       1.808  14.101  29.332  1.00  0.00     0.000 G0
ENDBRANCH   6   7
ENDBRANCH   5   6
ENDBRANCH   3   5
ENDBRANCH   1   3
BRANCH   1  11
ATOM     11  C   UNL     1       4.399  11.332  28.824  1.00  0.00     0.087 C 
BRANCH  11  12
ATOM     12  C   UNL     1       4.065  12.844  28.882  1.00  0.00     0.066 C 
BRANCH  12  13
ATOM     13  C   UNL     1       2.605  13.098  28.536  1.00  0.00     0.140 C 
ATOM     14  O   UNL     1       2.075  12.513  27.601  1.00  0.00    -0.299 OA
BRANCH  13  15
ATOM     15  C   UNL     1       1.811  14.102  29.335  1.00  0.00     0.106 CG0
ATOM     16  G   UNL     1       1.176  13.529  30.593  1.00  0.00     0.000 G0
ENDBRANCH  13  15
ENDBRANCH  12  13
BRANCH  12  17
ATOM     17  C   UNL     1       5.076  13.709  28.063  1.00  0.00    -0.006 C 
ATOM     18  C   UNL     1       5.768  14.757  28.947  1.00  0.00     0.008 C 
ATOM     19  C   UNL     1       4.482  14.372  26.808  1.00  0.00     0.008 C 
ENDBRANCH  12  17
ENDBRANCH  11  12
ENDBRANCH   1  11
TORSDOF 1
ENDMDL
MODEL 4
REMARK VINA RESULT:    -4.400      1.618      3.497
REMARK INTER + INTRA:          -6.534
REMARK INTER:                  -6.888
REMARK INTRA:                   0.354
REMARK UNBOUND:                 0.181
REMARK SMILES CC1=CCC[C@H](C)C(=O)C[C@@H](C(C)C)C(=O)C1
REMARK SMILES IDX 8 1 9 2 6 3 7 4 5 5 4 6 3 7 2 8 1 9 10 11 11 12 15 13 16 14
REMARK SMILES IDX 17 15 12 17 13 18 14 19
REMARK H PARENT
REMARK Flexibility Score: 70.00
ROOT
ATOM      1  C   UNL     1       3.474  12.387  28.889  1.00  0.00     0.136 C 
ATOM      2  O   UNL     1       2.835  11.409  28.524  1.00  0.00    -0.299 OA
ENDROOT
BRANCH   1   3
ATOM      3  C   UNL     1       3.194  13.738  28.256  1.00  0.00     0.053 C 
ATOM      4  C   UNL     1       4.102  13.959  27.038  1.00  0.00     0.016 C 
BRANCH   3   5
ATOM      5  C   UNL     1       1.703  13.850  27.860  1.00  0.00     0.015 C 
BRANCH   5   6
ATOM      6  C   UNL     1       0.884  14.586  28.938  1.00  0.00     0.028 C 
BRANCH   6   7
ATOM      7  C   UNL     1       0.043  13.660  29.783  1.00  0.00    -0.028 C 
ATOM      8  C   UNL     1       0.323  13.293  31.060  1.00  0.00    -0.070 CG0
ATOM      9  C   UNL     1      -0.660  12.420  31.799  1.00  0.00     0.039 C 
ATOM     10  G   UNL     1       1.634  13.611  31.761  1.00  0.00     0.000 G0
ENDBRANCH   6   7
ENDBRANCH   5   6
ENDBRANCH   3   5
ENDBRANCH   1   3
BRANCH   1  11
ATOM     11  C   UNL     1       4.535  12.215  29.953  1.00  0.00     0.087 C 
BRANCH  11  12
ATOM     12  C   UNL     1       4.113  12.849  31.303  1.00  0.00     0.066 C 
BRANCH  12  13
ATOM     13  C   UNL     1       2.673  12.497  31.648  1.00  0.00     0.140 C 
ATOM     14  O   UNL     1       2.339  11.333  31.815  1.00  0.00    -0.299 OA
BRANCH  13  15
ATOM     15  C   UNL     1       1.641  13.594  31.759  1.00  0.00     0.106 CG0
ATOM     16  G   UNL     1       0.332  13.286  31.048  1.00  0.00     0.000 G0
ENDBRANCH  13  15
ENDBRANCH  12  13
BRANCH  12  17
ATOM     17  C   UNL     1       4.430  14.377  31.368  1.00  0.00    -0.006 C 
ATOM     18  C   UNL     1       5.510  14.774  30.349  1.00  0.00     0.008 C 
ATOM     19  C   UNL     1       4.798  14.897  32.769  1.00  0.00     0.008 C 
ENDBRANCH  12  17
ENDBRANCH  11  12
ENDBRANCH   1  11
TORSDOF 1
ENDMDL
MODEL 5
REMARK VINA RESULT:    -4.379      2.113      3.994
REMARK INTER + INTRA:          -6.502
REMARK INTER:                  -7.479
REMARK INTRA:                   0.977
REMARK UNBOUND:                 0.181
REMARK SMILES CC1=CCC[C@H](C)C(=O)C[C@@H](C(C)C)C(=O)C1
REMARK SMILES IDX 8 1 9 2 6 3 7 4 5 5 4 6 3 7 2 8 1 9 10 11 11 12 15 13 16 14
REMARK SMILES IDX 17 15 12 17 13 18 14 19
REMARK H PARENT
REMARK Flexibility Score: 70.00
ROOT
ATOM      1  C   UNL     1       3.315  13.241  27.752  1.00  0.00     0.136 C 
ATOM      2  O   UNL     1       3.695  13.853  26.762  1.00  0.00    -0.299 OA
ENDROOT
BRANCH   1   3
ATOM      3  C   UNL     1       3.025  11.756  27.643  1.00  0.00     0.053 C 
ATOM      4  C   UNL     1       2.947  11.332  26.170  1.00  0.00     0.016 C 
BRANCH   3   5
ATOM      5  C   UNL     1       4.100  10.938  28.397  1.00  0.00     0.015 C 
BRANCH   5   6
ATOM      6  C   UNL     1       3.467   9.981  29.424  1.00  0.00     0.028 C 
BRANCH   6   7
ATOM      7  C   UNL     1       2.294  10.583  30.157  1.00  0.00    -0.028 C 
ATOM      8  C   UNL     1       2.374  11.549  31.107  1.00  0.00    -0.070 CG0
ATOM      9  C   UNL     1       1.099  12.104  31.691  1.00  0.00     0.039 C 
ATOM     10  G   UNL     1       3.684  12.029  31.713  1.00  0.00     0.000 G0
ENDBRANCH   6   7
ENDBRANCH   5   6
ENDBRANCH   3   5
ENDBRANCH   1   3
BRANCH   1  11
ATOM     11  C   UNL     1       3.136  13.991  29.054  1.00  0.00     0.087 C 
BRANCH  11  12
ATOM     12  C   UNL     1       4.387  13.885  29.963  1.00  0.00     0.066 C 
BRANCH  12  13
ATOM     13  C   UNL     1       4.002  13.501  31.384  1.00  0.00     0.140 C 
ATOM     14  O   UNL     1       3.965  14.344  32.269  1.00  0.00    -0.299 OA
BRANCH  13  15
ATOM     15  C   UNL     1       3.690  12.061  31.712  1.00  0.00     0.106 CG0
ATOM     16  G   UNL     1       2.389  11.556  31.107  1.00  0.00     0.000 G0
ENDBRANCH  13  15
ENDBRANCH  12  13
BRANCH  12  17
ATOM     17  C   UNL     1       5.301  15.148  29.867  1.00  0.00    -0.006 C 
ATOM     18  C   UNL     1       6.286  15.044  28.693  1.00  0.00     0.008 C 
ATOM     19  C   UNL     1       6.048  15.499  31.166  1.00  0.00     0.008 C 
ENDBRANCH  12  17
ENDBRANCH  11  12
ENDBRANCH   1  11
TORSDOF 1
ENDMDL
MODEL 6
REMARK VINA RESULT:    -4.272      1.674      3.610
REMARK INTER + INTRA:          -6.338
REMARK INTER:                  -6.766
REMARK INTRA:                   0.428
REMARK UNBOUND:                 0.181
REMARK SMILES CC1=CCC[C@H](C)C(=O)C[C@@H](C(C)C)C(=O)C1
REMARK SMILES IDX 8 1 9 2 6 3 7 4 5 5 4 6 3 7 2 8 1 9 10 11 11 12 15 13 16 14
REMARK SMILES IDX 17 15 12 17 13 18 14 19
REMARK H PARENT
REMARK Flexibility Score: 70.00
ROOT
ATOM      1  C   UNL     1       1.605  13.536  28.843  1.00  0.00     0.136 C 
ATOM      2  O   UNL     1       1.511  12.614  28.044  1.00  0.00    -0.299 OA
ENDROOT
BRANCH   1   3
ATOM      3  C   UNL     1       0.349  14.105  29.476  1.00  0.00     0.053 C 
ATOM      4  C   UNL     1      -0.820  14.060  28.481  1.00  0.00     0.016 C 
BRANCH   3   5
ATOM      5  C   UNL     1       0.000  13.336  30.772  1.00  0.00     0.015 C 
BRANCH   5   6
ATOM      6  C   UNL     1       1.224  13.204  31.698  1.00  0.00     0.028 C 
BRANCH   6   7
ATOM      7  C   UNL     1       1.710  11.783  31.844  1.00  0.00    -0.028 C 
ATOM      8  C   UNL     1       2.994  11.373  31.684  1.00  0.00    -0.070 CG0
ATOM      9  C   UNL     1       3.335   9.926  31.941  1.00  0.00     0.039 C 
ATOM     10  G   UNL     1       4.103  12.262  31.143  1.00  0.00     0.000 G0
ENDBRANCH   6   7
ENDBRANCH   5   6
ENDBRANCH   3   5
ENDBRANCH   1   3
BRANCH   1  11
ATOM     11  C   UNL     1       2.976  14.089  29.166  1.00  0.00     0.087 C 
BRANCH  11  12
ATOM     12  C   UNL     1       4.111  13.164  28.658  1.00  0.00     0.066 C 
BRANCH  12  13
ATOM     13  C   UNL     1       4.411  12.061  29.662  1.00  0.00     0.140 C 
ATOM     14  O   UNL     1       4.877  10.993  29.294  1.00  0.00    -0.299 OA
BRANCH  13  15
ATOM     15  C   UNL     1       4.105  12.278  31.125  1.00  0.00     0.106 CG0
ATOM     16  G   UNL     1       3.002  11.381  31.665  1.00  0.00     0.000 G0
ENDBRANCH  13  15
ENDBRANCH  12  13
BRANCH  12  17
ATOM     17  C   UNL     1       5.368  13.966  28.193  1.00  0.00    -0.006 C 
ATOM     18  C   UNL     1       5.943  14.825  29.329  1.00  0.00     0.008 C 
ATOM     19  C   UNL     1       5.153  14.820  26.930  1.00  0.00     0.008 C 
ENDBRANCH  12  17
ENDBRANCH  11  12
ENDBRANCH   1  11
TORSDOF 1
ENDMDL
MODEL 7
REMARK VINA RESULT:    -4.251      2.149      4.591
REMARK INTER + INTRA:          -6.306
REMARK INTER:                  -6.666
REMARK INTRA:                   0.360
REMARK UNBOUND:                 0.181
REMARK SMILES CC1=CCC[C@H](C)C(=O)C[C@@H](C(C)C)C(=O)C1
REMARK SMILES IDX 8 1 9 2 6 3 7 4 5 5 4 6 3 7 2 8 1 9 10 11 11 12 15 13 16 14
REMARK SMILES IDX 17 15 12 17 13 18 14 19
REMARK H PARENT
REMARK Flexibility Score: 70.00
ROOT
ATOM      1  C   UNL     1       4.959  14.587  30.481  1.00  0.00     0.136 C 
ATOM      2  O   UNL     1       5.481  14.775  31.572  1.00  0.00    -0.299 OA
ENDROOT
BRANCH   1   3
ATOM      3  C   UNL     1       5.552  15.246  29.250  1.00  0.00     0.053 C 
ATOM      4  C   UNL     1       6.954  15.792  29.556  1.00  0.00     0.016 C 
BRANCH   3   5
ATOM      5  C   UNL     1       5.594  14.248  28.069  1.00  0.00     0.015 C 
BRANCH   5   6
ATOM      6  C   UNL     1       4.429  14.478  27.089  1.00  0.00     0.028 C 
BRANCH   6   7
ATOM      7  C   UNL     1       4.024  13.232  26.341  1.00  0.00    -0.028 C 
ATOM      8  C   UNL     1       3.187  12.272  26.811  1.00  0.00    -0.070 CG0
ATOM      9  C   UNL     1       2.817  11.121  25.908  1.00  0.00     0.039 C 
ATOM     10  G   UNL     1       2.685  12.218  28.246  1.00  0.00     0.000 G0
ENDBRANCH   6   7
ENDBRANCH   5   6
ENDBRANCH   3   5
ENDBRANCH   1   3
BRANCH   1  11
ATOM     11  C   UNL     1       3.730  13.709  30.397  1.00  0.00     0.087 C 
BRANCH  11  12
ATOM     12  C   UNL     1       4.087  12.202  30.442  1.00  0.00     0.066 C 
BRANCH  12  13
ATOM     13  C   UNL     1       3.567  11.478  29.208  1.00  0.00     0.140 C 
ATOM     14  O   UNL     1       3.891  10.321  28.982  1.00  0.00    -0.299 OA
BRANCH  13  15
ATOM     15  C   UNL     1       2.665  12.204  28.240  1.00  0.00     0.106 CG0
ATOM     16  G   UNL     1       3.206  12.268  26.820  1.00  0.00     0.000 G0
ENDBRANCH  13  15
ENDBRANCH  12  13
BRANCH  12  17
ATOM     17  C   UNL     1       3.681  11.534  31.794  1.00  0.00    -0.006 C 
ATOM     18  C   UNL     1       4.421  10.206  32.013  1.00  0.00     0.008 C 
ATOM     19  C   UNL     1       2.166  11.342  31.985  1.00  0.00     0.008 C 
ENDBRANCH  12  17
ENDBRANCH  11  12
ENDBRANCH   1  11
TORSDOF 1
ENDMDL
MODEL 8
REMARK VINA RESULT:    -4.220      2.400      3.848
REMARK INTER + INTRA:          -6.259
REMARK INTER:                  -6.150
REMARK INTRA:                  -0.109
REMARK UNBOUND:                 0.181
REMARK SMILES CC1=CCC[C@H](C)C(=O)C[C@@H](C(C)C)C(=O)C1
REMARK SMILES IDX 8 1 9 2 6 3 7 4 5 5 4 6 3 7 2 8 1 9 10 11 11 12 15 13 16 14
REMARK SMILES IDX 17 15 12 17 13 18 14 19
REMARK H PARENT
REMARK Flexibility Score: 70.00
ROOT
ATOM      1  C   UNL     1       2.027  13.435  31.662  1.00  0.00     0.136 C 
ATOM      2  O   UNL     1       1.612  14.433  32.237  1.00  0.00    -0.299 OA
ENDROOT
BRANCH   1   3
ATOM      3  C   UNL     1       1.040  12.500  30.988  1.00  0.00     0.053 C 
ATOM      4  C   UNL     1      -0.295  12.490  31.747  1.00  0.00     0.016 C 
BRANCH   3   5
ATOM      5  C   UNL     1       0.831  12.908  29.511  1.00  0.00     0.015 C 
BRANCH   5   6
ATOM      6  C   UNL     1       1.880  12.258  28.589  1.00  0.00     0.028 C 
BRANCH   6   7
ATOM      7  C   UNL     1       2.625  13.255  27.736  1.00  0.00    -0.028 C 
ATOM      8  C   UNL     1       3.925  13.610  27.899  1.00  0.00    -0.070 CG0
ATOM      9  C   UNL     1       4.548  14.566  26.912  1.00  0.00     0.039 C 
ATOM     10  G   UNL     1       4.770  13.194  29.093  1.00  0.00     0.000 G0
ENDBRANCH   6   7
ENDBRANCH   5   6
ENDBRANCH   3   5
ENDBRANCH   1   3
BRANCH   1  11
ATOM     11  C   UNL     1       3.514  13.159  31.653  1.00  0.00     0.087 C 
BRANCH  11  12
ATOM     12  C   UNL     1       4.341  14.437  31.365  1.00  0.00     0.066 C 
BRANCH  12  13
ATOM     13  C   UNL     1       5.103  14.315  30.053  1.00  0.00     0.140 C 
ATOM     14  O   UNL     1       5.960  15.132  29.752  1.00  0.00    -0.299 OA
BRANCH  13  15
ATOM     15  C   UNL     1       4.777  13.189  29.102  1.00  0.00     0.106 CG0
ATOM     16  G   UNL     1       3.931  13.611  27.910  1.00  0.00     0.000 G0
ENDBRANCH  13  15
ENDBRANCH  12  13
BRANCH  12  17
ATOM     17  C   UNL     1       5.225  14.861  32.581  1.00  0.00    -0.006 C 
ATOM     18  C   UNL     1       5.320  13.741  33.628  1.00  0.00     0.008 C 
ATOM     19  C   UNL     1       4.809  16.185  33.246  1.00  0.00     0.008 C 
ENDBRANCH  12  17
ENDBRANCH  11  12
ENDBRANCH   1  11
TORSDOF 1
ENDMDL
MODEL 9
REMARK VINA RESULT:    -3.870      2.147      3.835
REMARK INTER + INTRA:          -5.725
REMARK INTER:                  -5.958
REMARK INTRA:                   0.233
REMARK UNBOUND:                 0.181
REMARK SMILES CC1=CCC[C@H](C)C(=O)C[C@@H](C(C)C)C(=O)C1
REMARK SMILES IDX 8 1 9 2 6 3 7 4 5 5 4 6 3 7 2 8 1 9 10 11 11 12 15 13 16 14
REMARK SMILES IDX 17 15 12 17 13 18 14 19
REMARK H PARENT
REMARK Flexibility Score: 70.00
ROOT
ATOM      1  C   UNL     1       0.975  13.431  29.218  1.00  0.00     0.136 C 
ATOM      2  O   UNL     1      -0.119  13.374  28.671  1.00  0.00    -0.299 OA
ENDROOT
BRANCH   1   3
ATOM      3  C   UNL     1       1.129  12.899  30.631  1.00  0.00     0.053 C 
ATOM      4  C   UNL     1      -0.157  13.134  31.436  1.00  0.00     0.016 C 
BRANCH   3   5
ATOM      5  C   UNL     1       1.497  11.397  30.605  1.00  0.00     0.015 C 
BRANCH   5   6
ATOM      6  C   UNL     1       2.674  11.085  31.548  1.00  0.00     0.028 C 
BRANCH   6   7
ATOM      7  C   UNL     1       3.190  12.301  32.279  1.00  0.00    -0.028 C 
ATOM      8  C   UNL     1       4.132  13.158  31.810  1.00  0.00    -0.070 CG0
ATOM      9  C   UNL     1       4.485  14.373  32.630  1.00  0.00     0.039 C 
ATOM     10  G   UNL     1       4.951  12.906  30.553  1.00  0.00     0.000 G0
ENDBRANCH   6   7
ENDBRANCH   5   6
ENDBRANCH   3   5
ENDBRANCH   1   3
BRANCH   1  11
ATOM     11  C   UNL     1       2.138  14.044  28.470  1.00  0.00     0.087 C 
BRANCH  11  12
ATOM     12  C   UNL     1       3.380  13.117  28.468  1.00  0.00     0.066 C 
BRANCH  12  13
ATOM     13  C   UNL     1       4.485  13.678  29.352  1.00  0.00     0.140 C 
ATOM     14  O   UNL     1       5.019  14.744  29.082  1.00  0.00    -0.299 OA
BRANCH  13  15
ATOM     15  C   UNL     1       4.945  12.896  30.559  1.00  0.00     0.106 CG0
ATOM     16  G   UNL     1       4.132  13.164  31.817  1.00  0.00     0.000 G0
ENDBRANCH  13  15
ENDBRANCH  12  13
BRANCH  12  17
ATOM     17  C   UNL     1       3.844  12.747  27.023  1.00  0.00    -0.006 C 
ATOM     18  C   UNL     1       3.942  13.990  26.125  1.00  0.00     0.008 C 
ATOM     19  C   UNL     1       3.002  11.655  26.339  1.00  0.00     0.008 C 
ENDBRANCH  12  17
ENDBRANCH  11  12
ENDBRANCH   1  11
TORSDOF 1
ENDMDL
