MODEL 1
REMARK VINA RESULT:    -4.877      0.000      0.000
REMARK INTER + INTRA:          -8.193
REMARK INTER:                  -7.159
REMARK INTRA:                  -1.034
REMARK UNBOUND:                -1.034
REMARK SMILES CC(C)COC(=O)c1ccccc1C(=O)OCC(C)C
REMARK SMILES IDX 8 1 9 2 10 3 11 4 12 5 13 6 6 7 7 8 5 9 4 10 2 11 1 12 3 13
REMARK SMILES IDX 14 14 15 15 16 16 17 17 18 18 19 19 20 20
REMARK H PARENT
REMARK Flexibility Score: inf
ROOT
ATOM      1  C   UNL     1      26.780  27.563  29.882  1.00  0.00     0.074 A 
ATOM      2  C   UNL     1      26.517  26.335  30.516  1.00  0.00     0.016 A 
ATOM      3  C   UNL     1      27.414  25.271  30.410  1.00  0.00     0.001 A 
ATOM      4  C   UNL     1      28.585  25.415  29.672  1.00  0.00     0.001 A 
ATOM      5  C   UNL     1      28.855  26.616  29.015  1.00  0.00     0.016 A 
ATOM      6  C   UNL     1      27.955  27.694  29.089  1.00  0.00     0.074 A 
ENDROOT
BRANCH   1   7
ATOM      7  C   UNL     1      25.843  28.682  30.129  1.00  0.00     0.339 C 
ATOM      8  O   UNL     1      26.131  29.584  30.964  1.00  0.00    -0.246 OA
BRANCH   7   9
ATOM      9  O   UNL     1      24.609  28.701  29.474  1.00  0.00    -0.462 OA
BRANCH   9  10
ATOM     10  C   UNL     1      24.363  27.984  28.267  1.00  0.00     0.236 C 
BRANCH  10  11
ATOM     11  C   UNL     1      23.380  26.830  28.515  1.00  0.00     0.021 C 
ATOM     12  C   UNL     1      22.014  27.120  27.880  1.00  0.00     0.011 C 
ATOM     13  C   UNL     1      23.946  25.500  28.001  1.00  0.00     0.011 C 
ENDBRANCH  10  11
ENDBRANCH   9  10
ENDBRANCH   7   9
ENDBRANCH   1   7
BRANCH   6  14
ATOM     14  C   UNL     1      28.248  28.896  28.275  1.00  0.00     0.339 C 
ATOM     15  O   UNL     1      28.729  29.930  28.814  1.00  0.00    -0.246 OA
BRANCH  14  16
ATOM     16  O   UNL     1      27.933  28.896  26.912  1.00  0.00    -0.462 OA
BRANCH  16  17
ATOM     17  C   UNL     1      28.754  29.521  25.931  1.00  0.00     0.236 C 
BRANCH  17  18
ATOM     18  C   UNL     1      27.892  29.999  24.752  1.00  0.00     0.021 C 
ATOM     19  C   UNL     1      28.656  29.877  23.427  1.00  0.00     0.011 C 
ATOM     20  C   UNL     1      26.584  29.203  24.687  1.00  0.00     0.011 C 
ENDBRANCH  17  18
ENDBRANCH  16  17
ENDBRANCH  14  16
ENDBRANCH   6  14
TORSDOF 8
ENDMDL
MODEL 2
REMARK VINA RESULT:    -4.824      0.194      4.734
REMARK INTER + INTRA:          -8.114
REMARK INTER:                  -7.190
REMARK INTRA:                  -0.923
REMARK UNBOUND:                -1.034
REMARK SMILES CC(C)COC(=O)c1ccccc1C(=O)OCC(C)C
REMARK SMILES IDX 8 1 9 2 10 3 11 4 12 5 13 6 6 7 7 8 5 9 4 10 2 11 1 12 3 13
REMARK SMILES IDX 14 14 15 15 16 16 17 17 18 18 19 19 20 20
REMARK H PARENT
REMARK Flexibility Score: inf
ROOT
ATOM      1  C   UNL     1      28.021  27.722  29.045  1.00  0.00     0.074 A 
ATOM      2  C   UNL     1      28.917  26.641  28.963  1.00  0.00     0.016 A 
ATOM      3  C   UNL     1      28.619  25.419  29.567  1.00  0.00     0.001 A 
ATOM      4  C   UNL     1      27.423  25.256  30.260  1.00  0.00     0.001 A 
ATOM      5  C   UNL     1      26.530  26.321  30.374  1.00  0.00     0.016 A 
ATOM      6  C   UNL     1      26.820  27.569  29.793  1.00  0.00     0.074 A 
ENDROOT
BRANCH   1   7
ATOM      7  C   UNL     1      28.350  28.951  28.287  1.00  0.00     0.339 C 
ATOM      8  O   UNL     1      28.772  29.977  28.887  1.00  0.00    -0.246 OA
BRANCH   7   9
ATOM      9  O   UNL     1      28.133  28.984  26.907  1.00  0.00    -0.462 OA
BRANCH   9  10
ATOM     10  C   UNL     1      28.610  30.039  26.075  1.00  0.00     0.236 C 
BRANCH  10  11
ATOM     11  C   UNL     1      27.896  30.018  24.715  1.00  0.00     0.021 C 
ATOM     12  C   UNL     1      28.806  29.448  23.620  1.00  0.00     0.011 C 
ATOM     13  C   UNL     1      26.581  29.232  24.791  1.00  0.00     0.011 C 
ENDBRANCH  10  11
ENDBRANCH   9  10
ENDBRANCH   7   9
ENDBRANCH   1   7
BRANCH   6  14
ATOM     14  C   UNL     1      25.883  28.686  30.051  1.00  0.00     0.339 C 
ATOM     15  O   UNL     1      26.185  29.597  30.869  1.00  0.00    -0.246 OA
BRANCH  14  16
ATOM     16  O   UNL     1      24.632  28.691  29.425  1.00  0.00    -0.462 OA
BRANCH  16  17
ATOM     17  C   UNL     1      24.367  27.971  28.225  1.00  0.00     0.236 C 
BRANCH  17  18
ATOM     18  C   UNL     1      23.354  26.849  28.500  1.00  0.00     0.021 C 
ATOM     19  C   UNL     1      21.999  27.160  27.850  1.00  0.00     0.011 C 
ATOM     20  C   UNL     1      23.891  25.506  27.994  1.00  0.00     0.011 C 
ENDBRANCH  17  18
ENDBRANCH  16  17
ENDBRANCH  14  16
ENDBRANCH   6  14
TORSDOF 8
ENDMDL
MODEL 3
REMARK VINA RESULT:    -4.582     10.014     13.306
REMARK INTER + INTRA:          -7.760
REMARK INTER:                  -6.750
REMARK INTRA:                  -1.009
REMARK UNBOUND:                -1.034
REMARK SMILES CC(C)COC(=O)c1ccccc1C(=O)OCC(C)C
REMARK SMILES IDX 8 1 9 2 10 3 11 4 12 5 13 6 6 7 7 8 5 9 4 10 2 11 1 12 3 13
REMARK SMILES IDX 14 14 15 15 16 16 17 17 18 18 19 19 20 20
REMARK H PARENT
REMARK Flexibility Score: inf
ROOT
ATOM      1  C   UNL     1      27.181  37.398  20.730  1.00  0.00     0.074 A 
ATOM      2  C   UNL     1      26.038  36.582  20.815  1.00  0.00     0.016 A 
ATOM      3  C   UNL     1      24.769  37.144  20.956  1.00  0.00     0.001 A 
ATOM      4  C   UNL     1      24.619  38.527  21.013  1.00  0.00     0.001 A 
ATOM      5  C   UNL     1      25.740  39.354  20.954  1.00  0.00     0.016 A 
ATOM      6  C   UNL     1      27.032  38.810  20.835  1.00  0.00     0.074 A 
ENDROOT
BRANCH   1   7
ATOM      7  C   UNL     1      28.481  36.740  20.468  1.00  0.00     0.339 C 
ATOM      8  O   UNL     1      29.005  36.794  19.321  1.00  0.00    -0.246 OA
BRANCH   7   9
ATOM      9  O   UNL     1      29.096  36.007  21.486  1.00  0.00    -0.462 OA
BRANCH   9  10
ATOM     10  C   UNL     1      28.693  34.686  21.840  1.00  0.00     0.236 C 
BRANCH  10  11
ATOM     11  C   UNL     1      28.541  34.557  23.363  1.00  0.00     0.021 C 
ATOM     12  C   UNL     1      27.363  35.395  23.875  1.00  0.00     0.011 C 
ATOM     13  C   UNL     1      28.386  33.090  23.782  1.00  0.00     0.011 C 
ENDBRANCH  10  11
ENDBRANCH   9  10
ENDBRANCH   7   9
ENDBRANCH   1   7
BRANCH   6  14
ATOM     14  C   UNL     1      28.182  39.739  20.894  1.00  0.00     0.339 C 
ATOM     15  O   UNL     1      28.893  39.812  21.934  1.00  0.00    -0.246 OA
BRANCH  14  16
ATOM     16  O   UNL     1      28.440  40.583  19.808  1.00  0.00    -0.462 OA
BRANCH  16  17
ATOM     17  C   UNL     1      28.438  42.003  19.916  1.00  0.00     0.236 C 
BRANCH  17  18
ATOM     18  C   UNL     1      27.007  42.539  19.758  1.00  0.00     0.021 C 
ATOM     19  C   UNL     1      26.442  43.005  21.107  1.00  0.00     0.011 C 
ATOM     20  C   UNL     1      26.974  43.687  18.743  1.00  0.00     0.011 C 
ENDBRANCH  17  18
ENDBRANCH  16  17
ENDBRANCH  14  16
ENDBRANCH   6  14
TORSDOF 8
ENDMDL
MODEL 4
REMARK VINA RESULT:    -4.582      9.936     13.705
REMARK INTER + INTRA:          -7.759
REMARK INTER:                  -6.770
REMARK INTRA:                  -0.989
REMARK UNBOUND:                -1.034
REMARK SMILES CC(C)COC(=O)c1ccccc1C(=O)OCC(C)C
REMARK SMILES IDX 8 1 9 2 10 3 11 4 12 5 13 6 6 7 7 8 5 9 4 10 2 11 1 12 3 13
REMARK SMILES IDX 14 14 15 15 16 16 17 17 18 18 19 19 20 20
REMARK H PARENT
REMARK Flexibility Score: inf
ROOT
ATOM      1  C   UNL     1      27.052  38.705  20.749  1.00  0.00     0.074 A 
ATOM      2  C   UNL     1      25.771  39.283  20.819  1.00  0.00     0.016 A 
ATOM      3  C   UNL     1      24.635  38.485  20.961  1.00  0.00     0.001 A 
ATOM      4  C   UNL     1      24.759  37.101  21.037  1.00  0.00     0.001 A 
ATOM      5  C   UNL     1      26.017  36.505  20.946  1.00  0.00     0.016 A 
ATOM      6  C   UNL     1      27.174  37.287  20.779  1.00  0.00     0.074 A 
ENDROOT
BRANCH   1   7
ATOM      7  C   UNL     1      28.219  39.615  20.711  1.00  0.00     0.339 C 
ATOM      8  O   UNL     1      29.053  39.623  21.658  1.00  0.00    -0.246 OA
BRANCH   7   9
ATOM      9  O   UNL     1      28.358  40.510  19.647  1.00  0.00    -0.462 OA
BRANCH   9  10
ATOM     10  C   UNL     1      28.410  41.923  19.827  1.00  0.00     0.236 C 
BRANCH  10  11
ATOM     11  C   UNL     1      26.997  42.526  19.782  1.00  0.00     0.021 C 
ATOM     12  C   UNL     1      26.519  42.921  21.185  1.00  0.00     0.011 C 
ATOM     13  C   UNL     1      26.937  43.727  18.830  1.00  0.00     0.011 C 
ENDBRANCH  10  11
ENDBRANCH   9  10
ENDBRANCH   7   9
ENDBRANCH   1   7
BRANCH   6  14
ATOM     14  C   UNL     1      28.460  36.584  20.575  1.00  0.00     0.339 C 
ATOM     15  O   UNL     1      28.972  36.509  19.424  1.00  0.00    -0.246 OA
BRANCH  14  16
ATOM     16  O   UNL     1      29.076  35.949  21.660  1.00  0.00    -0.462 OA
BRANCH  16  17
ATOM     17  C   UNL     1      28.890  34.568  21.952  1.00  0.00     0.236 C 
BRANCH  17  18
ATOM     18  C   UNL     1      28.625  34.380  23.453  1.00  0.00     0.021 C 
ATOM     19  C   UNL     1      27.410  35.203  23.904  1.00  0.00     0.011 C 
ATOM     20  C   UNL     1      28.414  32.898  23.780  1.00  0.00     0.011 C 
ENDBRANCH  17  18
ENDBRANCH  16  17
ENDBRANCH  14  16
ENDBRANCH   6  14
TORSDOF 8
ENDMDL
MODEL 5
REMARK VINA RESULT:    -4.316      9.714     13.286
REMARK INTER + INTRA:          -7.369
REMARK INTER:                  -6.705
REMARK INTRA:                  -0.664
REMARK UNBOUND:                -1.034
REMARK SMILES CC(C)COC(=O)c1ccccc1C(=O)OCC(C)C
REMARK SMILES IDX 8 1 9 2 10 3 11 4 12 5 13 6 6 7 7 8 5 9 4 10 2 11 1 12 3 13
REMARK SMILES IDX 14 14 15 15 16 16 17 17 18 18 19 19 20 20
REMARK H PARENT
REMARK Flexibility Score: inf
ROOT
ATOM      1  C   UNL     1      27.890  37.388  20.249  1.00  0.00     0.074 A 
ATOM      2  C   UNL     1      28.841  36.792  19.402  1.00  0.00     0.016 A 
ATOM      3  C   UNL     1      29.125  37.339  18.150  1.00  0.00     0.001 A 
ATOM      4  C   UNL     1      28.467  38.490  17.726  1.00  0.00     0.001 A 
ATOM      5  C   UNL     1      27.503  39.085  18.540  1.00  0.00     0.016 A 
ATOM      6  C   UNL     1      27.183  38.538  19.795  1.00  0.00     0.074 A 
ENDROOT
BRANCH   1   7
ATOM      7  C   UNL     1      27.721  36.820  21.606  1.00  0.00     0.339 C 
ATOM      8  O   UNL     1      27.896  37.540  22.627  1.00  0.00    -0.246 OA
BRANCH   7   9
ATOM      9  O   UNL     1      27.423  35.462  21.749  1.00  0.00    -0.462 OA
BRANCH   9  10
ATOM     10  C   UNL     1      28.421  34.473  21.994  1.00  0.00     0.236 C 
BRANCH  10  11
ATOM     11  C   UNL     1      28.250  33.870  23.396  1.00  0.00     0.021 C 
ATOM     12  C   UNL     1      28.787  32.434  23.451  1.00  0.00     0.011 C 
ATOM     13  C   UNL     1      28.928  34.743  24.461  1.00  0.00     0.011 C 
ENDBRANCH  10  11
ENDBRANCH   9  10
ENDBRANCH   7   9
ENDBRANCH   1   7
BRANCH   6  14
ATOM     14  C   UNL     1      26.072  39.153  20.555  1.00  0.00     0.339 C 
ATOM     15  O   UNL     1      25.059  38.471  20.870  1.00  0.00    -0.246 OA
BRANCH  14  16
ATOM     16  O   UNL     1      26.127  40.515  20.869  1.00  0.00    -0.462 OA
BRANCH  16  17
ATOM     17  C   UNL     1      27.179  41.088  21.640  1.00  0.00     0.236 C 
BRANCH  17  18
ATOM     18  C   UNL     1      27.586  42.445  21.045  1.00  0.00     0.021 C 
ATOM     19  C   UNL     1      26.953  42.652  19.663  1.00  0.00     0.011 C 
ATOM     20  C   UNL     1      27.187  43.585  21.989  1.00  0.00     0.011 C 
ENDBRANCH  17  18
ENDBRANCH  16  17
ENDBRANCH  14  16
ENDBRANCH   6  14
TORSDOF 8
ENDMDL
MODEL 6
REMARK VINA RESULT:    -4.313      1.958      5.343
REMARK INTER + INTRA:          -7.365
REMARK INTER:                  -5.957
REMARK INTRA:                  -1.408
REMARK UNBOUND:                -1.034
REMARK SMILES CC(C)COC(=O)c1ccccc1C(=O)OCC(C)C
REMARK SMILES IDX 8 1 9 2 10 3 11 4 12 5 13 6 6 7 7 8 5 9 4 10 2 11 1 12 3 13
REMARK SMILES IDX 14 14 15 15 16 16 17 17 18 18 19 19 20 20
REMARK H PARENT
REMARK Flexibility Score: inf
ROOT
ATOM      1  C   UNL     1      27.760  27.850  28.391  1.00  0.00     0.074 A 
ATOM      2  C   UNL     1      28.366  29.107  28.567  1.00  0.00     0.016 A 
ATOM      3  C   UNL     1      27.931  29.975  29.568  1.00  0.00     0.001 A 
ATOM      4  C   UNL     1      26.887  29.603  30.411  1.00  0.00     0.001 A 
ATOM      5  C   UNL     1      26.256  28.371  30.240  1.00  0.00     0.016 A 
ATOM      6  C   UNL     1      26.662  27.489  29.222  1.00  0.00     0.074 A 
ENDROOT
BRANCH   1   7
ATOM      7  C   UNL     1      28.346  26.936  27.384  1.00  0.00     0.339 C 
ATOM      8  O   UNL     1      29.124  26.009  27.739  1.00  0.00    -0.246 OA
BRANCH   7   9
ATOM      9  O   UNL     1      28.076  27.145  26.029  1.00  0.00    -0.462 OA
BRANCH   9  10
ATOM     10  C   UNL     1      28.925  27.917  25.182  1.00  0.00     0.236 C 
BRANCH  10  11
ATOM     11  C   UNL     1      28.188  29.165  24.672  1.00  0.00     0.021 C 
ATOM     12  C   UNL     1      26.691  29.096  24.998  1.00  0.00     0.011 C 
ATOM     13  C   UNL     1      28.809  30.446  25.243  1.00  0.00     0.011 C 
ENDBRANCH  10  11
ENDBRANCH   9  10
ENDBRANCH   7   9
ENDBRANCH   1   7
BRANCH   6  14
ATOM     14  C   UNL     1      25.875  26.251  29.025  1.00  0.00     0.339 C 
ATOM     15  O   UNL     1      26.071  25.246  29.761  1.00  0.00    -0.246 OA
BRANCH  14  16
ATOM     16  O   UNL     1      24.952  26.184  27.976  1.00  0.00    -0.462 OA
BRANCH  16  17
ATOM     17  C   UNL     1      23.577  25.869  28.177  1.00  0.00     0.236 C 
BRANCH  17  18
ATOM     18  C   UNL     1      22.835  27.094  28.732  1.00  0.00     0.021 C 
ATOM     19  C   UNL     1      23.228  28.368  27.970  1.00  0.00     0.011 C 
ATOM     20  C   UNL     1      21.319  26.880  28.662  1.00  0.00     0.011 C 
ENDBRANCH  17  18
ENDBRANCH  16  17
ENDBRANCH  14  16
ENDBRANCH   6  14
TORSDOF 8
ENDMDL
MODEL 7
REMARK VINA RESULT:    -4.019      9.815     13.770
REMARK INTER + INTRA:          -6.933
REMARK INTER:                  -6.383
REMARK INTRA:                  -0.551
REMARK UNBOUND:                -1.034
REMARK SMILES CC(C)COC(=O)c1ccccc1C(=O)OCC(C)C
REMARK SMILES IDX 8 1 9 2 10 3 11 4 12 5 13 6 6 7 7 8 5 9 4 10 2 11 1 12 3 13
REMARK SMILES IDX 14 14 15 15 16 16 17 17 18 18 19 19 20 20
REMARK H PARENT
REMARK Flexibility Score: inf
ROOT
ATOM      1  C   UNL     1      27.059  38.877  20.012  1.00  0.00     0.074 A 
ATOM      2  C   UNL     1      27.524  39.544  18.864  1.00  0.00     0.016 A 
ATOM      3  C   UNL     1      28.414  38.921  17.988  1.00  0.00     0.001 A 
ATOM      4  C   UNL     1      28.851  37.624  18.242  1.00  0.00     0.001 A 
ATOM      5  C   UNL     1      28.421  36.952  19.385  1.00  0.00     0.016 A 
ATOM      6  C   UNL     1      27.542  37.568  20.295  1.00  0.00     0.074 A 
ENDROOT
BRANCH   1   7
ATOM      7  C   UNL     1      26.032  39.554  20.835  1.00  0.00     0.339 C 
ATOM      8  O   UNL     1      24.883  39.049  20.965  1.00  0.00    -0.246 OA
BRANCH   7   9
ATOM      9  O   UNL     1      26.326  40.789  21.419  1.00  0.00    -0.462 OA
BRANCH   9  10
ATOM     10  C   UNL     1      27.584  41.079  22.023  1.00  0.00     0.236 C 
BRANCH  10  11
ATOM     11  C   UNL     1      28.067  42.480  21.619  1.00  0.00     0.021 C 
ATOM     12  C   UNL     1      29.076  42.407  20.466  1.00  0.00     0.011 C 
ATOM     13  C   UNL     1      26.887  43.388  21.249  1.00  0.00     0.011 C 
ENDBRANCH  10  11
ENDBRANCH   9  10
ENDBRANCH   7   9
ENDBRANCH   1   7
BRANCH   6  14
ATOM     14  C   UNL     1      27.218  36.842  21.543  1.00  0.00     0.339 C 
ATOM     15  O   UNL     1      26.032  36.487  21.786  1.00  0.00    -0.246 OA
BRANCH  14  16
ATOM     16  O   UNL     1      28.228  36.603  22.481  1.00  0.00    -0.462 OA
BRANCH  16  17
ATOM     17  C   UNL     1      29.114  35.492  22.395  1.00  0.00     0.236 C 
BRANCH  17  18
ATOM     18  C   UNL     1      28.312  34.194  22.215  1.00  0.00     0.021 C 
ATOM     19  C   UNL     1      28.734  33.460  20.935  1.00  0.00     0.011 C 
ATOM     20  C   UNL     1      28.487  33.282  23.434  1.00  0.00     0.011 C 
ENDBRANCH  17  18
ENDBRANCH  16  17
ENDBRANCH  14  16
ENDBRANCH   6  14
TORSDOF 8
ENDMDL
MODEL 8
REMARK VINA RESULT:    -3.937     12.484     15.825
REMARK INTER + INTRA:          -6.812
REMARK INTER:                  -6.000
REMARK INTRA:                  -0.812
REMARK UNBOUND:                -1.034
REMARK SMILES CC(C)COC(=O)c1ccccc1C(=O)OCC(C)C
REMARK SMILES IDX 8 1 9 2 10 3 11 4 12 5 13 6 6 7 7 8 5 9 4 10 2 11 1 12 3 13
REMARK SMILES IDX 14 14 15 15 16 16 17 17 18 18 19 19 20 20
REMARK H PARENT
REMARK Flexibility Score: inf
ROOT
ATOM      1  C   UNL     1      27.427  41.654  20.091  1.00  0.00     0.074 A 
ATOM      2  C   UNL     1      27.625  41.915  18.723  1.00  0.00     0.016 A 
ATOM      3  C   UNL     1      27.254  43.140  18.168  1.00  0.00     0.001 A 
ATOM      4  C   UNL     1      26.682  44.124  18.970  1.00  0.00     0.001 A 
ATOM      5  C   UNL     1      26.455  43.879  20.324  1.00  0.00     0.016 A 
ATOM      6  C   UNL     1      26.800  42.643  20.899  1.00  0.00     0.074 A 
ENDROOT
BRANCH   1   7
ATOM      7  C   UNL     1      27.947  40.378  20.632  1.00  0.00     0.339 C 
ATOM      8  O   UNL     1      28.882  40.377  21.479  1.00  0.00    -0.246 OA
BRANCH   7   9
ATOM      9  O   UNL     1      27.433  39.169  20.153  1.00  0.00    -0.462 OA
BRANCH   9  10
ATOM     10  C   UNL     1      26.054  38.822  20.253  1.00  0.00     0.236 C 
BRANCH  10  11
ATOM     11  C   UNL     1      25.896  37.346  20.647  1.00  0.00     0.021 C 
ATOM     12  C   UNL     1      26.882  36.960  21.757  1.00  0.00     0.011 C 
ATOM     13  C   UNL     1      24.455  37.036  21.071  1.00  0.00     0.011 C 
ENDBRANCH  10  11
ENDBRANCH   9  10
ENDBRANCH   7   9
ENDBRANCH   1   7
BRANCH   6  14
ATOM     14  C   UNL     1      26.426  42.410  22.313  1.00  0.00     0.339 C 
ATOM     15  O   UNL     1      25.590  41.514  22.613  1.00  0.00    -0.246 OA
BRANCH  14  16
ATOM     16  O   UNL     1      26.962  43.233  23.309  1.00  0.00    -0.462 OA
BRANCH  16  17
ATOM     17  C   UNL     1      28.346  43.563  23.375  1.00  0.00     0.236 C 
BRANCH  17  18
ATOM     18  C   UNL     1      28.899  43.233  24.770  1.00  0.00     0.021 C 
ATOM     19  C   UNL     1      28.080  43.931  25.865  1.00  0.00     0.011 C 
ATOM     20  C   UNL     1      28.909  41.717  24.998  1.00  0.00     0.011 C 
ENDBRANCH  17  18
ENDBRANCH  16  17
ENDBRANCH  14  16
ENDBRANCH   6  14
TORSDOF 8
ENDMDL
MODEL 9
REMARK VINA RESULT:    -3.748      1.771      4.943
REMARK INTER + INTRA:          -6.535
REMARK INTER:                  -5.692
REMARK INTRA:                  -0.843
REMARK UNBOUND:                -1.034
REMARK SMILES CC(C)COC(=O)c1ccccc1C(=O)OCC(C)C
REMARK SMILES IDX 8 1 9 2 10 3 11 4 12 5 13 6 6 7 7 8 5 9 4 10 2 11 1 12 3 13
REMARK SMILES IDX 14 14 15 15 16 16 17 17 18 18 19 19 20 20
REMARK H PARENT
REMARK Flexibility Score: inf
ROOT
ATOM      1  C   UNL     1      27.811  26.468  27.679  1.00  0.00     0.074 A 
ATOM      2  C   UNL     1      28.120  25.526  26.680  1.00  0.00     0.016 A 
ATOM      3  C   UNL     1      27.269  24.450  26.425  1.00  0.00     0.001 A 
ATOM      4  C   UNL     1      26.097  24.298  27.161  1.00  0.00     0.001 A 
ATOM      5  C   UNL     1      25.782  25.206  28.171  1.00  0.00     0.016 A 
ATOM      6  C   UNL     1      26.637  26.285  28.461  1.00  0.00     0.074 A 
ENDROOT
BRANCH   1   7
ATOM      7  C   UNL     1      28.701  27.643  27.818  1.00  0.00     0.339 C 
ATOM      8  O   UNL     1      29.092  28.016  28.958  1.00  0.00    -0.246 OA
BRANCH   7   9
ATOM      9  O   UNL     1      29.056  28.373  26.680  1.00  0.00    -0.462 OA
BRANCH   9  10
ATOM     10  C   UNL     1      28.521  29.662  26.390  1.00  0.00     0.236 C 
BRANCH  10  11
ATOM     11  C   UNL     1      28.067  29.741  24.925  1.00  0.00     0.021 C 
ATOM     12  C   UNL     1      26.621  29.255  24.765  1.00  0.00     0.011 C 
ATOM     13  C   UNL     1      28.225  31.163  24.372  1.00  0.00     0.011 C 
ENDBRANCH  10  11
ENDBRANCH   9  10
ENDBRANCH   7   9
ENDBRANCH   1   7
BRANCH   6  14
ATOM     14  C   UNL     1      26.299  27.142  29.620  1.00  0.00     0.339 C 
ATOM     15  O   UNL     1      26.512  26.739  30.797  1.00  0.00    -0.246 OA
BRANCH  14  16
ATOM     16  O   UNL     1      25.686  28.381  29.403  1.00  0.00    -0.462 OA
BRANCH  16  17
ATOM     17  C   UNL     1      24.274  28.560  29.447  1.00  0.00     0.236 C 
BRANCH  17  18
ATOM     18  C   UNL     1      23.637  28.029  28.155  1.00  0.00     0.021 C 
ATOM     19  C   UNL     1      22.252  27.427  28.431  1.00  0.00     0.011 C 
ATOM     20  C   UNL     1      23.532  29.145  27.109  1.00  0.00     0.011 C 
ENDBRANCH  17  18
ENDBRANCH  16  17
ENDBRANCH  14  16
ENDBRANCH   6  14
TORSDOF 8
ENDMDL
