MODEL 1
REMARK VINA RESULT:    -2.968      0.000      0.000
REMARK INTER + INTRA:          -3.228
REMARK INTER:                  -3.228
REMARK INTRA:                   0.000
REMARK UNBOUND:                 0.000
REMARK SMILES [NH3+]CC(=O)[O-]
REMARK SMILES IDX 2 1 1 2 3 6 4 7 5 8
REMARK H PARENT 1 3 1 4 1 5
REMARK Flexibility Score: inf
ROOT
ATOM      1  C   UNL     1       1.717  -9.496  -0.230  1.00  0.00     0.312 C 
ENDROOT
BRANCH   1   2
ATOM      2  N   UNL     1       1.037 -10.750  -0.548  1.00  0.00    -0.353 N 
ATOM      3  H   UNL     1       0.675 -11.176   0.336  1.00  0.00     0.344 HD
ATOM      4  H   UNL     1       0.233 -10.569  -1.192  1.00  0.00     0.344 HD
ATOM      5  H   UNL     1       1.706 -11.418  -0.997  1.00  0.00     0.344 HD
ENDBRANCH   1   2
BRANCH   1   6
ATOM      6  C   UNL     1       0.780  -8.336  -0.365  1.00  0.00     0.096 C 
ATOM      7  O   UNL     1       1.208  -7.158  -0.246  1.00  0.00    -0.544 OA
ATOM      8  O   UNL     1      -0.556  -8.554  -0.675  1.00  0.00    -0.544 OA
ENDBRANCH   1   6
TORSDOF 2
ENDMDL
MODEL 2
REMARK VINA RESULT:    -2.920      2.579      3.076
REMARK INTER + INTRA:          -3.176
REMARK INTER:                  -3.176
REMARK INTRA:                   0.000
REMARK UNBOUND:                 0.000
REMARK SMILES [NH3+]CC(=O)[O-]
REMARK SMILES IDX 2 1 1 2 3 6 4 7 5 8
REMARK H PARENT 1 3 1 4 1 5
REMARK Flexibility Score: inf
ROOT
ATOM      1  C   UNL     1       3.227  -9.577   1.734  1.00  0.00     0.312 C 
ENDROOT
BRANCH   1   2
ATOM      2  N   UNL     1       3.028 -10.989   2.054  1.00  0.00    -0.353 N 
ATOM      3  H   UNL     1       2.155 -11.092   2.619  1.00  0.00     0.344 HD
ATOM      4  H   UNL     1       2.931 -11.546   1.174  1.00  0.00     0.344 HD
ATOM      5  H   UNL     1       3.838 -11.348   2.612  1.00  0.00     0.344 HD
ENDBRANCH   1   2
BRANCH   1   6
ATOM      6  C   UNL     1       2.848  -9.298   0.312  1.00  0.00     0.096 C 
ATOM      7  O   UNL     1       1.953  -9.981  -0.251  1.00  0.00    -0.544 OA
ATOM      8  O   UNL     1       3.445  -8.248  -0.374  1.00  0.00    -0.544 OA
ENDBRANCH   1   6
TORSDOF 2
ENDMDL
MODEL 3
REMARK VINA RESULT:    -2.884      5.016      5.325
REMARK INTER + INTRA:          -3.137
REMARK INTER:                  -3.137
REMARK INTRA:                   0.000
REMARK UNBOUND:                 0.000
REMARK SMILES [NH3+]CC(=O)[O-]
REMARK SMILES IDX 2 1 1 2 3 6 4 7 5 8
REMARK H PARENT 1 3 1 4 1 5
REMARK Flexibility Score: inf
ROOT
ATOM      1  C   UNL     1      -4.369  -9.039   2.168  1.00  0.00     0.312 C 
ENDROOT
BRANCH   1   2
ATOM      2  N   UNL     1      -3.906 -10.382   2.511  1.00  0.00    -0.353 N 
ATOM      3  H   UNL     1      -2.864 -10.415   2.434  1.00  0.00     0.344 HD
ATOM      4  H   UNL     1      -4.181 -10.616   3.493  1.00  0.00     0.344 HD
ATOM      5  H   UNL     1      -4.318 -11.083   1.852  1.00  0.00     0.344 HD
ENDBRANCH   1   2
BRANCH   1   6
ATOM      6  C   UNL     1      -3.269  -8.038   2.345  1.00  0.00     0.096 C 
ATOM      7  O   UNL     1      -2.108  -8.420   2.647  1.00  0.00    -0.544 OA
ATOM      8  O   UNL     1      -3.514  -6.689   2.125  1.00  0.00    -0.544 OA
ENDBRANCH   1   6
TORSDOF 2
ENDMDL
MODEL 4
REMARK VINA RESULT:    -2.884      1.538      1.750
REMARK INTER + INTRA:          -3.137
REMARK INTER:                  -3.137
REMARK INTRA:                   0.000
REMARK UNBOUND:                 0.000
REMARK SMILES [NH3+]CC(=O)[O-]
REMARK SMILES IDX 2 1 1 2 3 6 4 7 5 8
REMARK H PARENT 1 3 1 4 1 5
REMARK Flexibility Score: inf
ROOT
ATOM      1  C   UNL     1      -0.355  -8.573  -0.262  1.00  0.00     0.312 C 
ENDROOT
BRANCH   1   2
ATOM      2  N   UNL     1      -0.436 -10.026  -0.407  1.00  0.00    -0.353 N 
ATOM      3  H   UNL     1      -0.933 -10.425   0.421  1.00  0.00     0.344 HD
ATOM      4  H   UNL     1      -0.968 -10.270  -1.274  1.00  0.00     0.344 HD
ATOM      5  H   UNL     1       0.526 -10.436  -0.456  1.00  0.00     0.344 HD
ENDBRANCH   1   2
BRANCH   1   6
ATOM      6  C   UNL     1       1.058  -8.104  -0.420  1.00  0.00     0.096 C 
ATOM      7  O   UNL     1       1.328  -6.875  -0.364  1.00  0.00    -0.544 OA
ATOM      8  O   UNL     1       2.085  -9.027  -0.576  1.00  0.00    -0.544 OA
ENDBRANCH   1   6
TORSDOF 2
ENDMDL
MODEL 5
REMARK VINA RESULT:    -2.882      3.583      3.827
REMARK INTER + INTRA:          -3.135
REMARK INTER:                  -3.135
REMARK INTRA:                   0.000
REMARK UNBOUND:                 0.000
REMARK SMILES [NH3+]CC(=O)[O-]
REMARK SMILES IDX 2 1 1 2 3 6 4 7 5 8
REMARK H PARENT 1 3 1 4 1 5
REMARK Flexibility Score: inf
ROOT
ATOM      1  C   UNL     1       3.109  -6.459  -2.406  1.00  0.00     0.312 C 
ENDROOT
BRANCH   1   2
ATOM      2  N   UNL     1       2.785  -6.288  -3.822  1.00  0.00    -0.353 N 
ATOM      3  H   UNL     1       3.184  -7.088  -4.362  1.00  0.00     0.344 HD
ATOM      4  H   UNL     1       1.747  -6.272  -3.953  1.00  0.00     0.344 HD
ATOM      5  H   UNL     1       3.200  -5.396  -4.179  1.00  0.00     0.344 HD
ENDBRANCH   1   2
BRANCH   1   6
ATOM      6  C   UNL     1       2.013  -5.914  -1.543  1.00  0.00     0.096 C 
ATOM      7  O   UNL     1       1.690  -4.700  -1.620  1.00  0.00    -0.544 OA
ATOM      8  O   UNL     1       1.313  -6.760  -0.692  1.00  0.00    -0.544 OA
ENDBRANCH   1   6
TORSDOF 2
ENDMDL
MODEL 6
REMARK VINA RESULT:    -2.804      7.636      7.881
REMARK INTER + INTRA:          -3.050
REMARK INTER:                  -3.050
REMARK INTRA:                   0.000
REMARK UNBOUND:                 0.000
REMARK SMILES [NH3+]CC(=O)[O-]
REMARK SMILES IDX 2 1 1 2 3 6 4 7 5 8
REMARK H PARENT 1 3 1 4 1 5
REMARK Flexibility Score: inf
ROOT
ATOM      1  C   UNL     1      -5.342  -5.679   4.463  1.00  0.00     0.312 C 
ENDROOT
BRANCH   1   2
ATOM      2  N   UNL     1      -5.047  -5.632   5.894  1.00  0.00    -0.353 N 
ATOM      3  H   UNL     1      -5.182  -4.655   6.238  1.00  0.00     0.344 HD
ATOM      4  H   UNL     1      -5.694  -6.268   6.414  1.00  0.00     0.344 HD
ATOM      5  H   UNL     1      -4.055  -5.918   6.066  1.00  0.00     0.344 HD
ENDBRANCH   1   2
BRANCH   1   6
ATOM      6  C   UNL     1      -4.092  -5.496   3.659  1.00  0.00     0.096 C 
ATOM      7  O   UNL     1      -3.558  -4.359   3.568  1.00  0.00    -0.544 OA
ATOM      8  O   UNL     1      -3.487  -6.590   3.054  1.00  0.00    -0.544 OA
ENDBRANCH   1   6
TORSDOF 2
ENDMDL
MODEL 7
REMARK VINA RESULT:    -2.802      7.579      7.954
REMARK INTER + INTRA:          -3.048
REMARK INTER:                  -3.048
REMARK INTRA:                   0.000
REMARK UNBOUND:                 0.000
REMARK SMILES [NH3+]CC(=O)[O-]
REMARK SMILES IDX 2 1 1 2 3 6 4 7 5 8
REMARK H PARENT 1 3 1 4 1 5
REMARK Flexibility Score: inf
ROOT
ATOM      1  C   UNL     1       6.380 -13.121   4.774  1.00  0.00     0.312 C 
ENDROOT
BRANCH   1   2
ATOM      2  N   UNL     1       7.294 -12.069   5.215  1.00  0.00    -0.353 N 
ATOM      3  H   UNL     1       8.270 -12.329   4.945  1.00  0.00     0.344 HD
ATOM      4  H   UNL     1       7.045 -11.162   4.757  1.00  0.00     0.344 HD
ATOM      5  H   UNL     1       7.246 -11.965   6.255  1.00  0.00     0.344 HD
ENDBRANCH   1   2
BRANCH   1   6
ATOM      6  C   UNL     1       5.583 -12.667   3.590  1.00  0.00     0.096 C 
ATOM      7  O   UNL     1       4.375 -13.001   3.474  1.00  0.00    -0.544 OA
ATOM      8  O   UNL     1       6.160 -11.832   2.642  1.00  0.00    -0.544 OA
ENDBRANCH   1   6
TORSDOF 2
ENDMDL
MODEL 8
REMARK VINA RESULT:    -2.774      2.509      2.716
REMARK INTER + INTRA:          -3.018
REMARK INTER:                  -3.018
REMARK INTRA:                   0.000
REMARK UNBOUND:                 0.000
REMARK SMILES [NH3+]CC(=O)[O-]
REMARK SMILES IDX 2 1 1 2 3 6 4 7 5 8
REMARK H PARENT 1 3 1 4 1 5
REMARK Flexibility Score: inf
ROOT
ATOM      1  C   UNL     1       1.786  -9.141  -0.276  1.00  0.00     0.312 C 
ENDROOT
BRANCH   1   2
ATOM      2  N   UNL     1       1.242 -10.485  -0.457  1.00  0.00    -0.353 N 
ATOM      3  H   UNL     1       1.759 -11.149   0.163  1.00  0.00     0.344 HD
ATOM      4  H   UNL     1       0.228 -10.499  -0.201  1.00  0.00     0.344 HD
ATOM      5  H   UNL     1       1.359 -10.789  -1.452  1.00  0.00     0.344 HD
ENDBRANCH   1   2
BRANCH   1   6
ATOM      6  C   UNL     1       2.894  -9.149   0.731  1.00  0.00     0.096 C 
ATOM      7  O   UNL     1       4.092  -9.060   0.356  1.00  0.00    -0.544 OA
ATOM      8  O   UNL     1       2.600  -9.201   2.087  1.00  0.00    -0.544 OA
ENDBRANCH   1   6
TORSDOF 2
ENDMDL
MODEL 9
REMARK VINA RESULT:    -2.737     10.391     10.767
REMARK INTER + INTRA:          -2.977
REMARK INTER:                  -2.977
REMARK INTRA:                   0.000
REMARK UNBOUND:                 0.000
REMARK SMILES [NH3+]CC(=O)[O-]
REMARK SMILES IDX 2 1 1 2 3 6 4 7 5 8
REMARK H PARENT 1 3 1 4 1 5
REMARK Flexibility Score: inf
ROOT
ATOM      1  C   UNL     1      -9.889 -11.585  -2.990  1.00  0.00     0.312 C 
ENDROOT
BRANCH   1   2
ATOM      2  N   UNL     1     -10.561 -10.303  -3.196  1.00  0.00    -0.353 N 
ATOM      3  H   UNL     1     -10.010  -9.549  -2.728  1.00  0.00     0.344 HD
ATOM      4  H   UNL     1     -10.625 -10.092  -4.219  1.00  0.00     0.344 HD
ATOM      5  H   UNL     1     -11.521 -10.331  -2.780  1.00  0.00     0.344 HD
ENDBRANCH   1   2
BRANCH   1   6
ATOM      6  C   UNL     1      -8.873 -11.480  -1.895  1.00  0.00     0.096 C 
ATOM      7  O   UNL     1      -7.766 -12.070  -1.998  1.00  0.00    -0.544 OA
ATOM      8  O   UNL     1      -9.129 -10.687  -0.784  1.00  0.00    -0.544 OA
ENDBRANCH   1   6
TORSDOF 2
ENDMDL
