MODEL 1
REMARK VINA RESULT:    -6.646      0.000      0.000
REMARK INTER + INTRA:          -8.052
REMARK INTER:                  -7.811
REMARK INTRA:                  -0.241
REMARK UNBOUND:                -0.241
REMARK SMILES O=c1c(O)c(-c2ccc(O)cc2)oc2cc(O)cc(O)c12
REMARK SMILES IDX 5 1 3 2 2 3 1 4 21 5 19 6 18 7 16 8 15 9 14 10 13 11 6 12
REMARK SMILES IDX 7 13 8 14 9 15 12 16 11 17 10 18 4 20 20 22 17 24
REMARK H PARENT 10 19 4 21 20 23 17 25
REMARK Flexibility Score: inf
ROOT
ATOM      1  C   UNL     1     -18.761  -4.044  16.844  1.00  0.00     0.180 A 
ATOM      2  C   UNL     1     -18.082  -3.288  15.873  1.00  0.00     0.208 A 
ATOM      3  C   UNL     1     -17.361  -3.958  14.871  1.00  0.00     0.238 A 
ATOM      4  O   UNL     1     -16.818  -3.278  13.962  1.00  0.00    -0.285 OA
ATOM      5  C   UNL     1     -17.280  -5.372  14.886  1.00  0.00     0.111 A 
ATOM      6  C   UNL     1     -16.541  -6.154  13.947  1.00  0.00     0.134 A 
ATOM      7  C   UNL     1     -16.620  -7.551  13.997  1.00  0.00     0.093 A 
ATOM      8  C   UNL     1     -17.359  -8.196  14.987  1.00  0.00     0.123 A 
ATOM      9  C   UNL     1     -18.041  -7.442  15.943  1.00  0.00     0.094 A 
ATOM     10  C   UNL     1     -18.013  -6.047  15.898  1.00  0.00     0.146 A 
ATOM     11  O   UNL     1     -18.694  -5.369  16.813  1.00  0.00    -0.452 OA
ENDROOT
BRANCH   1  12
ATOM     12  C   UNL     1     -19.554  -3.410  17.923  1.00  0.00     0.021 A 
ATOM     13  C   UNL     1     -20.815  -2.840  17.668  1.00  0.00     0.016 A 
ATOM     14  C   UNL     1     -21.555  -2.271  18.708  1.00  0.00     0.047 A 
ATOM     15  C   UNL     1     -21.053  -2.274  20.015  1.00  0.00     0.115 A 
ATOM     16  C   UNL     1     -19.067  -3.429  19.240  1.00  0.00     0.016 A 
ATOM     17  C   UNL     1     -19.810  -2.857  20.278  1.00  0.00     0.047 A 
BRANCH  15  18
ATOM     18  O   UNL     1     -21.782  -1.708  21.059  1.00  0.00    -0.508 OA
ATOM     19  H   UNL     1     -22.378  -2.271  21.655  1.00  0.00     0.293 HD
ENDBRANCH  15  18
ENDBRANCH   1  12
BRANCH   2  20
ATOM     20  O   UNL     1     -18.111  -1.892  15.920  1.00  0.00    -0.502 OA
ATOM     21  H   UNL     1     -17.344  -1.321  15.586  1.00  0.00     0.293 HD
ENDBRANCH   2  20
BRANCH   6  22
ATOM     22  O   UNL     1     -15.698  -5.614  12.969  1.00  0.00    -0.507 OA
ATOM     23  H   UNL     1     -15.126  -6.153  12.337  1.00  0.00     0.293 HD
ENDBRANCH   6  22
BRANCH   8  24
ATOM     24  O   UNL     1     -17.401  -9.588  15.017  1.00  0.00    -0.508 OA
ATOM     25  H   UNL     1     -18.280 -10.091  15.059  1.00  0.00     0.293 HD
ENDBRANCH   8  24
TORSDOF 5
ENDMDL
MODEL 2
REMARK VINA RESULT:    -6.462     12.662     14.474
REMARK INTER + INTRA:          -7.836
REMARK INTER:                  -8.168
REMARK INTRA:                   0.332
REMARK UNBOUND:                -0.241
REMARK SMILES O=c1c(O)c(-c2ccc(O)cc2)oc2cc(O)cc(O)c12
REMARK SMILES IDX 5 1 3 2 2 3 1 4 21 5 19 6 18 7 16 8 15 9 14 10 13 11 6 12
REMARK SMILES IDX 7 13 8 14 9 15 12 16 11 17 10 18 4 20 20 22 17 24
REMARK H PARENT 10 19 4 21 20 23 17 25
REMARK Flexibility Score: inf
ROOT
ATOM      1  C   UNL     1      -7.239  -5.899   9.218  1.00  0.00     0.180 A 
ATOM      2  C   UNL     1      -7.355  -7.298   9.285  1.00  0.00     0.208 A 
ATOM      3  C   UNL     1      -7.237  -7.931  10.533  1.00  0.00     0.238 A 
ATOM      4  O   UNL     1      -7.416  -9.175  10.597  1.00  0.00    -0.285 OA
ATOM      5  C   UNL     1      -6.951  -7.165  11.689  1.00  0.00     0.111 A 
ATOM      6  C   UNL     1      -6.767  -7.706  12.998  1.00  0.00     0.134 A 
ATOM      7  C   UNL     1      -6.592  -6.840  14.084  1.00  0.00     0.093 A 
ATOM      8  C   UNL     1      -6.531  -5.459  13.904  1.00  0.00     0.123 A 
ATOM      9  C   UNL     1      -6.655  -4.923  12.621  1.00  0.00     0.094 A 
ATOM     10  C   UNL     1      -6.869  -5.757  11.522  1.00  0.00     0.146 A 
ATOM     11  O   UNL     1      -7.003  -5.203  10.323  1.00  0.00    -0.452 OA
ENDROOT
BRANCH   1  12
ATOM     12  C   UNL     1      -7.365  -5.158   7.941  1.00  0.00     0.021 A 
ATOM     13  C   UNL     1      -8.109  -5.674   6.864  1.00  0.00     0.016 A 
ATOM     14  C   UNL     1      -8.233  -4.944   5.678  1.00  0.00     0.047 A 
ATOM     15  C   UNL     1      -7.629  -3.686   5.558  1.00  0.00     0.115 A 
ATOM     16  C   UNL     1      -6.781  -3.887   7.820  1.00  0.00     0.016 A 
ATOM     17  C   UNL     1      -6.907  -3.160   6.632  1.00  0.00     0.047 A 
BRANCH  15  18
ATOM     18  O   UNL     1      -7.746  -2.951   4.381  1.00  0.00    -0.508 OA
ATOM     19  H   UNL     1      -7.332  -3.271   3.513  1.00  0.00     0.293 HD
ENDBRANCH  15  18
ENDBRANCH   1  12
BRANCH   2  20
ATOM     20  O   UNL     1      -7.562  -8.044   8.122  1.00  0.00    -0.502 OA
ATOM     21  H   UNL     1      -6.798  -8.417   7.572  1.00  0.00     0.293 HD
ENDBRANCH   2  20
BRANCH   6  22
ATOM     22  O   UNL     1      -6.721  -9.075  13.280  1.00  0.00    -0.507 OA
ATOM     23  H   UNL     1      -5.881  -9.632  13.305  1.00  0.00     0.293 HD
ENDBRANCH   6  22
BRANCH   8  24
ATOM     24  O   UNL     1      -6.339  -4.629  15.005  1.00  0.00    -0.508 OA
ATOM     25  H   UNL     1      -5.456  -4.160  15.169  1.00  0.00     0.293 HD
ENDBRANCH   8  24
TORSDOF 5
ENDMDL
MODEL 3
REMARK VINA RESULT:    -6.437      8.321     12.669
REMARK INTER + INTRA:          -7.806
REMARK INTER:                  -7.516
REMARK INTRA:                  -0.291
REMARK UNBOUND:                -0.241
REMARK SMILES O=c1c(O)c(-c2ccc(O)cc2)oc2cc(O)cc(O)c12
REMARK SMILES IDX 5 1 3 2 2 3 1 4 21 5 19 6 18 7 16 8 15 9 14 10 13 11 6 12
REMARK SMILES IDX 7 13 8 14 9 15 12 16 11 17 10 18 4 20 20 22 17 24
REMARK H PARENT 10 19 4 21 20 23 17 25
REMARK Flexibility Score: inf
ROOT
ATOM      1  C   UNL     1      -9.966  -5.736   8.519  1.00  0.00     0.180 A 
ATOM      2  C   UNL     1      -9.831  -7.127   8.672  1.00  0.00     0.208 A 
ATOM      3  C   UNL     1     -10.704  -7.804   9.538  1.00  0.00     0.238 A 
ATOM      4  O   UNL     1     -10.627  -9.058   9.613  1.00  0.00    -0.285 OA
ATOM      5  C   UNL     1     -11.664  -7.077  10.282  1.00  0.00     0.111 A 
ATOM      6  C   UNL     1     -12.572  -7.654  11.223  1.00  0.00     0.134 A 
ATOM      7  C   UNL     1     -13.548  -6.850  11.823  1.00  0.00     0.093 A 
ATOM      8  C   UNL     1     -13.613  -5.482  11.566  1.00  0.00     0.123 A 
ATOM      9  C   UNL     1     -12.697  -4.897  10.691  1.00  0.00     0.094 A 
ATOM     10  C   UNL     1     -11.734  -5.678  10.047  1.00  0.00     0.146 A 
ATOM     11  O   UNL     1     -10.897  -5.085   9.206  1.00  0.00    -0.452 OA
ENDROOT
BRANCH   1  12
ATOM     12  C   UNL     1      -9.092  -4.954   7.614  1.00  0.00     0.021 A 
ATOM     13  C   UNL     1      -9.375  -4.839   6.240  1.00  0.00     0.016 A 
ATOM     14  C   UNL     1      -8.548  -4.074   5.412  1.00  0.00     0.047 A 
ATOM     15  C   UNL     1      -7.439  -3.406   5.945  1.00  0.00     0.115 A 
ATOM     16  C   UNL     1      -7.990  -4.263   8.144  1.00  0.00     0.016 A 
ATOM     17  C   UNL     1      -7.165  -3.501   7.312  1.00  0.00     0.047 A 
BRANCH  15  18
ATOM     18  O   UNL     1      -6.608  -2.643   5.127  1.00  0.00    -0.508 OA
ATOM     19  H   UNL     1      -6.748  -2.599   4.125  1.00  0.00     0.293 HD
ENDBRANCH  15  18
ENDBRANCH   1  12
BRANCH   2  20
ATOM     20  O   UNL     1      -8.827  -7.816   7.986  1.00  0.00    -0.502 OA
ATOM     21  H   UNL     1      -8.627  -7.654   7.007  1.00  0.00     0.293 HD
ENDBRANCH   2  20
BRANCH   6  22
ATOM     22  O   UNL     1     -12.540  -8.994  11.621  1.00  0.00    -0.507 OA
ATOM     23  H   UNL     1     -12.892  -9.345  12.498  1.00  0.00     0.293 HD
ENDBRANCH   6  22
BRANCH   8  24
ATOM     24  O   UNL     1     -14.588  -4.709  12.194  1.00  0.00    -0.508 OA
ATOM     25  H   UNL     1     -15.415  -5.128  12.603  1.00  0.00     0.293 HD
ENDBRANCH   8  24
TORSDOF 5
ENDMDL
MODEL 4
REMARK VINA RESULT:    -6.414     10.692     14.137
REMARK INTER + INTRA:          -7.780
REMARK INTER:                  -7.649
REMARK INTRA:                  -0.132
REMARK UNBOUND:                -0.241
REMARK SMILES O=c1c(O)c(-c2ccc(O)cc2)oc2cc(O)cc(O)c12
REMARK SMILES IDX 5 1 3 2 2 3 1 4 21 5 19 6 18 7 16 8 15 9 14 10 13 11 6 12
REMARK SMILES IDX 7 13 8 14 9 15 12 16 11 17 10 18 4 20 20 22 17 24
REMARK H PARENT 10 19 4 21 20 23 17 25
REMARK Flexibility Score: inf
ROOT
ATOM      1  C   UNL     1      -8.235  -5.732   8.973  1.00  0.00     0.180 A 
ATOM      2  C   UNL     1      -9.487  -5.256   9.399  1.00  0.00     0.208 A 
ATOM      3  C   UNL     1      -9.631  -4.811  10.723  1.00  0.00     0.238 A 
ATOM      4  O   UNL     1     -10.734  -4.317  11.076  1.00  0.00    -0.285 OA
ATOM      5  C   UNL     1      -8.539  -4.898  11.620  1.00  0.00     0.111 A 
ATOM      6  C   UNL     1      -8.584  -4.517  12.995  1.00  0.00     0.134 A 
ATOM      7  C   UNL     1      -7.411  -4.549  13.760  1.00  0.00     0.093 A 
ATOM      8  C   UNL     1      -6.211  -5.006  13.219  1.00  0.00     0.123 A 
ATOM      9  C   UNL     1      -6.167  -5.432  11.891  1.00  0.00     0.094 A 
ATOM     10  C   UNL     1      -7.310  -5.377  11.091  1.00  0.00     0.146 A 
ATOM     11  O   UNL     1      -7.219  -5.772   9.828  1.00  0.00    -0.452 OA
ENDROOT
BRANCH   1  12
ATOM     12  C   UNL     1      -8.000  -6.205   7.589  1.00  0.00     0.021 A 
ATOM     13  C   UNL     1      -8.137  -5.343   6.486  1.00  0.00     0.016 A 
ATOM     14  C   UNL     1      -7.885  -5.808   5.191  1.00  0.00     0.047 A 
ATOM     15  C   UNL     1      -7.483  -7.133   4.984  1.00  0.00     0.115 A 
ATOM     16  C   UNL     1      -7.576  -7.527   7.374  1.00  0.00     0.016 A 
ATOM     17  C   UNL     1      -7.327  -7.988   6.078  1.00  0.00     0.047 A 
BRANCH  15  18
ATOM     18  O   UNL     1      -7.232  -7.606   3.698  1.00  0.00    -0.508 OA
ATOM     19  H   UNL     1      -7.707  -7.222   2.890  1.00  0.00     0.293 HD
ENDBRANCH  15  18
ENDBRANCH   1  12
BRANCH   2  20
ATOM     20  O   UNL     1     -10.573  -5.249   8.520  1.00  0.00    -0.502 OA
ATOM     21  H   UNL     1     -11.006  -4.392   8.198  1.00  0.00     0.293 HD
ENDBRANCH   2  20
BRANCH   6  22
ATOM     22  O   UNL     1      -9.750  -4.128  13.663  1.00  0.00    -0.507 OA
ATOM     23  H   UNL     1     -10.587  -4.687  13.737  1.00  0.00     0.293 HD
ENDBRANCH   6  22
BRANCH   8  24
ATOM     24  O   UNL     1      -5.067  -5.040  14.014  1.00  0.00    -0.508 OA
ATOM     25  H   UNL     1      -5.124  -5.048  15.026  1.00  0.00     0.293 HD
ENDBRANCH   8  24
TORSDOF 5
ENDMDL
MODEL 5
REMARK VINA RESULT:    -6.224     12.905     14.506
REMARK INTER + INTRA:          -7.556
REMARK INTER:                  -7.782
REMARK INTRA:                   0.225
REMARK UNBOUND:                -0.241
REMARK SMILES O=c1c(O)c(-c2ccc(O)cc2)oc2cc(O)cc(O)c12
REMARK SMILES IDX 5 1 3 2 2 3 1 4 21 5 19 6 18 7 16 8 15 9 14 10 13 11 6 12
REMARK SMILES IDX 7 13 8 14 9 15 12 16 11 17 10 18 4 20 20 22 17 24
REMARK H PARENT 10 19 4 21 20 23 17 25
REMARK Flexibility Score: inf
ROOT
ATOM      1  C   UNL     1      -7.145  -5.830   8.881  1.00  0.00     0.180 A 
ATOM      2  C   UNL     1      -6.405  -4.902   9.634  1.00  0.00     0.208 A 
ATOM      3  C   UNL     1      -6.101  -5.199  10.972  1.00  0.00     0.238 A 
ATOM      4  O   UNL     1      -5.376  -4.398  11.618  1.00  0.00    -0.285 OA
ATOM      5  C   UNL     1      -6.587  -6.393  11.557  1.00  0.00     0.111 A 
ATOM      6  C   UNL     1      -6.377  -6.776  12.918  1.00  0.00     0.134 A 
ATOM      7  C   UNL     1      -6.816  -8.031  13.357  1.00  0.00     0.093 A 
ATOM      8  C   UNL     1      -7.509  -8.890  12.508  1.00  0.00     0.123 A 
ATOM      9  C   UNL     1      -7.767  -8.504  11.192  1.00  0.00     0.094 A 
ATOM     10  C   UNL     1      -7.310  -7.275  10.712  1.00  0.00     0.146 A 
ATOM     11  O   UNL     1      -7.559  -6.957   9.448  1.00  0.00    -0.452 OA
ENDROOT
BRANCH   1  12
ATOM     12  C   UNL     1      -7.492  -5.595   7.461  1.00  0.00     0.021 A 
ATOM     13  C   UNL     1      -7.505  -6.645   6.525  1.00  0.00     0.016 A 
ATOM     14  C   UNL     1      -7.861  -6.401   5.195  1.00  0.00     0.047 A 
ATOM     15  C   UNL     1      -8.220  -5.111   4.786  1.00  0.00     0.115 A 
ATOM     16  C   UNL     1      -7.874  -4.308   7.047  1.00  0.00     0.016 A 
ATOM     17  C   UNL     1      -8.227  -4.067   5.716  1.00  0.00     0.047 A 
BRANCH  15  18
ATOM     18  O   UNL     1      -8.574  -4.857   3.463  1.00  0.00    -0.508 OA
ATOM     19  H   UNL     1      -7.875  -4.765   2.736  1.00  0.00     0.293 HD
ENDBRANCH  15  18
ENDBRANCH   1  12
BRANCH   2  20
ATOM     20  O   UNL     1      -6.000  -3.693   9.060  1.00  0.00    -0.502 OA
ATOM     21  H   UNL     1      -6.633  -3.099   8.539  1.00  0.00     0.293 HD
ENDBRANCH   2  20
BRANCH   6  22
ATOM     22  O   UNL     1      -5.773  -5.957  13.877  1.00  0.00    -0.507 OA
ATOM     23  H   UNL     1      -5.850  -6.083  14.875  1.00  0.00     0.293 HD
ENDBRANCH   6  22
BRANCH   8  24
ATOM     24  O   UNL     1      -7.945 -10.125  12.984  1.00  0.00    -0.508 OA
ATOM     25  H   UNL     1      -8.304 -10.234  13.926  1.00  0.00     0.293 HD
ENDBRANCH   8  24
TORSDOF 5
ENDMDL
MODEL 6
REMARK VINA RESULT:    -6.195     12.169     14.098
REMARK INTER + INTRA:          -7.522
REMARK INTER:                  -7.248
REMARK INTRA:                  -0.274
REMARK UNBOUND:                -0.241
REMARK SMILES O=c1c(O)c(-c2ccc(O)cc2)oc2cc(O)cc(O)c12
REMARK SMILES IDX 5 1 3 2 2 3 1 4 21 5 19 6 18 7 16 8 15 9 14 10 13 11 6 12
REMARK SMILES IDX 7 13 8 14 9 15 12 16 11 17 10 18 4 20 20 22 17 24
REMARK H PARENT 10 19 4 21 20 23 17 25
REMARK Flexibility Score: inf
ROOT
ATOM      1  C   UNL     1      -6.907  -5.713  10.072  1.00  0.00     0.180 A 
ATOM      2  C   UNL     1      -6.963  -7.067   9.704  1.00  0.00     0.208 A 
ATOM      3  C   UNL     1      -7.206  -7.398   8.361  1.00  0.00     0.238 A 
ATOM      4  O   UNL     1      -7.182  -8.610   8.024  1.00  0.00    -0.285 OA
ATOM      5  C   UNL     1      -7.446  -6.372   7.414  1.00  0.00     0.111 A 
ATOM      6  C   UNL     1      -7.746  -6.592   6.035  1.00  0.00     0.134 A 
ATOM      7  C   UNL     1      -7.860  -5.497   5.170  1.00  0.00     0.093 A 
ATOM      8  C   UNL     1      -7.747  -4.191   5.641  1.00  0.00     0.123 A 
ATOM      9  C   UNL     1      -7.507  -3.962   6.997  1.00  0.00     0.094 A 
ATOM     10  C   UNL     1      -7.351  -5.033   7.879  1.00  0.00     0.146 A 
ATOM     11  O   UNL     1      -7.102  -4.771   9.156  1.00  0.00    -0.452 OA
ENDROOT
BRANCH   1  12
ATOM     12  C   UNL     1      -6.640  -5.285  11.465  1.00  0.00     0.021 A 
ATOM     13  C   UNL     1      -5.358  -4.874  11.874  1.00  0.00     0.016 A 
ATOM     14  C   UNL     1      -5.138  -4.451  13.188  1.00  0.00     0.047 A 
ATOM     15  C   UNL     1      -6.196  -4.421  14.106  1.00  0.00     0.115 A 
ATOM     16  C   UNL     1      -7.700  -5.232  12.386  1.00  0.00     0.016 A 
ATOM     17  C   UNL     1      -7.476  -4.810  13.700  1.00  0.00     0.047 A 
BRANCH  15  18
ATOM     18  O   UNL     1      -5.987  -4.003  15.418  1.00  0.00    -0.508 OA
ATOM     19  H   UNL     1      -5.076  -4.068  15.856  1.00  0.00     0.293 HD
ENDBRANCH  15  18
ENDBRANCH   1  12
BRANCH   2  20
ATOM     20  O   UNL     1      -6.800  -8.067  10.667  1.00  0.00    -0.502 OA
ATOM     21  H   UNL     1      -6.567  -9.022  10.425  1.00  0.00     0.293 HD
ENDBRANCH   2  20
BRANCH   6  22
ATOM     22  O   UNL     1      -7.968  -7.854   5.473  1.00  0.00    -0.507 OA
ATOM     23  H   UNL     1      -7.244  -8.494   5.186  1.00  0.00     0.293 HD
ENDBRANCH   6  22
BRANCH   8  24
ATOM     24  O   UNL     1      -7.882  -3.125   4.755  1.00  0.00    -0.508 OA
ATOM     25  H   UNL     1      -7.220  -2.358   4.741  1.00  0.00     0.293 HD
ENDBRANCH   8  24
TORSDOF 5
ENDMDL
MODEL 7
REMARK VINA RESULT:    -6.192      8.467     12.959
REMARK INTER + INTRA:          -7.519
REMARK INTER:                  -7.240
REMARK INTRA:                  -0.279
REMARK UNBOUND:                -0.241
REMARK SMILES O=c1c(O)c(-c2ccc(O)cc2)oc2cc(O)cc(O)c12
REMARK SMILES IDX 5 1 3 2 2 3 1 4 21 5 19 6 18 7 16 8 15 9 14 10 13 11 6 12
REMARK SMILES IDX 7 13 8 14 9 15 12 16 11 17 10 18 4 20 20 22 17 24
REMARK H PARENT 10 19 4 21 20 23 17 25
REMARK Flexibility Score: inf
ROOT
ATOM      1  C   UNL     1      -9.488  -5.477   8.956  1.00  0.00     0.180 A 
ATOM      2  C   UNL     1      -8.698  -5.302  10.105  1.00  0.00     0.208 A 
ATOM      3  C   UNL     1      -9.325  -4.984  11.321  1.00  0.00     0.238 A 
ATOM      4  O   UNL     1      -8.620  -4.902  12.360  1.00  0.00    -0.285 OA
ATOM      5  C   UNL     1     -10.728  -4.791  11.361  1.00  0.00     0.111 A 
ATOM      6  C   UNL     1     -11.464  -4.424  12.529  1.00  0.00     0.134 A 
ATOM      7  C   UNL     1     -12.862  -4.364  12.473  1.00  0.00     0.093 A 
ATOM      8  C   UNL     1     -13.546  -4.596  11.281  1.00  0.00     0.123 A 
ATOM      9  C   UNL     1     -12.833  -4.903  10.122  1.00  0.00     0.094 A 
ATOM     10  C   UNL     1     -11.441  -5.007  10.153  1.00  0.00     0.146 A 
ATOM     11  O   UNL     1     -10.804  -5.322   9.032  1.00  0.00    -0.452 OA
ENDROOT
BRANCH   1  12
ATOM     12  C   UNL     1      -8.901  -5.827   7.642  1.00  0.00     0.021 A 
ATOM     13  C   UNL     1      -8.557  -7.153   7.322  1.00  0.00     0.016 A 
ATOM     14  C   UNL     1      -8.028  -7.460   6.065  1.00  0.00     0.047 A 
ATOM     15  C   UNL     1      -7.848  -6.452   5.109  1.00  0.00     0.115 A 
ATOM     16  C   UNL     1      -8.738  -4.825   6.670  1.00  0.00     0.016 A 
ATOM     17  C   UNL     1      -8.207  -5.137   5.415  1.00  0.00     0.047 A 
BRANCH  15  18
ATOM     18  O   UNL     1      -7.320  -6.748   3.854  1.00  0.00    -0.508 OA
ATOM     19  H   UNL     1      -6.972  -7.673   3.631  1.00  0.00     0.293 HD
ENDBRANCH  15  18
ENDBRANCH   1  12
BRANCH   2  20
ATOM     20  O   UNL     1      -7.308  -5.421  10.029  1.00  0.00    -0.502 OA
ATOM     21  H   UNL     1      -6.836  -5.765   9.201  1.00  0.00     0.293 HD
ENDBRANCH   2  20
BRANCH   6  22
ATOM     22  O   UNL     1     -10.876  -4.084  13.751  1.00  0.00    -0.507 OA
ATOM     23  H   UNL     1     -10.429  -4.735  14.379  1.00  0.00     0.293 HD
ENDBRANCH   6  22
BRANCH   8  24
ATOM     24  O   UNL     1     -14.937  -4.512  11.259  1.00  0.00    -0.508 OA
ATOM     25  H   UNL     1     -15.449  -4.417  10.390  1.00  0.00     0.293 HD
ENDBRANCH   8  24
TORSDOF 5
ENDMDL
MODEL 8
REMARK VINA RESULT:    -6.180      8.685     11.876
REMARK INTER + INTRA:          -7.505
REMARK INTER:                  -7.208
REMARK INTRA:                  -0.297
REMARK UNBOUND:                -0.241
REMARK SMILES O=c1c(O)c(-c2ccc(O)cc2)oc2cc(O)cc(O)c12
REMARK SMILES IDX 5 1 3 2 2 3 1 4 21 5 19 6 18 7 16 8 15 9 14 10 13 11 6 12
REMARK SMILES IDX 7 13 8 14 9 15 12 16 11 17 10 18 4 20 20 22 17 24
REMARK H PARENT 10 19 4 21 20 23 17 25
REMARK Flexibility Score: inf
ROOT
ATOM      1  C   UNL     1     -10.467  -5.547   9.355  1.00  0.00     0.180 A 
ATOM      2  C   UNL     1      -9.860  -6.791   9.598  1.00  0.00     0.208 A 
ATOM      3  C   UNL     1      -8.979  -7.318   8.639  1.00  0.00     0.238 A 
ATOM      4  O   UNL     1      -8.382  -8.396   8.897  1.00  0.00    -0.285 OA
ATOM      5  C   UNL     1      -8.759  -6.622   7.426  1.00  0.00     0.111 A 
ATOM      6  C   UNL     1      -7.922  -7.084   6.365  1.00  0.00     0.134 A 
ATOM      7  C   UNL     1      -7.697  -6.260   5.255  1.00  0.00     0.093 A 
ATOM      8  C   UNL     1      -8.325  -5.022   5.137  1.00  0.00     0.123 A 
ATOM      9  C   UNL     1      -9.188  -4.585   6.143  1.00  0.00     0.094 A 
ATOM     10  C   UNL     1      -9.404  -5.366   7.280  1.00  0.00     0.146 A 
ATOM     11  O   UNL     1     -10.216  -4.902   8.222  1.00  0.00    -0.452 OA
ENDROOT
BRANCH   1  12
ATOM     12  C   UNL     1     -11.395  -4.920  10.323  1.00  0.00     0.021 A 
ATOM     13  C   UNL     1     -10.925  -4.095  11.362  1.00  0.00     0.016 A 
ATOM     14  C   UNL     1     -11.824  -3.495  12.249  1.00  0.00     0.047 A 
ATOM     15  C   UNL     1     -13.202  -3.700  12.102  1.00  0.00     0.115 A 
ATOM     16  C   UNL     1     -12.780  -5.102  10.170  1.00  0.00     0.016 A 
ATOM     17  C   UNL     1     -13.675  -4.502  11.060  1.00  0.00     0.047 A 
BRANCH  15  18
ATOM     18  O   UNL     1     -14.106  -3.107  12.981  1.00  0.00    -0.508 OA
ATOM     19  H   UNL     1     -13.801  -2.458  13.696  1.00  0.00     0.293 HD
ENDBRANCH  15  18
ENDBRANCH   1  12
BRANCH   2  20
ATOM     20  O   UNL     1     -10.149  -7.499  10.768  1.00  0.00    -0.502 OA
ATOM     21  H   UNL     1     -10.812  -8.264  10.791  1.00  0.00     0.293 HD
ENDBRANCH   2  20
BRANCH   6  22
ATOM     22  O   UNL     1      -7.313  -8.343   6.338  1.00  0.00    -0.507 OA
ATOM     23  H   UNL     1      -7.714  -9.186   6.719  1.00  0.00     0.293 HD
ENDBRANCH   6  22
BRANCH   8  24
ATOM     24  O   UNL     1      -8.091  -4.236   4.011  1.00  0.00    -0.508 OA
ATOM     25  H   UNL     1      -8.741  -4.215   3.233  1.00  0.00     0.293 HD
ENDBRANCH   8  24
TORSDOF 5
ENDMDL
MODEL 9
REMARK VINA RESULT:    -6.161      3.804      5.452
REMARK INTER + INTRA:          -7.483
REMARK INTER:                  -7.383
REMARK INTRA:                  -0.100
REMARK UNBOUND:                -0.241
REMARK SMILES O=c1c(O)c(-c2ccc(O)cc2)oc2cc(O)cc(O)c12
REMARK SMILES IDX 5 1 3 2 2 3 1 4 21 5 19 6 18 7 16 8 15 9 14 10 13 11 6 12
REMARK SMILES IDX 7 13 8 14 9 15 12 16 11 17 10 18 4 20 20 22 17 24
REMARK H PARENT 10 19 4 21 20 23 17 25
REMARK Flexibility Score: inf
ROOT
ATOM      1  C   UNL     1     -20.954  -2.328  17.551  1.00  0.00     0.180 A 
ATOM      2  C   UNL     1     -19.732  -2.413  16.863  1.00  0.00     0.208 A 
ATOM      3  C   UNL     1     -19.681  -2.018  15.516  1.00  0.00     0.238 A 
ATOM      4  O   UNL     1     -18.568  -2.026  14.928  1.00  0.00    -0.285 OA
ATOM      5  C   UNL     1     -20.862  -1.596  14.859  1.00  0.00     0.111 A 
ATOM      6  C   UNL     1     -20.935  -1.216  13.484  1.00  0.00     0.134 A 
ATOM      7  C   UNL     1     -22.138  -0.715  12.970  1.00  0.00     0.093 A 
ATOM      8  C   UNL     1     -23.284  -0.640  13.759  1.00  0.00     0.123 A 
ATOM      9  C   UNL     1     -23.237  -1.060  15.089  1.00  0.00     0.094 A 
ATOM     10  C   UNL     1     -22.044  -1.528  15.643  1.00  0.00     0.146 A 
ATOM     11  O   UNL     1     -22.039  -1.897  16.917  1.00  0.00    -0.452 OA
ENDROOT
BRANCH   1  12
ATOM     12  C   UNL     1     -21.085  -2.712  18.976  1.00  0.00     0.021 A 
ATOM     13  C   UNL     1     -20.819  -4.024  19.410  1.00  0.00     0.016 A 
ATOM     14  C   UNL     1     -20.926  -4.354  20.764  1.00  0.00     0.047 A 
ATOM     15  C   UNL     1     -21.286  -3.378  21.702  1.00  0.00     0.115 A 
ATOM     16  C   UNL     1     -21.425  -1.734  19.926  1.00  0.00     0.016 A 
ATOM     17  C   UNL     1     -21.532  -2.069  21.279  1.00  0.00     0.047 A 
BRANCH  15  18
ATOM     18  O   UNL     1     -21.397  -3.698  23.053  1.00  0.00    -0.508 OA
ATOM     19  H   UNL     1     -21.259  -4.645  23.386  1.00  0.00     0.293 HD
ENDBRANCH  15  18
ENDBRANCH   1  12
BRANCH   2  20
ATOM     20  O   UNL     1     -18.594  -2.903  17.508  1.00  0.00    -0.502 OA
ATOM     21  H   UNL     1     -17.802  -2.315  17.736  1.00  0.00     0.293 HD
ENDBRANCH   2  20
BRANCH   6  22
ATOM     22  O   UNL     1     -19.874  -1.333  12.581  1.00  0.00    -0.507 OA
ATOM     23  H   UNL     1     -18.932  -1.016  12.751  1.00  0.00     0.293 HD
ENDBRANCH   6  22
BRANCH   8  24
ATOM     24  O   UNL     1     -24.467  -0.152  13.209  1.00  0.00    -0.508 OA
ATOM     25  H   UNL     1     -25.066   0.487  13.720  1.00  0.00     0.293 HD
ENDBRANCH   8  24
TORSDOF 5
ENDMDL
