MODEL 1
REMARK VINA RESULT:    -4.707      0.000      0.000
REMARK INTER + INTRA:          -5.497
REMARK INTER:                  -5.119
REMARK INTRA:                  -0.378
REMARK UNBOUND:                -0.378
REMARK SMILES C=C1C[C@@]2(O)O[C@@]3(C[C@H]2C(C)C)[C@H](C)CC[C@@H]13
REMARK SMILES IDX 14 1 13 2 15 3 16 4 17 5 7 6 8 7 9 8 4 9 6 10 3 11 2 12 1 13
REMARK SMILES IDX 10 14 11 15 12 16 5 17
REMARK H PARENT 5 18
REMARK Flexibility Score: inf
ROOT
ATOM      1  C   UNL     1      57.329  -5.723 -46.293  1.00  0.00     0.011 C 
ATOM      2  C   UNL     1      58.710  -6.041 -46.903  1.00  0.00     0.019 C 
ATOM      3  C   UNL     1      59.594  -6.751 -45.870  1.00  0.00     0.007 C 
ATOM      4  C   UNL     1      60.456  -5.674 -45.203  1.00  0.00     0.011 C 
ATOM      5  C   UNL     1      60.202  -4.365 -45.962  1.00  0.00     0.047 C 
ATOM      6  C   UNL     1      59.524  -4.792 -47.283  1.00  0.00     0.081 C 
ATOM      7  C   UNL     1      58.734  -3.651 -47.939  1.00  0.00     0.046 C 
ATOM      8  C   UNL     1      59.768  -3.014 -48.861  1.00  0.00     0.054 C 
ATOM      9  C   UNL     1      61.027  -3.908 -48.665  1.00  0.00     0.173 C 
ATOM     10  O   UNL     1      60.526  -5.148 -48.216  1.00  0.00    -0.342 OA
ATOM     11  C   UNL     1      62.045  -3.442 -47.602  1.00  0.00     0.096 C 
ATOM     12  C   UNL     1      61.480  -3.573 -46.203  1.00  0.00    -0.066 C 
ATOM     13  C   UNL     1      62.124  -3.008 -45.171  1.00  0.00     0.008 C 
ENDROOT
BRANCH   8  14
ATOM     14  C   UNL     1      59.855  -1.454 -48.788  1.00  0.00    -0.009 C 
ATOM     15  C   UNL     1      59.284  -0.657 -49.980  1.00  0.00     0.008 C 
ATOM     16  C   UNL     1      59.301  -0.921 -47.459  1.00  0.00     0.008 C 
ENDBRANCH   8  14
BRANCH   9  17
ATOM     17  O   UNL     1      61.705  -4.075 -49.886  1.00  0.00    -0.365 OA
ATOM     18  H   UNL     1      62.616  -4.414 -49.681  1.00  0.00     0.214 HD
ENDBRANCH   9  17
TORSDOF 2
ENDMDL
MODEL 2
REMARK VINA RESULT:    -4.553     11.056     12.990
REMARK INTER + INTRA:          -5.330
REMARK INTER:                  -4.932
REMARK INTRA:                  -0.398
REMARK UNBOUND:                -0.378
REMARK SMILES C=C1C[C@@]2(O)O[C@@]3(C[C@H]2C(C)C)[C@H](C)CC[C@@H]13
REMARK SMILES IDX 14 1 13 2 15 3 16 4 17 5 7 6 8 7 9 8 4 9 6 10 3 11 2 12 1 13
REMARK SMILES IDX 10 14 11 15 12 16 5 17
REMARK H PARENT 5 18
REMARK Flexibility Score: inf
ROOT
ATOM      1  C   UNL     1      55.561   8.304 -44.107  1.00  0.00     0.011 C 
ATOM      2  C   UNL     1      54.065   8.083 -44.407  1.00  0.00     0.019 C 
ATOM      3  C   UNL     1      53.456   7.117 -43.384  1.00  0.00     0.007 C 
ATOM      4  C   UNL     1      53.494   5.719 -44.009  1.00  0.00     0.011 C 
ATOM      5  C   UNL     1      53.963   5.891 -45.460  1.00  0.00     0.047 C 
ATOM      6  C   UNL     1      53.797   7.398 -45.759  1.00  0.00     0.081 C 
ATOM      7  C   UNL     1      54.668   7.867 -46.933  1.00  0.00     0.046 C 
ATOM      8  C   UNL     1      53.740   7.690 -48.131  1.00  0.00     0.054 C 
ATOM      9  C   UNL     1      52.414   7.186 -47.489  1.00  0.00     0.173 C 
ATOM     10  O   UNL     1      52.460   7.640 -46.154  1.00  0.00    -0.342 OA
ATOM     11  C   UNL     1      52.220   5.657 -47.420  1.00  0.00     0.096 C 
ATOM     12  C   UNL     1      53.178   5.022 -46.434  1.00  0.00    -0.066 C 
ATOM     13  C   UNL     1      53.316   3.689 -46.405  1.00  0.00     0.008 C 
ENDROOT
BRANCH   8  14
ATOM     14  C   UNL     1      54.376   6.969 -49.365  1.00  0.00    -0.009 C 
ATOM     15  C   UNL     1      54.556   7.800 -50.653  1.00  0.00     0.008 C 
ATOM     16  C   UNL     1      55.682   6.255 -48.988  1.00  0.00     0.008 C 
ENDBRANCH   8  14
BRANCH   9  17
ATOM     17  O   UNL     1      51.306   7.745 -48.151  1.00  0.00    -0.365 OA
ATOM     18  H   UNL     1      50.708   8.135 -47.461  1.00  0.00     0.214 HD
ENDBRANCH   9  17
TORSDOF 2
ENDMDL
MODEL 3
REMARK VINA RESULT:    -4.424     10.735     12.903
REMARK INTER + INTRA:          -5.190
REMARK INTER:                  -4.791
REMARK INTRA:                  -0.398
REMARK UNBOUND:                -0.378
REMARK SMILES C=C1C[C@@]2(O)O[C@@]3(C[C@H]2C(C)C)[C@H](C)CC[C@@H]13
REMARK SMILES IDX 14 1 13 2 15 3 16 4 17 5 7 6 8 7 9 8 4 9 6 10 3 11 2 12 1 13
REMARK SMILES IDX 10 14 11 15 12 16 5 17
REMARK H PARENT 5 18
REMARK Flexibility Score: inf
ROOT
ATOM      1  C   UNL     1      53.207   8.961 -50.622  1.00  0.00     0.011 C 
ATOM      2  C   UNL     1      54.349   7.966 -50.332  1.00  0.00     0.019 C 
ATOM      3  C   UNL     1      54.329   6.822 -51.353  1.00  0.00     0.007 C 
ATOM      4  C   UNL     1      53.547   5.668 -50.717  1.00  0.00     0.011 C 
ATOM      5  C   UNL     1      53.261   6.070 -49.264  1.00  0.00     0.047 C 
ATOM      6  C   UNL     1      54.218   7.248 -48.978  1.00  0.00     0.081 C 
ATOM      7  C   UNL     1      53.752   8.116 -47.800  1.00  0.00     0.046 C 
ATOM      8  C   UNL     1      54.449   7.468 -46.608  1.00  0.00     0.054 C 
ATOM      9  C   UNL     1      55.285   6.326 -47.256  1.00  0.00     0.173 C 
ATOM     10  O   UNL     1      55.478   6.729 -48.594  1.00  0.00    -0.342 OA
ATOM     11  C   UNL     1      54.621   4.934 -47.316  1.00  0.00     0.096 C 
ATOM     12  C   UNL     1      53.461   4.917 -48.290  1.00  0.00    -0.066 C 
ATOM     13  C   UNL     1      52.624   3.869 -48.308  1.00  0.00     0.008 C 
ENDROOT
BRANCH   8  14
ATOM     14  C   UNL     1      53.537   7.208 -45.364  1.00  0.00    -0.009 C 
ATOM     15  C   UNL     1      53.846   8.008 -44.081  1.00  0.00     0.008 C 
ATOM     16  C   UNL     1      52.048   7.310 -45.726  1.00  0.00     0.008 C 
ENDBRANCH   8  14
BRANCH   9  17
ATOM     17  O   UNL     1      56.526   6.198 -46.606  1.00  0.00    -0.365 OA
ATOM     18  H   UNL     1      56.600   5.264 -46.279  1.00  0.00     0.214 HD
ENDBRANCH   9  17
TORSDOF 2
ENDMDL
MODEL 4
REMARK VINA RESULT:    -4.372     10.595     13.425
REMARK INTER + INTRA:          -5.133
REMARK INTER:                  -4.736
REMARK INTRA:                  -0.397
REMARK UNBOUND:                -0.378
REMARK SMILES C=C1C[C@@]2(O)O[C@@]3(C[C@H]2C(C)C)[C@H](C)CC[C@@H]13
REMARK SMILES IDX 14 1 13 2 15 3 16 4 17 5 7 6 8 7 9 8 4 9 6 10 3 11 2 12 1 13
REMARK SMILES IDX 10 14 11 15 12 16 5 17
REMARK H PARENT 5 18
REMARK Flexibility Score: inf
ROOT
ATOM      1  C   UNL     1      55.147   3.999 -50.213  1.00  0.00     0.011 C 
ATOM      2  C   UNL     1      55.563   5.468 -49.993  1.00  0.00     0.019 C 
ATOM      3  C   UNL     1      55.913   5.705 -48.519  1.00  0.00     0.007 C 
ATOM      4  C   UNL     1      54.654   6.261 -47.844  1.00  0.00     0.011 C 
ATOM      5  C   UNL     1      53.625   6.511 -48.955  1.00  0.00     0.047 C 
ATOM      6  C   UNL     1      54.438   6.481 -50.268  1.00  0.00     0.081 C 
ATOM      7  C   UNL     1      53.563   6.195 -51.498  1.00  0.00     0.046 C 
ATOM      8  C   UNL     1      53.168   7.592 -51.962  1.00  0.00     0.054 C 
ATOM      9  C   UNL     1      53.914   8.528 -50.966  1.00  0.00     0.173 C 
ATOM     10  O   UNL     1      54.998   7.761 -50.488  1.00  0.00    -0.342 OA
ATOM     11  C   UNL     1      53.123   8.980 -49.720  1.00  0.00     0.096 C 
ATOM     12  C   UNL     1      52.877   7.825 -48.772  1.00  0.00    -0.066 C 
ATOM     13  C   UNL     1      52.017   7.972 -47.755  1.00  0.00     0.008 C 
ENDROOT
BRANCH   8  14
ATOM     14  C   UNL     1      51.648   7.783 -52.280  1.00  0.00    -0.009 C 
ATOM     15  C   UNL     1      51.265   8.086 -53.744  1.00  0.00     0.008 C 
ATOM     16  C   UNL     1      50.806   6.627 -51.722  1.00  0.00     0.008 C 
ENDBRANCH   8  14
BRANCH   9  17
ATOM     17  O   UNL     1      54.389   9.673 -51.631  1.00  0.00    -0.365 OA
ATOM     18  H   UNL     1      54.433   9.461 -52.600  1.00  0.00     0.214 HD
ENDBRANCH   9  17
TORSDOF 2
ENDMDL
MODEL 5
REMARK VINA RESULT:    -4.339      5.656      7.144
REMARK INTER + INTRA:          -5.097
REMARK INTER:                  -4.750
REMARK INTRA:                  -0.347
REMARK UNBOUND:                -0.378
REMARK SMILES C=C1C[C@@]2(O)O[C@@]3(C[C@H]2C(C)C)[C@H](C)CC[C@@H]13
REMARK SMILES IDX 14 1 13 2 15 3 16 4 17 5 7 6 8 7 9 8 4 9 6 10 3 11 2 12 1 13
REMARK SMILES IDX 10 14 11 15 12 16 5 17
REMARK H PARENT 5 18
REMARK Flexibility Score: inf
ROOT
ATOM      1  C   UNL     1      50.825  -7.711 -44.628  1.00  0.00     0.011 C 
ATOM      2  C   UNL     1      52.272  -8.239 -44.694  1.00  0.00     0.019 C 
ATOM      3  C   UNL     1      52.936  -8.140 -43.315  1.00  0.00     0.007 C 
ATOM      4  C   UNL     1      53.721  -6.825 -43.289  1.00  0.00     0.011 C 
ATOM      5  C   UNL     1      53.659  -6.240 -44.707  1.00  0.00     0.047 C 
ATOM      6  C   UNL     1      53.195  -7.409 -45.603  1.00  0.00     0.081 C 
ATOM      7  C   UNL     1      52.581  -6.932 -46.927  1.00  0.00     0.046 C 
ATOM      8  C   UNL     1      53.784  -6.901 -47.863  1.00  0.00     0.054 C 
ATOM      9  C   UNL     1      54.950  -7.422 -46.972  1.00  0.00     0.173 C 
ATOM     10  O   UNL     1      54.324  -8.183 -45.963  1.00  0.00    -0.342 OA
ATOM     11  C   UNL     1      55.793  -6.352 -46.246  1.00  0.00     0.096 C 
ATOM     12  C   UNL     1      54.995  -5.664 -45.159  1.00  0.00    -0.066 C 
ATOM     13  C   UNL     1      55.480  -4.558 -44.577  1.00  0.00     0.008 C 
ENDROOT
BRANCH   8  14
ATOM     14  C   UNL     1      53.928  -5.599 -48.719  1.00  0.00    -0.009 C 
ATOM     15  C   UNL     1      53.528  -5.683 -50.207  1.00  0.00     0.008 C 
ATOM     16  C   UNL     1      53.253  -4.400 -48.038  1.00  0.00     0.008 C 
ENDBRANCH   8  14
BRANCH   9  17
ATOM     17  O   UNL     1      55.816  -8.236 -47.725  1.00  0.00    -0.365 OA
ATOM     18  H   UNL     1      56.744  -7.930 -47.549  1.00  0.00     0.214 HD
ENDBRANCH   9  17
TORSDOF 2
ENDMDL
MODEL 6
REMARK VINA RESULT:    -4.278      1.640      4.702
REMARK INTER + INTRA:          -5.031
REMARK INTER:                  -4.768
REMARK INTRA:                  -0.263
REMARK UNBOUND:                -0.378
REMARK SMILES C=C1C[C@@]2(O)O[C@@]3(C[C@H]2C(C)C)[C@H](C)CC[C@@H]13
REMARK SMILES IDX 14 1 13 2 15 3 16 4 17 5 7 6 8 7 9 8 4 9 6 10 3 11 2 12 1 13
REMARK SMILES IDX 10 14 11 15 12 16 5 17
REMARK H PARENT 5 18
REMARK Flexibility Score: inf
ROOT
ATOM      1  C   UNL     1      56.476  -1.068 -48.244  1.00  0.00     0.011 C 
ATOM      2  C   UNL     1      58.010  -0.941 -48.149  1.00  0.00     0.019 C 
ATOM      3  C   UNL     1      58.564  -0.253 -49.402  1.00  0.00     0.007 C 
ATOM      4  C   UNL     1      59.002  -1.362 -50.365  1.00  0.00     0.011 C 
ATOM      5  C   UNL     1      58.866  -2.690 -49.608  1.00  0.00     0.047 C 
ATOM      6  C   UNL     1      58.744  -2.293 -48.121  1.00  0.00     0.081 C 
ATOM      7  C   UNL     1      58.095  -3.392 -47.267  1.00  0.00     0.046 C 
ATOM      8  C   UNL     1      59.296  -4.200 -46.788  1.00  0.00     0.054 C 
ATOM      9  C   UNL     1      60.510  -3.430 -47.385  1.00  0.00     0.173 C 
ATOM     10  O   UNL     1      60.043  -2.114 -47.588  1.00  0.00    -0.342 OA
ATOM     11  C   UNL     1      61.032  -3.919 -48.753  1.00  0.00     0.096 C 
ATOM     12  C   UNL     1      60.040  -3.627 -49.859  1.00  0.00    -0.066 C 
ATOM     13  C   UNL     1      60.213  -4.178 -51.069  1.00  0.00     0.008 C 
ENDROOT
BRANCH   8  14
ATOM     14  C   UNL     1      59.158  -5.751 -46.938  1.00  0.00    -0.009 C 
ATOM     15  C   UNL     1      60.206  -6.627 -46.219  1.00  0.00     0.008 C 
ATOM     16  C   UNL     1      57.734  -6.224 -46.613  1.00  0.00     0.008 C 
ENDBRANCH   8  14
BRANCH   9  17
ATOM     17  O   UNL     1      61.584  -3.426 -46.475  1.00  0.00    -0.365 OA
ATOM     18  H   UNL     1      61.475  -2.635 -45.885  1.00  0.00     0.214 HD
ENDBRANCH   9  17
TORSDOF 2
ENDMDL
MODEL 7
REMARK VINA RESULT:    -4.268      7.799     10.132
REMARK INTER + INTRA:          -5.020
REMARK INTER:                  -4.737
REMARK INTRA:                  -0.283
REMARK UNBOUND:                -0.378
REMARK SMILES C=C1C[C@@]2(O)O[C@@]3(C[C@H]2C(C)C)[C@H](C)CC[C@@H]13
REMARK SMILES IDX 14 1 13 2 15 3 16 4 17 5 7 6 8 7 9 8 4 9 6 10 3 11 2 12 1 13
REMARK SMILES IDX 10 14 11 15 12 16 5 17
REMARK H PARENT 5 18
REMARK Flexibility Score: inf
ROOT
ATOM      1  C   UNL     1      52.047  -6.043 -46.961  1.00  0.00     0.011 C 
ATOM      2  C   UNL     1      52.858  -6.899 -47.956  1.00  0.00     0.019 C 
ATOM      3  C   UNL     1      54.157  -6.179 -48.338  1.00  0.00     0.007 C 
ATOM      4  C   UNL     1      53.885  -5.429 -49.647  1.00  0.00     0.011 C 
ATOM      5  C   UNL     1      52.486  -5.849 -50.119  1.00  0.00     0.047 C 
ATOM      6  C   UNL     1      52.152  -7.118 -49.305  1.00  0.00     0.081 C 
ATOM      7  C   UNL     1      50.643  -7.396 -49.236  1.00  0.00     0.046 C 
ATOM      8  C   UNL     1      50.413  -8.301 -50.441  1.00  0.00     0.054 C 
ATOM      9  C   UNL     1      51.840  -8.483 -51.035  1.00  0.00     0.173 C 
ATOM     10  O   UNL     1      52.717  -8.240 -49.957  1.00  0.00    -0.342 OA
ATOM     11  C   UNL     1      52.250  -7.503 -52.155  1.00  0.00     0.096 C 
ATOM     12  C   UNL     1      52.428  -6.097 -51.621  1.00  0.00    -0.066 C 
ATOM     13  C   UNL     1      52.558  -5.072 -52.476  1.00  0.00     0.008 C 
ENDROOT
BRANCH   8  14
ATOM     14  C   UNL     1      49.196  -7.911 -51.343  1.00  0.00    -0.009 C 
ATOM     15  C   UNL     1      48.630  -9.002 -52.278  1.00  0.00     0.008 C 
ATOM     16  C   UNL     1      48.073  -7.258 -50.524  1.00  0.00     0.008 C 
ENDBRANCH   8  14
BRANCH   9  17
ATOM     17  O   UNL     1      52.010  -9.796 -51.510  1.00  0.00    -0.365 OA
ATOM     18  H   UNL     1      52.722 -10.223 -50.964  1.00  0.00     0.214 HD
ENDBRANCH   9  17
TORSDOF 2
ENDMDL
MODEL 8
REMARK VINA RESULT:    -4.250     10.316     13.021
REMARK INTER + INTRA:          -5.000
REMARK INTER:                  -4.645
REMARK INTRA:                  -0.355
REMARK UNBOUND:                -0.378
REMARK SMILES C=C1C[C@@]2(O)O[C@@]3(C[C@H]2C(C)C)[C@H](C)CC[C@@H]13
REMARK SMILES IDX 14 1 13 2 15 3 16 4 17 5 7 6 8 7 9 8 4 9 6 10 3 11 2 12 1 13
REMARK SMILES IDX 10 14 11 15 12 16 5 17
REMARK H PARENT 5 18
REMARK Flexibility Score: inf
ROOT
ATOM      1  C   UNL     1      56.126   4.599 -49.498  1.00  0.00     0.011 C 
ATOM      2  C   UNL     1      54.591   4.696 -49.374  1.00  0.00     0.019 C 
ATOM      3  C   UNL     1      53.970   5.032 -50.735  1.00  0.00     0.007 C 
ATOM      4  C   UNL     1      53.776   6.552 -50.776  1.00  0.00     0.011 C 
ATOM      5  C   UNL     1      54.121   7.084 -49.378  1.00  0.00     0.047 C 
ATOM      6  C   UNL     1      54.113   5.840 -48.462  1.00  0.00     0.081 C 
ATOM      7  C   UNL     1      54.918   6.051 -47.172  1.00  0.00     0.046 C 
ATOM      8  C   UNL     1      53.865   6.575 -46.201  1.00  0.00     0.054 C 
ATOM      9  C   UNL     1      52.555   6.552 -47.042  1.00  0.00     0.173 C 
ATOM     10  O   UNL     1      52.784   5.588 -48.047  1.00  0.00    -0.342 OA
ATOM     11  C   UNL     1      52.182   7.859 -47.774  1.00  0.00     0.096 C 
ATOM     12  C   UNL     1      53.146   8.153 -48.904  1.00  0.00    -0.066 C 
ATOM     13  C   UNL     1      53.121   9.352 -49.503  1.00  0.00     0.008 C 
ENDROOT
BRANCH   8  14
ATOM     14  C   UNL     1      54.286   7.838 -45.380  1.00  0.00    -0.009 C 
ATOM     15  C   UNL     1      53.984   7.831 -43.867  1.00  0.00     0.008 C 
ATOM     16  C   UNL     1      55.751   8.218 -45.643  1.00  0.00     0.008 C 
ENDBRANCH   8  14
BRANCH   9  17
ATOM     17  O   UNL     1      51.465   6.164 -46.241  1.00  0.00    -0.365 OA
ATOM     18  H   UNL     1      51.169   6.962 -45.729  1.00  0.00     0.214 HD
ENDBRANCH   9  17
TORSDOF 2
ENDMDL
MODEL 9
REMARK VINA RESULT:    -3.889     16.363     18.120
REMARK INTER + INTRA:          -4.608
REMARK INTER:                  -4.237
REMARK INTRA:                  -0.370
REMARK UNBOUND:                -0.378
REMARK SMILES C=C1C[C@@]2(O)O[C@@]3(C[C@H]2C(C)C)[C@H](C)CC[C@@H]13
REMARK SMILES IDX 14 1 13 2 15 3 16 4 17 5 7 6 8 7 9 8 4 9 6 10 3 11 2 12 1 13
REMARK SMILES IDX 10 14 11 15 12 16 5 17
REMARK H PARENT 5 18
REMARK Flexibility Score: inf
ROOT
ATOM      1  C   UNL     1      44.505  -1.493 -48.051  1.00  0.00     0.011 C 
ATOM      2  C   UNL     1      43.206  -1.006 -47.376  1.00  0.00     0.019 C 
ATOM      3  C   UNL     1      42.031  -1.100 -48.357  1.00  0.00     0.007 C 
ATOM      4  C   UNL     1      41.875   0.281 -49.002  1.00  0.00     0.011 C 
ATOM      5  C   UNL     1      42.842   1.225 -48.275  1.00  0.00     0.047 C 
ATOM      6  C   UNL     1      43.232   0.480 -46.980  1.00  0.00     0.081 C 
ATOM      7  C   UNL     1      44.548   0.992 -46.377  1.00  0.00     0.046 C 
ATOM      8  C   UNL     1      44.079   2.081 -45.420  1.00  0.00     0.054 C 
ATOM      9  C   UNL     1      42.528   2.031 -45.546  1.00  0.00     0.173 C 
ATOM     10  O   UNL     1      42.243   0.725 -45.998  1.00  0.00    -0.342 OA
ATOM     11  C   UNL     1      41.888   2.991 -46.570  1.00  0.00     0.096 C 
ATOM     12  C   UNL     1      42.223   2.588 -47.991  1.00  0.00    -0.066 C 
ATOM     13  C   UNL     1      41.950   3.425 -49.002  1.00  0.00     0.008 C 
ENDROOT
BRANCH   8  14
ATOM     14  C   UNL     1      44.862   3.433 -45.514  1.00  0.00    -0.009 C 
ATOM     15  C   UNL     1      45.849   3.759 -44.373  1.00  0.00     0.008 C 
ATOM     16  C   UNL     1      45.536   3.599 -46.883  1.00  0.00     0.008 C 
ENDBRANCH   8  14
BRANCH   9  17
ATOM     17  O   UNL     1      41.927   2.251 -44.294  1.00  0.00    -0.365 OA
ATOM     18  H   UNL     1      41.249   2.967 -44.407  1.00  0.00     0.214 HD
ENDBRANCH   9  17
TORSDOF 2
ENDMDL
