MODEL 1
REMARK VINA RESULT:    -4.212      0.000      0.000
REMARK INTER + INTRA:         -11.587
REMARK INTER:                  -9.137
REMARK INTRA:                  -2.451
REMARK UNBOUND:                -2.451
REMARK SMILES CCCCCCCCCCCCCCCCCCCCCC(=O)[O-]
REMARK SMILES IDX 12 1 11 2 10 3 9 4 8 5 7 6 6 7 5 8 4 9 3 10 2 11 1 12 13 13
REMARK SMILES IDX 14 14 15 15 16 16 17 17 18 18 19 19 20 20 21 21 22 22 23 23
REMARK SMILES IDX 24 24
REMARK H PARENT
REMARK Flexibility Score: inf
ROOT
ATOM      1  C   UNL     1      -0.186   2.433  -8.214  1.00  0.00     0.000 C 
ENDROOT
BRANCH   1   2
ATOM      2  C   UNL     1      -1.359   3.412  -8.376  1.00  0.00     0.000 C 
BRANCH   2   3
ATOM      3  C   UNL     1      -0.866   4.782  -8.859  1.00  0.00     0.000 C 
BRANCH   3   4
ATOM      4  C   UNL     1      -2.038   5.760  -9.031  1.00  0.00    -0.000 C 
BRANCH   4   5
ATOM      5  C   UNL     1      -3.401   5.093  -8.788  1.00  0.00    -0.000 C 
BRANCH   5   6
ATOM      6  C   UNL     1      -4.484   5.589  -9.758  1.00  0.00    -0.000 C 
BRANCH   6   7
ATOM      7  C   UNL     1      -5.624   4.568  -9.872  1.00  0.00    -0.000 C 
BRANCH   7   8
ATOM      8  C   UNL     1      -5.559   3.482  -8.785  1.00  0.00    -0.000 C 
BRANCH   8   9
ATOM      9  C   UNL     1      -5.396   2.068  -9.372  1.00  0.00    -0.000 C 
BRANCH   9  10
ATOM     10  C   UNL     1      -4.928   2.095 -10.842  1.00  0.00    -0.000 C 
BRANCH  10  11
ATOM     11  C   UNL     1      -3.407   1.932 -11.008  1.00  0.00    -0.003 C 
ATOM     12  C   UNL     1      -2.781   3.018 -11.880  1.00  0.00     0.004 C 
ENDBRANCH  10  11
ENDBRANCH   9  10
ENDBRANCH   8   9
ENDBRANCH   7   8
ENDBRANCH   6   7
ENDBRANCH   5   6
ENDBRANCH   4   5
ENDBRANCH   3   4
ENDBRANCH   2   3
ENDBRANCH   1   2
BRANCH   1  13
ATOM     13  C   UNL     1       0.028   1.548  -9.452  1.00  0.00     0.000 C 
BRANCH  13  14
ATOM     14  C   UNL     1       1.062   2.134 -10.429  1.00  0.00     0.000 C 
BRANCH  14  15
ATOM     15  C   UNL     1       0.739   1.827 -11.903  1.00  0.00     0.000 C 
BRANCH  15  16
ATOM     16  C   UNL     1       1.807   1.015 -12.658  1.00  0.00     0.000 C 
BRANCH  16  17
ATOM     17  C   UNL     1       3.244   1.407 -12.274  1.00  0.00     0.000 C 
BRANCH  17  18
ATOM     18  C   UNL     1       4.299   0.494 -12.919  1.00  0.00     0.000 C 
BRANCH  18  19
ATOM     19  C   UNL     1       5.618   0.456 -12.131  1.00  0.00     0.000 C 
BRANCH  19  20
ATOM     20  C   UNL     1       6.128  -0.986 -11.986  1.00  0.00     0.006 C 
BRANCH  20  21
ATOM     21  C   UNL     1       7.055  -1.155 -10.773  1.00  0.00     0.053 C 
BRANCH  21  22
ATOM     22  C   UNL     1       8.265  -0.279 -10.872  1.00  0.00     0.041 C 
ATOM     23  O   UNL     1       8.455   0.636 -10.028  1.00  0.00    -0.550 OA
ATOM     24  O   UNL     1       9.163  -0.446 -11.918  1.00  0.00    -0.550 OA
ENDBRANCH  21  22
ENDBRANCH  20  21
ENDBRANCH  19  20
ENDBRANCH  18  19
ENDBRANCH  17  18
ENDBRANCH  16  17
ENDBRANCH  15  16
ENDBRANCH  14  15
ENDBRANCH  13  14
ENDBRANCH   1  13
TORSDOF 20
ENDMDL
MODEL 2
REMARK VINA RESULT:    -4.159      4.245      6.031
REMARK INTER + INTRA:         -11.472
REMARK INTER:                  -7.852
REMARK INTRA:                  -3.620
REMARK UNBOUND:                -2.451
REMARK SMILES CCCCCCCCCCCCCCCCCCCCCC(=O)[O-]
REMARK SMILES IDX 12 1 11 2 10 3 9 4 8 5 7 6 6 7 5 8 4 9 3 10 2 11 1 12 13 13
REMARK SMILES IDX 14 14 15 15 16 16 17 17 18 18 19 19 20 20 21 21 22 22 23 23
REMARK SMILES IDX 24 24
REMARK H PARENT
REMARK Flexibility Score: inf
ROOT
ATOM      1  C   UNL     1       0.690   2.002 -10.004  1.00  0.00     0.000 C 
ENDROOT
BRANCH   1   2
ATOM      2  C   UNL     1       0.261   1.417  -8.649  1.00  0.00     0.000 C 
BRANCH   2   3
ATOM      3  C   UNL     1      -0.334   2.506  -7.747  1.00  0.00     0.000 C 
BRANCH   3   4
ATOM      4  C   UNL     1      -1.332   3.379  -8.523  1.00  0.00    -0.000 C 
BRANCH   4   5
ATOM      5  C   UNL     1      -1.206   4.870  -8.171  1.00  0.00    -0.000 C 
BRANCH   5   6
ATOM      6  C   UNL     1      -2.468   5.671  -8.525  1.00  0.00    -0.000 C 
BRANCH   6   7
ATOM      7  C   UNL     1      -3.585   4.740  -9.017  1.00  0.00    -0.000 C 
BRANCH   7   8
ATOM      8  C   UNL     1      -4.569   5.444  -9.965  1.00  0.00    -0.000 C 
BRANCH   8   9
ATOM      9  C   UNL     1      -5.866   4.642 -10.172  1.00  0.00    -0.000 C 
BRANCH   9  10
ATOM     10  C   UNL     1      -6.114   3.627  -9.036  1.00  0.00    -0.000 C 
BRANCH  10  11
ATOM     11  C   UNL     1      -6.267   2.178  -9.528  1.00  0.00    -0.003 C 
ATOM     12  C   UNL     1      -5.262   1.806 -10.617  1.00  0.00     0.004 C 
ENDBRANCH  10  11
ENDBRANCH   9  10
ENDBRANCH   8   9
ENDBRANCH   7   8
ENDBRANCH   6   7
ENDBRANCH   5   6
ENDBRANCH   4   5
ENDBRANCH   3   4
ENDBRANCH   2   3
ENDBRANCH   1   2
BRANCH   1  13
ATOM     13  C   UNL     1       0.419   1.047 -11.178  1.00  0.00     0.000 C 
BRANCH  13  14
ATOM     14  C   UNL     1      -0.353   1.722 -12.325  1.00  0.00     0.000 C 
BRANCH  14  15
ATOM     15  C   UNL     1      -1.825   2.007 -11.974  1.00  0.00     0.000 C 
BRANCH  15  16
ATOM     16  C   UNL     1      -2.283   3.462 -12.183  1.00  0.00     0.000 C 
BRANCH  16  17
ATOM     17  C   UNL     1      -1.129   4.475 -12.102  1.00  0.00     0.000 C 
BRANCH  17  18
ATOM     18  C   UNL     1      -1.611   5.931 -12.199  1.00  0.00     0.000 C 
BRANCH  18  19
ATOM     19  C   UNL     1      -0.460   6.947 -12.128  1.00  0.00     0.000 C 
BRANCH  19  20
ATOM     20  C   UNL     1      -0.267   7.458 -10.692  1.00  0.00     0.006 C 
BRANCH  20  21
ATOM     21  C   UNL     1       1.073   7.011 -10.090  1.00  0.00     0.053 C 
BRANCH  21  22
ATOM     22  C   UNL     1       1.348   7.688  -8.784  1.00  0.00     0.041 C 
ATOM     23  O   UNL     1       0.397   8.124  -8.083  1.00  0.00    -0.550 OA
ATOM     24  O   UNL     1       2.657   7.876  -8.358  1.00  0.00    -0.550 OA
ENDBRANCH  21  22
ENDBRANCH  20  21
ENDBRANCH  19  20
ENDBRANCH  18  19
ENDBRANCH  17  18
ENDBRANCH  16  17
ENDBRANCH  15  16
ENDBRANCH  14  15
ENDBRANCH  13  14
ENDBRANCH   1  13
TORSDOF 20
ENDMDL
MODEL 3
REMARK VINA RESULT:    -4.156      4.430      8.512
REMARK INTER + INTRA:         -11.465
REMARK INTER:                  -7.585
REMARK INTRA:                  -3.880
REMARK UNBOUND:                -2.451
REMARK SMILES CCCCCCCCCCCCCCCCCCCCCC(=O)[O-]
REMARK SMILES IDX 12 1 11 2 10 3 9 4 8 5 7 6 6 7 5 8 4 9 3 10 2 11 1 12 13 13
REMARK SMILES IDX 14 14 15 15 16 16 17 17 18 18 19 19 20 20 21 21 22 22 23 23
REMARK SMILES IDX 24 24
REMARK H PARENT
REMARK Flexibility Score: inf
ROOT
ATOM      1  C   UNL     1      -0.077   1.782  -8.319  1.00  0.00     0.000 C 
ENDROOT
BRANCH   1   2
ATOM      2  C   UNL     1       0.667   2.015  -9.643  1.00  0.00     0.000 C 
BRANCH   2   3
ATOM      3  C   UNL     1       0.097   1.125 -10.755  1.00  0.00     0.000 C 
BRANCH   3   4
ATOM      4  C   UNL     1      -1.352   1.517 -11.086  1.00  0.00    -0.000 C 
BRANCH   4   5
ATOM      5  C   UNL     1      -1.436   2.550 -12.221  1.00  0.00    -0.000 C 
BRANCH   5   6
ATOM      6  C   UNL     1      -0.559   2.179 -13.426  1.00  0.00    -0.000 C 
BRANCH   6   7
ATOM      7  C   UNL     1       0.382   3.334 -13.793  1.00  0.00    -0.000 C 
BRANCH   7   8
ATOM      8  C   UNL     1       0.493   4.386 -12.677  1.00  0.00    -0.000 C 
BRANCH   8   9
ATOM      9  C   UNL     1       1.910   4.467 -12.081  1.00  0.00    -0.000 C 
BRANCH   9  10
ATOM     10  C   UNL     1       2.903   3.532 -12.803  1.00  0.00    -0.000 C 
BRANCH  10  11
ATOM     11  C   UNL     1       3.470   2.421 -11.903  1.00  0.00    -0.003 C 
ATOM     12  C   UNL     1       3.672   1.099 -12.640  1.00  0.00     0.004 C 
ENDBRANCH  10  11
ENDBRANCH   9  10
ENDBRANCH   8   9
ENDBRANCH   7   8
ENDBRANCH   6   7
ENDBRANCH   5   6
ENDBRANCH   4   5
ENDBRANCH   3   4
ENDBRANCH   2   3
ENDBRANCH   1   2
BRANCH   1  13
ATOM     13  C   UNL     1      -0.881   3.010  -7.864  1.00  0.00     0.000 C 
BRANCH  13  14
ATOM     14  C   UNL     1      -0.594   4.257  -8.717  1.00  0.00     0.000 C 
BRANCH  14  15
ATOM     15  C   UNL     1      -1.193   5.545  -8.121  1.00  0.00     0.000 C 
BRANCH  15  16
ATOM     16  C   UNL     1      -1.837   6.505  -9.138  1.00  0.00     0.000 C 
BRANCH  16  17
ATOM     17  C   UNL     1      -1.850   5.945 -10.570  1.00  0.00     0.000 C 
BRANCH  17  18
ATOM     18  C   UNL     1      -3.256   5.527 -11.028  1.00  0.00     0.000 C 
BRANCH  18  19
ATOM     19  C   UNL     1      -4.356   5.954 -10.044  1.00  0.00     0.000 C 
BRANCH  19  20
ATOM     20  C   UNL     1      -5.159   4.738  -9.557  1.00  0.00     0.006 C 
BRANCH  20  21
ATOM     21  C   UNL     1      -4.265   3.516  -9.300  1.00  0.00     0.053 C 
BRANCH  21  22
ATOM     22  C   UNL     1      -4.990   2.233  -9.563  1.00  0.00     0.041 C 
ATOM     23  O   UNL     1      -4.922   1.687 -10.696  1.00  0.00    -0.550 OA
ATOM     24  O   UNL     1      -5.775   1.660  -8.570  1.00  0.00    -0.550 OA
ENDBRANCH  21  22
ENDBRANCH  20  21
ENDBRANCH  19  20
ENDBRANCH  18  19
ENDBRANCH  17  18
ENDBRANCH  16  17
ENDBRANCH  15  16
ENDBRANCH  14  15
ENDBRANCH  13  14
ENDBRANCH   1  13
TORSDOF 20
ENDMDL
MODEL 4
REMARK VINA RESULT:    -4.148      5.486      7.665
REMARK INTER + INTRA:         -11.449
REMARK INTER:                  -7.931
REMARK INTRA:                  -3.518
REMARK UNBOUND:                -2.451
REMARK SMILES CCCCCCCCCCCCCCCCCCCCCC(=O)[O-]
REMARK SMILES IDX 12 1 11 2 10 3 9 4 8 5 7 6 6 7 5 8 4 9 3 10 2 11 1 12 13 13
REMARK SMILES IDX 14 14 15 15 16 16 17 17 18 18 19 19 20 20 21 21 22 22 23 23
REMARK SMILES IDX 24 24
REMARK H PARENT
REMARK Flexibility Score: inf
ROOT
ATOM      1  C   UNL     1      -0.493   2.503  -7.789  1.00  0.00     0.000 C 
ENDROOT
BRANCH   1   2
ATOM      2  C   UNL     1      -1.490   3.424  -8.510  1.00  0.00     0.000 C 
BRANCH   2   3
ATOM      3  C   UNL     1      -1.068   4.893  -8.382  1.00  0.00     0.000 C 
BRANCH   3   4
ATOM      4  C   UNL     1      -2.271   5.830  -8.569  1.00  0.00    -0.000 C 
BRANCH   4   5
ATOM      5  C   UNL     1      -3.539   5.080  -9.007  1.00  0.00    -0.000 C 
BRANCH   5   6
ATOM      6  C   UNL     1      -4.464   5.941  -9.879  1.00  0.00    -0.000 C 
BRANCH   6   7
ATOM      7  C   UNL     1      -4.369   5.524 -11.353  1.00  0.00    -0.000 C 
BRANCH   7   8
ATOM      8  C   UNL     1      -3.224   6.232 -12.097  1.00  0.00    -0.000 C 
BRANCH   8   9
ATOM      9  C   UNL     1      -2.313   5.248 -12.852  1.00  0.00    -0.000 C 
BRANCH   9  10
ATOM     10  C   UNL     1      -1.088   4.824 -12.015  1.00  0.00    -0.000 C 
BRANCH  10  11
ATOM     11  C   UNL     1       0.151   5.707 -12.244  1.00  0.00    -0.003 C 
ATOM     12  C   UNL     1       0.243   6.875 -11.266  1.00  0.00     0.004 C 
ENDBRANCH  10  11
ENDBRANCH   9  10
ENDBRANCH   8   9
ENDBRANCH   7   8
ENDBRANCH   6   7
ENDBRANCH   5   6
ENDBRANCH   4   5
ENDBRANCH   3   4
ENDBRANCH   2   3
ENDBRANCH   1   2
BRANCH   1  13
ATOM     13  C   UNL     1       0.255   1.566  -8.751  1.00  0.00     0.000 C 
BRANCH  13  14
ATOM     14  C   UNL     1       0.439   2.177 -10.151  1.00  0.00     0.000 C 
BRANCH  14  15
ATOM     15  C   UNL     1       0.572   1.115 -11.259  1.00  0.00     0.000 C 
BRANCH  15  16
ATOM     16  C   UNL     1      -0.755   0.626 -11.867  1.00  0.00     0.000 C 
BRANCH  16  17
ATOM     17  C   UNL     1      -1.968   1.452 -11.407  1.00  0.00     0.000 C 
BRANCH  17  18
ATOM     18  C   UNL     1      -3.271   1.026 -12.102  1.00  0.00     0.000 C 
BRANCH  18  19
ATOM     19  C   UNL     1      -4.356   2.114 -12.055  1.00  0.00     0.000 C 
BRANCH  19  20
ATOM     20  C   UNL     1      -5.549   1.663 -11.199  1.00  0.00     0.006 C 
BRANCH  20  21
ATOM     21  C   UNL     1      -5.351   1.982  -9.711  1.00  0.00     0.053 C 
BRANCH  21  22
ATOM     22  C   UNL     1      -6.514   2.737  -9.145  1.00  0.00     0.041 C 
ATOM     23  O   UNL     1      -7.521   2.977  -9.860  1.00  0.00    -0.550 OA
ATOM     24  O   UNL     1      -6.468   3.211  -7.840  1.00  0.00    -0.550 OA
ENDBRANCH  21  22
ENDBRANCH  20  21
ENDBRANCH  19  20
ENDBRANCH  18  19
ENDBRANCH  17  18
ENDBRANCH  16  17
ENDBRANCH  15  16
ENDBRANCH  14  15
ENDBRANCH  13  14
ENDBRANCH   1  13
TORSDOF 20
ENDMDL
MODEL 5
REMARK VINA RESULT:    -4.144      5.205      7.656
REMARK INTER + INTRA:         -11.439
REMARK INTER:                  -7.418
REMARK INTRA:                  -4.021
REMARK UNBOUND:                -2.451
REMARK SMILES CCCCCCCCCCCCCCCCCCCCCC(=O)[O-]
REMARK SMILES IDX 12 1 11 2 10 3 9 4 8 5 7 6 6 7 5 8 4 9 3 10 2 11 1 12 13 13
REMARK SMILES IDX 14 14 15 15 16 16 17 17 18 18 19 19 20 20 21 21 22 22 23 23
REMARK SMILES IDX 24 24
REMARK H PARENT
REMARK Flexibility Score: inf
ROOT
ATOM      1  C   UNL     1       0.207   1.382  -8.904  1.00  0.00     0.000 C 
ENDROOT
BRANCH   1   2
ATOM      2  C   UNL     1      -0.227   2.366  -7.807  1.00  0.00     0.000 C 
BRANCH   2   3
ATOM      3  C   UNL     1      -0.961   3.570  -8.412  1.00  0.00     0.000 C 
BRANCH   3   4
ATOM      4  C   UNL     1      -2.415   3.213  -8.756  1.00  0.00    -0.000 C 
BRANCH   4   5
ATOM      5  C   UNL     1      -3.323   4.451  -8.830  1.00  0.00    -0.000 C 
BRANCH   5   6
ATOM      6  C   UNL     1      -2.551   5.763  -8.624  1.00  0.00    -0.000 C 
BRANCH   6   7
ATOM      7  C   UNL     1      -2.716   6.690  -9.836  1.00  0.00    -0.000 C 
BRANCH   7   8
ATOM      8  C   UNL     1      -1.377   7.258 -10.336  1.00  0.00    -0.000 C 
BRANCH   8   9
ATOM      9  C   UNL     1      -0.815   6.475 -11.535  1.00  0.00    -0.000 C 
BRANCH   9  10
ATOM     10  C   UNL     1       0.326   5.520 -11.127  1.00  0.00    -0.000 C 
BRANCH  10  11
ATOM     11  C   UNL     1       1.179   5.035 -12.313  1.00  0.00    -0.003 C 
ATOM     12  C   UNL     1       2.592   5.615 -12.310  1.00  0.00     0.004 C 
ENDBRANCH  10  11
ENDBRANCH   9  10
ENDBRANCH   8   9
ENDBRANCH   7   8
ENDBRANCH   6   7
ENDBRANCH   5   6
ENDBRANCH   4   5
ENDBRANCH   3   4
ENDBRANCH   2   3
ENDBRANCH   1   2
BRANCH   1  13
ATOM     13  C   UNL     1       1.030   2.053 -10.015  1.00  0.00     0.000 C 
BRANCH  13  14
ATOM     14  C   UNL     1       0.774   1.434 -11.400  1.00  0.00     0.000 C 
BRANCH  14  15
ATOM     15  C   UNL     1      -0.707   1.488 -11.819  1.00  0.00     0.000 C 
BRANCH  15  16
ATOM     16  C   UNL     1      -0.963   1.872 -13.288  1.00  0.00     0.000 C 
BRANCH  16  17
ATOM     17  C   UNL     1      -1.819   3.140 -13.438  1.00  0.00     0.000 C 
BRANCH  17  18
ATOM     18  C   UNL     1      -2.653   3.443 -12.183  1.00  0.00     0.000 C 
BRANCH  18  19
ATOM     19  C   UNL     1      -3.910   4.274 -12.487  1.00  0.00     0.000 C 
BRANCH  19  20
ATOM     20  C   UNL     1      -5.166   3.596 -11.917  1.00  0.00     0.006 C 
BRANCH  20  21
ATOM     21  C   UNL     1      -4.924   2.120 -11.571  1.00  0.00     0.053 C 
BRANCH  21  22
ATOM     22  C   UNL     1      -5.926   1.609 -10.584  1.00  0.00     0.041 C 
ATOM     23  O   UNL     1      -6.987   1.062 -10.984  1.00  0.00    -0.550 OA
ATOM     24  O   UNL     1      -5.710   1.773  -9.222  1.00  0.00    -0.550 OA
ENDBRANCH  21  22
ENDBRANCH  20  21
ENDBRANCH  19  20
ENDBRANCH  18  19
ENDBRANCH  17  18
ENDBRANCH  16  17
ENDBRANCH  15  16
ENDBRANCH  14  15
ENDBRANCH  13  14
ENDBRANCH   1  13
TORSDOF 20
ENDMDL
MODEL 6
REMARK VINA RESULT:    -4.127      4.842      7.988
REMARK INTER + INTRA:         -11.403
REMARK INTER:                  -7.177
REMARK INTRA:                  -4.226
REMARK UNBOUND:                -2.451
REMARK SMILES CCCCCCCCCCCCCCCCCCCCCC(=O)[O-]
REMARK SMILES IDX 12 1 11 2 10 3 9 4 8 5 7 6 6 7 5 8 4 9 3 10 2 11 1 12 13 13
REMARK SMILES IDX 14 14 15 15 16 16 17 17 18 18 19 19 20 20 21 21 22 22 23 23
REMARK SMILES IDX 24 24
REMARK H PARENT
REMARK Flexibility Score: inf
ROOT
ATOM      1  C   UNL     1      -0.514   2.625  -7.984  1.00  0.00     0.000 C 
ENDROOT
BRANCH   1   2
ATOM      2  C   UNL     1      -1.910   3.048  -8.469  1.00  0.00     0.000 C 
BRANCH   2   3
ATOM      3  C   UNL     1      -1.977   4.565  -8.687  1.00  0.00     0.000 C 
BRANCH   3   4
ATOM      4  C   UNL     1      -0.596   5.211  -8.495  1.00  0.00    -0.000 C 
BRANCH   4   5
ATOM      5  C   UNL     1      -0.056   5.841  -9.789  1.00  0.00    -0.000 C 
BRANCH   5   6
ATOM      6  C   UNL     1      -1.176   6.320 -10.725  1.00  0.00    -0.000 C 
BRANCH   6   7
ATOM      7  C   UNL     1      -0.725   6.261 -12.191  1.00  0.00    -0.000 C 
BRANCH   7   8
ATOM      8  C   UNL     1       0.710   5.734 -12.348  1.00  0.00    -0.000 C 
BRANCH   8   9
ATOM      9  C   UNL     1       0.928   5.004 -13.686  1.00  0.00    -0.000 C 
BRANCH   9  10
ATOM     10  C   UNL     1       2.191   4.118 -13.669  1.00  0.00    -0.000 C 
BRANCH  10  11
ATOM     11  C   UNL     1       3.065   4.313 -12.419  1.00  0.00    -0.003 C 
ATOM     12  C   UNL     1       3.967   3.115 -12.125  1.00  0.00     0.004 C 
ENDBRANCH  10  11
ENDBRANCH   9  10
ENDBRANCH   8   9
ENDBRANCH   7   8
ENDBRANCH   6   7
ENDBRANCH   5   6
ENDBRANCH   4   5
ENDBRANCH   3   4
ENDBRANCH   2   3
ENDBRANCH   1   2
BRANCH   1  13
ATOM     13  C   UNL     1       0.132   1.561  -8.885  1.00  0.00     0.000 C 
BRANCH  13  14
ATOM     14  C   UNL     1       0.958   2.174 -10.029  1.00  0.00     0.000 C 
BRANCH  14  15
ATOM     15  C   UNL     1       0.229   2.134 -11.385  1.00  0.00     0.000 C 
BRANCH  15  16
ATOM     16  C   UNL     1      -0.822   1.019 -11.537  1.00  0.00     0.000 C 
BRANCH  16  17
ATOM     17  C   UNL     1      -2.250   1.559 -11.721  1.00  0.00     0.000 C 
BRANCH  17  18
ATOM     18  C   UNL     1      -2.273   3.026 -12.179  1.00  0.00     0.000 C 
BRANCH  18  19
ATOM     19  C   UNL     1      -3.671   3.659 -12.084  1.00  0.00     0.000 C 
BRANCH  19  20
ATOM     20  C   UNL     1      -4.595   2.814 -11.194  1.00  0.00     0.006 C 
BRANCH  20  21
ATOM     21  C   UNL     1      -5.352   3.667 -10.165  1.00  0.00     0.053 C 
BRANCH  21  22
ATOM     22  C   UNL     1      -5.868   2.840  -9.029  1.00  0.00     0.041 C 
ATOM     23  O   UNL     1      -5.736   1.588  -9.046  1.00  0.00    -0.550 OA
ATOM     24  O   UNL     1      -6.530   3.447  -7.970  1.00  0.00    -0.550 OA
ENDBRANCH  21  22
ENDBRANCH  20  21
ENDBRANCH  19  20
ENDBRANCH  18  19
ENDBRANCH  17  18
ENDBRANCH  16  17
ENDBRANCH  15  16
ENDBRANCH  14  15
ENDBRANCH  13  14
ENDBRANCH   1  13
TORSDOF 20
ENDMDL
MODEL 7
REMARK VINA RESULT:    -4.118      5.307      8.784
REMARK INTER + INTRA:         -11.383
REMARK INTER:                  -7.411
REMARK INTRA:                  -3.971
REMARK UNBOUND:                -2.451
REMARK SMILES CCCCCCCCCCCCCCCCCCCCCC(=O)[O-]
REMARK SMILES IDX 12 1 11 2 10 3 9 4 8 5 7 6 6 7 5 8 4 9 3 10 2 11 1 12 13 13
REMARK SMILES IDX 14 14 15 15 16 16 17 17 18 18 19 19 20 20 21 21 22 22 23 23
REMARK SMILES IDX 24 24
REMARK H PARENT
REMARK Flexibility Score: inf
ROOT
ATOM      1  C   UNL     1      -0.326   2.491  -8.091  1.00  0.00     0.000 C 
ENDROOT
BRANCH   1   2
ATOM      2  C   UNL     1       0.359   1.394  -8.920  1.00  0.00     0.000 C 
BRANCH   2   3
ATOM      3  C   UNL     1       0.659   1.890 -10.341  1.00  0.00     0.000 C 
BRANCH   3   4
ATOM      4  C   UNL     1       0.328   0.810 -11.382  1.00  0.00    -0.000 C 
BRANCH   4   5
ATOM      5  C   UNL     1      -0.835   1.216 -12.302  1.00  0.00    -0.000 C 
BRANCH   5   6
ATOM      6  C   UNL     1      -2.165   1.357 -11.546  1.00  0.00    -0.000 C 
BRANCH   6   7
ATOM      7  C   UNL     1      -2.767   2.753 -11.756  1.00  0.00    -0.000 C 
BRANCH   7   8
ATOM      8  C   UNL     1      -1.937   3.618 -12.720  1.00  0.00    -0.000 C 
BRANCH   8   9
ATOM      9  C   UNL     1      -1.877   5.093 -12.287  1.00  0.00    -0.000 C 
BRANCH   9  10
ATOM     10  C   UNL     1      -0.451   5.674 -12.386  1.00  0.00    -0.000 C 
BRANCH  10  11
ATOM     11  C   UNL     1       0.631   4.612 -12.643  1.00  0.00    -0.003 C 
ATOM     12  C   UNL     1       1.988   4.984 -12.049  1.00  0.00     0.004 C 
ENDBRANCH  10  11
ENDBRANCH   9  10
ENDBRANCH   8   9
ENDBRANCH   7   8
ENDBRANCH   6   7
ENDBRANCH   5   6
ENDBRANCH   4   5
ENDBRANCH   3   4
ENDBRANCH   2   3
ENDBRANCH   1   2
BRANCH   1  13
ATOM     13  C   UNL     1      -0.614   3.761  -8.905  1.00  0.00     0.000 C 
BRANCH  13  14
ATOM     14  C   UNL     1      -1.968   4.401  -8.549  1.00  0.00     0.000 C 
BRANCH  14  15
ATOM     15  C   UNL     1      -1.938   5.940  -8.600  1.00  0.00     0.000 C 
BRANCH  15  16
ATOM     16  C   UNL     1      -3.116   6.599  -9.340  1.00  0.00     0.000 C 
BRANCH  16  17
ATOM     17  C   UNL     1      -4.276   5.627  -9.611  1.00  0.00     0.000 C 
BRANCH  17  18
ATOM     18  C   UNL     1      -5.308   6.197 -10.598  1.00  0.00     0.000 C 
BRANCH  18  19
ATOM     19  C   UNL     1      -5.695   5.199 -11.700  1.00  0.00     0.000 C 
BRANCH  19  20
ATOM     20  C   UNL     1      -6.560   4.064 -11.133  1.00  0.00     0.006 C 
BRANCH  20  21
ATOM     21  C   UNL     1      -6.364   2.745 -11.895  1.00  0.00     0.053 C 
BRANCH  21  22
ATOM     22  C   UNL     1      -6.529   1.556 -11.001  1.00  0.00     0.041 C 
ATOM     23  O   UNL     1      -5.896   1.488  -9.915  1.00  0.00    -0.550 OA
ATOM     24  O   UNL     1      -7.350   0.503 -11.386  1.00  0.00    -0.550 OA
ENDBRANCH  21  22
ENDBRANCH  20  21
ENDBRANCH  19  20
ENDBRANCH  18  19
ENDBRANCH  17  18
ENDBRANCH  16  17
ENDBRANCH  15  16
ENDBRANCH  14  15
ENDBRANCH  13  14
ENDBRANCH   1  13
TORSDOF 20
ENDMDL
MODEL 8
REMARK VINA RESULT:    -4.096      5.528      7.916
REMARK INTER + INTRA:         -11.336
REMARK INTER:                  -7.321
REMARK INTRA:                  -4.015
REMARK UNBOUND:                -2.451
REMARK SMILES CCCCCCCCCCCCCCCCCCCCCC(=O)[O-]
REMARK SMILES IDX 12 1 11 2 10 3 9 4 8 5 7 6 6 7 5 8 4 9 3 10 2 11 1 12 13 13
REMARK SMILES IDX 14 14 15 15 16 16 17 17 18 18 19 19 20 20 21 21 22 22 23 23
REMARK SMILES IDX 24 24
REMARK H PARENT
REMARK Flexibility Score: inf
ROOT
ATOM      1  C   UNL     1      -0.760   2.881  -8.335  1.00  0.00     0.000 C 
ENDROOT
BRANCH   1   2
ATOM      2  C   UNL     1      -0.496   4.105  -9.226  1.00  0.00     0.000 C 
BRANCH   2   3
ATOM      3  C   UNL     1      -0.858   5.403  -8.492  1.00  0.00     0.000 C 
BRANCH   3   4
ATOM      4  C   UNL     1      -2.378   5.629  -8.489  1.00  0.00    -0.000 C 
BRANCH   4   5
ATOM      5  C   UNL     1      -2.895   6.168  -9.832  1.00  0.00    -0.000 C 
BRANCH   5   6
ATOM      6  C   UNL     1      -2.155   7.436 -10.284  1.00  0.00    -0.000 C 
BRANCH   6   7
ATOM      7  C   UNL     1      -1.825   7.371 -11.782  1.00  0.00    -0.000 C 
BRANCH   7   8
ATOM      8  C   UNL     1      -1.791   5.931 -12.319  1.00  0.00    -0.000 C 
BRANCH   8   9
ATOM      9  C   UNL     1      -0.359   5.430 -12.579  1.00  0.00    -0.000 C 
BRANCH   9  10
ATOM     10  C   UNL     1       0.677   6.573 -12.533  1.00  0.00    -0.000 C 
BRANCH  10  11
ATOM     11  C   UNL     1       1.784   6.359 -11.487  1.00  0.00    -0.003 C 
ATOM     12  C   UNL     1       1.664   7.300 -10.289  1.00  0.00     0.004 C 
ENDBRANCH  10  11
ENDBRANCH   9  10
ENDBRANCH   8   9
ENDBRANCH   7   8
ENDBRANCH   6   7
ENDBRANCH   5   6
ENDBRANCH   4   5
ENDBRANCH   3   4
ENDBRANCH   2   3
ENDBRANCH   1   2
BRANCH   1  13
ATOM     13  C   UNL     1       0.188   1.710  -8.638  1.00  0.00     0.000 C 
BRANCH  13  14
ATOM     14  C   UNL     1       0.888   1.849 -10.001  1.00  0.00     0.000 C 
BRANCH  14  15
ATOM     15  C   UNL     1       0.224   1.005 -11.106  1.00  0.00     0.000 C 
BRANCH  15  16
ATOM     16  C   UNL     1      -0.174   1.778 -12.377  1.00  0.00     0.000 C 
BRANCH  16  17
ATOM     17  C   UNL     1      -1.691   1.785 -12.626  1.00  0.00     0.000 C 
BRANCH  17  18
ATOM     18  C   UNL     1      -2.503   1.573 -11.339  1.00  0.00     0.000 C 
BRANCH  18  19
ATOM     19  C   UNL     1      -3.418   2.762 -11.007  1.00  0.00     0.000 C 
BRANCH  19  20
ATOM     20  C   UNL     1      -4.223   2.494  -9.726  1.00  0.00     0.006 C 
BRANCH  20  21
ATOM     21  C   UNL     1      -5.645   1.996 -10.026  1.00  0.00     0.053 C 
BRANCH  21  22
ATOM     22  C   UNL     1      -6.680   2.801  -9.303  1.00  0.00     0.041 C 
ATOM     23  O   UNL     1      -6.442   3.247  -8.150  1.00  0.00    -0.550 OA
ATOM     24  O   UNL     1      -7.922   3.022  -9.884  1.00  0.00    -0.550 OA
ENDBRANCH  21  22
ENDBRANCH  20  21
ENDBRANCH  19  20
ENDBRANCH  18  19
ENDBRANCH  17  18
ENDBRANCH  16  17
ENDBRANCH  15  16
ENDBRANCH  14  15
ENDBRANCH  13  14
ENDBRANCH   1  13
TORSDOF 20
ENDMDL
MODEL 9
REMARK VINA RESULT:    -4.095      5.139      8.688
REMARK INTER + INTRA:         -11.333
REMARK INTER:                  -7.475
REMARK INTRA:                  -3.859
REMARK UNBOUND:                -2.451
REMARK SMILES CCCCCCCCCCCCCCCCCCCCCC(=O)[O-]
REMARK SMILES IDX 12 1 11 2 10 3 9 4 8 5 7 6 6 7 5 8 4 9 3 10 2 11 1 12 13 13
REMARK SMILES IDX 14 14 15 15 16 16 17 17 18 18 19 19 20 20 21 21 22 22 23 23
REMARK SMILES IDX 24 24
REMARK H PARENT
REMARK Flexibility Score: inf
ROOT
ATOM      1  C   UNL     1      -2.297   3.290  -9.017  1.00  0.00     0.000 C 
ENDROOT
BRANCH   1   2
ATOM      2  C   UNL     1      -1.113   3.457  -8.051  1.00  0.00     0.000 C 
BRANCH   2   3
ATOM      3  C   UNL     1      -0.135   2.282  -8.177  1.00  0.00     0.000 C 
BRANCH   3   4
ATOM      4  C   UNL     1      -0.166   1.688  -9.594  1.00  0.00    -0.000 C 
BRANCH   4   5
ATOM      5  C   UNL     1       1.196   1.782 -10.301  1.00  0.00    -0.000 C 
BRANCH   5   6
ATOM      6  C   UNL     1       1.066   1.843 -11.830  1.00  0.00    -0.000 C 
BRANCH   6   7
ATOM      7  C   UNL     1      -0.385   1.595 -12.265  1.00  0.00    -0.000 C 
BRANCH   7   8
ATOM      8  C   UNL     1      -0.941   2.726 -13.146  1.00  0.00    -0.000 C 
BRANCH   8   9
ATOM      9  C   UNL     1      -1.425   3.933 -12.324  1.00  0.00    -0.000 C 
BRANCH   9  10
ATOM     10  C   UNL     1      -0.413   5.098 -12.343  1.00  0.00    -0.000 C 
BRANCH  10  11
ATOM     11  C   UNL     1       0.241   5.369 -10.977  1.00  0.00    -0.003 C 
ATOM     12  C   UNL     1       1.417   6.340 -11.059  1.00  0.00     0.004 C 
ENDBRANCH  10  11
ENDBRANCH   9  10
ENDBRANCH   8   9
ENDBRANCH   7   8
ENDBRANCH   6   7
ENDBRANCH   5   6
ENDBRANCH   4   5
ENDBRANCH   3   4
ENDBRANCH   2   3
ENDBRANCH   1   2
BRANCH   1  13
ATOM     13  C   UNL     1      -3.387   4.353  -8.812  1.00  0.00     0.000 C 
BRANCH  13  14
ATOM     14  C   UNL     1      -3.199   5.580  -9.722  1.00  0.00     0.000 C 
BRANCH  14  15
ATOM     15  C   UNL     1      -4.527   6.268 -10.087  1.00  0.00     0.000 C 
BRANCH  15  16
ATOM     16  C   UNL     1      -5.688   5.319 -10.437  1.00  0.00     0.000 C 
BRANCH  16  17
ATOM     17  C   UNL     1      -6.284   5.585 -11.829  1.00  0.00     0.000 C 
BRANCH  17  18
ATOM     18  C   UNL     1      -6.270   4.337 -12.726  1.00  0.00     0.000 C 
BRANCH  18  19
ATOM     19  C   UNL     1      -4.894   3.653 -12.776  1.00  0.00     0.000 C 
BRANCH  19  20
ATOM     20  C   UNL     1      -5.028   2.137 -12.563  1.00  0.00     0.006 C 
BRANCH  20  21
ATOM     21  C   UNL     1      -4.660   1.717 -11.132  1.00  0.00     0.053 C 
BRANCH  21  22
ATOM     22  C   UNL     1      -5.870   1.595 -10.260  1.00  0.00     0.041 C 
ATOM     23  O   UNL     1      -7.005   1.410 -10.774  1.00  0.00    -0.550 OA
ATOM     24  O   UNL     1      -5.753   1.728  -8.882  1.00  0.00    -0.550 OA
ENDBRANCH  21  22
ENDBRANCH  20  21
ENDBRANCH  19  20
ENDBRANCH  18  19
ENDBRANCH  17  18
ENDBRANCH  16  17
ENDBRANCH  15  16
ENDBRANCH  14  15
ENDBRANCH  13  14
ENDBRANCH   1  13
TORSDOF 20
ENDMDL
