MODEL 1
REMARK VINA RESULT:    -3.765      0.000      0.000
REMARK INTER + INTRA:          -4.920
REMARK INTER:                  -4.646
REMARK INTRA:                  -0.274
REMARK UNBOUND:                -0.274
REMARK SMILES CCCCC=CC(C)=O
REMARK SMILES IDX 4 1 3 2 2 3 1 4 5 5 6 6 7 7 9 8 8 9
REMARK H PARENT
REMARK Flexibility Score: inf
ROOT
ATOM      1  C   UNL     1       7.478 -17.790  23.129  1.00  0.00     0.027 C 
ENDROOT
BRANCH   1   2
ATOM      2  C   UNL     1       6.649 -18.390  24.279  1.00  0.00     0.004 C 
BRANCH   2   3
ATOM      3  C   UNL     1       6.851 -19.904  24.474  1.00  0.00    -0.003 C 
ATOM      4  C   UNL     1       6.659 -20.701  23.184  1.00  0.00     0.004 C 
ENDBRANCH   2   3
ENDBRANCH   1   2
BRANCH   1   5
ATOM      5  C   UNL     1       7.233 -16.314  22.944  1.00  0.00    -0.023 C 
ATOM      6  C   UNL     1       7.933 -15.320  23.513  1.00  0.00     0.042 C 
BRANCH   6   7
ATOM      7  C   UNL     1       9.123 -15.467  24.383  1.00  0.00     0.152 C 
ATOM      8  O   UNL     1       9.017 -15.727  25.610  1.00  0.00    -0.295 OA
ATOM      9  C   UNL     1      10.486 -15.387  23.774  1.00  0.00     0.093 C 
ENDBRANCH   6   7
ENDBRANCH   1   5
TORSDOF 4
ENDMDL
MODEL 2
REMARK VINA RESULT:    -3.732      1.727      3.884
REMARK INTER + INTRA:          -4.878
REMARK INTER:                  -4.281
REMARK INTRA:                  -0.597
REMARK UNBOUND:                -0.274
REMARK SMILES CCCCC=CC(C)=O
REMARK SMILES IDX 4 1 3 2 2 3 1 4 5 5 6 6 7 7 9 8 8 9
REMARK H PARENT
REMARK Flexibility Score: inf
ROOT
ATOM      1  C   UNL     1       9.020 -15.150  24.415  1.00  0.00     0.027 C 
ENDROOT
BRANCH   1   2
ATOM      2  C   UNL     1      10.390 -15.511  23.815  1.00  0.00     0.004 C 
BRANCH   2   3
ATOM      3  C   UNL     1      11.074 -16.713  24.492  1.00  0.00    -0.003 C 
ATOM      4  C   UNL     1      10.400 -17.122  25.800  1.00  0.00     0.004 C 
ENDBRANCH   2   3
ENDBRANCH   1   2
BRANCH   1   5
ATOM      5  C   UNL     1       7.918 -15.142  23.386  1.00  0.00    -0.023 C 
ATOM      6  C   UNL     1       7.195 -16.204  22.995  1.00  0.00     0.042 C 
BRANCH   6   7
ATOM      7  C   UNL     1       7.288 -17.579  23.537  1.00  0.00     0.152 C 
ATOM      8  O   UNL     1       6.611 -17.945  24.534  1.00  0.00    -0.295 OA
ATOM      9  C   UNL     1       8.144 -18.584  22.835  1.00  0.00     0.093 C 
ENDBRANCH   6   7
ENDBRANCH   1   5
TORSDOF 4
ENDMDL
MODEL 3
REMARK VINA RESULT:    -3.661      1.544      1.996
REMARK INTER + INTRA:          -4.791
REMARK INTER:                  -4.259
REMARK INTRA:                  -0.531
REMARK UNBOUND:                -0.274
REMARK SMILES CCCCC=CC(C)=O
REMARK SMILES IDX 4 1 3 2 2 3 1 4 5 5 6 6 7 7 9 8 8 9
REMARK H PARENT
REMARK Flexibility Score: inf
ROOT
ATOM      1  C   UNL     1       7.816 -16.676  22.558  1.00  0.00     0.027 C 
ENDROOT
BRANCH   1   2
ATOM      2  C   UNL     1       7.610 -18.073  23.173  1.00  0.00     0.004 C 
BRANCH   2   3
ATOM      3  C   UNL     1       6.605 -18.102  24.339  1.00  0.00    -0.003 C 
ATOM      4  C   UNL     1       7.200 -18.679  25.623  1.00  0.00     0.004 C 
ENDBRANCH   2   3
ENDBRANCH   1   2
BRANCH   1   5
ATOM      5  C   UNL     1       7.863 -15.585  23.597  1.00  0.00    -0.023 C 
ATOM      6  C   UNL     1       8.926 -15.256  24.349  1.00  0.00     0.042 C 
BRANCH   6   7
ATOM      7  C   UNL     1      10.280 -15.852  24.268  1.00  0.00     0.152 C 
ATOM      8  O   UNL     1      11.152 -15.407  23.476  1.00  0.00    -0.295 OA
ATOM      9  C   UNL     1      10.648 -16.956  25.206  1.00  0.00     0.093 C 
ENDBRANCH   6   7
ENDBRANCH   1   5
TORSDOF 4
ENDMDL
MODEL 4
REMARK VINA RESULT:    -3.552      2.994      4.396
REMARK INTER + INTRA:          -4.656
REMARK INTER:                  -4.174
REMARK INTRA:                  -0.482
REMARK UNBOUND:                -0.274
REMARK SMILES CCCCC=CC(C)=O
REMARK SMILES IDX 4 1 3 2 2 3 1 4 5 5 6 6 7 7 9 8 8 9
REMARK H PARENT
REMARK Flexibility Score: inf
ROOT
ATOM      1  C   UNL     1       7.163 -20.962  21.340  1.00  0.00     0.027 C 
ENDROOT
BRANCH   1   2
ATOM      2  C   UNL     1       7.537 -22.340  20.766  1.00  0.00     0.004 C 
BRANCH   2   3
ATOM      3  C   UNL     1       8.504 -23.147  21.651  1.00  0.00    -0.003 C 
ATOM      4  C   UNL     1       9.972 -22.905  21.303  1.00  0.00     0.004 C 
ENDBRANCH   2   3
ENDBRANCH   1   2
BRANCH   1   5
ATOM      5  C   UNL     1       6.931 -20.996  22.829  1.00  0.00    -0.023 C 
ATOM      6  C   UNL     1       7.591 -20.273  23.748  1.00  0.00     0.042 C 
BRANCH   6   7
ATOM      7  C   UNL     1       8.631 -19.253  23.484  1.00  0.00     0.152 C 
ATOM      8  O   UNL     1       8.367 -18.022  23.489  1.00  0.00    -0.295 OA
ATOM      9  C   UNL     1      10.048 -19.689  23.288  1.00  0.00     0.093 C 
ENDBRANCH   6   7
ENDBRANCH   1   5
TORSDOF 4
ENDMDL
MODEL 5
REMARK VINA RESULT:    -3.536      2.023      3.142
REMARK INTER + INTRA:          -4.636
REMARK INTER:                  -4.279
REMARK INTRA:                  -0.357
REMARK UNBOUND:                -0.274
REMARK SMILES CCCCC=CC(C)=O
REMARK SMILES IDX 4 1 3 2 2 3 1 4 5 5 6 6 7 7 9 8 8 9
REMARK H PARENT
REMARK Flexibility Score: inf
ROOT
ATOM      1  C   UNL     1       7.880 -17.141  23.251  1.00  0.00     0.027 C 
ENDROOT
BRANCH   1   2
ATOM      2  C   UNL     1       7.684 -16.988  21.732  1.00  0.00     0.004 C 
BRANCH   2   3
ATOM      3  C   UNL     1       7.032 -15.657  21.314  1.00  0.00    -0.003 C 
ATOM      4  C   UNL     1       6.608 -15.637  19.846  1.00  0.00     0.004 C 
ENDBRANCH   2   3
ENDBRANCH   1   2
BRANCH   1   5
ATOM      5  C   UNL     1       8.094 -15.819  23.944  1.00  0.00    -0.023 C 
ATOM      6  C   UNL     1       9.263 -15.352  24.410  1.00  0.00     0.042 C 
BRANCH   6   7
ATOM      7  C   UNL     1      10.586 -16.006  24.283  1.00  0.00     0.152 C 
ATOM      8  O   UNL     1      10.980 -16.867  25.112  1.00  0.00    -0.295 OA
ATOM      9  C   UNL     1      11.441 -15.698  23.096  1.00  0.00     0.093 C 
ENDBRANCH   6   7
ENDBRANCH   1   5
TORSDOF 4
ENDMDL
MODEL 6
REMARK VINA RESULT:    -3.523      4.194      6.156
REMARK INTER + INTRA:          -4.621
REMARK INTER:                  -4.077
REMARK INTRA:                  -0.544
REMARK UNBOUND:                -0.274
REMARK SMILES CCCCC=CC(C)=O
REMARK SMILES IDX 4 1 3 2 2 3 1 4 5 5 6 6 7 7 9 8 8 9
REMARK H PARENT
REMARK Flexibility Score: inf
ROOT
ATOM      1  C   UNL     1       7.592 -21.467  21.567  1.00  0.00     0.027 C 
ENDROOT
BRANCH   1   2
ATOM      2  C   UNL     1       7.218 -21.062  23.004  1.00  0.00     0.004 C 
BRANCH   2   3
ATOM      3  C   UNL     1       8.198 -20.064  23.649  1.00  0.00    -0.003 C 
ATOM      4  C   UNL     1       9.165 -19.444  22.642  1.00  0.00     0.004 C 
ENDBRANCH   2   3
ENDBRANCH   1   2
BRANCH   1   5
ATOM      5  C   UNL     1       7.975 -22.921  21.455  1.00  0.00    -0.023 C 
ATOM      6  C   UNL     1       9.218 -23.399  21.281  1.00  0.00     0.042 C 
BRANCH   6   7
ATOM      7  C   UNL     1      10.467 -22.604  21.228  1.00  0.00     0.152 C 
ATOM      8  O   UNL     1      10.765 -21.907  20.222  1.00  0.00    -0.295 OA
ATOM      9  C   UNL     1      11.357 -22.562  22.428  1.00  0.00     0.093 C 
ENDBRANCH   6   7
ENDBRANCH   1   5
TORSDOF 4
ENDMDL
MODEL 7
REMARK VINA RESULT:    -3.522      2.525      4.383
REMARK INTER + INTRA:          -4.620
REMARK INTER:                  -4.320
REMARK INTRA:                  -0.300
REMARK UNBOUND:                -0.274
REMARK SMILES CCCCC=CC(C)=O
REMARK SMILES IDX 4 1 3 2 2 3 1 4 5 5 6 6 7 7 9 8 8 9
REMARK H PARENT
REMARK Flexibility Score: inf
ROOT
ATOM      1  C   UNL     1       7.442 -20.739  21.566  1.00  0.00     0.027 C 
ENDROOT
BRANCH   1   2
ATOM      2  C   UNL     1       7.655 -21.983  20.685  1.00  0.00     0.004 C 
BRANCH   2   3
ATOM      3  C   UNL     1       8.330 -23.159  21.413  1.00  0.00    -0.003 C 
ATOM      4  C   UNL     1       9.847 -23.005  21.513  1.00  0.00     0.004 C 
ENDBRANCH   2   3
ENDBRANCH   1   2
BRANCH   1   5
ATOM      5  C   UNL     1       6.912 -21.080  22.935  1.00  0.00    -0.023 C 
ATOM      6  C   UNL     1       7.073 -20.348  24.049  1.00  0.00     0.042 C 
BRANCH   6   7
ATOM      7  C   UNL     1       7.745 -19.032  24.148  1.00  0.00     0.152 C 
ATOM      8  O   UNL     1       8.998 -18.934  24.233  1.00  0.00    -0.295 OA
ATOM      9  C   UNL     1       6.925 -17.785  24.061  1.00  0.00     0.093 C 
ENDBRANCH   6   7
ENDBRANCH   1   5
TORSDOF 4
ENDMDL
MODEL 8
REMARK VINA RESULT:    -3.494      1.998      3.128
REMARK INTER + INTRA:          -4.585
REMARK INTER:                  -4.024
REMARK INTRA:                  -0.562
REMARK UNBOUND:                -0.274
REMARK SMILES CCCCC=CC(C)=O
REMARK SMILES IDX 4 1 3 2 2 3 1 4 5 5 6 6 7 7 9 8 8 9
REMARK H PARENT
REMARK Flexibility Score: inf
ROOT
ATOM      1  C   UNL     1       8.657 -15.293  24.404  1.00  0.00     0.027 C 
ENDROOT
BRANCH   1   2
ATOM      2  C   UNL     1       7.601 -15.601  23.326  1.00  0.00     0.004 C 
BRANCH   2   3
ATOM      3  C   UNL     1       7.397 -17.103  23.058  1.00  0.00    -0.003 C 
ATOM      4  C   UNL     1       7.943 -17.546  21.701  1.00  0.00     0.004 C 
ENDBRANCH   2   3
ENDBRANCH   1   2
BRANCH   1   5
ATOM      5  C   UNL     1      10.055 -15.226  23.845  1.00  0.00    -0.023 C 
ATOM      6  C   UNL     1      11.038 -16.113  24.069  1.00  0.00     0.042 C 
BRANCH   6   7
ATOM      7  C   UNL     1      10.933 -17.364  24.854  1.00  0.00     0.152 C 
ATOM      8  O   UNL     1      10.974 -17.360  26.113  1.00  0.00    -0.295 OA
ATOM      9  C   UNL     1      10.690 -18.656  24.141  1.00  0.00     0.093 C 
ENDBRANCH   6   7
ENDBRANCH   1   5
TORSDOF 4
ENDMDL
MODEL 9
REMARK VINA RESULT:    -3.413      1.347      2.251
REMARK INTER + INTRA:          -4.485
REMARK INTER:                  -4.184
REMARK INTRA:                  -0.301
REMARK UNBOUND:                -0.274
REMARK SMILES CCCCC=CC(C)=O
REMARK SMILES IDX 4 1 3 2 2 3 1 4 5 5 6 6 7 7 9 8 8 9
REMARK H PARENT
REMARK Flexibility Score: inf
ROOT
ATOM      1  C   UNL     1       7.153 -18.926  24.017  1.00  0.00     0.027 C 
ENDROOT
BRANCH   1   2
ATOM      2  C   UNL     1       6.512 -20.259  23.590  1.00  0.00     0.004 C 
BRANCH   2   3
ATOM      3  C   UNL     1       7.428 -21.150  22.732  1.00  0.00    -0.003 C 
ATOM      4  C   UNL     1       6.839 -21.460  21.357  1.00  0.00     0.004 C 
ENDBRANCH   2   3
ENDBRANCH   1   2
BRANCH   1   5
ATOM      5  C   UNL     1       8.266 -18.496  23.095  1.00  0.00    -0.023 C 
ATOM      6  C   UNL     1       8.585 -17.231  22.780  1.00  0.00     0.042 C 
BRANCH   6   7
ATOM      7  C   UNL     1       7.954 -16.004  23.317  1.00  0.00     0.152 C 
ATOM      8  O   UNL     1       8.432 -15.395  24.311  1.00  0.00    -0.295 OA
ATOM      9  C   UNL     1       6.767 -15.426  22.615  1.00  0.00     0.093 C 
ENDBRANCH   6   7
ENDBRANCH   1   5
TORSDOF 4
ENDMDL
