MODEL 1
REMARK VINA RESULT:    -4.018      0.000      0.000
REMARK INTER + INTRA:          -5.152
REMARK INTER:                  -4.957
REMARK INTRA:                  -0.195
REMARK UNBOUND:                -0.195
REMARK SMILES CCOC(=O)c1ccc(O)c(O)c1
REMARK SMILES IDX 4 1 5 2 3 3 2 4 1 5 6 6 13 7 7 8 11 9 8 10 9 11 12 12 10 14
REMARK H PARENT 12 13 10 15
REMARK Flexibility Score: inf
ROOT
ATOM      1  C   UNL     1      -4.520 -18.934  -7.872  1.00  0.00     0.338 C 
ATOM      2  O   UNL     1      -4.237 -19.992  -7.244  1.00  0.00    -0.246 OA
ENDROOT
BRANCH   1   3
ATOM      3  O   UNL     1      -3.912 -17.726  -7.517  1.00  0.00    -0.462 OA
BRANCH   3   4
ATOM      4  C   UNL     1      -3.878 -17.247  -6.176  1.00  0.00     0.230 C 
ATOM      5  C   UNL     1      -4.243 -15.771  -6.154  1.00  0.00     0.049 C 
ENDBRANCH   3   4
ENDBRANCH   1   3
BRANCH   1   6
ATOM      6  C   UNL     1      -5.494 -18.969  -8.986  1.00  0.00     0.064 A 
ATOM      7  C   UNL     1      -6.716 -18.281  -8.881  1.00  0.00     0.065 A 
ATOM      8  C   UNL     1      -5.214 -19.688 -10.162  1.00  0.00     0.020 A 
ATOM      9  C   UNL     1      -7.643 -18.310  -9.934  1.00  0.00     0.158 A 
ATOM     10  C   UNL     1      -6.138 -19.717 -11.211  1.00  0.00     0.051 A 
ATOM     11  C   UNL     1      -7.353 -19.029 -11.100  1.00  0.00     0.157 A 
BRANCH   9  12
ATOM     12  O   UNL     1      -8.853 -17.628  -9.827  1.00  0.00    -0.504 OA
ATOM     13  H   UNL     1      -9.484 -17.540 -10.616  1.00  0.00     0.293 HD
ENDBRANCH   9  12
BRANCH  11  14
ATOM     14  O   UNL     1      -8.276 -19.056 -12.143  1.00  0.00    -0.504 OA
ATOM     15  H   UNL     1      -7.995 -18.899 -13.105  1.00  0.00     0.293 HD
ENDBRANCH  11  14
ENDBRANCH   1   6
TORSDOF 5
ENDMDL
MODEL 2
REMARK VINA RESULT:    -3.663      2.131      5.389
REMARK INTER + INTRA:          -4.715
REMARK INTER:                  -4.457
REMARK INTRA:                  -0.257
REMARK UNBOUND:                -0.195
REMARK SMILES CCOC(=O)c1ccc(O)c(O)c1
REMARK SMILES IDX 4 1 5 2 3 3 2 4 1 5 6 6 13 7 7 8 11 9 8 10 9 11 12 12 10 14
REMARK H PARENT 12 13 10 15
REMARK Flexibility Score: inf
ROOT
ATOM      1  C   UNL     1      -4.278 -19.123  -8.784  1.00  0.00     0.338 C 
ATOM      2  O   UNL     1      -3.279 -19.286  -9.537  1.00  0.00    -0.246 OA
ENDROOT
BRANCH   1   3
ATOM      3  O   UNL     1      -5.429 -19.897  -8.970  1.00  0.00    -0.462 OA
BRANCH   3   4
ATOM      4  C   UNL     1      -6.626 -19.373  -9.536  1.00  0.00     0.230 C 
ATOM      5  C   UNL     1      -6.506 -19.358 -11.052  1.00  0.00     0.049 C 
ENDBRANCH   3   4
ENDBRANCH   1   3
BRANCH   1   6
ATOM      6  C   UNL     1      -4.237 -18.114  -7.703  1.00  0.00     0.064 A 
ATOM      7  C   UNL     1      -4.183 -18.518  -6.357  1.00  0.00     0.065 A 
ATOM      8  C   UNL     1      -4.251 -16.739  -8.003  1.00  0.00     0.020 A 
ATOM      9  C   UNL     1      -4.143 -17.565  -5.328  1.00  0.00     0.158 A 
ATOM     10  C   UNL     1      -4.211 -15.791  -6.977  1.00  0.00     0.051 A 
ATOM     11  C   UNL     1      -4.158 -16.200  -5.639  1.00  0.00     0.157 A 
BRANCH   9  12
ATOM     12  O   UNL     1      -4.090 -17.968  -3.995  1.00  0.00    -0.504 OA
ATOM     13  H   UNL     1      -4.712 -18.680  -3.631  1.00  0.00     0.293 HD
ENDBRANCH   9  12
BRANCH  11  14
ATOM     14  O   UNL     1      -4.118 -15.256  -4.614  1.00  0.00    -0.504 OA
ATOM     15  H   UNL     1      -3.349 -14.602  -4.524  1.00  0.00     0.293 HD
ENDBRANCH  11  14
ENDBRANCH   1   6
TORSDOF 5
ENDMDL
MODEL 3
REMARK VINA RESULT:    -3.609      1.417      2.045
REMARK INTER + INTRA:          -4.648
REMARK INTER:                  -4.515
REMARK INTRA:                  -0.133
REMARK UNBOUND:                -0.195
REMARK SMILES CCOC(=O)c1ccc(O)c(O)c1
REMARK SMILES IDX 4 1 5 2 3 3 2 4 1 5 6 6 13 7 7 8 11 9 8 10 9 11 12 12 10 14
REMARK H PARENT 12 13 10 15
REMARK Flexibility Score: inf
ROOT
ATOM      1  C   UNL     1      -4.343 -17.240  -6.953  1.00  0.00     0.338 C 
ATOM      2  O   UNL     1      -4.240 -15.982  -6.941  1.00  0.00    -0.246 OA
ENDROOT
BRANCH   1   3
ATOM      3  O   UNL     1      -3.868 -17.991  -5.872  1.00  0.00    -0.462 OA
BRANCH   3   4
ATOM      4  C   UNL     1      -3.729 -17.452  -4.562  1.00  0.00     0.230 C 
ATOM      5  C   UNL     1      -2.360 -17.809  -4.008  1.00  0.00     0.049 C 
ENDBRANCH   3   4
ENDBRANCH   1   3
BRANCH   1   6
ATOM      6  C   UNL     1      -4.964 -17.924  -8.108  1.00  0.00     0.064 A 
ATOM      7  C   UNL     1      -6.256 -17.568  -8.533  1.00  0.00     0.065 A 
ATOM      8  C   UNL     1      -4.275 -18.939  -8.798  1.00  0.00     0.020 A 
ATOM      9  C   UNL     1      -6.850 -18.213  -9.629  1.00  0.00     0.158 A 
ATOM     10  C   UNL     1      -4.867 -19.581  -9.889  1.00  0.00     0.051 A 
ATOM     11  C   UNL     1      -6.154 -19.220 -10.307  1.00  0.00     0.157 A 
BRANCH   9  12
ATOM     12  O   UNL     1      -8.131 -17.857 -10.047  1.00  0.00    -0.504 OA
ATOM     13  H   UNL     1      -8.283 -17.102 -10.706  1.00  0.00     0.293 HD
ENDBRANCH   9  12
BRANCH  11  14
ATOM     14  O   UNL     1      -6.747 -19.859 -11.395  1.00  0.00    -0.504 OA
ATOM     15  H   UNL     1      -6.261 -19.963 -12.278  1.00  0.00     0.293 HD
ENDBRANCH  11  14
ENDBRANCH   1   6
TORSDOF 5
ENDMDL
MODEL 4
REMARK VINA RESULT:    -3.604      2.103      3.428
REMARK INTER + INTRA:          -4.642
REMARK INTER:                  -4.355
REMARK INTRA:                  -0.287
REMARK UNBOUND:                -0.195
REMARK SMILES CCOC(=O)c1ccc(O)c(O)c1
REMARK SMILES IDX 4 1 5 2 3 3 2 4 1 5 6 6 13 7 7 8 11 9 8 10 9 11 12 12 10 14
REMARK H PARENT 12 13 10 15
REMARK Flexibility Score: inf
ROOT
ATOM      1  C   UNL     1      -5.200 -16.362  -6.097  1.00  0.00     0.338 C 
ATOM      2  O   UNL     1      -6.254 -15.991  -5.510  1.00  0.00    -0.246 OA
ENDROOT
BRANCH   1   3
ATOM      3  O   UNL     1      -3.952 -15.937  -5.630  1.00  0.00    -0.462 OA
BRANCH   3   4
ATOM      4  C   UNL     1      -3.493 -16.204  -4.308  1.00  0.00     0.230 C 
ATOM      5  C   UNL     1      -2.839 -17.575  -4.265  1.00  0.00     0.049 C 
ENDBRANCH   3   4
ENDBRANCH   1   3
BRANCH   1   6
ATOM      6  C   UNL     1      -5.281 -17.246  -7.280  1.00  0.00     0.064 A 
ATOM      7  C   UNL     1      -4.131 -17.901  -7.756  1.00  0.00     0.065 A 
ATOM      8  C   UNL     1      -6.504 -17.446  -7.946  1.00  0.00     0.020 A 
ATOM      9  C   UNL     1      -4.202 -18.741  -8.878  1.00  0.00     0.158 A 
ATOM     10  C   UNL     1      -6.574 -18.283  -9.063  1.00  0.00     0.051 A 
ATOM     11  C   UNL     1      -5.425 -18.932  -9.532  1.00  0.00     0.157 A 
BRANCH   9  12
ATOM     12  O   UNL     1      -3.061 -19.388  -9.347  1.00  0.00    -0.504 OA
ATOM     13  H   UNL     1      -3.046 -20.389  -9.504  1.00  0.00     0.293 HD
ENDBRANCH   9  12
BRANCH  11  14
ATOM     14  O   UNL     1      -5.491 -19.767 -10.646  1.00  0.00    -0.504 OA
ATOM     15  H   UNL     1      -6.200 -20.486 -10.728  1.00  0.00     0.293 HD
ENDBRANCH  11  14
ENDBRANCH   1   6
TORSDOF 5
ENDMDL
MODEL 5
REMARK VINA RESULT:    -3.565      2.756      5.759
REMARK INTER + INTRA:          -4.594
REMARK INTER:                  -4.303
REMARK INTRA:                  -0.291
REMARK UNBOUND:                -0.195
REMARK SMILES CCOC(=O)c1ccc(O)c(O)c1
REMARK SMILES IDX 4 1 5 2 3 3 2 4 1 5 6 6 13 7 7 8 11 9 8 10 9 11 12 12 10 14
REMARK H PARENT 12 13 10 15
REMARK Flexibility Score: inf
ROOT
ATOM      1  C   UNL     1      -6.161 -17.684  -7.723  1.00  0.00     0.338 C 
ATOM      2  O   UNL     1      -6.793 -17.128  -8.664  1.00  0.00    -0.246 OA
ENDROOT
BRANCH   1   3
ATOM      3  O   UNL     1      -5.859 -19.048  -7.793  1.00  0.00    -0.462 OA
BRANCH   3   4
ATOM      4  C   UNL     1      -5.299 -19.653  -8.954  1.00  0.00     0.230 C 
ATOM      5  C   UNL     1      -3.887 -19.132  -9.168  1.00  0.00     0.049 C 
ENDBRANCH   3   4
ENDBRANCH   1   3
BRANCH   1   6
ATOM      6  C   UNL     1      -5.740 -16.896  -6.544  1.00  0.00     0.064 A 
ATOM      7  C   UNL     1      -6.700 -16.369  -5.662  1.00  0.00     0.065 A 
ATOM      8  C   UNL     1      -4.376 -16.662  -6.287  1.00  0.00     0.020 A 
ATOM      9  C   UNL     1      -6.305 -15.621  -4.542  1.00  0.00     0.158 A 
ATOM     10  C   UNL     1      -3.983 -15.918  -5.171  1.00  0.00     0.051 A 
ATOM     11  C   UNL     1      -4.945 -15.396  -4.297  1.00  0.00     0.157 A 
BRANCH   9  12
ATOM     12  O   UNL     1      -7.259 -15.100  -3.670  1.00  0.00    -0.504 OA
ATOM     13  H   UNL     1      -7.328 -15.416  -2.710  1.00  0.00     0.293 HD
ENDBRANCH   9  12
BRANCH  11  14
ATOM     14  O   UNL     1      -4.557 -14.653  -3.184  1.00  0.00    -0.504 OA
ATOM     15  H   UNL     1      -4.598 -13.640  -3.180  1.00  0.00     0.293 HD
ENDBRANCH  11  14
ENDBRANCH   1   6
TORSDOF 5
ENDMDL
MODEL 6
REMARK VINA RESULT:    -3.557      2.405      6.116
REMARK INTER + INTRA:          -4.585
REMARK INTER:                  -4.274
REMARK INTRA:                  -0.310
REMARK UNBOUND:                -0.195
REMARK SMILES CCOC(=O)c1ccc(O)c(O)c1
REMARK SMILES IDX 4 1 5 2 3 3 2 4 1 5 6 6 13 7 7 8 11 9 8 10 9 11 12 12 10 14
REMARK H PARENT 12 13 10 15
REMARK Flexibility Score: inf
ROOT
ATOM      1  C   UNL     1      -5.363 -17.665  -7.567  1.00  0.00     0.338 C 
ATOM      2  O   UNL     1      -5.862 -16.726  -8.247  1.00  0.00    -0.246 OA
ENDROOT
BRANCH   1   3
ATOM      3  O   UNL     1      -5.587 -18.995  -7.940  1.00  0.00    -0.462 OA
BRANCH   3   4
ATOM      4  C   UNL     1      -5.184 -19.519  -9.201  1.00  0.00     0.230 C 
ATOM      5  C   UNL     1      -3.693 -19.289  -9.394  1.00  0.00     0.049 C 
ENDBRANCH   3   4
ENDBRANCH   1   3
BRANCH   1   6
ATOM      6  C   UNL     1      -4.541 -17.364  -6.374  1.00  0.00     0.064 A 
ATOM      7  C   UNL     1      -4.532 -16.069  -5.827  1.00  0.00     0.065 A 
ATOM      8  C   UNL     1      -3.757 -18.365  -5.771  1.00  0.00     0.020 A 
ATOM      9  C   UNL     1      -3.755 -15.778  -4.696  1.00  0.00     0.158 A 
ATOM     10  C   UNL     1      -2.983 -18.075  -4.644  1.00  0.00     0.051 A 
ATOM     11  C   UNL     1      -2.979 -16.782  -4.104  1.00  0.00     0.157 A 
BRANCH   9  12
ATOM     12  O   UNL     1      -3.748 -14.493  -4.156  1.00  0.00    -0.504 OA
ATOM     13  H   UNL     1      -4.609 -13.997  -3.959  1.00  0.00     0.293 HD
ENDBRANCH   9  12
BRANCH  11  14
ATOM     14  O   UNL     1      -2.209 -16.490  -2.981  1.00  0.00    -0.504 OA
ATOM     15  H   UNL     1      -1.647 -17.199  -2.523  1.00  0.00     0.293 HD
ENDBRANCH  11  14
ENDBRANCH   1   6
TORSDOF 5
ENDMDL
MODEL 7
REMARK VINA RESULT:    -3.549     14.979     16.588
REMARK INTER + INTRA:          -4.574
REMARK INTER:                  -4.419
REMARK INTRA:                  -0.155
REMARK UNBOUND:                -0.195
REMARK SMILES CCOC(=O)c1ccc(O)c(O)c1
REMARK SMILES IDX 4 1 5 2 3 3 2 4 1 5 6 6 13 7 7 8 11 9 8 10 9 11 12 12 10 14
REMARK H PARENT 12 13 10 15
REMARK Flexibility Score: inf
ROOT
ATOM      1  C   UNL     1      -4.702  -1.554  -6.176  1.00  0.00     0.338 C 
ATOM      2  O   UNL     1      -5.189  -0.513  -6.700  1.00  0.00    -0.246 OA
ENDROOT
BRANCH   1   3
ATOM      3  O   UNL     1      -3.365  -1.893  -6.407  1.00  0.00    -0.462 OA
BRANCH   3   4
ATOM      4  C   UNL     1      -2.642  -1.443  -7.548  1.00  0.00     0.230 C 
ATOM      5  C   UNL     1      -1.420  -2.323  -7.755  1.00  0.00     0.049 C 
ENDBRANCH   3   4
ENDBRANCH   1   3
BRANCH   1   6
ATOM      6  C   UNL     1      -5.544  -2.417  -5.319  1.00  0.00     0.064 A 
ATOM      7  C   UNL     1      -5.008  -3.581  -4.740  1.00  0.00     0.065 A 
ATOM      8  C   UNL     1      -6.889  -2.089  -5.069  1.00  0.00     0.020 A 
ATOM      9  C   UNL     1      -5.801  -4.403  -3.926  1.00  0.00     0.158 A 
ATOM     10  C   UNL     1      -7.679  -2.908  -4.258  1.00  0.00     0.051 A 
ATOM     11  C   UNL     1      -7.139  -4.066  -3.684  1.00  0.00     0.157 A 
BRANCH   9  12
ATOM     12  O   UNL     1      -5.267  -5.556  -3.354  1.00  0.00    -0.504 OA
ATOM     13  H   UNL     1      -5.531  -5.856  -2.422  1.00  0.00     0.293 HD
ENDBRANCH   9  12
BRANCH  11  14
ATOM     14  O   UNL     1      -7.924  -4.884  -2.875  1.00  0.00    -0.504 OA
ATOM     15  H   UNL     1      -7.873  -4.836  -1.864  1.00  0.00     0.293 HD
ENDBRANCH  11  14
ENDBRANCH   1   6
TORSDOF 5
ENDMDL
MODEL 8
REMARK VINA RESULT:    -3.490     15.207     16.853
REMARK INTER + INTRA:          -4.501
REMARK INTER:                  -4.319
REMARK INTRA:                  -0.182
REMARK UNBOUND:                -0.195
REMARK SMILES CCOC(=O)c1ccc(O)c(O)c1
REMARK SMILES IDX 4 1 5 2 3 3 2 4 1 5 6 6 13 7 7 8 11 9 8 10 9 11 12 12 10 14
REMARK H PARENT 12 13 10 15
REMARK Flexibility Score: inf
ROOT
ATOM      1  C   UNL     1      -7.380  -2.231  -5.652  1.00  0.00     0.338 C 
ATOM      2  O   UNL     1      -8.501  -2.352  -5.085  1.00  0.00    -0.246 OA
ENDROOT
BRANCH   1   3
ATOM      3  O   UNL     1      -7.308  -1.756  -6.966  1.00  0.00    -0.462 OA
BRANCH   3   4
ATOM      4  C   UNL     1      -7.186  -2.621  -8.091  1.00  0.00     0.230 C 
ATOM      5  C   UNL     1      -8.280  -2.303  -9.097  1.00  0.00     0.049 C 
ENDBRANCH   3   4
ENDBRANCH   1   3
BRANCH   1   6
ATOM      6  C   UNL     1      -6.139  -2.592  -4.931  1.00  0.00     0.064 A 
ATOM      7  C   UNL     1      -5.988  -3.875  -4.376  1.00  0.00     0.065 A 
ATOM      8  C   UNL     1      -5.094  -1.660  -4.790  1.00  0.00     0.020 A 
ATOM      9  C   UNL     1      -4.814  -4.222  -3.692  1.00  0.00     0.158 A 
ATOM     10  C   UNL     1      -3.924  -2.007  -4.109  1.00  0.00     0.051 A 
ATOM     11  C   UNL     1      -3.781  -3.287  -3.558  1.00  0.00     0.157 A 
BRANCH   9  12
ATOM     12  O   UNL     1      -4.667  -5.494  -3.143  1.00  0.00    -0.504 OA
ATOM     13  H   UNL     1      -5.408  -5.928  -2.604  1.00  0.00     0.293 HD
ENDBRANCH   9  12
BRANCH  11  14
ATOM     14  O   UNL     1      -2.616  -3.635  -2.878  1.00  0.00    -0.504 OA
ATOM     15  H   UNL     1      -1.698  -3.419  -3.252  1.00  0.00     0.293 HD
ENDBRANCH  11  14
ENDBRANCH   1   6
TORSDOF 5
ENDMDL
MODEL 9
REMARK VINA RESULT:    -3.469      2.090      5.271
REMARK INTER + INTRA:          -4.475
REMARK INTER:                  -4.197
REMARK INTRA:                  -0.278
REMARK UNBOUND:                -0.195
REMARK SMILES CCOC(=O)c1ccc(O)c(O)c1
REMARK SMILES IDX 4 1 5 2 3 3 2 4 1 5 6 6 13 7 7 8 11 9 8 10 9 11 12 12 10 14
REMARK H PARENT 12 13 10 15
REMARK Flexibility Score: inf
ROOT
ATOM      1  C   UNL     1      -7.400 -18.141  -8.794  1.00  0.00     0.338 C 
ATOM      2  O   UNL     1      -8.216 -19.005  -8.371  1.00  0.00    -0.246 OA
ENDROOT
BRANCH   1   3
ATOM      3  O   UNL     1      -7.341 -17.843 -10.160  1.00  0.00    -0.462 OA
BRANCH   3   4
ATOM      4  C   UNL     1      -7.369 -18.848 -11.169  1.00  0.00     0.230 C 
ATOM      5  C   UNL     1      -6.113 -19.700 -11.073  1.00  0.00     0.049 C 
ENDBRANCH   3   4
ENDBRANCH   1   3
BRANCH   1   6
ATOM      6  C   UNL     1      -6.503 -17.440  -7.849  1.00  0.00     0.064 A 
ATOM      7  C   UNL     1      -7.002 -16.948  -6.630  1.00  0.00     0.065 A 
ATOM      8  C   UNL     1      -5.141 -17.257  -8.153  1.00  0.00     0.020 A 
ATOM      9  C   UNL     1      -6.156 -16.283  -5.730  1.00  0.00     0.158 A 
ATOM     10  C   UNL     1      -4.299 -16.595  -7.255  1.00  0.00     0.051 A 
ATOM     11  C   UNL     1      -4.802 -16.107  -6.043  1.00  0.00     0.157 A 
BRANCH   9  12
ATOM     12  O   UNL     1      -6.653 -15.795  -4.523  1.00  0.00    -0.504 OA
ATOM     13  H   UNL     1      -6.714 -14.801  -4.338  1.00  0.00     0.293 HD
ENDBRANCH   9  12
BRANCH  11  14
ATOM     14  O   UNL     1      -3.965 -15.446  -5.147  1.00  0.00    -0.504 OA
ATOM     15  H   UNL     1      -3.743 -14.463  -5.253  1.00  0.00     0.293 HD
ENDBRANCH  11  14
ENDBRANCH   1   6
TORSDOF 5
ENDMDL
