MODEL 1
REMARK VINA RESULT:    20.904      0.000      0.000
REMARK INTER + INTRA:          29.664
REMARK INTER:                  28.237
REMARK INTRA:                   1.427
REMARK UNBOUND:                 1.427
REMARK SMILES CC(C)=CCC[C@H](C(=O)[O-])[C@H]1[C@@H](O)C[C@]2(C)C3=CC[C@H]4C(C)(C)[C@@H](O)CC[C@@]4(C)C3=CC[C@@]12C
REMARK SMILES IDX 6 1 7 2 8 3 9 4 10 5 11 6 12 7 33 8 14 9 15 10 32 11 34 12
REMARK SMILES IDX 16 13 17 14 31 15 30 16 18 17 28 18 19 19 20 20 27 21 29 22
REMARK SMILES IDX 21 23 26 24 24 25 22 26 23 27 13 28 25 30 5 32 4 33 2 34
REMARK SMILES IDX 1 35 3 36
REMARK H PARENT 13 29 25 31
REMARK Flexibility Score: inf
ROOT
ATOM      1  C   UNL     1      52.200 -59.542 319.312  1.00  0.00     0.014 C 
ENDROOT
BRANCH   1   2
ATOM      2  C   UNL     1      51.371 -58.942 320.485  1.00  0.00     0.042 C 
BRANCH   2   3
ATOM      3  C   UNL     1      50.222 -59.841 320.890  1.00  0.00     0.045 C 
ATOM      4  O   UNL     1      49.745 -59.806 322.056  1.00  0.00    -0.550 OA
ATOM      5  O   UNL     1      49.701 -60.744 319.973  1.00  0.00    -0.550 OA
ENDBRANCH   2   3
BRANCH   2   6
ATOM      6  C   UNL     1      50.880 -57.447 320.388  1.00  0.00     0.034 C 
ATOM      7  C   UNL     1      51.926 -56.347 320.015  1.00  0.00     0.119 C 
ATOM      8  C   UNL     1      49.577 -57.043 319.605  1.00  0.00    -0.014 C 
ATOM      9  C   UNL     1      51.243 -55.402 318.993  1.00  0.00     0.044 C 
ATOM     10  C   UNL     1      50.098 -56.229 318.380  1.00  0.00     0.001 C 
ATOM     11  C   UNL     1      48.591 -58.122 319.094  1.00  0.00     0.035 C 
ATOM     12  C   UNL     1      48.747 -56.138 320.599  1.00  0.00     0.013 C 
ATOM     13  C   UNL     1      50.705 -57.070 317.222  1.00  0.00     0.017 C 
ATOM     14  C   UNL     1      48.906 -55.497 317.776  1.00  0.00    -0.042 C 
ATOM     15  C   UNL     1      47.521 -57.503 318.203  1.00  0.00    -0.022 C 
ATOM     16  C   UNL     1      47.640 -56.291 317.585  1.00  0.00    -0.042 C 
ATOM     17  C   UNL     1      48.990 -54.229 317.361  1.00  0.00    -0.022 C 
ATOM     18  C   UNL     1      46.427 -55.658 316.868  1.00  0.00    -0.004 C 
ATOM     19  C   UNL     1      47.774 -53.476 316.929  1.00  0.00     0.032 C 
ATOM     20  C   UNL     1      46.818 -54.345 316.072  1.00  0.00     0.011 C 
ATOM     21  C   UNL     1      45.747 -56.652 315.891  1.00  0.00     0.014 C 
ATOM     22  C   UNL     1      45.384 -55.305 317.964  1.00  0.00     0.017 C 
ATOM     23  C   UNL     1      47.249 -54.568 314.545  1.00  0.00    -0.005 C 
ATOM     24  C   UNL     1      46.647 -57.100 314.731  1.00  0.00     0.033 C 
ATOM     25  C   UNL     1      47.675 -56.044 314.263  1.00  0.00     0.120 C 
ATOM     26  C   UNL     1      46.062 -54.209 313.607  1.00  0.00     0.014 C 
ATOM     27  C   UNL     1      48.413 -53.641 314.093  1.00  0.00     0.014 C 
BRANCH   7  28
ATOM     28  O   UNL     1      53.105 -56.890 319.483  1.00  0.00    -0.393 OA
ATOM     29  H   UNL     1      53.799 -56.816 320.189  1.00  0.00     0.210 HD
ENDBRANCH   7  28
BRANCH  25  30
ATOM     30  O   UNL     1      48.924 -56.301 314.850  1.00  0.00    -0.393 OA
ATOM     31  H   UNL     1      49.595 -56.322 314.119  1.00  0.00     0.210 HD
ENDBRANCH  25  30
ENDBRANCH   2   6
ENDBRANCH   1   2
BRANCH   1  32
ATOM     32  C   UNL     1      51.973 -61.055 319.155  1.00  0.00     0.028 C 
BRANCH  32  33
ATOM     33  C   UNL     1      51.879 -61.433 317.695  1.00  0.00    -0.028 C 
ATOM     34  C   UNL     1      52.931 -61.781 316.918  1.00  0.00    -0.080 C 
ATOM     35  C   UNL     1      54.342 -61.826 317.451  1.00  0.00     0.039 C 
ATOM     36  C   UNL     1      52.675 -62.125 315.475  1.00  0.00     0.039 C 
ENDBRANCH  32  33
ENDBRANCH   1  32
TORSDOF 7
ENDMDL
