MODEL 1
REMARK VINA RESULT:    -3.349      0.000      0.000
REMARK INTER + INTRA:          -2.887
REMARK INTER:                  -4.132
REMARK INTRA:                   1.245
REMARK UNBOUND:                 1.245
REMARK SMILES C=C1[C@@H]2CC[C@H]3[C@@H]2C(C)(C)CCC[C@@]13C
REMARK SMILES IDX 14 1 6 2 7 3 3 4 2 5 1 6 4 7 5 8 15 9 8 10 9 11 10 12 11 13
REMARK SMILES IDX 13 15 12 16
REMARK H PARENT
REMARK Flexibility Score: 80.00
ROOT
ATOM      1  C   UNL     1     137.595 136.229 122.717  1.00  0.00    -0.008 C 
ATOM      2  C   UNL     1     136.145 136.137 123.309  1.00  0.00     0.003 C 
ATOM      3  C   UNL     1     136.123 137.226 124.388  1.00  0.00     0.006 C 
ATOM      4  C   UNL     1     137.363 136.687 125.105  1.00  0.00     0.019 C 
ATOM      5  C   UNL     1     138.354 136.565 123.975  1.00  0.00    -0.068 C 
ATOM      6  C   UNL     1     139.683 136.671 124.096  1.00  0.00     0.009 C 
ATOM      7  C   UNL     1     136.911 135.250 125.433  1.00  0.00     0.008 C 
ATOM      8  C   UNL     1     136.009 134.891 124.228  1.00  0.00     0.005 C 
ATOM      9  C   UNL     1     138.088 134.885 122.118  1.00  0.00     0.016 C 
ENDROOT
BRANCH   3  10
ATOM     10  C   UNL     1     136.104 138.745 123.967  1.00  0.00    -0.032 C 
ATOM     11  C   UNL     1     134.942 139.015 122.983  1.00  0.00     0.011 C 
ATOM     12  C   UNL     1     135.812 139.573 125.247  1.00  0.00     0.011 C 
BRANCH  10  13
ATOM     13  C   UNL     1     137.442 139.283 123.390  1.00  0.00     0.007 CG0
ATOM     14  G   UNL     1     137.883 138.774 122.007  1.00  0.00     0.000 G0
ENDBRANCH  10  13
ENDBRANCH   3  10
BRANCH   1  15
ATOM     15  C   UNL     1     137.668 137.322 121.607  1.00  0.00     0.011 C 
BRANCH  15  16
ATOM     16  C   UNL     1     137.912 138.796 121.998  1.00  0.00     0.001 CG0
ATOM     17  G   UNL     1     137.446 139.305 123.373  1.00  0.00     0.000 G0
ENDBRANCH  15  16
ENDBRANCH   1  15
TORSDOF 0
ENDMDL
MODEL 2
REMARK VINA RESULT:    -2.084      1.742      3.674
REMARK INTER + INTRA:          -1.327
REMARK INTER:                  -2.806
REMARK INTRA:                   1.479
REMARK UNBOUND:                 1.245
REMARK SMILES C=C1[C@@H]2CC[C@H]3[C@@H]2C(C)(C)CCC[C@@]13C
REMARK SMILES IDX 14 1 6 2 7 3 3 4 2 5 1 6 4 7 5 8 15 9 8 10 9 11 10 12 11 13
REMARK SMILES IDX 13 15 12 16
REMARK H PARENT
REMARK Flexibility Score: 80.00
ROOT
ATOM      1  C   UNL     1     136.699 135.990 123.166  1.00  0.00    -0.008 C 
ATOM      2  C   UNL     1     137.435 137.371 123.062  1.00  0.00     0.003 C 
ATOM      3  C   UNL     1     138.424 137.345 124.232  1.00  0.00     0.006 C 
ATOM      4  C   UNL     1     137.346 137.040 125.274  1.00  0.00     0.019 C 
ATOM      5  C   UNL     1     136.646 135.851 124.666  1.00  0.00    -0.068 C 
ATOM      6  C   UNL     1     136.028 134.881 125.352  1.00  0.00     0.009 C 
ATOM      7  C   UNL     1     136.398 138.240 125.076  1.00  0.00     0.008 C 
ATOM      8  C   UNL     1     136.512 138.519 123.558  1.00  0.00     0.005 C 
ATOM      9  C   UNL     1     135.268 136.021 122.564  1.00  0.00     0.016 C 
ENDROOT
BRANCH   3  10
ATOM     10  C   UNL     1     139.689 136.406 124.168  1.00  0.00    -0.032 C 
ATOM     11  C   UNL     1     140.919 137.118 124.778  1.00  0.00     0.011 C 
ATOM     12  C   UNL     1     139.392 135.174 125.062  1.00  0.00     0.011 C 
BRANCH  10  13
ATOM     13  C   UNL     1     140.025 135.855 122.755  1.00  0.00     0.007 CG0
ATOM     14  G   UNL     1     138.883 135.226 121.939  1.00  0.00     0.000 G0
ENDBRANCH  10  13
ENDBRANCH   3  10
BRANCH   1  15
ATOM     15  C   UNL     1     137.516 134.875 122.443  1.00  0.00     0.011 C 
BRANCH  15  16
ATOM     16  C   UNL     1     138.911 135.200 121.864  1.00  0.00     0.001 CG0
ATOM     17  G   UNL     1     139.981 135.831 122.770  1.00  0.00     0.000 G0
ENDBRANCH  15  16
ENDBRANCH   1  15
TORSDOF 0
ENDMDL
MODEL 3
REMARK VINA RESULT:    -1.619      1.737      3.588
REMARK INTER + INTRA:          -0.752
REMARK INTER:                  -2.241
REMARK INTRA:                   1.488
REMARK UNBOUND:                 1.245
REMARK SMILES C=C1[C@@H]2CC[C@H]3[C@@H]2C(C)(C)CCC[C@@]13C
REMARK SMILES IDX 14 1 6 2 7 3 3 4 2 5 1 6 4 7 5 8 15 9 8 10 9 11 10 12 11 13
REMARK SMILES IDX 13 15 12 16
REMARK H PARENT
REMARK Flexibility Score: 80.00
ROOT
ATOM      1  C   UNL     1     137.826 136.903 122.332  1.00  0.00    -0.008 C 
ATOM      2  C   UNL     1     137.870 138.001 123.451  1.00  0.00     0.003 C 
ATOM      3  C   UNL     1     137.085 137.371 124.608  1.00  0.00     0.006 C 
ATOM      4  C   UNL     1     135.848 137.087 123.753  1.00  0.00     0.019 C 
ATOM      5  C   UNL     1     136.441 136.360 122.572  1.00  0.00    -0.068 C 
ATOM      6  C   UNL     1     135.808 135.441 121.831  1.00  0.00     0.009 C 
ATOM      7  C   UNL     1     135.504 138.504 123.253  1.00  0.00     0.008 C 
ATOM      8  C   UNL     1     136.897 139.165 123.111  1.00  0.00     0.005 C 
ATOM      9  C   UNL     1     137.945 137.495 120.901  1.00  0.00     0.016 C 
ENDROOT
BRANCH   3  10
ATOM     10  C   UNL     1     137.718 136.183 125.428  1.00  0.00    -0.032 C 
ATOM     11  C   UNL     1     137.380 136.326 126.930  1.00  0.00     0.011 C 
ATOM     12  C   UNL     1     137.042 134.875 124.936  1.00  0.00     0.011 C 
BRANCH  10  13
ATOM     13  C   UNL     1     139.246 135.990 125.230  1.00  0.00     0.007 CG0
ATOM     14  G   UNL     1     139.784 135.950 123.789  1.00  0.00     0.000 G0
ENDBRANCH  10  13
ENDBRANCH   3  10
BRANCH   1  15
ATOM     15  C   UNL     1     138.971 135.864 122.534  1.00  0.00     0.011 C 
BRANCH  15  16
ATOM     16  C   UNL     1     139.863 135.942 123.793  1.00  0.00     0.001 CG0
ATOM     17  G   UNL     1     139.211 135.992 125.185  1.00  0.00     0.000 G0
ENDBRANCH  15  16
ENDBRANCH   1  15
TORSDOF 0
ENDMDL
