MODEL 1
REMARK VINA RESULT:    -2.877      0.000      0.000
REMARK INTER + INTRA:          -3.056
REMARK INTER:                  -3.045
REMARK INTRA:                  -0.011
REMARK UNBOUND:                -0.011
REMARK SMILES O=Cc1ccco1
REMARK SMILES IDX 5 1 6 2 7 3 3 4 4 5 2 6 1 7
REMARK H PARENT
REMARK Flexibility Score: inf
ROOT
ATOM      1  C   UNL     1      -1.605   0.669   6.465  1.00  0.00     0.043 A 
ATOM      2  C   UNL     1      -2.421   1.760   6.687  1.00  0.00     0.196 A 
ATOM      3  O   UNL     1      -1.802   2.628   7.454  1.00  0.00    -0.462 OA
ATOM      4  C   UNL     1      -0.612   2.154   7.745  1.00  0.00     0.166 A 
ATOM      5  C   UNL     1      -0.434   0.921   7.148  1.00  0.00     0.054 A 
ENDROOT
BRANCH   4   6
ATOM      6  C   UNL     1       0.361   2.857   8.585  1.00  0.00     0.298 C 
ATOM      7  O   UNL     1       1.142   3.708   8.087  1.00  0.00    -0.294 OA
ENDBRANCH   4   6
TORSDOF 1
ENDMDL
MODEL 2
REMARK VINA RESULT:    -2.871     11.414     11.936
REMARK INTER + INTRA:          -3.050
REMARK INTER:                  -3.040
REMARK INTRA:                  -0.010
REMARK UNBOUND:                -0.011
REMARK SMILES O=Cc1ccco1
REMARK SMILES IDX 5 1 6 2 7 3 3 4 4 5 2 6 1 7
REMARK H PARENT
REMARK Flexibility Score: inf
ROOT
ATOM      1  C   UNL     1       3.477   2.131  -4.078  1.00  0.00     0.043 A 
ATOM      2  C   UNL     1       3.072   1.098  -3.258  1.00  0.00     0.196 A 
ATOM      3  O   UNL     1       1.760   1.038  -3.234  1.00  0.00    -0.462 OA
ATOM      4  C   UNL     1       1.285   1.989  -4.005  1.00  0.00     0.166 A 
ATOM      5  C   UNL     1       2.323   2.709  -4.564  1.00  0.00     0.054 A 
ENDROOT
BRANCH   4   6
ATOM      6  C   UNL     1      -0.145   2.224  -4.220  1.00  0.00     0.298 C 
ATOM      7  O   UNL     1      -0.693   3.276  -3.799  1.00  0.00    -0.294 OA
ENDBRANCH   4   6
TORSDOF 1
ENDMDL
MODEL 3
REMARK VINA RESULT:    -2.846     11.643     11.816
REMARK INTER + INTRA:          -3.023
REMARK INTER:                  -3.013
REMARK INTRA:                  -0.010
REMARK UNBOUND:                -0.011
REMARK SMILES O=Cc1ccco1
REMARK SMILES IDX 5 1 6 2 7 3 3 4 4 5 2 6 1 7
REMARK H PARENT
REMARK Flexibility Score: inf
ROOT
ATOM      1  C   UNL     1      -1.733   3.072  -4.727  1.00  0.00     0.043 A 
ATOM      2  C   UNL     1      -1.078   4.180  -4.230  1.00  0.00     0.196 A 
ATOM      3  O   UNL     1       0.170   3.872  -3.957  1.00  0.00    -0.462 OA
ATOM      4  C   UNL     1       0.363   2.608  -4.255  1.00  0.00     0.166 A 
ATOM      5  C   UNL     1      -0.804   2.053  -4.745  1.00  0.00     0.054 A 
ENDROOT
BRANCH   4   6
ATOM      6  C   UNL     1       1.643   1.917  -4.081  1.00  0.00     0.298 C 
ATOM      7  O   UNL     1       1.817   1.118  -3.124  1.00  0.00    -0.294 OA
ENDBRANCH   4   6
TORSDOF 1
ENDMDL
MODEL 4
REMARK VINA RESULT:    -2.815      1.180      3.326
REMARK INTER + INTRA:          -2.990
REMARK INTER:                  -2.979
REMARK INTRA:                  -0.011
REMARK UNBOUND:                -0.011
REMARK SMILES O=Cc1ccco1
REMARK SMILES IDX 5 1 6 2 7 3 3 4 4 5 2 6 1 7
REMARK H PARENT
REMARK Flexibility Score: inf
ROOT
ATOM      1  C   UNL     1       0.004   3.082   9.982  1.00  0.00     0.043 A 
ATOM      2  C   UNL     1       0.816   3.370   8.904  1.00  0.00     0.196 A 
ATOM      3  O   UNL     1       0.247   2.954   7.796  1.00  0.00    -0.462 OA
ATOM      4  C   UNL     1      -0.907   2.406   8.100  1.00  0.00     0.166 A 
ATOM      5  C   UNL     1      -1.112   2.459   9.465  1.00  0.00     0.054 A 
ENDROOT
BRANCH   4   6
ATOM      6  C   UNL     1      -1.820   1.830   7.110  1.00  0.00     0.298 C 
ATOM      7  O   UNL     1      -2.559   2.570   6.410  1.00  0.00    -0.294 OA
ENDBRANCH   4   6
TORSDOF 1
ENDMDL
MODEL 5
REMARK VINA RESULT:    -2.681     11.473     11.880
REMARK INTER + INTRA:          -2.848
REMARK INTER:                  -2.834
REMARK INTRA:                  -0.015
REMARK UNBOUND:                -0.011
REMARK SMILES O=Cc1ccco1
REMARK SMILES IDX 5 1 6 2 7 3 3 4 4 5 2 6 1 7
REMARK H PARENT
REMARK Flexibility Score: inf
ROOT
ATOM      1  C   UNL     1       0.284   2.624  -5.201  1.00  0.00     0.043 A 
ATOM      2  C   UNL     1       0.002   1.881  -4.073  1.00  0.00     0.196 A 
ATOM      3  O   UNL     1       1.119   1.579  -3.450  1.00  0.00    -0.462 OA
ATOM      4  C   UNL     1       2.123   2.094  -4.121  1.00  0.00     0.166 A 
ATOM      5  C   UNL     1       1.656   2.764  -5.235  1.00  0.00     0.054 A 
ENDROOT
BRANCH   4   6
ATOM      6  C   UNL     1       3.525   1.958  -3.719  1.00  0.00     0.298 C 
ATOM      7  O   UNL     1       3.843   1.914  -2.502  1.00  0.00    -0.294 OA
ENDBRANCH   4   6
TORSDOF 1
ENDMDL
MODEL 6
REMARK VINA RESULT:    -2.597      1.485      3.149
REMARK INTER + INTRA:          -2.759
REMARK INTER:                  -2.746
REMARK INTRA:                  -0.013
REMARK UNBOUND:                -0.011
REMARK SMILES O=Cc1ccco1
REMARK SMILES IDX 5 1 6 2 7 3 3 4 4 5 2 6 1 7
REMARK H PARENT
REMARK Flexibility Score: inf
ROOT
ATOM      1  C   UNL     1      -0.569   2.613   9.652  1.00  0.00     0.043 A 
ATOM      2  C   UNL     1       0.445   2.991   8.797  1.00  0.00     0.196 A 
ATOM      3  O   UNL     1       0.168   2.595   7.576  1.00  0.00    -0.462 OA
ATOM      4  C   UNL     1      -0.988   1.972   7.592  1.00  0.00     0.166 A 
ATOM      5  C   UNL     1      -1.499   1.953   8.875  1.00  0.00     0.054 A 
ENDROOT
BRANCH   4   6
ATOM      6  C   UNL     1      -1.616   1.392   6.403  1.00  0.00     0.298 C 
ATOM      7  O   UNL     1      -0.986   0.583   5.673  1.00  0.00    -0.294 OA
ENDBRANCH   4   6
TORSDOF 1
ENDMDL
MODEL 7
REMARK VINA RESULT:    -2.561      2.252      2.999
REMARK INTER + INTRA:          -2.721
REMARK INTER:                  -2.711
REMARK INTRA:                  -0.010
REMARK UNBOUND:                -0.011
REMARK SMILES O=Cc1ccco1
REMARK SMILES IDX 5 1 6 2 7 3 3 4 4 5 2 6 1 7
REMARK H PARENT
REMARK Flexibility Score: inf
ROOT
ATOM      1  C   UNL     1      -3.795   1.487   7.768  1.00  0.00     0.043 A 
ATOM      2  C   UNL     1      -3.349   2.676   7.228  1.00  0.00     0.196 A 
ATOM      3  O   UNL     1      -2.254   2.465   6.533  1.00  0.00    -0.462 OA
ATOM      4  C   UNL     1      -1.963   1.186   6.594  1.00  0.00     0.166 A 
ATOM      5  C   UNL     1      -2.901   0.521   7.359  1.00  0.00     0.054 A 
ENDROOT
BRANCH   4   6
ATOM      6  C   UNL     1      -0.802   0.585   5.933  1.00  0.00     0.298 C 
ATOM      7  O   UNL     1      -0.930  -0.029   4.841  1.00  0.00    -0.294 OA
ENDBRANCH   4   6
TORSDOF 1
ENDMDL
MODEL 8
REMARK VINA RESULT:    -2.551      2.072      2.431
REMARK INTER + INTRA:          -2.711
REMARK INTER:                  -2.695
REMARK INTRA:                  -0.016
REMARK UNBOUND:                -0.011
REMARK SMILES O=Cc1ccco1
REMARK SMILES IDX 5 1 6 2 7 3 3 4 4 5 2 6 1 7
REMARK H PARENT
REMARK Flexibility Score: inf
ROOT
ATOM      1  C   UNL     1      -0.337  -0.402   9.449  1.00  0.00     0.043 A 
ATOM      2  C   UNL     1      -0.020  -0.322   8.108  1.00  0.00     0.196 A 
ATOM      3  O   UNL     1       0.278   0.918   7.796  1.00  0.00    -0.462 OA
ATOM      4  C   UNL     1       0.171   1.658   8.875  1.00  0.00     0.166 A 
ATOM      5  C   UNL     1      -0.214   0.878   9.948  1.00  0.00     0.054 A 
ENDROOT
BRANCH   4   6
ATOM      6  C   UNL     1       0.429   3.100   8.902  1.00  0.00     0.298 C 
ATOM      7  O   UNL     1       1.021   3.664   7.946  1.00  0.00    -0.294 OA
ENDBRANCH   4   6
TORSDOF 1
ENDMDL
MODEL 9
REMARK VINA RESULT:    -2.461      1.819      2.372
REMARK INTER + INTRA:          -2.615
REMARK INTER:                  -2.603
REMARK INTRA:                  -0.013
REMARK UNBOUND:                -0.011
REMARK SMILES O=Cc1ccco1
REMARK SMILES IDX 5 1 6 2 7 3 3 4 4 5 2 6 1 7
REMARK H PARENT
REMARK Flexibility Score: inf
ROOT
ATOM      1  C   UNL     1      -0.598  -0.975   6.142  1.00  0.00     0.043 A 
ATOM      2  C   UNL     1       0.468  -1.113   7.008  1.00  0.00     0.196 A 
ATOM      3  O   UNL     1       0.609  -0.014   7.715  1.00  0.00    -0.462 OA
ATOM      4  C   UNL     1      -0.319   0.839   7.349  1.00  0.00     0.166 A 
ATOM      5  C   UNL     1      -1.110   0.287   6.361  1.00  0.00     0.054 A 
ENDROOT
BRANCH   4   6
ATOM      6  C   UNL     1      -0.467   2.177   7.928  1.00  0.00     0.298 C 
ATOM      7  O   UNL     1       0.472   3.012   7.864  1.00  0.00    -0.294 OA
ENDBRANCH   4   6
TORSDOF 1
ENDMDL
