MODEL 1
REMARK VINA RESULT:    -5.656      0.000      0.000
REMARK INTER + INTRA:          -9.428
REMARK INTER:                  -8.632
REMARK INTRA:                  -0.796
REMARK UNBOUND:                -0.796
REMARK SMILES CCCCCCCCCCC(=O)[O-]
REMARK SMILES IDX 7 1 8 2 9 3 10 4 11 5 12 6 13 7 6 8 5 9 4 10 3 11 2 12 1 13
REMARK H PARENT
REMARK Flexibility Score: inf
ROOT
ATOM      1  C   UNL     1      28.479  -8.606  21.822  1.00  0.00     0.000 C 
ENDROOT
BRANCH   1   2
ATOM      2  C   UNL     1      27.704  -7.604  20.950  1.00  0.00     0.000 C 
BRANCH   2   3
ATOM      3  C   UNL     1      27.695  -7.920  19.440  1.00  0.00     0.006 C 
BRANCH   3   4
ATOM      4  C   UNL     1      26.338  -8.391  18.895  1.00  0.00     0.053 C 
BRANCH   4   5
ATOM      5  C   UNL     1      25.240  -7.422  19.207  1.00  0.00     0.041 C 
ATOM      6  O   UNL     1      25.286  -6.246  18.756  1.00  0.00    -0.550 OA
ATOM      7  O   UNL     1      24.183  -7.804  20.024  1.00  0.00    -0.550 OA
ENDBRANCH   4   5
ENDBRANCH   3   4
ENDBRANCH   2   3
ENDBRANCH   1   2
BRANCH   1   8
ATOM      8  C   UNL     1      28.939  -9.847  21.044  1.00  0.00     0.000 C 
BRANCH   8   9
ATOM      9  C   UNL     1      28.180 -11.098  21.505  1.00  0.00    -0.000 C 
BRANCH   9  10
ATOM     10  C   UNL     1      27.933 -12.056  20.333  1.00  0.00    -0.000 C 
BRANCH  10  11
ATOM     11  C   UNL     1      26.554 -11.808  19.701  1.00  0.00    -0.000 C 
BRANCH  11  12
ATOM     12  C   UNL     1      26.373 -12.552  18.370  1.00  0.00    -0.003 C 
ATOM     13  C   UNL     1      27.189 -13.843  18.298  1.00  0.00     0.004 C 
ENDBRANCH  11  12
ENDBRANCH  10  11
ENDBRANCH   9  10
ENDBRANCH   8   9
ENDBRANCH   1   8
TORSDOF 9
ENDMDL
MODEL 2
REMARK VINA RESULT:    -5.466      1.549      2.050
REMARK INTER + INTRA:          -9.138
REMARK INTER:                  -8.561
REMARK INTRA:                  -0.577
REMARK UNBOUND:                -0.796
REMARK SMILES CCCCCCCCCCC(=O)[O-]
REMARK SMILES IDX 7 1 8 2 9 3 10 4 11 5 12 6 13 7 6 8 5 9 4 10 3 11 2 12 1 13
REMARK H PARENT
REMARK Flexibility Score: inf
ROOT
ATOM      1  C   UNL     1      28.488  -8.745  20.377  1.00  0.00     0.000 C 
ENDROOT
BRANCH   1   2
ATOM      2  C   UNL     1      27.534  -7.652  20.891  1.00  0.00     0.000 C 
BRANCH   2   3
ATOM      3  C   UNL     1      26.232  -7.486  20.080  1.00  0.00     0.006 C 
BRANCH   3   4
ATOM      4  C   UNL     1      26.411  -6.793  18.721  1.00  0.00     0.053 C 
BRANCH   4   5
ATOM      5  C   UNL     1      26.958  -5.406  18.865  1.00  0.00     0.041 C 
ATOM      6  O   UNL     1      26.436  -4.601  19.681  1.00  0.00    -0.550 OA
ATOM      7  O   UNL     1      28.021  -4.991  18.073  1.00  0.00    -0.550 OA
ENDBRANCH   4   5
ENDBRANCH   3   4
ENDBRANCH   2   3
ENDBRANCH   1   2
BRANCH   1   8
ATOM      8  C   UNL     1      28.982  -9.680  21.490  1.00  0.00     0.000 C 
BRANCH   8   9
ATOM      9  C   UNL     1      27.972 -10.803  21.753  1.00  0.00    -0.000 C 
BRANCH   9  10
ATOM     10  C   UNL     1      27.405 -11.354  20.438  1.00  0.00    -0.000 C 
BRANCH  10  11
ATOM     11  C   UNL     1      28.034 -12.714  20.096  1.00  0.00    -0.000 C 
BRANCH  11  12
ATOM     12  C   UNL     1      27.211 -13.501  19.066  1.00  0.00    -0.003 C 
ATOM     13  C   UNL     1      26.352 -12.599  18.180  1.00  0.00     0.004 C 
ENDBRANCH  11  12
ENDBRANCH  10  11
ENDBRANCH   9  10
ENDBRANCH   8   9
ENDBRANCH   1   8
TORSDOF 9
ENDMDL
MODEL 3
REMARK VINA RESULT:    -5.461      5.536      6.559
REMARK INTER + INTRA:          -9.130
REMARK INTER:                  -8.737
REMARK INTRA:                  -0.393
REMARK UNBOUND:                -0.796
REMARK SMILES CCCCCCCCCCC(=O)[O-]
REMARK SMILES IDX 7 1 8 2 9 3 10 4 11 5 12 6 13 7 6 8 5 9 4 10 3 11 2 12 1 13
REMARK H PARENT
REMARK Flexibility Score: inf
ROOT
ATOM      1  C   UNL     1      31.645  -8.967  21.771  1.00  0.00     0.000 C 
ENDROOT
BRANCH   1   2
ATOM      2  C   UNL     1      31.907  -9.346  20.303  1.00  0.00     0.000 C 
BRANCH   2   3
ATOM      3  C   UNL     1      33.392  -9.358  19.886  1.00  0.00     0.006 C 
BRANCH   3   4
ATOM      4  C   UNL     1      34.361  -8.841  20.960  1.00  0.00     0.053 C 
BRANCH   4   5
ATOM      5  C   UNL     1      35.622  -9.646  21.014  1.00  0.00     0.041 C 
ATOM      6  O   UNL     1      36.542  -9.328  21.814  1.00  0.00    -0.550 OA
ATOM      7  O   UNL     1      35.798 -10.725  20.157  1.00  0.00    -0.550 OA
ENDBRANCH   4   5
ENDBRANCH   3   4
ENDBRANCH   2   3
ENDBRANCH   1   2
BRANCH   1   8
ATOM      8  C   UNL     1      30.152  -8.958  22.129  1.00  0.00     0.000 C 
BRANCH   8   9
ATOM      9  C   UNL     1      29.324  -9.668  21.051  1.00  0.00    -0.000 C 
BRANCH   9  10
ATOM     10  C   UNL     1      28.362 -10.686  21.676  1.00  0.00    -0.000 C 
BRANCH  10  11
ATOM     11  C   UNL     1      27.479 -11.340  20.602  1.00  0.00    -0.000 C 
BRANCH  11  12
ATOM     12  C   UNL     1      28.044 -12.680  20.110  1.00  0.00    -0.003 C 
ATOM     13  C   UNL     1      27.144 -13.358  19.076  1.00  0.00     0.004 C 
ENDBRANCH  11  12
ENDBRANCH  10  11
ENDBRANCH   9  10
ENDBRANCH   8   9
ENDBRANCH   1   8
TORSDOF 9
ENDMDL
MODEL 4
REMARK VINA RESULT:    -5.447      2.007      2.498
REMARK INTER + INTRA:          -9.109
REMARK INTER:                  -8.672
REMARK INTRA:                  -0.437
REMARK UNBOUND:                -0.796
REMARK SMILES CCCCCCCCCCC(=O)[O-]
REMARK SMILES IDX 7 1 8 2 9 3 10 4 11 5 12 6 13 7 6 8 5 9 4 10 3 11 2 12 1 13
REMARK H PARENT
REMARK Flexibility Score: inf
ROOT
ATOM      1  C   UNL     1      27.044  -8.520  20.586  1.00  0.00     0.000 C 
ENDROOT
BRANCH   1   2
ATOM      2  C   UNL     1      26.755  -8.073  19.142  1.00  0.00     0.000 C 
BRANCH   2   3
ATOM      3  C   UNL     1      27.399  -6.732  18.731  1.00  0.00     0.006 C 
BRANCH   3   4
ATOM      4  C   UNL     1      26.569  -5.490  19.088  1.00  0.00     0.053 C 
BRANCH   4   5
ATOM      5  C   UNL     1      27.355  -4.225  18.935  1.00  0.00     0.041 C 
ATOM      6  O   UNL     1      28.565  -4.186  19.282  1.00  0.00    -0.550 OA
ATOM      7  O   UNL     1      26.743  -3.079  18.443  1.00  0.00    -0.550 OA
ENDBRANCH   4   5
ENDBRANCH   3   4
ENDBRANCH   2   3
ENDBRANCH   1   2
BRANCH   1   8
ATOM      8  C   UNL     1      28.251  -9.463  20.690  1.00  0.00     0.000 C 
BRANCH   8   9
ATOM      9  C   UNL     1      27.851 -10.799  21.328  1.00  0.00    -0.000 C 
BRANCH   9  10
ATOM     10  C   UNL     1      27.719 -11.899  20.267  1.00  0.00    -0.000 C 
BRANCH  10  11
ATOM     11  C   UNL     1      26.333 -11.862  19.606  1.00  0.00    -0.000 C 
BRANCH  11  12
ATOM     12  C   UNL     1      26.304 -12.590  18.254  1.00  0.00    -0.003 C 
ATOM     13  C   UNL     1      27.336 -13.713  18.165  1.00  0.00     0.004 C 
ENDBRANCH  11  12
ENDBRANCH  10  11
ENDBRANCH   9  10
ENDBRANCH   8   9
ENDBRANCH   1   8
TORSDOF 9
ENDMDL
MODEL 5
REMARK VINA RESULT:    -5.437      4.197      5.131
REMARK INTER + INTRA:          -9.094
REMARK INTER:                  -8.615
REMARK INTRA:                  -0.479
REMARK UNBOUND:                -0.796
REMARK SMILES CCCCCCCCCCC(=O)[O-]
REMARK SMILES IDX 7 1 8 2 9 3 10 4 11 5 12 6 13 7 6 8 5 9 4 10 3 11 2 12 1 13
REMARK H PARENT
REMARK Flexibility Score: inf
ROOT
ATOM      1  C   UNL     1      29.637  -9.105  20.698  1.00  0.00     0.000 C 
ENDROOT
BRANCH   1   2
ATOM      2  C   UNL     1      30.354  -8.918  22.046  1.00  0.00     0.000 C 
BRANCH   2   3
ATOM      3  C   UNL     1      31.869  -9.205  22.026  1.00  0.00     0.006 C 
BRANCH   3   4
ATOM      4  C   UNL     1      32.664  -8.368  21.012  1.00  0.00     0.053 C 
BRANCH   4   5
ATOM      5  C   UNL     1      33.487  -9.223  20.099  1.00  0.00     0.041 C 
ATOM      6  O   UNL     1      33.037  -9.562  18.973  1.00  0.00    -0.550 OA
ATOM      7  O   UNL     1      34.736  -9.676  20.506  1.00  0.00    -0.550 OA
ENDBRANCH   4   5
ENDBRANCH   3   4
ENDBRANCH   2   3
ENDBRANCH   1   2
BRANCH   1   8
ATOM      8  C   UNL     1      28.165  -9.513  20.855  1.00  0.00     0.000 C 
BRANCH   8   9
ATOM      9  C   UNL     1      28.045 -10.935  21.417  1.00  0.00    -0.000 C 
BRANCH   9  10
ATOM     10  C   UNL     1      27.829 -11.956  20.294  1.00  0.00    -0.000 C 
BRANCH  10  11
ATOM     11  C   UNL     1      26.448 -11.774  19.645  1.00  0.00    -0.000 C 
BRANCH  11  12
ATOM     12  C   UNL     1      26.309 -12.551  18.328  1.00  0.00    -0.003 C 
ATOM     13  C   UNL     1      27.310 -13.700  18.209  1.00  0.00     0.004 C 
ENDBRANCH  11  12
ENDBRANCH  10  11
ENDBRANCH   9  10
ENDBRANCH   8   9
ENDBRANCH   1   8
TORSDOF 9
ENDMDL
MODEL 6
REMARK VINA RESULT:    -5.331      2.202      2.919
REMARK INTER + INTRA:          -8.931
REMARK INTER:                  -8.500
REMARK INTRA:                  -0.432
REMARK UNBOUND:                -0.796
REMARK SMILES CCCCCCCCCCC(=O)[O-]
REMARK SMILES IDX 7 1 8 2 9 3 10 4 11 5 12 6 13 7 6 8 5 9 4 10 3 11 2 12 1 13
REMARK H PARENT
REMARK Flexibility Score: inf
ROOT
ATOM      1  C   UNL     1      25.679  -7.793  19.669  1.00  0.00     0.000 C 
ENDROOT
BRANCH   1   2
ATOM      2  C   UNL     1      25.954  -6.545  18.812  1.00  0.00     0.000 C 
BRANCH   2   3
ATOM      3  C   UNL     1      27.436  -6.308  18.456  1.00  0.00     0.006 C 
BRANCH   3   4
ATOM      4  C   UNL     1      27.822  -4.831  18.281  1.00  0.00     0.053 C 
BRANCH   4   5
ATOM      5  C   UNL     1      27.219  -3.963  19.341  1.00  0.00     0.041 C 
ATOM      6  O   UNL     1      26.414  -3.047  19.027  1.00  0.00    -0.550 OA
ATOM      7  O   UNL     1      27.572  -4.141  20.673  1.00  0.00    -0.550 OA
ENDBRANCH   4   5
ENDBRANCH   3   4
ENDBRANCH   2   3
ENDBRANCH   1   2
BRANCH   1   8
ATOM      8  C   UNL     1      26.886  -8.739  19.751  1.00  0.00     0.000 C 
BRANCH   8   9
ATOM      9  C   UNL     1      26.445 -10.160  20.124  1.00  0.00    -0.000 C 
BRANCH   9  10
ATOM     10  C   UNL     1      27.576 -10.923  20.825  1.00  0.00    -0.000 C 
BRANCH  10  11
ATOM     11  C   UNL     1      27.768 -12.315  20.204  1.00  0.00    -0.000 C 
BRANCH  11  12
ATOM     12  C   UNL     1      26.819 -12.570  19.024  1.00  0.00    -0.003 C 
ATOM     13  C   UNL     1      27.023 -13.945  18.387  1.00  0.00     0.004 C 
ENDBRANCH  11  12
ENDBRANCH  10  11
ENDBRANCH   9  10
ENDBRANCH   8   9
ENDBRANCH   1   8
TORSDOF 9
ENDMDL
MODEL 7
REMARK VINA RESULT:    -5.185      5.091      6.106
REMARK INTER + INTRA:          -8.709
REMARK INTER:                  -8.451
REMARK INTRA:                  -0.258
REMARK UNBOUND:                -0.796
REMARK SMILES CCCCCCCCCCC(=O)[O-]
REMARK SMILES IDX 7 1 8 2 9 3 10 4 11 5 12 6 13 7 6 8 5 9 4 10 3 11 2 12 1 13
REMARK H PARENT
REMARK Flexibility Score: inf
ROOT
ATOM      1  C   UNL     1      30.165  -9.227  21.911  1.00  0.00     0.000 C 
ENDROOT
BRANCH   1   2
ATOM      2  C   UNL     1      31.481  -9.126  21.119  1.00  0.00     0.000 C 
BRANCH   2   3
ATOM      3  C   UNL     1      32.537  -8.177  21.723  1.00  0.00     0.006 C 
BRANCH   3   4
ATOM      4  C   UNL     1      33.914  -8.819  21.950  1.00  0.00     0.053 C 
BRANCH   4   5
ATOM      5  C   UNL     1      34.900  -7.846  22.518  1.00  0.00     0.041 C 
ATOM      6  O   UNL     1      34.516  -6.943  23.309  1.00  0.00    -0.550 OA
ATOM      7  O   UNL     1      36.238  -7.912  22.148  1.00  0.00    -0.550 OA
ENDBRANCH   4   5
ENDBRANCH   3   4
ENDBRANCH   2   3
ENDBRANCH   1   2
BRANCH   1   8
ATOM      8  C   UNL     1      28.951  -9.524  21.019  1.00  0.00     0.000 C 
BRANCH   8   9
ATOM      9  C   UNL     1      28.163 -10.730  21.547  1.00  0.00    -0.000 C 
BRANCH   9  10
ATOM     10  C   UNL     1      27.391 -11.421  20.417  1.00  0.00    -0.000 C 
BRANCH  10  11
ATOM     11  C   UNL     1      28.005 -12.791  20.090  1.00  0.00    -0.000 C 
BRANCH  11  12
ATOM     12  C   UNL     1      27.458 -13.386  18.784  1.00  0.00    -0.003 C 
ATOM     13  C   UNL     1      26.186 -12.689  18.304  1.00  0.00     0.004 C 
ENDBRANCH  11  12
ENDBRANCH  10  11
ENDBRANCH   9  10
ENDBRANCH   8   9
ENDBRANCH   1   8
TORSDOF 9
ENDMDL
MODEL 8
REMARK VINA RESULT:    -5.118      2.539      4.715
REMARK INTER + INTRA:          -8.606
REMARK INTER:                  -7.750
REMARK INTRA:                  -0.856
REMARK UNBOUND:                -0.796
REMARK SMILES CCCCCCCCCCC(=O)[O-]
REMARK SMILES IDX 7 1 8 2 9 3 10 4 11 5 12 6 13 7 6 8 5 9 4 10 3 11 2 12 1 13
REMARK H PARENT
REMARK Flexibility Score: inf
ROOT
ATOM      1  C   UNL     1      29.638  -9.767  21.413  1.00  0.00     0.000 C 
ENDROOT
BRANCH   1   2
ATOM      2  C   UNL     1      28.365 -10.602  21.643  1.00  0.00     0.000 C 
BRANCH   2   3
ATOM      3  C   UNL     1      28.133 -11.735  20.622  1.00  0.00     0.006 C 
BRANCH   3   4
ATOM      4  C   UNL     1      26.755 -11.709  19.943  1.00  0.00     0.053 C 
BRANCH   4   5
ATOM      5  C   UNL     1      26.631 -12.760  18.883  1.00  0.00     0.041 C 
ATOM      6  O   UNL     1      26.918 -13.958  19.143  1.00  0.00    -0.550 OA
ATOM      7  O   UNL     1      26.234 -12.410  17.598  1.00  0.00    -0.550 OA
ENDBRANCH   4   5
ENDBRANCH   3   4
ENDBRANCH   2   3
ENDBRANCH   1   2
BRANCH   1   8
ATOM      8  C   UNL     1      29.363  -8.257  21.372  1.00  0.00     0.000 C 
BRANCH   8   9
ATOM      9  C   UNL     1      27.879  -7.961  21.627  1.00  0.00    -0.000 C 
BRANCH   9  10
ATOM     10  C   UNL     1      27.298  -7.068  20.524  1.00  0.00    -0.000 C 
BRANCH  10  11
ATOM     11  C   UNL     1      26.953  -7.893  19.274  1.00  0.00    -0.000 C 
BRANCH  11  12
ATOM     12  C   UNL     1      25.461  -7.827  18.917  1.00  0.00    -0.003 C 
ATOM     13  C   UNL     1      24.557  -7.832  20.150  1.00  0.00     0.004 C 
ENDBRANCH  11  12
ENDBRANCH  10  11
ENDBRANCH   9  10
ENDBRANCH   8   9
ENDBRANCH   1   8
TORSDOF 9
ENDMDL
MODEL 9
REMARK VINA RESULT:    -5.107      9.819     11.390
REMARK INTER + INTRA:          -8.590
REMARK INTER:                  -7.980
REMARK INTRA:                  -0.611
REMARK UNBOUND:                -0.796
REMARK SMILES CCCCCCCCCCC(=O)[O-]
REMARK SMILES IDX 7 1 8 2 9 3 10 4 11 5 12 6 13 7 6 8 5 9 4 10 3 11 2 12 1 13
REMARK H PARENT
REMARK Flexibility Score: inf
ROOT
ATOM      1  C   UNL     1      36.309 -10.318  21.144  1.00  0.00     0.000 C 
ENDROOT
BRANCH   1   2
ATOM      2  C   UNL     1      37.433 -11.223  20.609  1.00  0.00     0.000 C 
BRANCH   2   3
ATOM      3  C   UNL     1      38.864 -10.764  20.957  1.00  0.00     0.006 C 
BRANCH   3   4
ATOM      4  C   UNL     1      39.968 -11.746  20.536  1.00  0.00     0.053 C 
BRANCH   4   5
ATOM      5  C   UNL     1      40.015 -12.953  21.422  1.00  0.00     0.041 C 
ATOM      6  O   UNL     1      40.659 -12.920  22.503  1.00  0.00    -0.550 OA
ATOM      7  O   UNL     1      39.377 -14.125  21.036  1.00  0.00    -0.550 OA
ENDBRANCH   4   5
ENDBRANCH   3   4
ENDBRANCH   2   3
ENDBRANCH   1   2
BRANCH   1   8
ATOM      8  C   UNL     1      36.836  -9.128  21.960  1.00  0.00     0.000 C 
BRANCH   8   9
ATOM      9  C   UNL     1      35.727  -8.097  22.207  1.00  0.00    -0.000 C 
BRANCH   9  10
ATOM     10  C   UNL     1      34.342  -8.752  22.144  1.00  0.00    -0.000 C 
BRANCH  10  11
ATOM     11  C   UNL     1      33.459  -8.069  21.087  1.00  0.00    -0.000 C 
BRANCH  11  12
ATOM     12  C   UNL     1      32.579  -9.066  20.320  1.00  0.00    -0.003 C 
ATOM     13  C   UNL     1      33.307  -9.713  19.141  1.00  0.00     0.004 C 
ENDBRANCH  11  12
ENDBRANCH  10  11
ENDBRANCH   9  10
ENDBRANCH   8   9
ENDBRANCH   1   8
TORSDOF 9
ENDMDL
