MODEL 1
REMARK VINA RESULT:    -3.291      0.000      0.000
REMARK INTER + INTRA:          -5.369
REMARK INTER:                  -5.023
REMARK INTRA:                  -0.346
REMARK UNBOUND:                -0.346
REMARK SMILES CCCCCCCCCCC(=O)[O-]
REMARK SMILES IDX 7 1 8 2 9 3 10 4 11 5 12 6 13 7 6 8 5 9 4 10 3 11 2 12 1 13
REMARK H PARENT
REMARK Flexibility Score: inf
ROOT
ATOM      1  C   UNL     1      45.991 -23.982  -2.442  1.00  0.00     0.000 C 
ENDROOT
BRANCH   1   2
ATOM      2  C   UNL     1      45.417 -25.004  -3.432  1.00  0.00     0.000 C 
BRANCH   2   3
ATOM      3  C   UNL     1      46.125 -24.910  -4.792  1.00  0.00     0.006 C 
BRANCH   3   4
ATOM      4  C   UNL     1      46.110 -23.483  -5.356  1.00  0.00     0.053 C 
BRANCH   4   5
ATOM      5  C   UNL     1      45.948 -23.474  -6.845  1.00  0.00     0.041 C 
ATOM      6  O   UNL     1      45.690 -24.542  -7.461  1.00  0.00    -0.550 OA
ATOM      7  O   UNL     1      46.118 -22.293  -7.557  1.00  0.00    -0.550 OA
ENDBRANCH   4   5
ENDBRANCH   3   4
ENDBRANCH   2   3
ENDBRANCH   1   2
BRANCH   1   8
ATOM      8  C   UNL     1      45.311 -24.036  -1.063  1.00  0.00     0.000 C 
BRANCH   8   9
ATOM      9  C   UNL     1      46.093 -23.294   0.041  1.00  0.00    -0.000 C 
BRANCH   9  10
ATOM     10  C   UNL     1      46.083 -24.062   1.375  1.00  0.00    -0.000 C 
BRANCH  10  11
ATOM     11  C   UNL     1      46.040 -25.588   1.186  1.00  0.00    -0.000 C 
BRANCH  11  12
ATOM     12  C   UNL     1      45.450 -26.369   2.373  1.00  0.00    -0.003 C 
ATOM     13  C   UNL     1      45.524 -27.884   2.188  1.00  0.00     0.004 C 
ENDBRANCH  11  12
ENDBRANCH  10  11
ENDBRANCH   9  10
ENDBRANCH   8   9
ENDBRANCH   1   8
TORSDOF 9
ENDMDL
MODEL 2
REMARK VINA RESULT:    -3.059      4.225      7.376
REMARK INTER + INTRA:          -5.015
REMARK INTER:                  -4.567
REMARK INTRA:                  -0.447
REMARK UNBOUND:                -0.346
REMARK SMILES CCCCCCCCCCC(=O)[O-]
REMARK SMILES IDX 7 1 8 2 9 3 10 4 11 5 12 6 13 7 6 8 5 9 4 10 3 11 2 12 1 13
REMARK H PARENT
REMARK Flexibility Score: inf
ROOT
ATOM      1  C   UNL     1      45.110 -23.506  -0.846  1.00  0.00     0.000 C 
ENDROOT
BRANCH   1   2
ATOM      2  C   UNL     1      45.436 -23.612   0.649  1.00  0.00     0.000 C 
BRANCH   2   3
ATOM      3  C   UNL     1      46.072 -24.972   0.978  1.00  0.00     0.006 C 
BRANCH   3   4
ATOM      4  C   UNL     1      45.043 -25.980   1.505  1.00  0.00     0.053 C 
BRANCH   4   5
ATOM      5  C   UNL     1      45.692 -27.079   2.290  1.00  0.00     0.041 C 
ATOM      6  O   UNL     1      46.035 -26.887   3.486  1.00  0.00    -0.550 OA
ATOM      7  O   UNL     1      45.951 -28.305   1.689  1.00  0.00    -0.550 OA
ENDBRANCH   4   5
ENDBRANCH   3   4
ENDBRANCH   2   3
ENDBRANCH   1   2
BRANCH   1   8
ATOM      8  C   UNL     1      45.937 -24.474  -1.710  1.00  0.00     0.000 C 
BRANCH   8   9
ATOM      9  C   UNL     1      45.222 -24.908  -3.008  1.00  0.00    -0.000 C 
BRANCH   9  10
ATOM     10  C   UNL     1      46.096 -25.840  -3.867  1.00  0.00    -0.000 C 
BRANCH  10  11
ATOM     11  C   UNL     1      46.125 -25.431  -5.351  1.00  0.00    -0.000 C 
BRANCH  11  12
ATOM     12  C   UNL     1      45.077 -24.377  -5.750  1.00  0.00    -0.003 C 
ATOM     13  C   UNL     1      45.690 -23.151  -6.425  1.00  0.00     0.004 C 
ENDBRANCH  11  12
ENDBRANCH  10  11
ENDBRANCH   9  10
ENDBRANCH   8   9
ENDBRANCH   1   8
TORSDOF 9
ENDMDL
MODEL 3
REMARK VINA RESULT:    -2.785      1.093      1.785
REMARK INTER + INTRA:          -4.595
REMARK INTER:                  -4.268
REMARK INTRA:                  -0.327
REMARK UNBOUND:                -0.346
REMARK SMILES CCCCCCCCCCC(=O)[O-]
REMARK SMILES IDX 7 1 8 2 9 3 10 4 11 5 12 6 13 7 6 8 5 9 4 10 3 11 2 12 1 13
REMARK H PARENT
REMARK Flexibility Score: inf
ROOT
ATOM      1  C   UNL     1      45.273 -24.219  -1.365  1.00  0.00     0.000 C 
ENDROOT
BRANCH   1   2
ATOM      2  C   UNL     1      46.063 -23.496  -2.465  1.00  0.00     0.000 C 
BRANCH   2   3
ATOM      3  C   UNL     1      46.125 -24.343  -3.744  1.00  0.00     0.006 C 
BRANCH   3   4
ATOM      4  C   UNL     1      45.814 -23.519  -5.001  1.00  0.00     0.053 C 
BRANCH   4   5
ATOM      5  C   UNL     1      45.891 -24.350  -6.245  1.00  0.00     0.041 C 
ATOM      6  O   UNL     1      45.774 -23.809  -7.377  1.00  0.00    -0.550 OA
ATOM      7  O   UNL     1      46.055 -25.726  -6.155  1.00  0.00    -0.550 OA
ENDBRANCH   4   5
ENDBRANCH   3   4
ENDBRANCH   2   3
ENDBRANCH   1   2
BRANCH   1   8
ATOM      8  C   UNL     1      45.390 -23.532   0.006  1.00  0.00     0.000 C 
BRANCH   8   9
ATOM      9  C   UNL     1      45.979 -24.442   1.105  1.00  0.00    -0.000 C 
BRANCH   9  10
ATOM     10  C   UNL     1      45.553 -25.911   0.932  1.00  0.00    -0.000 C 
BRANCH  10  11
ATOM     11  C   UNL     1      45.230 -26.601   2.269  1.00  0.00    -0.000 C 
BRANCH  11  12
ATOM     12  C   UNL     1      46.096 -26.144   3.456  1.00  0.00    -0.003 C 
ATOM     13  C   UNL     1      46.125 -27.157   4.600  1.00  0.00     0.004 C 
ENDBRANCH  11  12
ENDBRANCH  10  11
ENDBRANCH   9  10
ENDBRANCH   8   9
ENDBRANCH   1   8
TORSDOF 9
ENDMDL
MODEL 4
REMARK VINA RESULT:    -2.331      4.910      7.884
REMARK INTER + INTRA:          -3.904
REMARK INTER:                  -3.632
REMARK INTRA:                  -0.272
REMARK UNBOUND:                -0.346
REMARK SMILES CCCCCCCCCCC(=O)[O-]
REMARK SMILES IDX 7 1 8 2 9 3 10 4 11 5 12 6 13 7 6 8 5 9 4 10 3 11 2 12 1 13
REMARK H PARENT
REMARK Flexibility Score: inf
ROOT
ATOM      1  C   UNL     1      46.032 -24.350   0.054  1.00  0.00     0.000 C 
ENDROOT
BRANCH   1   2
ATOM      2  C   UNL     1      46.125 -25.881   0.099  1.00  0.00     0.000 C 
BRANCH   2   3
ATOM      3  C   UNL     1      45.866 -26.406   1.519  1.00  0.00     0.006 C 
BRANCH   3   4
ATOM      4  C   UNL     1      46.023 -27.930   1.612  1.00  0.00     0.053 C 
BRANCH   4   5
ATOM      5  C   UNL     1      46.068 -28.400   3.034  1.00  0.00     0.041 C 
ATOM      6  O   UNL     1      46.025 -29.631   3.296  1.00  0.00    -0.550 OA
ATOM      7  O   UNL     1      46.120 -27.477   4.071  1.00  0.00    -0.550 OA
ENDBRANCH   4   5
ENDBRANCH   3   4
ENDBRANCH   2   3
ENDBRANCH   1   2
BRANCH   1   8
ATOM      8  C   UNL     1      46.008 -23.793  -1.380  1.00  0.00     0.000 C 
BRANCH   8   9
ATOM      9  C   UNL     1      45.427 -24.779  -2.416  1.00  0.00    -0.000 C 
BRANCH   9  10
ATOM     10  C   UNL     1      45.427 -24.192  -3.839  1.00  0.00    -0.000 C 
BRANCH  10  11
ATOM     11  C   UNL     1      46.023 -25.154  -4.882  1.00  0.00    -0.000 C 
BRANCH  11  12
ATOM     12  C   UNL     1      45.685 -24.811  -6.343  1.00  0.00    -0.003 C 
ATOM     13  C   UNL     1      45.911 -23.337  -6.678  1.00  0.00     0.004 C 
ENDBRANCH  11  12
ENDBRANCH  10  11
ENDBRANCH   9  10
ENDBRANCH   8   9
ENDBRANCH   1   8
TORSDOF 9
ENDMDL
MODEL 5
REMARK VINA RESULT:    -1.498      6.499      9.558
REMARK INTER + INTRA:          -2.632
REMARK INTER:                  -2.446
REMARK INTRA:                  -0.186
REMARK UNBOUND:                -0.346
REMARK SMILES CCCCCCCCCCC(=O)[O-]
REMARK SMILES IDX 7 1 8 2 9 3 10 4 11 5 12 6 13 7 6 8 5 9 4 10 3 11 2 12 1 13
REMARK H PARENT
REMARK Flexibility Score: inf
ROOT
ATOM      1  C   UNL     1      45.066 -25.971   2.760  1.00  0.00     0.000 C 
ENDROOT
BRANCH   1   2
ATOM      2  C   UNL     1      45.936 -25.863   4.019  1.00  0.00     0.000 C 
BRANCH   2   3
ATOM      3  C   UNL     1      45.831 -27.137   4.871  1.00  0.00     0.006 C 
BRANCH   3   4
ATOM      4  C   UNL     1      46.112 -26.867   6.355  1.00  0.00     0.053 C 
BRANCH   4   5
ATOM      5  C   UNL     1      45.893 -28.089   7.194  1.00  0.00     0.041 C 
ATOM      6  O   UNL     1      46.122 -29.233   6.720  1.00  0.00    -0.550 OA
ATOM      7  O   UNL     1      45.401 -27.966   8.488  1.00  0.00    -0.550 OA
ENDBRANCH   4   5
ENDBRANCH   3   4
ENDBRANCH   2   3
ENDBRANCH   1   2
BRANCH   1   8
ATOM      8  C   UNL     1      45.887 -25.930   1.460  1.00  0.00     0.000 C 
BRANCH   8   9
ATOM      9  C   UNL     1      45.509 -24.759   0.527  1.00  0.00    -0.000 C 
BRANCH   9  10
ATOM     10  C   UNL     1      46.125 -24.912  -0.875  1.00  0.00    -0.000 C 
BRANCH  10  11
ATOM     11  C   UNL     1      45.064 -25.038  -1.983  1.00  0.00    -0.000 C 
BRANCH  11  12
ATOM     12  C   UNL     1      45.628 -25.081  -3.414  1.00  0.00    -0.003 C 
ATOM     13  C   UNL     1      46.050 -23.706  -3.931  1.00  0.00     0.004 C 
ENDBRANCH  11  12
ENDBRANCH  10  11
ENDBRANCH   9  10
ENDBRANCH   8   9
ENDBRANCH   1   8
TORSDOF 9
ENDMDL
MODEL 6
REMARK VINA RESULT:    -1.384      7.844     11.189
REMARK INTER + INTRA:          -2.459
REMARK INTER:                  -2.271
REMARK INTRA:                  -0.187
REMARK UNBOUND:                -0.346
REMARK SMILES CCCCCCCCCCC(=O)[O-]
REMARK SMILES IDX 7 1 8 2 9 3 10 4 11 5 12 6 13 7 6 8 5 9 4 10 3 11 2 12 1 13
REMARK H PARENT
REMARK Flexibility Score: inf
ROOT
ATOM      1  C   UNL     1      46.000 -27.245   5.715  1.00  0.00     0.000 C 
ENDROOT
BRANCH   1   2
ATOM      2  C   UNL     1      45.521 -28.699   5.608  1.00  0.00     0.000 C 
BRANCH   2   3
ATOM      3  C   UNL     1      46.125 -29.559   6.729  1.00  0.00     0.006 C 
BRANCH   3   4
ATOM      4  C   UNL     1      45.678 -29.095   8.121  1.00  0.00     0.053 C 
BRANCH   4   5
ATOM      5  C   UNL     1      45.523 -30.245   9.069  1.00  0.00     0.041 C 
ATOM      6  O   UNL     1      45.059 -30.055  10.224  1.00  0.00    -0.550 OA
ATOM      7  O   UNL     1      45.926 -31.519   8.690  1.00  0.00    -0.550 OA
ENDBRANCH   4   5
ENDBRANCH   3   4
ENDBRANCH   2   3
ENDBRANCH   1   2
BRANCH   1   8
ATOM      8  C   UNL     1      46.113 -26.550   4.347  1.00  0.00     0.000 C 
BRANCH   8   9
ATOM      9  C   UNL     1      44.949 -26.879   3.389  1.00  0.00    -0.000 C 
BRANCH   9  10
ATOM     10  C   UNL     1      45.436 -27.562   2.097  1.00  0.00    -0.000 C 
BRANCH  10  11
ATOM     11  C   UNL     1      46.120 -26.583   1.126  1.00  0.00    -0.000 C 
BRANCH  11  12
ATOM     12  C   UNL     1      45.873 -25.095   1.430  1.00  0.00    -0.003 C 
ATOM     13  C   UNL     1      45.510 -24.284   0.187  1.00  0.00     0.004 C 
ENDBRANCH  11  12
ENDBRANCH  10  11
ENDBRANCH   9  10
ENDBRANCH   8   9
ENDBRANCH   1   8
TORSDOF 9
ENDMDL
MODEL 7
REMARK VINA RESULT:    -1.263      1.942      3.029
REMARK INTER + INTRA:          -2.273
REMARK INTER:                  -2.021
REMARK INTRA:                  -0.252
REMARK UNBOUND:                -0.346
REMARK SMILES CCCCCCCCCCC(=O)[O-]
REMARK SMILES IDX 7 1 8 2 9 3 10 4 11 5 12 6 13 7 6 8 5 9 4 10 3 11 2 12 1 13
REMARK H PARENT
REMARK Flexibility Score: inf
ROOT
ATOM      1  C   UNL     1      44.589 -24.442  -0.234  1.00  0.00     0.000 C 
ENDROOT
BRANCH   1   2
ATOM      2  C   UNL     1      44.670 -23.388  -1.347  1.00  0.00     0.000 C 
BRANCH   2   3
ATOM      3  C   UNL     1      46.085 -23.325  -1.941  1.00  0.00     0.006 C 
BRANCH   3   4
ATOM      4  C   UNL     1      46.085 -23.530  -3.461  1.00  0.00     0.053 C 
BRANCH   4   5
ATOM      5  C   UNL     1      45.883 -24.968  -3.830  1.00  0.00     0.041 C 
ATOM      6  O   UNL     1      45.463 -25.276  -4.976  1.00  0.00    -0.550 OA
ATOM      7  O   UNL     1      46.124 -25.967  -2.894  1.00  0.00    -0.550 OA
ENDBRANCH   4   5
ENDBRANCH   3   4
ENDBRANCH   2   3
ENDBRANCH   1   2
BRANCH   1   8
ATOM      8  C   UNL     1      45.955 -25.067   0.099  1.00  0.00     0.000 C 
BRANCH   8   9
ATOM      9  C   UNL     1      45.862 -26.290   1.037  1.00  0.00    -0.000 C 
BRANCH   9  10
ATOM     10  C   UNL     1      46.049 -25.902   2.515  1.00  0.00    -0.000 C 
BRANCH  10  11
ATOM     11  C   UNL     1      45.630 -27.022   3.485  1.00  0.00    -0.000 C 
BRANCH  11  12
ATOM     12  C   UNL     1      46.084 -28.434   3.074  1.00  0.00    -0.003 C 
ATOM     13  C   UNL     1      46.125 -29.412   4.246  1.00  0.00     0.004 C 
ENDBRANCH  11  12
ENDBRANCH  10  11
ENDBRANCH   9  10
ENDBRANCH   8   9
ENDBRANCH   1   8
TORSDOF 9
ENDMDL
