MODEL 1
REMARK VINA RESULT:    -4.389      0.000      0.000
REMARK INTER + INTRA:          -9.439
REMARK INTER:                  -8.110
REMARK INTRA:                  -1.329
REMARK UNBOUND:                -1.329
REMARK SMILES CCCCCCCCCCCCCCCCO
REMARK SMILES IDX 9 1 8 2 7 3 6 4 5 5 4 6 3 7 2 8 1 9 10 10 11 11 12 12 13 13
REMARK SMILES IDX 14 14 15 15 16 16 17 17
REMARK H PARENT 17 18
REMARK Flexibility Score: inf
ROOT
ATOM      1  C   UNL     1      -2.911   4.063 -24.476  1.00  0.00     0.000 C 
ENDROOT
BRANCH   1   2
ATOM      2  C   UNL     1      -2.425   3.803 -23.043  1.00  0.00    -0.000 C 
BRANCH   2   3
ATOM      3  C   UNL     1      -1.698   2.457 -22.944  1.00  0.00    -0.000 C 
BRANCH   3   4
ATOM      4  C   UNL     1      -1.118   2.043 -24.306  1.00  0.00    -0.000 C 
BRANCH   4   5
ATOM      5  C   UNL     1       0.090   1.104 -24.172  1.00  0.00    -0.000 C 
BRANCH   5   6
ATOM      6  C   UNL     1       0.154   0.413 -22.798  1.00  0.00    -0.000 C 
BRANCH   6   7
ATOM      7  C   UNL     1       1.506  -0.275 -22.538  1.00  0.00    -0.000 C 
BRANCH   7   8
ATOM      8  C   UNL     1       1.412  -1.620 -21.796  1.00  0.00    -0.003 C 
ATOM      9  C   UNL     1       2.525  -2.595 -22.181  1.00  0.00     0.004 C 
ENDBRANCH   7   8
ENDBRANCH   6   7
ENDBRANCH   5   6
ENDBRANCH   4   5
ENDBRANCH   3   4
ENDBRANCH   2   3
ENDBRANCH   1   2
BRANCH   1  10
ATOM     10  C   UNL     1      -3.931   5.212 -24.567  1.00  0.00     0.000 C 
BRANCH  10  11
ATOM     11  C   UNL     1      -5.409   4.789 -24.482  1.00  0.00     0.000 C 
BRANCH  11  12
ATOM     12  C   UNL     1      -6.129   5.365 -23.252  1.00  0.00     0.000 C 
BRANCH  12  13
ATOM     13  C   UNL     1      -6.415   4.306 -22.172  1.00  0.00     0.000 C 
BRANCH  13  14
ATOM     14  C   UNL     1      -6.026   2.864 -22.546  1.00  0.00     0.002 C 
BRANCH  14  15
ATOM     15  C   UNL     1      -5.365   2.100 -21.388  1.00  0.00     0.028 C 
BRANCH  15  16
ATOM     16  C   UNL     1      -5.042   3.038 -20.223  1.00  0.00     0.156 C 
BRANCH  16  17
ATOM     17  O   UNL     1      -3.673   2.985 -19.925  1.00  0.00    -0.396 OA
ATOM     18  H   UNL     1      -3.304   3.886 -20.120  1.00  0.00     0.210 HD
ENDBRANCH  16  17
ENDBRANCH  15  16
ENDBRANCH  14  15
ENDBRANCH  13  14
ENDBRANCH  12  13
ENDBRANCH  11  12
ENDBRANCH  10  11
ENDBRANCH   1  10
TORSDOF 15
ENDMDL
MODEL 2
REMARK VINA RESULT:    -4.171      3.369      8.471
REMARK INTER + INTRA:          -9.035
REMARK INTER:                  -8.491
REMARK INTRA:                  -0.544
REMARK UNBOUND:                -1.329
REMARK SMILES CCCCCCCCCCCCCCCCO
REMARK SMILES IDX 9 1 8 2 7 3 6 4 5 5 4 6 3 7 2 8 1 9 10 10 11 11 12 12 13 13
REMARK SMILES IDX 14 14 15 15 16 16 17 17
REMARK H PARENT 17 18
REMARK Flexibility Score: inf
ROOT
ATOM      1  C   UNL     1      -1.010   0.970 -23.419  1.00  0.00     0.000 C 
ENDROOT
BRANCH   1   2
ATOM      2  C   UNL     1      -1.061   1.932 -24.615  1.00  0.00    -0.000 C 
BRANCH   2   3
ATOM      3  C   UNL     1      -1.442   3.348 -24.166  1.00  0.00    -0.000 C 
BRANCH   3   4
ATOM      4  C   UNL     1      -2.564   3.921 -25.045  1.00  0.00    -0.000 C 
BRANCH   4   5
ATOM      5  C   UNL     1      -3.853   4.194 -24.254  1.00  0.00    -0.000 C 
BRANCH   5   6
ATOM      6  C   UNL     1      -3.771   3.696 -22.801  1.00  0.00    -0.000 C 
BRANCH   6   7
ATOM      7  C   UNL     1      -5.154   3.413 -22.188  1.00  0.00    -0.000 C 
BRANCH   7   8
ATOM      8  C   UNL     1      -5.218   2.163 -21.292  1.00  0.00    -0.003 C 
ATOM      9  C   UNL     1      -4.847   2.450 -19.837  1.00  0.00     0.004 C 
ENDBRANCH   7   8
ENDBRANCH   6   7
ENDBRANCH   5   6
ENDBRANCH   4   5
ENDBRANCH   3   4
ENDBRANCH   2   3
ENDBRANCH   1   2
BRANCH   1  10
ATOM     10  C   UNL     1       0.417   0.750 -22.883  1.00  0.00     0.000 C 
BRANCH  10  11
ATOM     11  C   UNL     1       0.664  -0.611 -22.207  1.00  0.00     0.000 C 
BRANCH  11  12
ATOM     12  C   UNL     1       2.080  -1.155 -22.452  1.00  0.00     0.000 C 
BRANCH  12  13
ATOM     13  C   UNL     1       2.231  -2.637 -22.064  1.00  0.00     0.000 C 
BRANCH  13  14
ATOM     14  C   UNL     1       3.600  -3.265 -22.383  1.00  0.00     0.002 C 
BRANCH  14  15
ATOM     15  C   UNL     1       3.786  -4.653 -21.752  1.00  0.00     0.028 C 
BRANCH  15  16
ATOM     16  C   UNL     1       4.223  -5.679 -22.801  1.00  0.00     0.156 C 
BRANCH  16  17
ATOM     17  O   UNL     1       3.822  -6.966 -22.414  1.00  0.00    -0.396 OA
ATOM     18  H   UNL     1       2.833  -6.994 -22.503  1.00  0.00     0.210 HD
ENDBRANCH  16  17
ENDBRANCH  15  16
ENDBRANCH  14  15
ENDBRANCH  13  14
ENDBRANCH  12  13
ENDBRANCH  11  12
ENDBRANCH  10  11
ENDBRANCH   1  10
TORSDOF 15
ENDMDL
MODEL 3
REMARK VINA RESULT:    -4.156      2.646      7.822
REMARK INTER + INTRA:          -9.009
REMARK INTER:                  -8.062
REMARK INTRA:                  -0.946
REMARK UNBOUND:                -1.329
REMARK SMILES CCCCCCCCCCCCCCCCO
REMARK SMILES IDX 9 1 8 2 7 3 6 4 5 5 4 6 3 7 2 8 1 9 10 10 11 11 12 12 13 13
REMARK SMILES IDX 14 14 15 15 16 16 17 17
REMARK H PARENT 17 18
REMARK Flexibility Score: inf
ROOT
ATOM      1  C   UNL     1      -2.001   3.576 -23.170  1.00  0.00     0.000 C 
ENDROOT
BRANCH   1   2
ATOM      2  C   UNL     1      -3.519   3.764 -23.028  1.00  0.00    -0.000 C 
BRANCH   2   3
ATOM      3  C   UNL     1      -4.058   2.991 -21.818  1.00  0.00    -0.000 C 
BRANCH   3   4
ATOM      4  C   UNL     1      -5.567   3.225 -21.643  1.00  0.00    -0.000 C 
BRANCH   4   5
ATOM      5  C   UNL     1      -6.401   1.985 -22.000  1.00  0.00    -0.000 C 
BRANCH   5   6
ATOM      6  C   UNL     1      -7.552   2.305 -22.969  1.00  0.00    -0.000 C 
BRANCH   6   7
ATOM      7  C   UNL     1      -7.733   3.815 -23.203  1.00  0.00    -0.000 C 
BRANCH   7   8
ATOM      8  C   UNL     1      -9.011   4.414 -22.589  1.00  0.00    -0.003 C 
ATOM      9  C   UNL     1      -8.747   5.679 -21.773  1.00  0.00     0.004 C 
ENDBRANCH   7   8
ENDBRANCH   6   7
ENDBRANCH   5   6
ENDBRANCH   4   5
ENDBRANCH   3   4
ENDBRANCH   2   3
ENDBRANCH   1   2
BRANCH   1  10
ATOM     10  C   UNL     1      -1.591   3.005 -24.539  1.00  0.00     0.000 C 
BRANCH  10  11
ATOM     11  C   UNL     1      -0.739   1.723 -24.490  1.00  0.00     0.000 C 
BRANCH  11  12
ATOM     12  C   UNL     1      -1.077   0.823 -23.290  1.00  0.00     0.000 C 
BRANCH  12  13
ATOM     13  C   UNL     1       0.169   0.370 -22.509  1.00  0.00     0.000 C 
BRANCH  13  14
ATOM     14  C   UNL     1       1.456   0.237 -23.343  1.00  0.00     0.002 C 
BRANCH  14  15
ATOM     15  C   UNL     1       2.511  -0.664 -22.682  1.00  0.00     0.028 C 
BRANCH  15  16
ATOM     16  C   UNL     1       1.923  -2.034 -22.334  1.00  0.00     0.156 C 
BRANCH  16  17
ATOM     17  O   UNL     1       2.892  -3.033 -22.504  1.00  0.00    -0.396 OA
ATOM     18  H   UNL     1       3.542  -2.688 -23.171  1.00  0.00     0.210 HD
ENDBRANCH  16  17
ENDBRANCH  15  16
ENDBRANCH  14  15
ENDBRANCH  13  14
ENDBRANCH  12  13
ENDBRANCH  11  12
ENDBRANCH  10  11
ENDBRANCH   1  10
TORSDOF 15
ENDMDL
MODEL 4
REMARK VINA RESULT:    -4.155      2.424      6.947
REMARK INTER + INTRA:          -9.006
REMARK INTER:                  -7.931
REMARK INTRA:                  -1.075
REMARK UNBOUND:                -1.329
REMARK SMILES CCCCCCCCCCCCCCCCO
REMARK SMILES IDX 9 1 8 2 7 3 6 4 5 5 4 6 3 7 2 8 1 9 10 10 11 11 12 12 13 13
REMARK SMILES IDX 14 14 15 15 16 16 17 17
REMARK H PARENT 17 18
REMARK Flexibility Score: inf
ROOT
ATOM      1  C   UNL     1      -2.952   4.091 -23.220  1.00  0.00     0.000 C 
ENDROOT
BRANCH   1   2
ATOM      2  C   UNL     1      -3.869   4.292 -24.436  1.00  0.00    -0.000 C 
BRANCH   2   3
ATOM      3  C   UNL     1      -5.120   5.094 -24.055  1.00  0.00    -0.000 C 
BRANCH   3   4
ATOM      4  C   UNL     1      -6.346   4.176 -23.933  1.00  0.00    -0.000 C 
BRANCH   4   5
ATOM      5  C   UNL     1      -6.654   3.794 -22.477  1.00  0.00    -0.000 C 
BRANCH   5   6
ATOM      6  C   UNL     1      -6.456   2.292 -22.205  1.00  0.00    -0.000 C 
BRANCH   6   7
ATOM      7  C   UNL     1      -5.166   1.993 -21.419  1.00  0.00    -0.000 C 
BRANCH   7   8
ATOM      8  C   UNL     1      -4.879   2.964 -20.259  1.00  0.00    -0.003 C 
ATOM      9  C   UNL     1      -4.895   2.282 -18.891  1.00  0.00     0.004 C 
ENDBRANCH   7   8
ENDBRANCH   6   7
ENDBRANCH   5   6
ENDBRANCH   4   5
ENDBRANCH   3   4
ENDBRANCH   2   3
ENDBRANCH   1   2
BRANCH   1  10
ATOM     10  C   UNL     1      -1.662   3.323 -23.559  1.00  0.00     0.000 C 
BRANCH  10  11
ATOM     11  C   UNL     1      -1.679   1.823 -23.211  1.00  0.00     0.000 C 
BRANCH  11  12
ATOM     12  C   UNL     1      -0.455   1.067 -23.753  1.00  0.00     0.000 C 
BRANCH  12  13
ATOM     13  C   UNL     1       0.266   0.238 -22.674  1.00  0.00     0.000 C 
BRANCH  13  14
ATOM     14  C   UNL     1       1.783   0.074 -22.877  1.00  0.00     0.002 C 
BRANCH  14  15
ATOM     15  C   UNL     1       2.418  -0.915 -21.888  1.00  0.00     0.028 C 
BRANCH  15  16
ATOM     16  C   UNL     1       1.965  -2.349 -22.176  1.00  0.00     0.156 C 
BRANCH  16  17
ATOM     17  O   UNL     1       2.947  -3.029 -22.908  1.00  0.00    -0.396 OA
ATOM     18  H   UNL     1       3.033  -2.555 -23.777  1.00  0.00     0.210 HD
ENDBRANCH  16  17
ENDBRANCH  15  16
ENDBRANCH  14  15
ENDBRANCH  13  14
ENDBRANCH  12  13
ENDBRANCH  11  12
ENDBRANCH  10  11
ENDBRANCH   1  10
TORSDOF 15
ENDMDL
MODEL 5
REMARK VINA RESULT:    -4.079      2.300      7.301
REMARK INTER + INTRA:          -8.866
REMARK INTER:                  -7.358
REMARK INTRA:                  -1.508
REMARK UNBOUND:                -1.329
REMARK SMILES CCCCCCCCCCCCCCCCO
REMARK SMILES IDX 9 1 8 2 7 3 6 4 5 5 4 6 3 7 2 8 1 9 10 10 11 11 12 12 13 13
REMARK SMILES IDX 14 14 15 15 16 16 17 17
REMARK H PARENT 17 18
REMARK Flexibility Score: inf
ROOT
ATOM      1  C   UNL     1      -4.521   2.384 -21.608  1.00  0.00     0.000 C 
ENDROOT
BRANCH   1   2
ATOM      2  C   UNL     1      -5.959   2.909 -21.728  1.00  0.00    -0.000 C 
BRANCH   2   3
ATOM      3  C   UNL     1      -6.896   1.826 -22.275  1.00  0.00    -0.000 C 
BRANCH   3   4
ATOM      4  C   UNL     1      -7.851   2.405 -23.331  1.00  0.00    -0.000 C 
BRANCH   4   5
ATOM      5  C   UNL     1      -7.791   3.938 -23.402  1.00  0.00    -0.000 C 
BRANCH   5   6
ATOM      6  C   UNL     1      -8.944   4.612 -22.638  1.00  0.00    -0.000 C 
BRANCH   6   7
ATOM      7  C   UNL     1      -8.593   6.032 -22.157  1.00  0.00    -0.000 C 
BRANCH   7   8
ATOM      8  C   UNL     1      -7.085   6.315 -22.032  1.00  0.00    -0.003 C 
ATOM      9  C   UNL     1      -6.598   7.401 -22.990  1.00  0.00     0.004 C 
ENDBRANCH   7   8
ENDBRANCH   6   7
ENDBRANCH   5   6
ENDBRANCH   4   5
ENDBRANCH   3   4
ENDBRANCH   2   3
ENDBRANCH   1   2
BRANCH   1  10
ATOM     10  C   UNL     1      -3.484   3.311 -22.269  1.00  0.00     0.000 C 
BRANCH  10  11
ATOM     11  C   UNL     1      -4.002   4.129 -23.466  1.00  0.00     0.000 C 
BRANCH  11  12
ATOM     12  C   UNL     1      -2.939   4.332 -24.559  1.00  0.00     0.000 C 
BRANCH  12  13
ATOM     13  C   UNL     1      -1.532   3.893 -24.117  1.00  0.00     0.000 C 
BRANCH  13  14
ATOM     14  C   UNL     1      -0.774   3.007 -25.123  1.00  0.00     0.002 C 
BRANCH  14  15
ATOM     15  C   UNL     1      -0.921   1.505 -24.832  1.00  0.00     0.028 C 
BRANCH  15  16
ATOM     16  C   UNL     1      -0.624   1.199 -23.362  1.00  0.00     0.156 C 
BRANCH  16  17
ATOM     17  O   UNL     1      -1.648   0.414 -22.815  1.00  0.00    -0.396 OA
ATOM     18  H   UNL     1      -2.083  -0.056 -23.574  1.00  0.00     0.210 HD
ENDBRANCH  16  17
ENDBRANCH  15  16
ENDBRANCH  14  15
ENDBRANCH  13  14
ENDBRANCH  12  13
ENDBRANCH  11  12
ENDBRANCH  10  11
ENDBRANCH   1  10
TORSDOF 15
ENDMDL
MODEL 6
REMARK VINA RESULT:    -4.077      0.799      1.178
REMARK INTER + INTRA:          -8.862
REMARK INTER:                  -7.694
REMARK INTRA:                  -1.169
REMARK UNBOUND:                -1.329
REMARK SMILES CCCCCCCCCCCCCCCCO
REMARK SMILES IDX 9 1 8 2 7 3 6 4 5 5 4 6 3 7 2 8 1 9 10 10 11 11 12 12 13 13
REMARK SMILES IDX 14 14 15 15 16 16 17 17
REMARK H PARENT 17 18
REMARK Flexibility Score: inf
ROOT
ATOM      1  C   UNL     1      -3.296   5.162 -24.497  1.00  0.00     0.000 C 
ENDROOT
BRANCH   1   2
ATOM      2  C   UNL     1      -2.239   4.059 -24.660  1.00  0.00    -0.000 C 
BRANCH   2   3
ATOM      3  C   UNL     1      -1.662   3.645 -23.301  1.00  0.00    -0.000 C 
BRANCH   3   4
ATOM      4  C   UNL     1      -1.776   2.127 -23.094  1.00  0.00    -0.000 C 
BRANCH   4   5
ATOM      5  C   UNL     1      -0.632   1.353 -23.766  1.00  0.00    -0.000 C 
BRANCH   5   6
ATOM      6  C   UNL     1       0.044   0.351 -22.814  1.00  0.00    -0.000 C 
BRANCH   6   7
ATOM      7  C   UNL     1       1.559   0.224 -23.058  1.00  0.00    -0.000 C 
BRANCH   7   8
ATOM      8  C   UNL     1       2.196  -1.059 -22.494  1.00  0.00    -0.003 C 
ATOM      9  C   UNL     1       1.235  -1.876 -21.631  1.00  0.00     0.004 C 
ENDBRANCH   7   8
ENDBRANCH   6   7
ENDBRANCH   5   6
ENDBRANCH   4   5
ENDBRANCH   3   4
ENDBRANCH   2   3
ENDBRANCH   1   2
BRANCH   1  10
ATOM     10  C   UNL     1      -4.737   4.618 -24.488  1.00  0.00     0.000 C 
BRANCH  10  11
ATOM     11  C   UNL     1      -5.743   5.436 -23.658  1.00  0.00     0.000 C 
BRANCH  11  12
ATOM     12  C   UNL     1      -6.182   4.720 -22.370  1.00  0.00     0.000 C 
BRANCH  12  13
ATOM     13  C   UNL     1      -6.475   3.224 -22.585  1.00  0.00     0.000 C 
BRANCH  13  14
ATOM     14  C   UNL     1      -5.579   2.258 -21.788  1.00  0.00     0.002 C 
BRANCH  14  15
ATOM     15  C   UNL     1      -4.704   2.971 -20.746  1.00  0.00     0.028 C 
BRANCH  15  16
ATOM     16  C   UNL     1      -4.989   2.447 -19.337  1.00  0.00     0.156 C 
BRANCH  16  17
ATOM     17  O   UNL     1      -3.787   2.219 -18.653  1.00  0.00    -0.396 OA
ATOM     18  H   UNL     1      -3.731   1.240 -18.496  1.00  0.00     0.210 HD
ENDBRANCH  16  17
ENDBRANCH  15  16
ENDBRANCH  14  15
ENDBRANCH  13  14
ENDBRANCH  12  13
ENDBRANCH  11  12
ENDBRANCH  10  11
ENDBRANCH   1  10
TORSDOF 15
ENDMDL
MODEL 7
REMARK VINA RESULT:    -4.032      3.202      7.430
REMARK INTER + INTRA:          -8.779
REMARK INTER:                  -7.128
REMARK INTRA:                  -1.650
REMARK UNBOUND:                -1.329
REMARK SMILES CCCCCCCCCCCCCCCCO
REMARK SMILES IDX 9 1 8 2 7 3 6 4 5 5 4 6 3 7 2 8 1 9 10 10 11 11 12 12 13 13
REMARK SMILES IDX 14 14 15 15 16 16 17 17
REMARK H PARENT 17 18
REMARK Flexibility Score: inf
ROOT
ATOM      1  C   UNL     1      -5.135   2.316 -21.642  1.00  0.00     0.000 C 
ENDROOT
BRANCH   1   2
ATOM      2  C   UNL     1      -6.553   1.868 -22.027  1.00  0.00    -0.000 C 
BRANCH   2   3
ATOM      3  C   UNL     1      -7.105   2.719 -23.177  1.00  0.00    -0.000 C 
BRANCH   3   4
ATOM      4  C   UNL     1      -8.540   3.182 -22.879  1.00  0.00    -0.000 C 
BRANCH   4   5
ATOM      5  C   UNL     1      -8.667   4.713 -22.830  1.00  0.00    -0.000 C 
BRANCH   5   6
ATOM      6  C   UNL     1      -7.580   5.370 -21.963  1.00  0.00    -0.000 C 
BRANCH   6   7
ATOM      7  C   UNL     1      -6.995   6.643 -22.602  1.00  0.00    -0.000 C 
BRANCH   7   8
ATOM      8  C   UNL     1      -6.828   6.577 -24.131  1.00  0.00    -0.003 C 
ATOM      9  C   UNL     1      -5.378   6.368 -24.566  1.00  0.00     0.004 C 
ENDBRANCH   7   8
ENDBRANCH   6   7
ENDBRANCH   5   6
ENDBRANCH   4   5
ENDBRANCH   3   4
ENDBRANCH   2   3
ENDBRANCH   1   2
BRANCH   1  10
ATOM     10  C   UNL     1      -4.592   3.437 -22.547  1.00  0.00     0.000 C 
BRANCH  10  11
ATOM     11  C   UNL     1      -3.087   3.730 -22.401  1.00  0.00     0.000 C 
BRANCH  11  12
ATOM     12  C   UNL     1      -2.202   2.692 -23.108  1.00  0.00     0.000 C 
BRANCH  12  13
ATOM     13  C   UNL     1      -1.390   3.287 -24.272  1.00  0.00     0.000 C 
BRANCH  13  14
ATOM     14  C   UNL     1      -1.717   4.750 -24.621  1.00  0.00     0.002 C 
BRANCH  14  15
ATOM     15  C   UNL     1      -0.471   5.575 -24.978  1.00  0.00     0.028 C 
BRANCH  15  16
ATOM     16  C   UNL     1      -0.346   6.803 -24.072  1.00  0.00     0.156 C 
BRANCH  16  17
ATOM     17  O   UNL     1      -0.718   6.476 -22.761  1.00  0.00    -0.396 OA
ATOM     18  H   UNL     1      -1.701   6.610 -22.703  1.00  0.00     0.210 HD
ENDBRANCH  16  17
ENDBRANCH  15  16
ENDBRANCH  14  15
ENDBRANCH  13  14
ENDBRANCH  12  13
ENDBRANCH  11  12
ENDBRANCH  10  11
ENDBRANCH   1  10
TORSDOF 15
ENDMDL
MODEL 8
REMARK VINA RESULT:    -3.989      1.913      4.315
REMARK INTER + INTRA:          -8.699
REMARK INTER:                  -8.157
REMARK INTRA:                  -0.542
REMARK UNBOUND:                -1.329
REMARK SMILES CCCCCCCCCCCCCCCCO
REMARK SMILES IDX 9 1 8 2 7 3 6 4 5 5 4 6 3 7 2 8 1 9 10 10 11 11 12 12 13 13
REMARK SMILES IDX 14 14 15 15 16 16 17 17
REMARK H PARENT 17 18
REMARK Flexibility Score: inf
ROOT
ATOM      1  C   UNL     1      -0.488   0.901 -23.017  1.00  0.00     0.000 C 
ENDROOT
BRANCH   1   2
ATOM      2  C   UNL     1       0.954   0.464 -22.722  1.00  0.00    -0.000 C 
BRANCH   2   3
ATOM      3  C   UNL     1       0.988  -0.941 -22.108  1.00  0.00    -0.000 C 
BRANCH   3   4
ATOM      4  C   UNL     1       2.417  -1.506 -22.104  1.00  0.00    -0.000 C 
BRANCH   4   5
ATOM      5  C   UNL     1       2.445  -3.042 -22.084  1.00  0.00    -0.000 C 
BRANCH   5   6
ATOM      6  C   UNL     1       3.874  -3.607 -22.015  1.00  0.00    -0.000 C 
BRANCH   6   7
ATOM      7  C   UNL     1       3.907  -5.146 -21.985  1.00  0.00    -0.000 C 
BRANCH   7   8
ATOM      8  C   UNL     1       4.368  -5.806 -23.297  1.00  0.00    -0.003 C 
ATOM      9  C   UNL     1       3.662  -7.132 -23.580  1.00  0.00     0.004 C 
ENDBRANCH   7   8
ENDBRANCH   6   7
ENDBRANCH   5   6
ENDBRANCH   4   5
ENDBRANCH   3   4
ENDBRANCH   2   3
ENDBRANCH   1   2
BRANCH   1  10
ATOM     10  C   UNL     1      -0.719   1.254 -24.498  1.00  0.00     0.000 C 
BRANCH  10  11
ATOM     11  C   UNL     1      -1.403   2.610 -24.753  1.00  0.00     0.000 C 
BRANCH  11  12
ATOM     12  C   UNL     1      -2.017   3.221 -23.482  1.00  0.00     0.000 C 
BRANCH  12  13
ATOM     13  C   UNL     1      -3.387   3.877 -23.732  1.00  0.00     0.000 C 
BRANCH  13  14
ATOM     14  C   UNL     1      -4.286   4.014 -22.490  1.00  0.00     0.002 C 
BRANCH  14  15
ATOM     15  C   UNL     1      -5.051   2.724 -22.157  1.00  0.00     0.028 C 
BRANCH  15  16
ATOM     16  C   UNL     1      -4.763   2.268 -20.724  1.00  0.00     0.156 C 
BRANCH  16  17
ATOM     17  O   UNL     1      -3.834   3.126 -20.121  1.00  0.00    -0.396 OA
ATOM     18  H   UNL     1      -4.348   3.719 -19.512  1.00  0.00     0.210 HD
ENDBRANCH  16  17
ENDBRANCH  15  16
ENDBRANCH  14  15
ENDBRANCH  13  14
ENDBRANCH  12  13
ENDBRANCH  11  12
ENDBRANCH  10  11
ENDBRANCH   1  10
TORSDOF 15
ENDMDL
MODEL 9
REMARK VINA RESULT:    -3.941      3.499      7.453
REMARK INTER + INTRA:          -8.610
REMARK INTER:                  -7.147
REMARK INTRA:                  -1.464
REMARK UNBOUND:                -1.329
REMARK SMILES CCCCCCCCCCCCCCCCO
REMARK SMILES IDX 9 1 8 2 7 3 6 4 5 5 4 6 3 7 2 8 1 9 10 10 11 11 12 12 13 13
REMARK SMILES IDX 14 14 15 15 16 16 17 17
REMARK H PARENT 17 18
REMARK Flexibility Score: inf
ROOT
ATOM      1  C   UNL     1      -3.962   3.202 -21.371  1.00  0.00     0.000 C 
ENDROOT
BRANCH   1   2
ATOM      2  C   UNL     1      -5.493   3.259 -21.266  1.00  0.00    -0.000 C 
BRANCH   2   3
ATOM      3  C   UNL     1      -6.132   1.995 -21.856  1.00  0.00    -0.000 C 
BRANCH   3   4
ATOM      4  C   UNL     1      -7.313   2.352 -22.771  1.00  0.00    -0.000 C 
BRANCH   4   5
ATOM      5  C   UNL     1      -6.898   3.246 -23.950  1.00  0.00    -0.000 C 
BRANCH   5   6
ATOM      6  C   UNL     1      -7.673   4.574 -23.987  1.00  0.00    -0.000 C 
BRANCH   6   7
ATOM      7  C   UNL     1      -6.831   5.771 -23.511  1.00  0.00    -0.000 C 
BRANCH   7   8
ATOM      8  C   UNL     1      -7.275   6.378 -22.168  1.00  0.00    -0.003 C 
ATOM      9  C   UNL     1      -8.573   5.770 -21.637  1.00  0.00     0.004 C 
ENDBRANCH   7   8
ENDBRANCH   6   7
ENDBRANCH   5   6
ENDBRANCH   4   5
ENDBRANCH   3   4
ENDBRANCH   2   3
ENDBRANCH   1   2
BRANCH   1  10
ATOM     10  C   UNL     1      -3.440   3.587 -22.767  1.00  0.00     0.000 C 
BRANCH  10  11
ATOM     11  C   UNL     1      -2.050   3.029 -23.127  1.00  0.00     0.000 C 
BRANCH  11  12
ATOM     12  C   UNL     1      -1.370   3.802 -24.270  1.00  0.00     0.000 C 
BRANCH  12  13
ATOM     13  C   UNL     1      -1.674   5.310 -24.239  1.00  0.00     0.000 C 
BRANCH  13  14
ATOM     14  C   UNL     1      -0.466   6.218 -23.940  1.00  0.00     0.002 C 
BRANCH  14  15
ATOM     15  C   UNL     1      -0.791   7.713 -24.072  1.00  0.00     0.028 C 
BRANCH  15  16
ATOM     16  C   UNL     1      -2.122   7.926 -24.799  1.00  0.00     0.156 C 
BRANCH  16  17
ATOM     17  O   UNL     1      -2.943   8.791 -24.063  1.00  0.00    -0.396 OA
ATOM     18  H   UNL     1      -3.879   8.577 -24.316  1.00  0.00     0.210 HD
ENDBRANCH  16  17
ENDBRANCH  15  16
ENDBRANCH  14  15
ENDBRANCH  13  14
ENDBRANCH  12  13
ENDBRANCH  11  12
ENDBRANCH  10  11
ENDBRANCH   1  10
TORSDOF 15
ENDMDL
