MODEL 1
REMARK VINA RESULT:    -5.127      0.000      0.000
REMARK INTER + INTRA:          -5.276
REMARK INTER:                  -5.276
REMARK INTRA:                   0.000
REMARK UNBOUND:                 0.000
REMARK SMILES Oc1ccc2[nH]ccc2c1
REMARK SMILES IDX 3 1 4 2 5 3 9 4 8 5 7 6 6 7 10 8 2 9 1 11
REMARK H PARENT 6 10 1 12
REMARK Flexibility Score: inf
ROOT
ATOM      1  C   UNL     1      84.040  32.072  66.852  1.00  0.00     0.048 A 
ATOM      2  C   UNL     1      85.155  32.129  67.708  1.00  0.00     0.030 A 
ATOM      3  C   UNL     1      86.399  31.785  67.181  1.00  0.00     0.046 A 
ATOM      4  C   UNL     1      86.546  31.404  65.874  1.00  0.00     0.003 A 
ATOM      5  C   UNL     1      87.881  31.135  65.671  1.00  0.00     0.028 A 
ATOM      6  C   UNL     1      88.491  31.375  66.899  1.00  0.00     0.083 A 
ATOM      7  N   UNL     1      87.580  31.772  67.817  1.00  0.00    -0.361 N 
ATOM      8  C   UNL     1      85.463  31.336  64.999  1.00  0.00     0.056 A 
ATOM      9  C   UNL     1      84.189  31.677  65.502  1.00  0.00     0.116 A 
ATOM     10  H   UNL     1      87.764  32.017  68.816  1.00  0.00     0.166 HD
ENDROOT
BRANCH   9  11
ATOM     11  O   UNL     1      83.069  31.629  64.675  1.00  0.00    -0.508 OA
ATOM     12  H   UNL     1      82.953  32.274  63.902  1.00  0.00     0.293 HD
ENDBRANCH   9  11
TORSDOF 1
ENDMDL
MODEL 2
REMARK VINA RESULT:    -4.717      2.568      4.025
REMARK INTER + INTRA:          -4.855
REMARK INTER:                  -4.855
REMARK INTRA:                   0.000
REMARK UNBOUND:                 0.000
REMARK SMILES Oc1ccc2[nH]ccc2c1
REMARK SMILES IDX 3 1 4 2 5 3 9 4 8 5 7 6 6 7 10 8 2 9 1 11
REMARK H PARENT 6 10 1 12
REMARK Flexibility Score: inf
ROOT
ATOM      1  C   UNL     1      87.564  31.021  66.137  1.00  0.00     0.048 A 
ATOM      2  C   UNL     1      86.741  30.480  65.132  1.00  0.00     0.030 A 
ATOM      3  C   UNL     1      85.383  30.795  65.164  1.00  0.00     0.046 A 
ATOM      4  C   UNL     1      84.855  31.603  66.135  1.00  0.00     0.003 A 
ATOM      5  C   UNL     1      83.504  31.716  65.887  1.00  0.00     0.028 A 
ATOM      6  C   UNL     1      83.280  30.950  64.747  1.00  0.00     0.083 A 
ATOM      7  N   UNL     1      84.431  30.390  64.309  1.00  0.00    -0.361 N 
ATOM      8  C   UNL     1      85.641  32.154  67.144  1.00  0.00     0.056 A 
ATOM      9  C   UNL     1      87.021  31.855  67.142  1.00  0.00     0.116 A 
ATOM     10  H   UNL     1      84.549  29.770  63.477  1.00  0.00     0.166 HD
ENDROOT
BRANCH   9  11
ATOM     11  O   UNL     1      87.857  32.377  68.125  1.00  0.00    -0.508 OA
ATOM     12  H   UNL     1      87.496  32.677  69.023  1.00  0.00     0.293 HD
ENDBRANCH   9  11
TORSDOF 1
ENDMDL
MODEL 3
REMARK VINA RESULT:    -4.683      2.554      3.586
REMARK INTER + INTRA:          -4.820
REMARK INTER:                  -4.820
REMARK INTRA:                   0.000
REMARK UNBOUND:                 0.000
REMARK SMILES Oc1ccc2[nH]ccc2c1
REMARK SMILES IDX 3 1 4 2 5 3 9 4 8 5 7 6 6 7 10 8 2 9 1 11
REMARK H PARENT 6 10 1 12
REMARK Flexibility Score: inf
ROOT
ATOM      1  C   UNL     1      86.723  32.199  67.952  1.00  0.00     0.048 A 
ATOM      2  C   UNL     1      85.334  32.321  67.761  1.00  0.00     0.030 A 
ATOM      3  C   UNL     1      84.784  31.763  66.608  1.00  0.00     0.046 A 
ATOM      4  C   UNL     1      85.558  31.116  65.683  1.00  0.00     0.003 A 
ATOM      5  C   UNL     1      84.723  30.687  64.675  1.00  0.00     0.028 A 
ATOM      6  C   UNL     1      83.452  31.108  65.053  1.00  0.00     0.083 A 
ATOM      7  N   UNL     1      83.495  31.765  66.235  1.00  0.00    -0.361 N 
ATOM      8  C   UNL     1      86.936  30.978  65.840  1.00  0.00     0.056 A 
ATOM      9  C   UNL     1      87.525  31.532  66.997  1.00  0.00     0.116 A 
ATOM     10  H   UNL     1      82.688  32.185  66.748  1.00  0.00     0.166 HD
ENDROOT
BRANCH   9  11
ATOM     11  O   UNL     1      88.897  31.425  67.210  1.00  0.00    -0.508 OA
ATOM     12  H   UNL     1      89.365  31.968  67.926  1.00  0.00     0.293 HD
ENDBRANCH   9  11
TORSDOF 1
ENDMDL
MODEL 4
REMARK VINA RESULT:    -4.603     17.259     17.519
REMARK INTER + INTRA:          -4.737
REMARK INTER:                  -4.737
REMARK INTRA:                   0.000
REMARK UNBOUND:                 0.000
REMARK SMILES Oc1ccc2[nH]ccc2c1
REMARK SMILES IDX 3 1 4 2 5 3 9 4 8 5 7 6 6 7 10 8 2 9 1 11
REMARK H PARENT 6 10 1 12
REMARK Flexibility Score: inf
ROOT
ATOM      1  C   UNL     1      72.646  33.270  55.035  1.00  0.00     0.048 A 
ATOM      2  C   UNL     1      73.408  33.067  53.870  1.00  0.00     0.030 A 
ATOM      3  C   UNL     1      74.212  34.116  53.427  1.00  0.00     0.046 A 
ATOM      4  C   UNL     1      74.267  35.311  54.093  1.00  0.00     0.003 A 
ATOM      5  C   UNL     1      75.141  36.125  53.407  1.00  0.00     0.028 A 
ATOM      6  C   UNL     1      75.582  35.359  52.332  1.00  0.00     0.083 A 
ATOM      7  N   UNL     1      75.012  34.133  52.350  1.00  0.00    -0.361 N 
ATOM      8  C   UNL     1      73.524  35.546  55.249  1.00  0.00     0.056 A 
ATOM      9  C   UNL     1      72.700  34.504  55.725  1.00  0.00     0.116 A 
ATOM     10  H   UNL     1      75.165  33.361  51.663  1.00  0.00     0.166 HD
ENDROOT
BRANCH   9  11
ATOM     11  O   UNL     1      71.935  34.679  56.875  1.00  0.00    -0.508 OA
ATOM     12  H   UNL     1      71.923  35.562  57.373  1.00  0.00     0.293 HD
ENDBRANCH   9  11
TORSDOF 1
ENDMDL
MODEL 5
REMARK VINA RESULT:    -4.454      1.532      2.209
REMARK INTER + INTRA:          -4.584
REMARK INTER:                  -4.584
REMARK INTRA:                   0.000
REMARK UNBOUND:                 0.000
REMARK SMILES Oc1ccc2[nH]ccc2c1
REMARK SMILES IDX 3 1 4 2 5 3 9 4 8 5 7 6 6 7 10 8 2 9 1 11
REMARK H PARENT 6 10 1 12
REMARK Flexibility Score: inf
ROOT
ATOM      1  C   UNL     1      83.790  31.695  65.453  1.00  0.00     0.048 A 
ATOM      2  C   UNL     1      85.022  32.030  64.861  1.00  0.00     0.030 A 
ATOM      3  C   UNL     1      86.100  32.292  65.705  1.00  0.00     0.046 A 
ATOM      4  C   UNL     1      85.978  32.230  67.067  1.00  0.00     0.003 A 
ATOM      5  C   UNL     1      87.208  32.539  67.605  1.00  0.00     0.028 A 
ATOM      6  C   UNL     1      88.033  32.778  66.510  1.00  0.00     0.083 A 
ATOM      7  N   UNL     1      87.351  32.625  65.352  1.00  0.00    -0.361 N 
ATOM      8  C   UNL     1      84.773  31.903  67.686  1.00  0.00     0.056 A 
ATOM      9  C   UNL     1      83.661  31.632  66.860  1.00  0.00     0.116 A 
ATOM     10  H   UNL     1      87.726  32.744  64.384  1.00  0.00     0.166 HD
ENDROOT
BRANCH   9  11
ATOM     11  O   UNL     1      82.431  31.299  67.421  1.00  0.00    -0.508 OA
ATOM     12  H   UNL     1      81.654  31.950  67.417  1.00  0.00     0.293 HD
ENDBRANCH   9  11
TORSDOF 1
ENDMDL
MODEL 6
REMARK VINA RESULT:    -4.378     15.303     16.010
REMARK INTER + INTRA:          -4.506
REMARK INTER:                  -4.506
REMARK INTRA:                   0.000
REMARK UNBOUND:                 0.000
REMARK SMILES Oc1ccc2[nH]ccc2c1
REMARK SMILES IDX 3 1 4 2 5 3 9 4 8 5 7 6 6 7 10 8 2 9 1 11
REMARK H PARENT 6 10 1 12
REMARK Flexibility Score: inf
ROOT
ATOM      1  C   UNL     1      77.073  32.804  52.414  1.00  0.00     0.048 A 
ATOM      2  C   UNL     1      78.266  32.073  52.562  1.00  0.00     0.030 A 
ATOM      3  C   UNL     1      79.469  32.735  52.322  1.00  0.00     0.046 A 
ATOM      4  C   UNL     1      79.504  34.054  51.955  1.00  0.00     0.003 A 
ATOM      5  C   UNL     1      80.827  34.403  51.797  1.00  0.00     0.028 A 
ATOM      6  C   UNL     1      81.544  33.246  52.085  1.00  0.00     0.083 A 
ATOM      7  N   UNL     1      80.710  32.231  52.406  1.00  0.00    -0.361 N 
ATOM      8  C   UNL     1      78.341  34.807  51.799  1.00  0.00     0.056 A 
ATOM      9  C   UNL     1      77.106  34.166  52.034  1.00  0.00     0.116 A 
ATOM     10  H   UNL     1      80.981  31.256  52.664  1.00  0.00     0.166 HD
ENDROOT
BRANCH   9  11
ATOM     11  O   UNL     1      75.910  34.867  51.894  1.00  0.00    -0.508 OA
ATOM     12  H   UNL     1      75.863  35.734  51.371  1.00  0.00     0.293 HD
ENDBRANCH   9  11
TORSDOF 1
ENDMDL
MODEL 7
REMARK VINA RESULT:    -4.331     15.598     16.480
REMARK INTER + INTRA:          -4.457
REMARK INTER:                  -4.457
REMARK INTRA:                   0.000
REMARK UNBOUND:                 0.000
REMARK SMILES Oc1ccc2[nH]ccc2c1
REMARK SMILES IDX 3 1 4 2 5 3 9 4 8 5 7 6 6 7 10 8 2 9 1 11
REMARK H PARENT 6 10 1 12
REMARK Flexibility Score: inf
ROOT
ATOM      1  C   UNL     1      79.740  31.992  52.382  1.00  0.00     0.048 A 
ATOM      2  C   UNL     1      78.345  32.034  52.560  1.00  0.00     0.030 A 
ATOM      3  C   UNL     1      77.698  33.249  52.343  1.00  0.00     0.046 A 
ATOM      4  C   UNL     1      78.384  34.373  51.969  1.00  0.00     0.003 A 
ATOM      5  C   UNL     1      77.466  35.392  51.838  1.00  0.00     0.028 A 
ATOM      6  C   UNL     1      76.238  34.816  52.148  1.00  0.00     0.083 A 
ATOM      7  N   UNL     1      76.385  33.507  52.455  1.00  0.00    -0.361 N 
ATOM      8  C   UNL     1      79.766  34.367  51.785  1.00  0.00     0.056 A 
ATOM      9  C   UNL     1      80.452  33.152  51.997  1.00  0.00     0.116 A 
ATOM     10  H   UNL     1      75.629  32.838  52.724  1.00  0.00     0.166 HD
ENDROOT
BRANCH   9  11
ATOM     11  O   UNL     1      81.833  33.084  51.828  1.00  0.00    -0.508 OA
ATOM     12  H   UNL     1      82.313  32.195  51.745  1.00  0.00     0.293 HD
ENDBRANCH   9  11
TORSDOF 1
ENDMDL
MODEL 8
REMARK VINA RESULT:    -4.312      2.011      2.655
REMARK INTER + INTRA:          -4.438
REMARK INTER:                  -4.438
REMARK INTRA:                   0.000
REMARK UNBOUND:                 0.000
REMARK SMILES Oc1ccc2[nH]ccc2c1
REMARK SMILES IDX 3 1 4 2 5 3 9 4 8 5 7 6 6 7 10 8 2 9 1 11
REMARK H PARENT 6 10 1 12
REMARK Flexibility Score: inf
ROOT
ATOM      1  C   UNL     1      83.310  30.355  64.749  1.00  0.00     0.048 A 
ATOM      2  C   UNL     1      84.220  29.304  64.537  1.00  0.00     0.030 A 
ATOM      3  C   UNL     1      85.563  29.538  64.823  1.00  0.00     0.046 A 
ATOM      4  C   UNL     1      85.998  30.747  65.296  1.00  0.00     0.003 A 
ATOM      5  C   UNL     1      87.361  30.654  65.475  1.00  0.00     0.028 A 
ATOM      6  C   UNL     1      87.689  29.358  65.092  1.00  0.00     0.083 A 
ATOM      7  N   UNL     1      86.588  28.680  64.695  1.00  0.00    -0.361 N 
ATOM      8  C   UNL     1      85.124  31.810  65.516  1.00  0.00     0.056 A 
ATOM      9  C   UNL     1      83.756  31.606  65.236  1.00  0.00     0.116 A 
ATOM     10  H   UNL     1      86.548  27.692  64.358  1.00  0.00     0.166 HD
ENDROOT
BRANCH   9  11
ATOM     11  O   UNL     1      82.834  32.631  65.436  1.00  0.00    -0.508 OA
ATOM     12  H   UNL     1      83.129  33.596  65.535  1.00  0.00     0.293 HD
ENDBRANCH   9  11
TORSDOF 1
ENDMDL
MODEL 9
REMARK VINA RESULT:    -4.189     15.738     17.052
REMARK INTER + INTRA:          -4.311
REMARK INTER:                  -4.311
REMARK INTRA:                   0.000
REMARK UNBOUND:                 0.000
REMARK SMILES Oc1ccc2[nH]ccc2c1
REMARK SMILES IDX 3 1 4 2 5 3 9 4 8 5 7 6 6 7 10 8 2 9 1 11
REMARK H PARENT 6 10 1 12
REMARK Flexibility Score: inf
ROOT
ATOM      1  C   UNL     1      81.463  33.666  50.760  1.00  0.00     0.048 A 
ATOM      2  C   UNL     1      80.811  34.611  49.946  1.00  0.00     0.030 A 
ATOM      3  C   UNL     1      79.571  35.087  50.367  1.00  0.00     0.046 A 
ATOM      4  C   UNL     1      78.994  34.658  51.532  1.00  0.00     0.003 A 
ATOM      5  C   UNL     1      77.787  35.312  51.659  1.00  0.00     0.028 A 
ATOM      6  C   UNL     1      77.695  36.125  50.533  1.00  0.00     0.083 A 
ATOM      7  N   UNL     1      78.788  35.984  49.748  1.00  0.00    -0.361 N 
ATOM      8  C   UNL     1      79.611  33.723  52.361  1.00  0.00     0.056 A 
ATOM      9  C   UNL     1      80.868  33.220  51.963  1.00  0.00     0.116 A 
ATOM     10  H   UNL     1      78.978  36.474  48.846  1.00  0.00     0.166 HD
ENDROOT
BRANCH   9  11
ATOM     11  O   UNL     1      81.534  32.283  52.750  1.00  0.00    -0.508 OA
ATOM     12  H   UNL     1      81.453  31.289  52.571  1.00  0.00     0.293 HD
ENDBRANCH   9  11
TORSDOF 1
ENDMDL
