MODEL 1
REMARK VINA RESULT:    -7.242      0.000      0.000
REMARK INTER + INTRA:          -8.832
REMARK INTER:                  -8.512
REMARK INTRA:                  -0.320
REMARK UNBOUND:                -0.320
REMARK SMILES O=c1c(O)c(-c2ccc(O)c(O)c2)oc2cc(O)ccc12
REMARK SMILES IDX 5 1 3 2 2 3 1 4 21 5 15 6 14 7 16 8 17 9 19 10 20 11 6 12
REMARK SMILES IDX 7 13 8 14 9 15 13 16 11 17 10 18 12 20 4 22 18 24
REMARK H PARENT 10 19 12 21 4 23 18 25
REMARK Flexibility Score: inf
ROOT
ATOM      1  C   UNL     1       3.670 -18.984   7.692  1.00  0.00     0.180 A 
ATOM      2  C   UNL     1       2.555 -18.217   7.295  1.00  0.00     0.208 A 
ATOM      3  C   UNL     1       2.670 -16.818   7.271  1.00  0.00     0.235 A 
ATOM      4  O   UNL     1       1.690 -16.111   6.909  1.00  0.00    -0.285 OA
ATOM      5  C   UNL     1       3.878 -16.218   7.660  1.00  0.00     0.069 A 
ATOM      6  C   UNL     1       4.939 -17.055   8.068  1.00  0.00     0.142 A 
ATOM      7  O   UNL     1       4.792 -18.375   8.068  1.00  0.00    -0.452 OA
ATOM      8  C   UNL     1       6.156 -16.494   8.473  1.00  0.00     0.094 A 
ATOM      9  C   UNL     1       6.327 -15.106   8.474  1.00  0.00     0.119 A 
ATOM     10  C   UNL     1       5.276 -14.272   8.069  1.00  0.00     0.047 A 
ATOM     11  C   UNL     1       4.056 -14.822   7.664  1.00  0.00     0.020 A 
ENDROOT
BRANCH   1  12
ATOM     12  C   UNL     1       3.634 -20.464   7.726  1.00  0.00     0.025 A 
ATOM     13  C   UNL     1       4.054 -21.232   6.627  1.00  0.00     0.016 A 
ATOM     14  C   UNL     1       4.034 -22.628   6.691  1.00  0.00     0.051 A 
ATOM     15  C   UNL     1       3.608 -23.276   7.858  1.00  0.00     0.157 A 
ATOM     16  C   UNL     1       3.227 -21.118   8.901  1.00  0.00     0.062 A 
ATOM     17  C   UNL     1       3.205 -22.516   8.969  1.00  0.00     0.158 A 
BRANCH  15  18
ATOM     18  O   UNL     1       3.587 -24.668   7.918  1.00  0.00    -0.504 OA
ATOM     19  H   UNL     1       3.083 -25.160   8.647  1.00  0.00     0.293 HD
ENDBRANCH  15  18
BRANCH  17  20
ATOM     20  O   UNL     1       2.783 -23.130  10.147  1.00  0.00    -0.504 OA
ATOM     21  H   UNL     1       2.179 -22.660  10.812  1.00  0.00     0.293 HD
ENDBRANCH  17  20
ENDBRANCH   1  12
BRANCH   2  22
ATOM     22  O   UNL     1       1.351 -18.840   6.960  1.00  0.00    -0.502 OA
ATOM     23  H   UNL     1       1.133 -19.125   6.013  1.00  0.00     0.293 HD
ENDBRANCH   2  22
BRANCH   9  24
ATOM     24  O   UNL     1       7.546 -14.565   8.880  1.00  0.00    -0.508 OA
ATOM     25  H   UNL     1       8.263 -14.315   8.209  1.00  0.00     0.293 HD
ENDBRANCH   9  24
TORSDOF 5
ENDMDL
MODEL 2
REMARK VINA RESULT:    -6.893      1.637      6.881
REMARK INTER + INTRA:          -8.422
REMARK INTER:                  -8.099
REMARK INTRA:                  -0.323
REMARK UNBOUND:                -0.320
REMARK SMILES O=c1c(O)c(-c2ccc(O)c(O)c2)oc2cc(O)ccc12
REMARK SMILES IDX 5 1 3 2 2 3 1 4 21 5 15 6 14 7 16 8 17 9 19 10 20 11 6 12
REMARK SMILES IDX 7 13 8 14 9 15 13 16 11 17 10 18 12 20 4 22 18 24
REMARK H PARENT 10 19 12 21 4 23 18 25
REMARK Flexibility Score: inf
ROOT
ATOM      1  C   UNL     1       4.820 -18.340   6.979  1.00  0.00     0.180 A 
ATOM      2  C   UNL     1       5.147 -18.833   5.699  1.00  0.00     0.208 A 
ATOM      3  C   UNL     1       4.984 -20.203   5.440  1.00  0.00     0.235 A 
ATOM      4  O   UNL     1       5.259 -20.666   4.300  1.00  0.00    -0.285 OA
ATOM      5  C   UNL     1       4.521 -21.048   6.461  1.00  0.00     0.069 A 
ATOM      6  C   UNL     1       4.239 -20.480   7.722  1.00  0.00     0.142 A 
ATOM      7  O   UNL     1       4.398 -19.177   7.924  1.00  0.00    -0.452 OA
ATOM      8  C   UNL     1       3.785 -21.292   8.769  1.00  0.00     0.094 A 
ATOM      9  C   UNL     1       3.608 -22.665   8.571  1.00  0.00     0.119 A 
ATOM     10  C   UNL     1       3.886 -23.231   7.319  1.00  0.00     0.047 A 
ATOM     11  C   UNL     1       4.341 -22.430   6.268  1.00  0.00     0.020 A 
ENDROOT
BRANCH   1  12
ATOM     12  C   UNL     1       4.947 -16.905   7.324  1.00  0.00     0.025 A 
ATOM     13  C   UNL     1       3.897 -16.000   7.093  1.00  0.00     0.016 A 
ATOM     14  C   UNL     1       4.032 -14.656   7.450  1.00  0.00     0.051 A 
ATOM     15  C   UNL     1       5.210 -14.199   8.054  1.00  0.00     0.157 A 
ATOM     16  C   UNL     1       6.119 -16.447   7.950  1.00  0.00     0.062 A 
ATOM     17  C   UNL     1       6.257 -15.101   8.308  1.00  0.00     0.158 A 
BRANCH  15  18
ATOM     18  O   UNL     1       5.342 -12.857   8.407  1.00  0.00    -0.504 OA
ATOM     19  H   UNL     1       4.901 -12.481   9.239  1.00  0.00     0.293 HD
ENDBRANCH  15  18
BRANCH  17  20
ATOM     20  O   UNL     1       7.439 -14.680   8.915  1.00  0.00    -0.504 OA
ATOM     21  H   UNL     1       7.481 -13.850   9.495  1.00  0.00     0.293 HD
ENDBRANCH  17  20
ENDBRANCH   1  12
BRANCH   2  22
ATOM     22  O   UNL     1       5.652 -17.977   4.718  1.00  0.00    -0.502 OA
ATOM     23  H   UNL     1       5.794 -16.987   4.883  1.00  0.00     0.293 HD
ENDBRANCH   2  22
BRANCH   9  24
ATOM     24  O   UNL     1       3.154 -23.457   9.624  1.00  0.00    -0.508 OA
ATOM     25  H   UNL     1       3.298 -24.460   9.631  1.00  0.00     0.293 HD
ENDBRANCH   9  24
TORSDOF 5
ENDMDL
MODEL 3
REMARK VINA RESULT:    -6.752      2.460      3.152
REMARK INTER + INTRA:          -8.257
REMARK INTER:                  -8.080
REMARK INTRA:                  -0.177
REMARK UNBOUND:                -0.320
REMARK SMILES O=c1c(O)c(-c2ccc(O)c(O)c2)oc2cc(O)ccc12
REMARK SMILES IDX 5 1 3 2 2 3 1 4 21 5 15 6 14 7 16 8 17 9 19 10 20 11 6 12
REMARK SMILES IDX 7 13 8 14 9 15 13 16 11 17 10 18 12 20 4 22 18 24
REMARK H PARENT 10 19 12 21 4 23 18 25
REMARK Flexibility Score: inf
ROOT
ATOM      1  C   UNL     1       4.744 -17.282   6.622  1.00  0.00     0.180 A 
ATOM      2  C   UNL     1       4.866 -16.913   5.266  1.00  0.00     0.208 A 
ATOM      3  C   UNL     1       4.968 -15.551   4.942  1.00  0.00     0.235 A 
ATOM      4  O   UNL     1       5.088 -15.197   3.738  1.00  0.00    -0.285 OA
ATOM      5  C   UNL     1       4.927 -14.593   5.967  1.00  0.00     0.069 A 
ATOM      6  C   UNL     1       4.779 -15.043   7.297  1.00  0.00     0.142 A 
ATOM      7  O   UNL     1       4.694 -16.342   7.562  1.00  0.00    -0.452 OA
ATOM      8  C   UNL     1       4.724 -14.117   8.346  1.00  0.00     0.094 A 
ATOM      9  C   UNL     1       4.817 -12.747   8.083  1.00  0.00     0.119 A 
ATOM     10  C   UNL     1       4.965 -12.297   6.764  1.00  0.00     0.047 A 
ATOM     11  C   UNL     1       5.020 -13.213   5.709  1.00  0.00     0.020 A 
ENDROOT
BRANCH   1  12
ATOM     12  C   UNL     1       4.649 -18.698   7.046  1.00  0.00     0.025 A 
ATOM     13  C   UNL     1       3.462 -19.224   7.584  1.00  0.00     0.016 A 
ATOM     14  C   UNL     1       3.389 -20.570   7.953  1.00  0.00     0.051 A 
ATOM     15  C   UNL     1       4.494 -21.412   7.779  1.00  0.00     0.157 A 
ATOM     16  C   UNL     1       5.749 -19.551   6.853  1.00  0.00     0.062 A 
ATOM     17  C   UNL     1       5.679 -20.900   7.222  1.00  0.00     0.158 A 
BRANCH  15  18
ATOM     18  O   UNL     1       4.419 -22.753   8.150  1.00  0.00    -0.504 OA
ATOM     19  H   UNL     1       3.584 -23.303   7.987  1.00  0.00     0.293 HD
ENDBRANCH  15  18
BRANCH  17  20
ATOM     20  O   UNL     1       6.794 -21.713   7.028  1.00  0.00    -0.504 OA
ATOM     21  H   UNL     1       6.793 -22.478   6.364  1.00  0.00     0.293 HD
ENDBRANCH  17  20
ENDBRANCH   1  12
BRANCH   2  22
ATOM     22  O   UNL     1       4.854 -17.886   4.264  1.00  0.00    -0.502 OA
ATOM     23  H   UNL     1       4.011 -18.382   4.000  1.00  0.00     0.293 HD
ENDBRANCH   2  22
BRANCH   9  24
ATOM     24  O   UNL     1       4.761 -11.840   9.140  1.00  0.00    -0.508 OA
ATOM     25  H   UNL     1       4.304 -10.941   9.042  1.00  0.00     0.293 HD
ENDBRANCH   9  24
TORSDOF 5
ENDMDL
MODEL 4
REMARK VINA RESULT:    -6.734      2.327      3.372
REMARK INTER + INTRA:          -8.236
REMARK INTER:                  -7.974
REMARK INTRA:                  -0.262
REMARK UNBOUND:                -0.320
REMARK SMILES O=c1c(O)c(-c2ccc(O)c(O)c2)oc2cc(O)ccc12
REMARK SMILES IDX 5 1 3 2 2 3 1 4 21 5 15 6 14 7 16 8 17 9 19 10 20 11 6 12
REMARK SMILES IDX 7 13 8 14 9 15 13 16 11 17 10 18 12 20 4 22 18 24
REMARK H PARENT 10 19 12 21 4 23 18 25
REMARK Flexibility Score: inf
ROOT
ATOM      1  C   UNL     1       4.967 -17.945   6.910  1.00  0.00     0.180 A 
ATOM      2  C   UNL     1       5.459 -17.044   7.877  1.00  0.00     0.208 A 
ATOM      3  C   UNL     1       5.471 -15.672   7.579  1.00  0.00     0.235 A 
ATOM      4  O   UNL     1       5.896 -14.845   8.431  1.00  0.00    -0.285 OA
ATOM      5  C   UNL     1       5.014 -15.234   6.326  1.00  0.00     0.069 A 
ATOM      6  C   UNL     1       4.561 -16.202   5.404  1.00  0.00     0.142 A 
ATOM      7  O   UNL     1       4.558 -17.490   5.728  1.00  0.00    -0.452 OA
ATOM      8  C   UNL     1       4.107 -15.806   4.140  1.00  0.00     0.094 A 
ATOM      9  C   UNL     1       4.099 -14.453   3.786  1.00  0.00     0.119 A 
ATOM     10  C   UNL     1       4.548 -13.489   4.699  1.00  0.00     0.047 A 
ATOM     11  C   UNL     1       5.004 -13.875   5.964  1.00  0.00     0.020 A 
ENDROOT
BRANCH   1  12
ATOM     12  C   UNL     1       4.905 -19.404   7.156  1.00  0.00     0.025 A 
ATOM     13  C   UNL     1       5.867 -20.278   6.621  1.00  0.00     0.016 A 
ATOM     14  C   UNL     1       5.802 -21.649   6.887  1.00  0.00     0.051 A 
ATOM     15  C   UNL     1       4.785 -22.164   7.701  1.00  0.00     0.157 A 
ATOM     16  C   UNL     1       3.900 -19.922   7.989  1.00  0.00     0.062 A 
ATOM     17  C   UNL     1       3.831 -21.295   8.257  1.00  0.00     0.158 A 
BRANCH  15  18
ATOM     18  O   UNL     1       4.722 -23.531   7.963  1.00  0.00    -0.504 OA
ATOM     19  H   UNL     1       5.343 -23.973   8.631  1.00  0.00     0.293 HD
ENDBRANCH  15  18
BRANCH  17  20
ATOM     20  O   UNL     1       2.812 -21.774   9.078  1.00  0.00    -0.504 OA
ATOM     21  H   UNL     1       2.064 -21.177   9.412  1.00  0.00     0.293 HD
ENDBRANCH  17  20
ENDBRANCH   1  12
BRANCH   2  22
ATOM     22  O   UNL     1       5.953 -17.513   9.096  1.00  0.00    -0.502 OA
ATOM     23  H   UNL     1       5.902 -18.490   9.361  1.00  0.00     0.293 HD
ENDBRANCH   2  22
BRANCH   9  24
ATOM     24  O   UNL     1       3.643 -14.076   2.524  1.00  0.00    -0.508 OA
ATOM     25  H   UNL     1       3.925 -13.201   2.099  1.00  0.00     0.293 HD
ENDBRANCH   9  24
TORSDOF 5
ENDMDL
MODEL 5
REMARK VINA RESULT:    -6.683      1.660      2.247
REMARK INTER + INTRA:          -8.175
REMARK INTER:                  -8.161
REMARK INTRA:                  -0.015
REMARK UNBOUND:                -0.320
REMARK SMILES O=c1c(O)c(-c2ccc(O)c(O)c2)oc2cc(O)ccc12
REMARK SMILES IDX 5 1 3 2 2 3 1 4 21 5 15 6 14 7 16 8 17 9 19 10 20 11 6 12
REMARK SMILES IDX 7 13 8 14 9 15 13 16 11 17 10 18 12 20 4 22 18 24
REMARK H PARENT 10 19 12 21 4 23 18 25
REMARK Flexibility Score: inf
ROOT
ATOM      1  C   UNL     1       3.315 -18.301   7.571  1.00  0.00     0.180 A 
ATOM      2  C   UNL     1       2.077 -18.034   6.952  1.00  0.00     0.208 A 
ATOM      3  C   UNL     1       1.660 -16.701   6.818  1.00  0.00     0.235 A 
ATOM      4  O   UNL     1       0.561 -16.437   6.259  1.00  0.00    -0.285 OA
ATOM      5  C   UNL     1       2.472 -15.671   7.319  1.00  0.00     0.069 A 
ATOM      6  C   UNL     1       3.686 -16.022   7.947  1.00  0.00     0.142 A 
ATOM      7  O   UNL     1       4.048 -17.296   8.045  1.00  0.00    -0.452 OA
ATOM      8  C   UNL     1       4.519 -15.024   8.467  1.00  0.00     0.094 A 
ATOM      9  C   UNL     1       4.154 -13.678   8.367  1.00  0.00     0.119 A 
ATOM     10  C   UNL     1       2.949 -13.326   7.744  1.00  0.00     0.047 A 
ATOM     11  C   UNL     1       2.110 -14.315   7.221  1.00  0.00     0.020 A 
ENDROOT
BRANCH   1  12
ATOM     12  C   UNL     1       3.833 -19.679   7.733  1.00  0.00     0.025 A 
ATOM     13  C   UNL     1       3.053 -20.689   8.323  1.00  0.00     0.016 A 
ATOM     14  C   UNL     1       3.554 -21.988   8.442  1.00  0.00     0.051 A 
ATOM     15  C   UNL     1       4.832 -22.301   7.963  1.00  0.00     0.157 A 
ATOM     16  C   UNL     1       5.106 -20.002   7.235  1.00  0.00     0.062 A 
ATOM     17  C   UNL     1       5.611 -21.302   7.353  1.00  0.00     0.158 A 
BRANCH  15  18
ATOM     18  O   UNL     1       5.329 -23.597   8.086  1.00  0.00    -0.504 OA
ATOM     19  H   UNL     1       6.222 -23.784   8.528  1.00  0.00     0.293 HD
ENDBRANCH  15  18
BRANCH  17  20
ATOM     20  O   UNL     1       6.884 -21.582   6.859  1.00  0.00    -0.504 OA
ATOM     21  H   UNL     1       7.721 -21.196   7.279  1.00  0.00     0.293 HD
ENDBRANCH  17  20
ENDBRANCH   1  12
BRANCH   2  22
ATOM     22  O   UNL     1       1.267 -19.083   6.508  1.00  0.00    -0.502 OA
ATOM     23  H   UNL     1       1.615 -19.817   5.903  1.00  0.00     0.293 HD
ENDBRANCH   2  22
BRANCH   9  24
ATOM     24  O   UNL     1       4.995 -12.698   8.890  1.00  0.00    -0.508 OA
ATOM     25  H   UNL     1       4.802 -11.711   8.762  1.00  0.00     0.293 HD
ENDBRANCH   9  24
TORSDOF 5
ENDMDL
MODEL 6
REMARK VINA RESULT:    -6.576      2.109      6.913
REMARK INTER + INTRA:          -8.049
REMARK INTER:                  -7.839
REMARK INTRA:                  -0.210
REMARK UNBOUND:                -0.320
REMARK SMILES O=c1c(O)c(-c2ccc(O)c(O)c2)oc2cc(O)ccc12
REMARK SMILES IDX 5 1 3 2 2 3 1 4 21 5 15 6 14 7 16 8 17 9 19 10 20 11 6 12
REMARK SMILES IDX 7 13 8 14 9 15 13 16 11 17 10 18 12 20 4 22 18 24
REMARK H PARENT 10 19 12 21 4 23 18 25
REMARK Flexibility Score: inf
ROOT
ATOM      1  C   UNL     1       4.009 -16.335   7.341  1.00  0.00     0.180 A 
ATOM      2  C   UNL     1       2.699 -16.726   7.689  1.00  0.00     0.208 A 
ATOM      3  C   UNL     1       2.426 -18.091   7.872  1.00  0.00     0.235 A 
ATOM      4  O   UNL     1       1.265 -18.464   8.193  1.00  0.00    -0.285 OA
ATOM      5  C   UNL     1       3.452 -19.030   7.685  1.00  0.00     0.069 A 
ATOM      6  C   UNL     1       4.730 -18.561   7.313  1.00  0.00     0.142 A 
ATOM      7  O   UNL     1       4.949 -17.259   7.158  1.00  0.00    -0.452 OA
ATOM      8  C   UNL     1       5.776 -19.467   7.108  1.00  0.00     0.094 A 
ATOM      9  C   UNL     1       5.563 -20.840   7.271  1.00  0.00     0.119 A 
ATOM     10  C   UNL     1       4.295 -21.310   7.641  1.00  0.00     0.047 A 
ATOM     11  C   UNL     1       3.243 -20.412   7.847  1.00  0.00     0.020 A 
ENDROOT
BRANCH   1  12
ATOM     12  C   UNL     1       4.380 -14.915   7.148  1.00  0.00     0.025 A 
ATOM     13  C   UNL     1       4.645 -14.393   5.870  1.00  0.00     0.016 A 
ATOM     14  C   UNL     1       4.969 -13.043   5.711  1.00  0.00     0.051 A 
ATOM     15  C   UNL     1       5.020 -12.192   6.822  1.00  0.00     0.157 A 
ATOM     16  C   UNL     1       4.411 -14.053   8.257  1.00  0.00     0.062 A 
ATOM     17  C   UNL     1       4.736 -12.700   8.102  1.00  0.00     0.158 A 
BRANCH  15  18
ATOM     18  O   UNL     1       5.345 -10.847   6.660  1.00  0.00    -0.504 OA
ATOM     19  H   UNL     1       5.411 -10.424   5.742  1.00  0.00     0.293 HD
ENDBRANCH  15  18
BRANCH  17  20
ATOM     20  O   UNL     1       4.770 -11.878   9.227  1.00  0.00    -0.504 OA
ATOM     21  H   UNL     1       4.382 -10.943   9.222  1.00  0.00     0.293 HD
ENDBRANCH  17  20
ENDBRANCH   1  12
BRANCH   2  22
ATOM     22  O   UNL     1       1.687 -15.772   7.819  1.00  0.00    -0.502 OA
ATOM     23  H   UNL     1       1.189 -15.627   8.689  1.00  0.00     0.293 HD
ENDBRANCH   2  22
BRANCH   9  24
ATOM     24  O   UNL     1       6.616 -21.728   7.063  1.00  0.00    -0.508 OA
ATOM     25  H   UNL     1       6.566 -22.453   6.357  1.00  0.00     0.293 HD
ENDBRANCH   9  24
TORSDOF 5
ENDMDL
MODEL 7
REMARK VINA RESULT:    -6.472      1.384      2.874
REMARK INTER + INTRA:          -7.928
REMARK INTER:                  -7.616
REMARK INTRA:                  -0.312
REMARK UNBOUND:                -0.320
REMARK SMILES O=c1c(O)c(-c2ccc(O)c(O)c2)oc2cc(O)ccc12
REMARK SMILES IDX 5 1 3 2 2 3 1 4 21 5 15 6 14 7 16 8 17 9 19 10 20 11 6 12
REMARK SMILES IDX 7 13 8 14 9 15 13 16 11 17 10 18 12 20 4 22 18 24
REMARK H PARENT 10 19 12 21 4 23 18 25
REMARK Flexibility Score: inf
ROOT
ATOM      1  C   UNL     1       3.600 -19.097   7.673  1.00  0.00     0.180 A 
ATOM      2  C   UNL     1       4.844 -18.474   7.445  1.00  0.00     0.208 A 
ATOM      3  C   UNL     1       4.934 -17.078   7.566  1.00  0.00     0.235 A 
ATOM      4  O   UNL     1       6.038 -16.499   7.378  1.00  0.00    -0.285 OA
ATOM      5  C   UNL     1       3.785 -16.338   7.888  1.00  0.00     0.069 A 
ATOM      6  C   UNL     1       2.572 -17.035   8.076  1.00  0.00     0.142 A 
ATOM      7  O   UNL     1       2.531 -18.358   7.961  1.00  0.00    -0.452 OA
ATOM      8  C   UNL     1       1.402 -16.332   8.388  1.00  0.00     0.094 A 
ATOM      9  C   UNL     1       1.430 -14.940   8.517  1.00  0.00     0.119 A 
ATOM     10  C   UNL     1       2.633 -14.245   8.332  1.00  0.00     0.047 A 
ATOM     11  C   UNL     1       3.806 -14.938   8.019  1.00  0.00     0.020 A 
ENDROOT
BRANCH   1  12
ATOM     12  C   UNL     1       3.428 -20.566   7.582  1.00  0.00     0.025 A 
ATOM     13  C   UNL     1       3.178 -21.200   6.353  1.00  0.00     0.016 A 
ATOM     14  C   UNL     1       3.045 -22.589   6.289  1.00  0.00     0.051 A 
ATOM     15  C   UNL     1       3.172 -23.366   7.448  1.00  0.00     0.157 A 
ATOM     16  C   UNL     1       3.576 -21.350   8.738  1.00  0.00     0.062 A 
ATOM     17  C   UNL     1       3.443 -22.743   8.678  1.00  0.00     0.158 A 
BRANCH  15  18
ATOM     18  O   UNL     1       3.037 -24.752   7.382  1.00  0.00    -0.504 OA
ATOM     19  H   UNL     1       3.274 -25.346   8.167  1.00  0.00     0.293 HD
ENDBRANCH  15  18
BRANCH  17  20
ATOM     20  O   UNL     1       3.583 -23.487   9.848  1.00  0.00    -0.504 OA
ATOM     21  H   UNL     1       4.383 -24.087  10.011  1.00  0.00     0.293 HD
ENDBRANCH  17  20
ENDBRANCH   1  12
BRANCH   2  22
ATOM     22  O   UNL     1       5.958 -19.231   7.078  1.00  0.00    -0.502 OA
ATOM     23  H   UNL     1       6.798 -18.811   6.698  1.00  0.00     0.293 HD
ENDBRANCH   2  22
BRANCH   9  24
ATOM     24  O   UNL     1       0.256 -14.256   8.829  1.00  0.00    -0.508 OA
ATOM     25  H   UNL     1       0.058 -13.949   9.774  1.00  0.00     0.293 HD
ENDBRANCH   9  24
TORSDOF 5
ENDMDL
MODEL 8
REMARK VINA RESULT:    -6.385      2.526      2.860
REMARK INTER + INTRA:          -7.825
REMARK INTER:                  -7.518
REMARK INTRA:                  -0.307
REMARK UNBOUND:                -0.320
REMARK SMILES O=c1c(O)c(-c2ccc(O)c(O)c2)oc2cc(O)ccc12
REMARK SMILES IDX 5 1 3 2 2 3 1 4 21 5 15 6 14 7 16 8 17 9 19 10 20 11 6 12
REMARK SMILES IDX 7 13 8 14 9 15 13 16 11 17 10 18 12 20 4 22 18 24
REMARK H PARENT 10 19 12 21 4 23 18 25
REMARK Flexibility Score: inf
ROOT
ATOM      1  C   UNL     1       3.932 -18.027   6.836  1.00  0.00     0.180 A 
ATOM      2  C   UNL     1       2.609 -18.098   7.319  1.00  0.00     0.208 A 
ATOM      3  C   UNL     1       2.049 -16.964   7.927  1.00  0.00     0.235 A 
ATOM      4  O   UNL     1       0.864 -16.999   8.358  1.00  0.00    -0.285 OA
ATOM      5  C   UNL     1       2.822 -15.799   8.058  1.00  0.00     0.069 A 
ATOM      6  C   UNL     1       4.146 -15.816   7.570  1.00  0.00     0.142 A 
ATOM      7  O   UNL     1       4.636 -16.908   6.993  1.00  0.00    -0.452 OA
ATOM      8  C   UNL     1       4.951 -14.678   7.690  1.00  0.00     0.094 A 
ATOM      9  C   UNL     1       4.449 -13.519   8.291  1.00  0.00     0.119 A 
ATOM     10  C   UNL     1       3.134 -13.498   8.775  1.00  0.00     0.047 A 
ATOM     11  C   UNL     1       2.322 -14.630   8.661  1.00  0.00     0.020 A 
ENDROOT
BRANCH   1  12
ATOM     12  C   UNL     1       4.587 -19.175   6.167  1.00  0.00     0.025 A 
ATOM     13  C   UNL     1       4.347 -19.468   4.814  1.00  0.00     0.016 A 
ATOM     14  C   UNL     1       4.995 -20.542   4.198  1.00  0.00     0.051 A 
ATOM     15  C   UNL     1       5.902 -21.329   4.919  1.00  0.00     0.157 A 
ATOM     16  C   UNL     1       5.513 -19.954   6.881  1.00  0.00     0.062 A 
ATOM     17  C   UNL     1       6.164 -21.031   6.267  1.00  0.00     0.158 A 
BRANCH  15  18
ATOM     18  O   UNL     1       6.545 -22.400   4.302  1.00  0.00    -0.504 OA
ATOM     19  H   UNL     1       6.237 -23.356   4.440  1.00  0.00     0.293 HD
ENDBRANCH  15  18
BRANCH  17  20
ATOM     20  O   UNL     1       7.067 -21.789   7.010  1.00  0.00    -0.504 OA
ATOM     21  H   UNL     1       7.067 -21.784   8.024  1.00  0.00     0.293 HD
ENDBRANCH  17  20
ENDBRANCH   1  12
BRANCH   2  22
ATOM     22  O   UNL     1       1.882 -19.286   7.220  1.00  0.00    -0.502 OA
ATOM     23  H   UNL     1       1.821 -19.814   6.357  1.00  0.00     0.293 HD
ENDBRANCH   2  22
BRANCH   9  24
ATOM     24  O   UNL     1       5.264 -12.394   8.402  1.00  0.00    -0.508 OA
ATOM     25  H   UNL     1       6.215 -12.461   8.745  1.00  0.00     0.293 HD
ENDBRANCH   9  24
TORSDOF 5
ENDMDL
MODEL 9
REMARK VINA RESULT:    -6.288      2.479      7.516
REMARK INTER + INTRA:          -7.711
REMARK INTER:                  -7.450
REMARK INTRA:                  -0.261
REMARK UNBOUND:                -0.320
REMARK SMILES O=c1c(O)c(-c2ccc(O)c(O)c2)oc2cc(O)ccc12
REMARK SMILES IDX 5 1 3 2 2 3 1 4 21 5 15 6 14 7 16 8 17 9 19 10 20 11 6 12
REMARK SMILES IDX 7 13 8 14 9 15 13 16 11 17 10 18 12 20 4 22 18 24
REMARK H PARENT 10 19 12 21 4 23 18 25
REMARK Flexibility Score: inf
ROOT
ATOM      1  C   UNL     1       3.440 -15.019   7.643  1.00  0.00     0.180 A 
ATOM      2  C   UNL     1       2.071 -15.353   7.673  1.00  0.00     0.208 A 
ATOM      3  C   UNL     1       1.706 -16.708   7.727  1.00  0.00     0.235 A 
ATOM      4  O   UNL     1       0.488 -17.032   7.765  1.00  0.00    -0.285 OA
ATOM      5  C   UNL     1       2.707 -17.692   7.729  1.00  0.00     0.069 A 
ATOM      6  C   UNL     1       4.055 -17.276   7.673  1.00  0.00     0.142 A 
ATOM      7  O   UNL     1       4.357 -15.983   7.632  1.00  0.00    -0.452 OA
ATOM      8  C   UNL     1       5.081 -18.227   7.664  1.00  0.00     0.094 A 
ATOM      9  C   UNL     1       4.779 -19.592   7.711  1.00  0.00     0.119 A 
ATOM     10  C   UNL     1       3.442 -20.009   7.768  1.00  0.00     0.047 A 
ATOM     11  C   UNL     1       2.409 -19.066   7.776  1.00  0.00     0.020 A 
ENDROOT
BRANCH   1  12
ATOM     12  C   UNL     1       3.905 -13.613   7.605  1.00  0.00     0.025 A 
ATOM     13  C   UNL     1       3.835 -12.787   8.740  1.00  0.00     0.016 A 
ATOM     14  C   UNL     1       4.303 -11.471   8.686  1.00  0.00     0.051 A 
ATOM     15  C   UNL     1       4.858 -10.966   7.503  1.00  0.00     0.157 A 
ATOM     16  C   UNL     1       4.482 -13.109   6.427  1.00  0.00     0.062 A 
ATOM     17  C   UNL     1       4.951 -11.791   6.369  1.00  0.00     0.158 A 
BRANCH  15  18
ATOM     18  O   UNL     1       5.322  -9.652   7.452  1.00  0.00    -0.504 OA
ATOM     19  H   UNL     1       5.600  -9.155   8.290  1.00  0.00     0.293 HD
ENDBRANCH  15  18
BRANCH  17  20
ATOM     20  O   UNL     1       5.505 -11.321   5.180  1.00  0.00    -0.504 OA
ATOM     21  H   UNL     1       6.499 -11.151   5.079  1.00  0.00     0.293 HD
ENDBRANCH  17  20
ENDBRANCH   1  12
BRANCH   2  22
ATOM     22  O   UNL     1       1.096 -14.354   7.620  1.00  0.00    -0.502 OA
ATOM     23  H   UNL     1       0.150 -14.536   7.307  1.00  0.00     0.293 HD
ENDBRANCH   2  22
BRANCH   9  24
ATOM     24  O   UNL     1       5.813 -20.525   7.701  1.00  0.00    -0.508 OA
ATOM     25  H   UNL     1       5.630 -21.520   7.766  1.00  0.00     0.293 HD
ENDBRANCH   9  24
TORSDOF 5
ENDMDL
