MODEL 1
REMARK VINA RESULT:    -3.491      0.000      0.000
REMARK INTER + INTRA:          -5.059
REMARK INTER:                  -4.512
REMARK INTRA:                  -0.547
REMARK UNBOUND:                -0.547
REMARK SMILES CO[C@@]1(CO)O[C@@H](CO)[C@H](O)[C@@H]1O
REMARK SMILES IDX 3 1 12 2 10 3 7 4 6 5 2 6 1 7 4 8 5 9 13 11 11 13 8 15 9 16
REMARK H PARENT 5 10 13 12 11 14 9 17
REMARK Flexibility Score: inf
ROOT
ATOM      1  C   UNL     1      19.423  27.353  39.128  1.00  0.00     0.221 C 
ATOM      2  C   UNL     1      19.374  26.575  40.463  1.00  0.00     0.207 C 
ATOM      3  C   UNL     1      20.450  25.540  40.254  1.00  0.00     0.180 C 
ATOM      4  C   UNL     1      20.375  25.294  38.753  1.00  0.00     0.179 C 
ATOM      5  O   UNL     1      19.843  26.442  38.127  1.00  0.00    -0.337 OA
ENDROOT
BRANCH   1   6
ATOM      6  O   UNL     1      20.424  28.370  39.192  1.00  0.00    -0.349 OA
ATOM      7  C   UNL     1      20.762  28.931  37.936  1.00  0.00     0.198 C 
ENDBRANCH   1   6
BRANCH   1   8
ATOM      8  C   UNL     1      18.040  27.911  38.687  1.00  0.00     0.224 C 
BRANCH   8   9
ATOM      9  O   UNL     1      17.363  26.981  37.884  1.00  0.00    -0.391 OA
ATOM     10  H   UNL     1      17.200  27.431  37.015  1.00  0.00     0.210 HD
ENDBRANCH   8   9
ENDBRANCH   1   8
BRANCH   2  11
ATOM     11  O   UNL     1      18.124  25.955  40.647  1.00  0.00    -0.385 OA
ATOM     12  H   UNL     1      17.521  26.631  41.054  1.00  0.00     0.211 HD
ENDBRANCH   2  11
BRANCH   3  13
ATOM     13  O   UNL     1      20.208  24.358  40.975  1.00  0.00    -0.387 OA
ATOM     14  H   UNL     1      19.250  24.380  41.234  1.00  0.00     0.211 HD
ENDBRANCH   3  13
BRANCH   4  15
ATOM     15  C   UNL     1      21.745  24.965  38.145  1.00  0.00     0.191 C 
BRANCH  15  16
ATOM     16  O   UNL     1      22.125  23.650  38.454  1.00  0.00    -0.394 OA
ATOM     17  H   UNL     1      22.142  23.151  37.595  1.00  0.00     0.210 HD
ENDBRANCH  15  16
ENDBRANCH   4  15
TORSDOF 7
ENDMDL
MODEL 2
REMARK VINA RESULT:    -3.421     22.607     23.926
REMARK INTER + INTRA:          -4.968
REMARK INTER:                  -4.496
REMARK INTRA:                  -0.471
REMARK UNBOUND:                -0.547
REMARK SMILES CO[C@@]1(CO)O[C@@H](CO)[C@H](O)[C@@H]1O
REMARK SMILES IDX 3 1 12 2 10 3 7 4 6 5 2 6 1 7 4 8 5 9 13 11 11 13 8 15 9 16
REMARK H PARENT 5 10 13 12 11 14 9 17
REMARK Flexibility Score: inf
ROOT
ATOM      1  C   UNL     1       6.678  14.413  23.662  1.00  0.00     0.221 C 
ATOM      2  C   UNL     1       5.243  13.850  23.532  1.00  0.00     0.207 C 
ATOM      3  C   UNL     1       4.528  14.988  22.847  1.00  0.00     0.180 C 
ATOM      4  C   UNL     1       5.263  16.206  23.393  1.00  0.00     0.179 C 
ATOM      5  O   UNL     1       6.566  15.821  23.775  1.00  0.00    -0.337 OA
ENDROOT
BRANCH   1   6
ATOM      6  O   UNL     1       7.412  14.163  22.462  1.00  0.00    -0.349 OA
ATOM      7  C   UNL     1       8.585  14.944  22.326  1.00  0.00     0.198 C 
ENDBRANCH   1   6
BRANCH   1   8
ATOM      8  C   UNL     1       7.426  13.910  24.929  1.00  0.00     0.224 C 
BRANCH   8   9
ATOM      9  O   UNL     1       7.163  14.745  26.025  1.00  0.00    -0.391 OA
ATOM     10  H   UNL     1       6.650  14.198  26.674  1.00  0.00     0.210 HD
ENDBRANCH   8   9
ENDBRANCH   1   8
BRANCH   2  11
ATOM     11  O   UNL     1       4.676  13.602  24.796  1.00  0.00    -0.385 OA
ATOM     12  H   UNL     1       5.418  13.620  25.456  1.00  0.00     0.211 HD
ENDBRANCH   2  11
BRANCH   3  13
ATOM     13  O   UNL     1       3.161  15.034  23.167  1.00  0.00    -0.387 OA
ATOM     14  H   UNL     1       2.679  15.195  22.315  1.00  0.00     0.211 HD
ENDBRANCH   3  13
BRANCH   4  15
ATOM     15  C   UNL     1       5.341  17.348  22.372  1.00  0.00     0.191 C 
BRANCH  15  16
ATOM     16  O   UNL     1       6.539  18.064  22.514  1.00  0.00    -0.394 OA
ATOM     17  H   UNL     1       6.337  19.005  22.273  1.00  0.00     0.210 HD
ENDBRANCH  15  16
ENDBRANCH   4  15
TORSDOF 7
ENDMDL
MODEL 3
REMARK VINA RESULT:    -3.335     21.105     22.266
REMARK INTER + INTRA:          -4.858
REMARK INTER:                  -4.279
REMARK INTRA:                  -0.578
REMARK UNBOUND:                -0.547
REMARK SMILES CO[C@@]1(CO)O[C@@H](CO)[C@H](O)[C@@H]1O
REMARK SMILES IDX 3 1 12 2 10 3 7 4 6 5 2 6 1 7 4 8 5 9 13 11 11 13 8 15 9 16
REMARK H PARENT 5 10 13 12 11 14 9 17
REMARK Flexibility Score: inf
ROOT
ATOM      1  C   UNL     1       8.161  12.672  26.379  1.00  0.00     0.221 C 
ATOM      2  C   UNL     1       7.340  13.593  25.446  1.00  0.00     0.207 C 
ATOM      3  C   UNL     1       8.286  13.773  24.285  1.00  0.00     0.180 C 
ATOM      4  C   UNL     1       9.648  13.709  24.966  1.00  0.00     0.179 C 
ATOM      5  O   UNL     1       9.529  12.963  26.158  1.00  0.00    -0.337 OA
ENDROOT
BRANCH   1   6
ATOM      6  O   UNL     1       7.974  11.306  26.005  1.00  0.00    -0.349 OA
ATOM      7  C   UNL     1       6.626  10.876  26.032  1.00  0.00     0.198 C 
ENDBRANCH   1   6
BRANCH   1   8
ATOM      8  C   UNL     1       7.879  12.915  27.890  1.00  0.00     0.224 C 
BRANCH   8   9
ATOM      9  O   UNL     1       8.748  13.887  28.406  1.00  0.00    -0.391 OA
ATOM     10  H   UNL     1       8.529  13.972  29.370  1.00  0.00     0.210 HD
ENDBRANCH   8   9
ENDBRANCH   1   8
BRANCH   2  11
ATOM     11  O   UNL     1       7.071  14.831  26.058  1.00  0.00    -0.385 OA
ATOM     12  H   UNL     1       6.218  15.166  25.675  1.00  0.00     0.211 HD
ENDBRANCH   2  11
BRANCH   3  13
ATOM     13  O   UNL     1       8.104  15.002  23.629  1.00  0.00    -0.387 OA
ATOM     14  H   UNL     1       8.816  15.061  22.941  1.00  0.00     0.211 HD
ENDBRANCH   3  13
BRANCH   4  15
ATOM     15  C   UNL     1      10.721  13.079  24.068  1.00  0.00     0.191 C 
BRANCH  15  16
ATOM     16  O   UNL     1      10.856  13.798  22.872  1.00  0.00    -0.394 OA
ATOM     17  H   UNL     1      10.237  14.572  22.934  1.00  0.00     0.210 HD
ENDBRANCH  15  16
ENDBRANCH   4  15
TORSDOF 7
ENDMDL
MODEL 4
REMARK VINA RESULT:    -3.332     15.144     16.578
REMARK INTER + INTRA:          -4.854
REMARK INTER:                  -4.269
REMARK INTRA:                  -0.584
REMARK UNBOUND:                -0.547
REMARK SMILES CO[C@@]1(CO)O[C@@H](CO)[C@H](O)[C@@H]1O
REMARK SMILES IDX 3 1 12 2 10 3 7 4 6 5 2 6 1 7 4 8 5 9 13 11 11 13 8 15 9 16
REMARK H PARENT 5 10 13 12 11 14 9 17
REMARK Flexibility Score: inf
ROOT
ATOM      1  C   UNL     1      21.064  20.718  23.945  1.00  0.00     0.221 C 
ATOM      2  C   UNL     1      21.060  19.302  24.567  1.00  0.00     0.207 C 
ATOM      3  C   UNL     1      19.744  18.755  24.075  1.00  0.00     0.180 C 
ATOM      4  C   UNL     1      18.878  20.006  24.007  1.00  0.00     0.179 C 
ATOM      5  O   UNL     1      19.714  21.132  23.836  1.00  0.00    -0.337 OA
ENDROOT
BRANCH   1   6
ATOM      6  O   UNL     1      21.576  20.664  22.612  1.00  0.00    -0.349 OA
ATOM      7  C   UNL     1      21.425  21.868  21.883  1.00  0.00     0.198 C 
ENDBRANCH   1   6
BRANCH   1   8
ATOM      8  C   UNL     1      21.798  21.775  24.818  1.00  0.00     0.224 C 
BRANCH   8   9
ATOM      9  O   UNL     1      21.041  22.089  25.957  1.00  0.00    -0.391 OA
ATOM     10  H   UNL     1      20.544  22.920  25.739  1.00  0.00     0.210 HD
ENDBRANCH   8   9
ENDBRANCH   1   8
BRANCH   2  11
ATOM     11  O   UNL     1      21.072  19.364  25.973  1.00  0.00    -0.385 OA
ATOM     12  H   UNL     1      21.840  18.814  26.282  1.00  0.00     0.211 HD
ENDBRANCH   2  11
BRANCH   3  13
ATOM     13  O   UNL     1      19.195  17.805  24.952  1.00  0.00    -0.387 OA
ATOM     14  H   UNL     1      19.268  16.926  24.496  1.00  0.00     0.211 HD
ENDBRANCH   3  13
BRANCH   4  15
ATOM     15  C   UNL     1      17.853  19.947  22.867  1.00  0.00     0.191 C 
BRANCH  15  16
ATOM     16  O   UNL     1      17.080  18.780  22.951  1.00  0.00    -0.394 OA
ATOM     17  H   UNL     1      16.358  18.870  22.275  1.00  0.00     0.210 HD
ENDBRANCH  15  16
ENDBRANCH   4  15
TORSDOF 7
ENDMDL
MODEL 5
REMARK VINA RESULT:    -3.307      1.865      2.967
REMARK INTER + INTRA:          -4.821
REMARK INTER:                  -4.260
REMARK INTRA:                  -0.561
REMARK UNBOUND:                -0.547
REMARK SMILES CO[C@@]1(CO)O[C@@H](CO)[C@H](O)[C@@H]1O
REMARK SMILES IDX 3 1 12 2 10 3 7 4 6 5 2 6 1 7 4 8 5 9 13 11 11 13 8 15 9 16
REMARK H PARENT 5 10 13 12 11 14 9 17
REMARK Flexibility Score: inf
ROOT
ATOM      1  C   UNL     1      20.858  25.775  40.110  1.00  0.00     0.221 C 
ATOM      2  C   UNL     1      21.425  24.424  39.616  1.00  0.00     0.207 C 
ATOM      3  C   UNL     1      21.956  24.794  38.254  1.00  0.00     0.180 C 
ATOM      4  C   UNL     1      20.990  25.889  37.818  1.00  0.00     0.179 C 
ATOM      5  O   UNL     1      20.439  26.498  38.966  1.00  0.00    -0.337 OA
ENDROOT
BRANCH   1   6
ATOM      6  O   UNL     1      21.896  26.548  40.717  1.00  0.00    -0.349 OA
ATOM      7  C   UNL     1      21.544  27.896  40.969  1.00  0.00     0.198 C 
ENDBRANCH   1   6
BRANCH   1   8
ATOM      8  C   UNL     1      19.617  25.624  41.036  1.00  0.00     0.224 C 
BRANCH   8   9
ATOM      9  O   UNL     1      18.432  25.807  40.308  1.00  0.00    -0.391 OA
ATOM     10  H   UNL     1      17.695  25.488  40.892  1.00  0.00     0.210 HD
ENDBRANCH   8   9
ENDBRANCH   1   8
BRANCH   2  11
ATOM     11  O   UNL     1      20.409  23.456  39.502  1.00  0.00    -0.385 OA
ATOM     12  H   UNL     1      19.907  23.459  40.359  1.00  0.00     0.211 HD
ENDBRANCH   2  11
BRANCH   3  13
ATOM     13  O   UNL     1      21.936  23.713  37.357  1.00  0.00    -0.387 OA
ATOM     14  H   UNL     1      21.123  23.186  37.571  1.00  0.00     0.211 HD
ENDBRANCH   3  13
BRANCH   4  15
ATOM     15  C   UNL     1      21.669  26.953  36.945  1.00  0.00     0.191 C 
BRANCH  15  16
ATOM     16  O   UNL     1      22.123  26.396  35.741  1.00  0.00    -0.394 OA
ATOM     17  H   UNL     1      22.360  27.156  35.148  1.00  0.00     0.210 HD
ENDBRANCH  15  16
ENDBRANCH   4  15
TORSDOF 7
ENDMDL
MODEL 6
REMARK VINA RESULT:    -3.236      1.293      1.879
REMARK INTER + INTRA:          -4.729
REMARK INTER:                  -4.124
REMARK INTRA:                  -0.605
REMARK UNBOUND:                -0.547
REMARK SMILES CO[C@@]1(CO)O[C@@H](CO)[C@H](O)[C@@H]1O
REMARK SMILES IDX 3 1 12 2 10 3 7 4 6 5 2 6 1 7 4 8 5 9 13 11 11 13 8 15 9 16
REMARK H PARENT 5 10 13 12 11 14 9 17
REMARK Flexibility Score: inf
ROOT
ATOM      1  C   UNL     1      19.851  27.465  37.898  1.00  0.00     0.221 C 
ATOM      2  C   UNL     1      18.746  27.385  38.977  1.00  0.00     0.207 C 
ATOM      3  C   UNL     1      19.316  26.359  39.924  1.00  0.00     0.180 C 
ATOM      4  C   UNL     1      20.102  25.453  38.984  1.00  0.00     0.179 C 
ATOM      5  O   UNL     1      20.472  26.193  37.839  1.00  0.00    -0.337 OA
ENDROOT
BRANCH   1   6
ATOM      6  O   UNL     1      20.864  28.388  38.303  1.00  0.00    -0.349 OA
ATOM      7  C   UNL     1      22.045  28.332  37.525  1.00  0.00     0.198 C 
ENDBRANCH   1   6
BRANCH   1   8
ATOM      8  C   UNL     1      19.304  27.773  36.475  1.00  0.00     0.224 C 
BRANCH   8   9
ATOM      9  O   UNL     1      18.486  28.912  36.495  1.00  0.00    -0.391 OA
ATOM     10  H   UNL     1      18.940  29.591  35.932  1.00  0.00     0.210 HD
ENDBRANCH   8   9
ENDBRANCH   1   8
BRANCH   2  11
ATOM     11  O   UNL     1      17.532  26.930  38.431  1.00  0.00    -0.385 OA
ATOM     12  H   UNL     1      17.068  26.414  39.142  1.00  0.00     0.211 HD
ENDBRANCH   2  11
BRANCH   3  13
ATOM     13  O   UNL     1      18.318  25.641  40.603  1.00  0.00    -0.387 OA
ATOM     14  H   UNL     1      18.577  25.638  41.561  1.00  0.00     0.211 HD
ENDBRANCH   3  13
BRANCH   4  15
ATOM     15  C   UNL     1      21.356  24.869  39.647  1.00  0.00     0.191 C 
BRANCH  15  16
ATOM     16  O   UNL     1      21.049  24.329  40.905  1.00  0.00    -0.394 OA
ATOM     17  H   UNL     1      20.555  25.032  41.402  1.00  0.00     0.210 HD
ENDBRANCH  15  16
ENDBRANCH   4  15
TORSDOF 7
ENDMDL
MODEL 7
REMARK VINA RESULT:    -3.199     22.183     23.176
REMARK INTER + INTRA:          -4.682
REMARK INTER:                  -4.071
REMARK INTRA:                  -0.610
REMARK UNBOUND:                -0.547
REMARK SMILES CO[C@@]1(CO)O[C@@H](CO)[C@H](O)[C@@H]1O
REMARK SMILES IDX 3 1 12 2 10 3 7 4 6 5 2 6 1 7 4 8 5 9 13 11 11 13 8 15 9 16
REMARK H PARENT 5 10 13 12 11 14 9 17
REMARK Flexibility Score: inf
ROOT
ATOM      1  C   UNL     1       6.781  13.623  24.206  1.00  0.00     0.221 C 
ATOM      2  C   UNL     1       7.818  14.453  24.999  1.00  0.00     0.207 C 
ATOM      3  C   UNL     1       9.024  13.548  24.966  1.00  0.00     0.180 C 
ATOM      4  C   UNL     1       8.389  12.163  24.962  1.00  0.00     0.179 C 
ATOM      5  O   UNL     1       7.091  12.257  24.413  1.00  0.00    -0.337 OA
ENDROOT
BRANCH   1   6
ATOM      6  O   UNL     1       6.932  13.862  22.805  1.00  0.00    -0.349 OA
ATOM      7  C   UNL     1       6.264  12.925  21.982  1.00  0.00     0.198 C 
ENDBRANCH   1   6
BRANCH   1   8
ATOM      8  C   UNL     1       5.318  13.839  24.689  1.00  0.00     0.224 C 
BRANCH   8   9
ATOM      9  O   UNL     1       5.013  15.207  24.746  1.00  0.00    -0.391 OA
ATOM     10  H   UNL     1       4.037  15.280  24.582  1.00  0.00     0.210 HD
ENDBRANCH   8   9
ENDBRANCH   1   8
BRANCH   2  11
ATOM     11  O   UNL     1       7.397  14.663  26.325  1.00  0.00    -0.385 OA
ATOM     12  H   UNL     1       7.050  15.592  26.376  1.00  0.00     0.211 HD
ENDBRANCH   2  11
BRANCH   3  13
ATOM     13  O   UNL     1       9.857  13.721  26.084  1.00  0.00    -0.387 OA
ATOM     14  H   UNL     1       9.621  12.999  26.724  1.00  0.00     0.211 HD
ENDBRANCH   3  13
BRANCH   4  15
ATOM     15  C   UNL     1       9.213  11.144  24.164  1.00  0.00     0.191 C 
BRANCH  15  16
ATOM     16  O   UNL     1      10.501  11.636  23.906  1.00  0.00    -0.394 OA
ATOM     17  H   UNL     1      10.978  10.929  23.397  1.00  0.00     0.210 HD
ENDBRANCH  15  16
ENDBRANCH   4  15
TORSDOF 7
ENDMDL
MODEL 8
REMARK VINA RESULT:    -3.161     21.775     23.037
REMARK INTER + INTRA:          -4.632
REMARK INTER:                  -4.245
REMARK INTRA:                  -0.387
REMARK UNBOUND:                -0.547
REMARK SMILES CO[C@@]1(CO)O[C@@H](CO)[C@H](O)[C@@H]1O
REMARK SMILES IDX 3 1 12 2 10 3 7 4 6 5 2 6 1 7 4 8 5 9 13 11 11 13 8 15 9 16
REMARK H PARENT 5 10 13 12 11 14 9 17
REMARK Flexibility Score: inf
ROOT
ATOM      1  C   UNL     1       9.090  13.210  23.587  1.00  0.00     0.221 C 
ATOM      2  C   UNL     1       8.759  13.205  25.097  1.00  0.00     0.207 C 
ATOM      3  C   UNL     1       7.470  13.986  25.131  1.00  0.00     0.180 C 
ATOM      4  C   UNL     1       7.654  14.962  23.976  1.00  0.00     0.179 C 
ATOM      5  O   UNL     1       8.557  14.405  23.045  1.00  0.00    -0.337 OA
ENDROOT
BRANCH   1   6
ATOM      6  O   UNL     1       8.412  12.134  22.934  1.00  0.00    -0.349 OA
ATOM      7  C   UNL     1       8.389  10.929  23.676  1.00  0.00     0.198 C 
ENDBRANCH   1   6
BRANCH   1   8
ATOM      8  C   UNL     1      10.617  13.214  23.289  1.00  0.00     0.224 C 
BRANCH   8   9
ATOM      9  O   UNL     1      11.299  12.378  24.185  1.00  0.00    -0.391 OA
ATOM     10  H   UNL     1      11.505  12.934  24.981  1.00  0.00     0.210 HD
ENDBRANCH   8   9
ENDBRANCH   1   8
BRANCH   2  11
ATOM     11  O   UNL     1       9.755  13.866  25.840  1.00  0.00    -0.385 OA
ATOM     12  H   UNL     1      10.604  13.372  25.693  1.00  0.00     0.211 HD
ENDBRANCH   2  11
BRANCH   3  13
ATOM     13  O   UNL     1       7.285  14.667  26.346  1.00  0.00    -0.387 OA
ATOM     14  H   UNL     1       7.346  15.635  26.137  1.00  0.00     0.211 HD
ENDBRANCH   3  13
BRANCH   4  15
ATOM     15  C   UNL     1       6.330  15.294  23.275  1.00  0.00     0.191 C 
BRANCH  15  16
ATOM     16  O   UNL     1       5.400  15.818  24.185  1.00  0.00    -0.394 OA
ATOM     17  H   UNL     1       5.869  15.895  25.057  1.00  0.00     0.210 HD
ENDBRANCH  15  16
ENDBRANCH   4  15
TORSDOF 7
ENDMDL
MODEL 9
REMARK VINA RESULT:    -3.104     22.822     23.818
REMARK INTER + INTRA:          -4.559
REMARK INTER:                  -3.982
REMARK INTRA:                  -0.577
REMARK UNBOUND:                -0.547
REMARK SMILES CO[C@@]1(CO)O[C@@H](CO)[C@H](O)[C@@H]1O
REMARK SMILES IDX 3 1 12 2 10 3 7 4 6 5 2 6 1 7 4 8 5 9 13 11 11 13 8 15 9 16
REMARK H PARENT 5 10 13 12 11 14 9 17
REMARK Flexibility Score: inf
ROOT
ATOM      1  C   UNL     1       5.914  15.694  22.373  1.00  0.00     0.221 C 
ATOM      2  C   UNL     1       7.297  15.096  22.023  1.00  0.00     0.207 C 
ATOM      3  C   UNL     1       7.516  14.140  23.168  1.00  0.00     0.180 C 
ATOM      4  C   UNL     1       6.800  14.841  24.316  1.00  0.00     0.179 C 
ATOM      5  O   UNL     1       5.797  15.680  23.785  1.00  0.00    -0.337 OA
ENDROOT
BRANCH   1   6
ATOM      6  O   UNL     1       4.876  14.847  21.875  1.00  0.00    -0.349 OA
ATOM      7  C   UNL     1       3.574  15.389  22.003  1.00  0.00     0.198 C 
ENDBRANCH   1   6
BRANCH   1   8
ATOM      8  C   UNL     1       5.744  17.170  21.914  1.00  0.00     0.224 C 
BRANCH   8   9
ATOM      9  O   UNL     1       6.452  18.036  22.760  1.00  0.00    -0.391 OA
ATOM     10  H   UNL     1       6.215  18.957  22.476  1.00  0.00     0.210 HD
ENDBRANCH   8   9
ENDBRANCH   1   8
BRANCH   2  11
ATOM     11  O   UNL     1       8.294  16.089  22.014  1.00  0.00    -0.385 OA
ATOM     12  H   UNL     1       8.202  16.585  21.158  1.00  0.00     0.211 HD
ENDBRANCH   2  11
BRANCH   3  13
ATOM     13  O   UNL     1       8.878  13.952  23.459  1.00  0.00    -0.387 OA
ATOM     14  H   UNL     1       9.136  13.088  23.046  1.00  0.00     0.211 HD
ENDBRANCH   3  13
BRANCH   4  15
ATOM     15  C   UNL     1       6.172  13.850  25.305  1.00  0.00     0.191 C 
BRANCH  15  16
ATOM     16  O   UNL     1       7.134  12.954  25.793  1.00  0.00    -0.394 OA
ATOM     17  H   UNL     1       7.349  12.335  25.047  1.00  0.00     0.210 HD
ENDBRANCH  15  16
ENDBRANCH   4  15
TORSDOF 7
ENDMDL
