MODEL 1
REMARK VINA RESULT:    -3.205      0.000      0.000
REMARK INTER + INTRA:          -3.820
REMARK INTER:                  -3.767
REMARK INTRA:                  -0.053
REMARK UNBOUND:                -0.053
REMARK SMILES CCCCC(=O)[O-]
REMARK SMILES IDX 4 1 5 2 6 3 7 4 3 5 2 6 1 7
REMARK H PARENT
REMARK Flexibility Score: inf
ROOT
ATOM      1  C   UNL     1      36.085  22.778  15.342  1.00  0.00     0.053 C 
ENDROOT
BRANCH   1   2
ATOM      2  C   UNL     1      35.455  23.853  16.174  1.00  0.00     0.041 C 
ATOM      3  O   UNL     1      36.124  24.439  17.065  1.00  0.00    -0.550 OA
ATOM      4  O   UNL     1      34.119  24.185  15.986  1.00  0.00    -0.550 OA
ENDBRANCH   1   2
BRANCH   1   5
ATOM      5  C   UNL     1      35.439  22.682  13.954  1.00  0.00     0.006 C 
BRANCH   5   6
ATOM      6  C   UNL     1      35.447  21.246  13.408  1.00  0.00    -0.003 C 
ATOM      7  C   UNL     1      35.719  20.237  14.519  1.00  0.00     0.004 C 
ENDBRANCH   5   6
ENDBRANCH   1   5
TORSDOF 3
ENDMDL
MODEL 2
REMARK VINA RESULT:    -3.172     17.173     18.036
REMARK INTER + INTRA:          -3.781
REMARK INTER:                  -3.737
REMARK INTRA:                  -0.044
REMARK UNBOUND:                -0.053
REMARK SMILES CCCCC(=O)[O-]
REMARK SMILES IDX 4 1 5 2 6 3 7 4 3 5 2 6 1 7
REMARK H PARENT
REMARK Flexibility Score: inf
ROOT
ATOM      1  C   UNL     1      28.690  32.841   2.507  1.00  0.00     0.053 C 
ENDROOT
BRANCH   1   2
ATOM      2  C   UNL     1      29.275  33.316   3.801  1.00  0.00     0.041 C 
ATOM      3  O   UNL     1      28.620  34.090   4.548  1.00  0.00    -0.550 OA
ATOM      4  O   UNL     1      30.559  32.928   4.168  1.00  0.00    -0.550 OA
ENDBRANCH   1   2
BRANCH   1   5
ATOM      5  C   UNL     1      27.156  32.850   2.539  1.00  0.00     0.006 C 
BRANCH   5   6
ATOM      6  C   UNL     1      26.555  33.683   1.398  1.00  0.00    -0.003 C 
ATOM      7  C   UNL     1      25.202  33.129   0.966  1.00  0.00     0.004 C 
ENDBRANCH   5   6
ENDBRANCH   1   5
TORSDOF 3
ENDMDL
MODEL 3
REMARK VINA RESULT:    -3.156     17.171     18.012
REMARK INTER + INTRA:          -3.763
REMARK INTER:                  -3.683
REMARK INTRA:                  -0.079
REMARK UNBOUND:                -0.053
REMARK SMILES CCCCC(=O)[O-]
REMARK SMILES IDX 4 1 5 2 6 3 7 4 3 5 2 6 1 7
REMARK H PARENT
REMARK Flexibility Score: inf
ROOT
ATOM      1  C   UNL     1      28.399  34.152   3.881  1.00  0.00     0.053 C 
ENDROOT
BRANCH   1   2
ATOM      2  C   UNL     1      29.504  33.229   3.466  1.00  0.00     0.041 C 
ATOM      3  O   UNL     1      30.415  32.925   4.280  1.00  0.00    -0.550 OA
ATOM      4  O   UNL     1      29.545  32.731   2.169  1.00  0.00    -0.550 OA
ENDBRANCH   1   2
BRANCH   1   5
ATOM      5  C   UNL     1      27.018  33.575   3.542  1.00  0.00     0.006 C 
BRANCH   5   6
ATOM      6  C   UNL     1      26.380  34.269   2.330  1.00  0.00    -0.003 C 
ATOM      7  C   UNL     1      25.788  33.251   1.361  1.00  0.00     0.004 C 
ENDBRANCH   5   6
ENDBRANCH   1   5
TORSDOF 3
ENDMDL
MODEL 4
REMARK VINA RESULT:    -3.057     16.708     17.546
REMARK INTER + INTRA:          -3.646
REMARK INTER:                  -3.542
REMARK INTRA:                  -0.104
REMARK UNBOUND:                -0.053
REMARK SMILES CCCCC(=O)[O-]
REMARK SMILES IDX 4 1 5 2 6 3 7 4 3 5 2 6 1 7
REMARK H PARENT
REMARK Flexibility Score: inf
ROOT
ATOM      1  C   UNL     1      29.587  33.236   4.053  1.00  0.00     0.053 C 
ENDROOT
BRANCH   1   2
ATOM      2  C   UNL     1      30.651  33.283   2.999  1.00  0.00     0.041 C 
ATOM      3  O   UNL     1      31.867  33.279   3.325  1.00  0.00    -0.550 OA
ATOM      4  O   UNL     1      30.298  33.366   1.657  1.00  0.00    -0.550 OA
ENDBRANCH   1   2
BRANCH   1   5
ATOM      5  C   UNL     1      28.459  34.236   3.768  1.00  0.00     0.006 C 
BRANCH   5   6
ATOM      6  C   UNL     1      27.092  33.548   3.637  1.00  0.00    -0.003 C 
ATOM      7  C   UNL     1      26.807  33.163   2.189  1.00  0.00     0.004 C 
ENDBRANCH   5   6
ENDBRANCH   1   5
TORSDOF 3
ENDMDL
MODEL 5
REMARK VINA RESULT:    -3.035     17.949     18.879
REMARK INTER + INTRA:          -3.620
REMARK INTER:                  -3.566
REMARK INTRA:                  -0.054
REMARK UNBOUND:                -0.053
REMARK SMILES CCCCC(=O)[O-]
REMARK SMILES IDX 4 1 5 2 6 3 7 4 3 5 2 6 1 7
REMARK H PARENT
REMARK Flexibility Score: inf
ROOT
ATOM      1  C   UNL     1      27.115  32.917   2.394  1.00  0.00     0.053 C 
ENDROOT
BRANCH   1   2
ATOM      2  C   UNL     1      26.102  33.585   1.515  1.00  0.00     0.041 C 
ATOM      3  O   UNL     1      26.118  34.835   1.366  1.00  0.00    -0.550 OA
ATOM      4  O   UNL     1      25.120  32.829   0.886  1.00  0.00    -0.550 OA
ENDBRANCH   1   2
BRANCH   1   5
ATOM      5  C   UNL     1      27.250  33.626   3.747  1.00  0.00     0.006 C 
BRANCH   5   6
ATOM      6  C   UNL     1      28.648  34.230   3.949  1.00  0.00    -0.003 C 
ATOM      7  C   UNL     1      29.715  33.142   4.000  1.00  0.00     0.004 C 
ENDBRANCH   5   6
ENDBRANCH   1   5
TORSDOF 3
ENDMDL
MODEL 6
REMARK VINA RESULT:    -3.025     16.742     17.644
REMARK INTER + INTRA:          -3.608
REMARK INTER:                  -3.567
REMARK INTRA:                  -0.041
REMARK UNBOUND:                -0.053
REMARK SMILES CCCCC(=O)[O-]
REMARK SMILES IDX 4 1 5 2 6 3 7 4 3 5 2 6 1 7
REMARK H PARENT
REMARK Flexibility Score: inf
ROOT
ATOM      1  C   UNL     1      28.729  32.791   2.623  1.00  0.00     0.053 C 
ENDROOT
BRANCH   1   2
ATOM      2  C   UNL     1      27.288  33.193   2.695  1.00  0.00     0.041 C 
ATOM      3  O   UNL     1      26.780  33.539   3.794  1.00  0.00    -0.550 OA
ATOM      4  O   UNL     1      26.497  33.155   1.552  1.00  0.00    -0.550 OA
ENDBRANCH   1   2
BRANCH   1   5
ATOM      5  C   UNL     1      29.487  33.158   3.905  1.00  0.00     0.006 C 
BRANCH   5   6
ATOM      6  C   UNL     1      31.009  33.146   3.704  1.00  0.00    -0.003 C 
ATOM      7  C   UNL     1      31.368  32.996   2.229  1.00  0.00     0.004 C 
ENDBRANCH   5   6
ENDBRANCH   1   5
TORSDOF 3
ENDMDL
MODEL 7
REMARK VINA RESULT:    -2.878     18.411     19.324
REMARK INTER + INTRA:          -3.436
REMARK INTER:                  -3.388
REMARK INTRA:                  -0.048
REMARK UNBOUND:                -0.053
REMARK SMILES CCCCC(=O)[O-]
REMARK SMILES IDX 4 1 5 2 6 3 7 4 3 5 2 6 1 7
REMARK H PARENT
REMARK Flexibility Score: inf
ROOT
ATOM      1  C   UNL     1      26.445  34.407   2.322  1.00  0.00     0.053 C 
ENDROOT
BRANCH   1   2
ATOM      2  C   UNL     1      25.265  33.975   1.506  1.00  0.00     0.041 C 
ATOM      3  O   UNL     1      25.226  32.817   1.011  1.00  0.00    -0.550 OA
ATOM      4  O   UNL     1      24.222  34.862   1.266  1.00  0.00    -0.550 OA
ENDBRANCH   1   2
BRANCH   1   5
ATOM      5  C   UNL     1      26.989  33.262   3.186  1.00  0.00     0.006 C 
BRANCH   5   6
ATOM      6  C   UNL     1      28.435  32.897   2.821  1.00  0.00    -0.003 C 
ATOM      7  C   UNL     1      29.402  33.312   3.925  1.00  0.00     0.004 C 
ENDBRANCH   5   6
ENDBRANCH   1   5
TORSDOF 3
ENDMDL
MODEL 8
REMARK VINA RESULT:    -2.818      1.435      2.335
REMARK INTER + INTRA:          -3.365
REMARK INTER:                  -3.347
REMARK INTRA:                  -0.018
REMARK UNBOUND:                -0.053
REMARK SMILES CCCCC(=O)[O-]
REMARK SMILES IDX 4 1 5 2 6 3 7 4 3 5 2 6 1 7
REMARK H PARENT
REMARK Flexibility Score: inf
ROOT
ATOM      1  C   UNL     1      34.733  23.877  16.539  1.00  0.00     0.053 C 
ENDROOT
BRANCH   1   2
ATOM      2  C   UNL     1      34.447  25.337  16.720  1.00  0.00     0.041 C 
ATOM      3  O   UNL     1      33.258  25.751  16.749  1.00  0.00    -0.550 OA
ATOM      4  O   UNL     1      35.495  26.244  16.822  1.00  0.00    -0.550 OA
ENDBRANCH   1   2
BRANCH   1   5
ATOM      5  C   UNL     1      35.952  23.643  15.638  1.00  0.00     0.006 C 
BRANCH   5   6
ATOM      6  C   UNL     1      35.928  22.258  14.976  1.00  0.00    -0.003 C 
ATOM      7  C   UNL     1      35.567  22.361  13.498  1.00  0.00     0.004 C 
ENDBRANCH   5   6
ENDBRANCH   1   5
TORSDOF 3
ENDMDL
MODEL 9
REMARK VINA RESULT:    -2.744     16.356     17.094
REMARK INTER + INTRA:          -3.278
REMARK INTER:                  -3.196
REMARK INTRA:                  -0.082
REMARK UNBOUND:                -0.053
REMARK SMILES CCCCC(=O)[O-]
REMARK SMILES IDX 4 1 5 2 6 3 7 4 3 5 2 6 1 7
REMARK H PARENT
REMARK Flexibility Score: inf
ROOT
ATOM      1  C   UNL     1      30.874  33.849   2.175  1.00  0.00     0.053 C 
ENDROOT
BRANCH   1   2
ATOM      2  C   UNL     1      29.763  33.141   2.890  1.00  0.00     0.041 C 
ATOM      3  O   UNL     1      28.806  32.644   2.240  1.00  0.00    -0.550 OA
ATOM      4  O   UNL     1      29.769  33.059   4.277  1.00  0.00    -0.550 OA
ENDBRANCH   1   2
BRANCH   1   5
ATOM      5  C   UNL     1      31.739  32.876   1.364  1.00  0.00     0.006 C 
BRANCH   5   6
ATOM      6  C   UNL     1      33.055  32.536   2.077  1.00  0.00    -0.003 C 
ATOM      7  C   UNL     1      33.415  33.601   3.107  1.00  0.00     0.004 C 
ENDBRANCH   5   6
ENDBRANCH   1   5
TORSDOF 3
ENDMDL
