MODEL 1
REMARK VINA RESULT:    -7.072      0.000      0.000
REMARK INTER + INTRA:          -8.634
REMARK INTER:                  -8.312
REMARK INTRA:                  -0.322
REMARK UNBOUND:                -0.322
REMARK SMILES O=c1c(O)c(-c2ccc(O)c(O)c2)oc2cc(O)ccc12
REMARK SMILES IDX 5 1 3 2 2 3 1 4 21 5 15 6 14 7 16 8 17 9 19 10 20 11 6 12
REMARK SMILES IDX 7 13 8 14 9 15 13 16 11 17 10 18 12 20 4 22 18 24
REMARK H PARENT 10 19 12 21 4 23 18 25
REMARK Flexibility Score: inf
ROOT
ATOM      1  C   UNL     1       4.407   1.034 -24.074  1.00  0.00     0.180 A 
ATOM      2  C   UNL     1       4.793   0.336 -25.237  1.00  0.00     0.208 A 
ATOM      3  C   UNL     1       4.482  -1.029 -25.341  1.00  0.00     0.235 A 
ATOM      4  O   UNL     1       4.806  -1.672 -26.377  1.00  0.00    -0.285 OA
ATOM      5  C   UNL     1       3.815  -1.668 -24.284  1.00  0.00     0.069 A 
ATOM      6  C   UNL     1       3.485  -0.906 -23.143  1.00  0.00     0.142 A 
ATOM      7  O   UNL     1       3.790   0.386 -23.086  1.00  0.00    -0.452 OA
ATOM      8  C   UNL     1       2.830  -1.509 -22.063  1.00  0.00     0.094 A 
ATOM      9  C   UNL     1       2.498  -2.867 -22.110  1.00  0.00     0.119 A 
ATOM     10  C   UNL     1       2.823  -3.627 -23.242  1.00  0.00     0.047 A 
ATOM     11  C   UNL     1       3.479  -3.033 -24.324  1.00  0.00     0.020 A 
ENDROOT
BRANCH   1  12
ATOM     12  C   UNL     1       4.683   2.477 -23.895  1.00  0.00     0.025 A 
ATOM     13  C   UNL     1       5.806   2.879 -23.155  1.00  0.00     0.016 A 
ATOM     14  C   UNL     1       6.074   4.236 -22.956  1.00  0.00     0.051 A 
ATOM     15  C   UNL     1       5.218   5.210 -23.479  1.00  0.00     0.157 A 
ATOM     16  C   UNL     1       3.811   3.458 -24.402  1.00  0.00     0.062 A 
ATOM     17  C   UNL     1       4.078   4.821 -24.202  1.00  0.00     0.158 A 
BRANCH  15  18
ATOM     18  O   UNL     1       5.512   6.556 -23.266  1.00  0.00    -0.504 OA
ATOM     19  H   UNL     1       4.855   7.292 -23.491  1.00  0.00     0.293 HD
ENDBRANCH  15  18
BRANCH  17  20
ATOM     20  O   UNL     1       3.213   5.785 -24.713  1.00  0.00    -0.504 OA
ATOM     21  H   UNL     1       2.444   6.154 -24.166  1.00  0.00     0.293 HD
ENDBRANCH  17  20
ENDBRANCH   1  12
BRANCH   2  22
ATOM     22  O   UNL     1       5.498   0.987 -26.251  1.00  0.00    -0.502 OA
ATOM     23  H   UNL     1       6.507   0.939 -26.326  1.00  0.00     0.293 HD
ENDBRANCH   2  22
BRANCH   9  24
ATOM     24  O   UNL     1       1.845  -3.452 -21.026  1.00  0.00    -0.508 OA
ATOM     25  H   UNL     1       2.151  -3.292 -20.075  1.00  0.00     0.293 HD
ENDBRANCH   9  24
TORSDOF 5
ENDMDL
MODEL 2
REMARK VINA RESULT:    -6.977      1.654      6.740
REMARK INTER + INTRA:          -8.522
REMARK INTER:                  -8.198
REMARK INTRA:                  -0.323
REMARK UNBOUND:                -0.322
REMARK SMILES O=c1c(O)c(-c2ccc(O)c(O)c2)oc2cc(O)ccc12
REMARK SMILES IDX 5 1 3 2 2 3 1 4 21 5 15 6 14 7 16 8 17 9 19 10 20 11 6 12
REMARK SMILES IDX 7 13 8 14 9 15 13 16 11 17 10 18 12 20 4 22 18 24
REMARK H PARENT 10 19 12 21 4 23 18 25
REMARK Flexibility Score: inf
ROOT
ATOM      1  C   UNL     1       3.332  -0.503 -24.193  1.00  0.00     0.180 A 
ATOM      2  C   UNL     1       4.000  -0.299 -25.418  1.00  0.00     0.208 A 
ATOM      3  C   UNL     1       4.748   0.875 -25.593  1.00  0.00     0.235 A 
ATOM      4  O   UNL     1       5.365   1.076 -26.676  1.00  0.00    -0.285 OA
ATOM      5  C   UNL     1       4.798   1.823 -24.558  1.00  0.00     0.069 A 
ATOM      6  C   UNL     1       4.082   1.556 -23.372  1.00  0.00     0.142 A 
ATOM      7  O   UNL     1       3.392   0.428 -23.242  1.00  0.00    -0.452 OA
ATOM      8  C   UNL     1       4.097   2.481 -22.322  1.00  0.00     0.094 A 
ATOM      9  C   UNL     1       4.823   3.671 -22.441  1.00  0.00     0.119 A 
ATOM     10  C   UNL     1       5.537   3.939 -23.617  1.00  0.00     0.047 A 
ATOM     11  C   UNL     1       5.525   3.022 -24.673  1.00  0.00     0.020 A 
ENDROOT
BRANCH   1  12
ATOM     12  C   UNL     1       2.537  -1.723 -23.925  1.00  0.00     0.025 A 
ATOM     13  C   UNL     1       1.162  -1.727 -24.208  1.00  0.00     0.016 A 
ATOM     14  C   UNL     1       0.389  -2.861 -23.943  1.00  0.00     0.051 A 
ATOM     15  C   UNL     1       0.972  -3.999 -23.378  1.00  0.00     0.157 A 
ATOM     16  C   UNL     1       3.118  -2.861 -23.337  1.00  0.00     0.062 A 
ATOM     17  C   UNL     1       2.343  -3.999 -23.069  1.00  0.00     0.158 A 
BRANCH  15  18
ATOM     18  O   UNL     1       0.176  -5.115 -23.127  1.00  0.00    -0.504 OA
ATOM     19  H   UNL     1      -0.316  -5.601 -23.867  1.00  0.00     0.293 HD
ENDBRANCH  15  18
BRANCH  17  20
ATOM     20  O   UNL     1       2.928  -5.125 -22.494  1.00  0.00    -0.504 OA
ATOM     21  H   UNL     1       3.892  -5.377 -22.681  1.00  0.00     0.293 HD
ENDBRANCH  17  20
ENDBRANCH   1  12
BRANCH   2  22
ATOM     22  O   UNL     1       3.892  -1.237 -26.448  1.00  0.00    -0.502 OA
ATOM     23  H   UNL     1       4.168  -1.029 -27.400  1.00  0.00     0.293 HD
ENDBRANCH   2  22
BRANCH   9  24
ATOM     24  O   UNL     1       4.829   4.580 -21.385  1.00  0.00    -0.508 OA
ATOM     25  H   UNL     1       4.036   4.675 -20.763  1.00  0.00     0.293 HD
ENDBRANCH   9  24
TORSDOF 5
ENDMDL
MODEL 3
REMARK VINA RESULT:    -6.933      1.956      2.368
REMARK INTER + INTRA:          -8.470
REMARK INTER:                  -8.146
REMARK INTRA:                  -0.324
REMARK UNBOUND:                -0.322
REMARK SMILES O=c1c(O)c(-c2ccc(O)c(O)c2)oc2cc(O)ccc12
REMARK SMILES IDX 5 1 3 2 2 3 1 4 21 5 15 6 14 7 16 8 17 9 19 10 20 11 6 12
REMARK SMILES IDX 7 13 8 14 9 15 13 16 11 17 10 18 12 20 4 22 18 24
REMARK H PARENT 10 19 12 21 4 23 18 25
REMARK Flexibility Score: inf
ROOT
ATOM      1  C   UNL     1       3.691  -0.408 -23.232  1.00  0.00     0.180 A 
ATOM      2  C   UNL     1       4.711  -1.376 -23.333  1.00  0.00     0.208 A 
ATOM      3  C   UNL     1       4.353  -2.730 -23.418  1.00  0.00     0.235 A 
ATOM      4  O   UNL     1       5.247  -3.615 -23.521  1.00  0.00    -0.285 OA
ATOM      5  C   UNL     1       2.996  -3.089 -23.382  1.00  0.00     0.069 A 
ATOM      6  C   UNL     1       2.036  -2.063 -23.256  1.00  0.00     0.142 A 
ATOM      7  O   UNL     1       2.415  -0.791 -23.186  1.00  0.00    -0.452 OA
ATOM      8  C   UNL     1       0.673  -2.380 -23.205  1.00  0.00     0.094 A 
ATOM      9  C   UNL     1       0.257  -3.713 -23.282  1.00  0.00     0.119 A 
ATOM     10  C   UNL     1       1.208  -4.735 -23.409  1.00  0.00     0.047 A 
ATOM     11  C   UNL     1       2.571  -4.428 -23.458  1.00  0.00     0.020 A 
ENDROOT
BRANCH   1  12
ATOM     12  C   UNL     1       3.986   1.041 -23.156  1.00  0.00     0.025 A 
ATOM     13  C   UNL     1       4.104   1.656 -21.900  1.00  0.00     0.016 A 
ATOM     14  C   UNL     1       4.362   3.026 -21.804  1.00  0.00     0.051 A 
ATOM     15  C   UNL     1       4.489   3.804 -22.959  1.00  0.00     0.157 A 
ATOM     16  C   UNL     1       4.094   1.829 -24.316  1.00  0.00     0.062 A 
ATOM     17  C   UNL     1       4.351   3.205 -24.222  1.00  0.00     0.158 A 
BRANCH  15  18
ATOM     18  O   UNL     1       4.749   5.168 -22.831  1.00  0.00    -0.504 OA
ATOM     19  H   UNL     1       5.658   5.564 -23.037  1.00  0.00     0.293 HD
ENDBRANCH  15  18
BRANCH  17  20
ATOM     20  O   UNL     1       4.464   3.976 -25.376  1.00  0.00    -0.504 OA
ATOM     21  H   UNL     1       3.735   4.622 -25.657  1.00  0.00     0.293 HD
ENDBRANCH  17  20
ENDBRANCH   1  12
BRANCH   2  22
ATOM     22  O   UNL     1       6.054  -0.992 -23.317  1.00  0.00    -0.502 OA
ATOM     23  H   UNL     1       6.420  -0.328 -22.645  1.00  0.00     0.293 HD
ENDBRANCH   2  22
BRANCH   9  24
ATOM     24  O   UNL     1      -1.103  -4.012 -23.232  1.00  0.00    -0.508 OA
ATOM     25  H   UNL     1      -1.783  -3.471 -23.752  1.00  0.00     0.293 HD
ENDBRANCH   9  24
TORSDOF 5
ENDMDL
MODEL 4
REMARK VINA RESULT:    -6.828      1.612      6.742
REMARK INTER + INTRA:          -8.347
REMARK INTER:                  -8.030
REMARK INTRA:                  -0.317
REMARK UNBOUND:                -0.322
REMARK SMILES O=c1c(O)c(-c2ccc(O)c(O)c2)oc2cc(O)ccc12
REMARK SMILES IDX 5 1 3 2 2 3 1 4 21 5 15 6 14 7 16 8 17 9 19 10 20 11 6 12
REMARK SMILES IDX 7 13 8 14 9 15 13 16 11 17 10 18 12 20 4 22 18 24
REMARK H PARENT 10 19 12 21 4 23 18 25
REMARK Flexibility Score: inf
ROOT
ATOM      1  C   UNL     1       3.787   0.967 -24.339  1.00  0.00     0.180 A 
ATOM      2  C   UNL     1       3.149   1.482 -25.485  1.00  0.00     0.208 A 
ATOM      3  C   UNL     1       3.266   2.852 -25.767  1.00  0.00     0.235 A 
ATOM      4  O   UNL     1       2.713   3.335 -26.794  1.00  0.00    -0.285 OA
ATOM      5  C   UNL     1       3.995   3.677 -24.896  1.00  0.00     0.069 A 
ATOM      6  C   UNL     1       4.585   3.089 -23.756  1.00  0.00     0.142 A 
ATOM      7  O   UNL     1       4.457   1.786 -23.529  1.00  0.00    -0.452 OA
ATOM      8  C   UNL     1       5.311   3.879 -22.857  1.00  0.00     0.094 A 
ATOM      9  C   UNL     1       5.458   5.251 -23.084  1.00  0.00     0.119 A 
ATOM     10  C   UNL     1       4.875   5.838 -24.216  1.00  0.00     0.047 A 
ATOM     11  C   UNL     1       4.146   5.057 -25.118  1.00  0.00     0.020 A 
ENDROOT
BRANCH   1  12
ATOM     12  C   UNL     1       3.725  -0.468 -23.983  1.00  0.00     0.025 A 
ATOM     13  C   UNL     1       2.807  -0.901 -23.014  1.00  0.00     0.016 A 
ATOM     14  C   UNL     1       2.745  -2.248 -22.647  1.00  0.00     0.051 A 
ATOM     15  C   UNL     1       3.610  -3.179 -23.230  1.00  0.00     0.157 A 
ATOM     16  C   UNL     1       4.609  -1.403 -24.552  1.00  0.00     0.062 A 
ATOM     17  C   UNL     1       4.550  -2.756 -24.184  1.00  0.00     0.158 A 
BRANCH  15  18
ATOM     18  O   UNL     1       3.524  -4.517 -22.845  1.00  0.00    -0.504 OA
ATOM     19  H   UNL     1       4.251  -4.968 -22.305  1.00  0.00     0.293 HD
ENDBRANCH  15  18
BRANCH  17  20
ATOM     20  O   UNL     1       5.424  -3.676 -24.759  1.00  0.00    -0.504 OA
ATOM     21  H   UNL     1       5.227  -4.670 -24.755  1.00  0.00     0.293 HD
ENDBRANCH  17  20
ENDBRANCH   1  12
BRANCH   2  22
ATOM     22  O   UNL     1       2.389   0.647 -26.308  1.00  0.00    -0.502 OA
ATOM     23  H   UNL     1       2.805  -0.090 -26.864  1.00  0.00     0.293 HD
ENDBRANCH   2  22
BRANCH   9  24
ATOM     24  O   UNL     1       6.185   6.022 -22.180  1.00  0.00    -0.508 OA
ATOM     25  H   UNL     1       7.176   5.874 -22.034  1.00  0.00     0.293 HD
ENDBRANCH   9  24
TORSDOF 5
ENDMDL
MODEL 5
REMARK VINA RESULT:    -6.791      1.729      6.829
REMARK INTER + INTRA:          -8.304
REMARK INTER:                  -8.003
REMARK INTRA:                  -0.301
REMARK UNBOUND:                -0.322
REMARK SMILES O=c1c(O)c(-c2ccc(O)c(O)c2)oc2cc(O)ccc12
REMARK SMILES IDX 5 1 3 2 2 3 1 4 21 5 15 6 14 7 16 8 17 9 19 10 20 11 6 12
REMARK SMILES IDX 7 13 8 14 9 15 13 16 11 17 10 18 12 20 4 22 18 24
REMARK H PARENT 10 19 12 21 4 23 18 25
REMARK Flexibility Score: inf
ROOT
ATOM      1  C   UNL     1       4.028   0.450 -23.992  1.00  0.00     0.180 A 
ATOM      2  C   UNL     1       5.098   1.151 -23.399  1.00  0.00     0.208 A 
ATOM      3  C   UNL     1       5.307   2.492 -23.753  1.00  0.00     0.235 A 
ATOM      4  O   UNL     1       6.250   3.145 -23.227  1.00  0.00    -0.285 OA
ATOM      5  C   UNL     1       4.463   3.097 -24.699  1.00  0.00     0.069 A 
ATOM      6  C   UNL     1       3.430   2.320 -25.265  1.00  0.00     0.142 A 
ATOM      7  O   UNL     1       3.260   1.055 -24.897  1.00  0.00    -0.452 OA
ATOM      8  C   UNL     1       2.574   2.882 -26.220  1.00  0.00     0.094 A 
ATOM      9  C   UNL     1       2.737   4.214 -26.615  1.00  0.00     0.119 A 
ATOM     10  C   UNL     1       3.761   4.989 -26.053  1.00  0.00     0.047 A 
ATOM     11  C   UNL     1       4.622   4.435 -25.101  1.00  0.00     0.020 A 
ENDROOT
BRANCH   1  12
ATOM     12  C   UNL     1       3.732  -0.962 -23.658  1.00  0.00     0.025 A 
ATOM     13  C   UNL     1       4.102  -1.976 -24.555  1.00  0.00     0.016 A 
ATOM     14  C   UNL     1       3.814  -3.313 -24.270  1.00  0.00     0.051 A 
ATOM     15  C   UNL     1       3.138  -3.656 -23.095  1.00  0.00     0.157 A 
ATOM     16  C   UNL     1       3.033  -1.306 -22.487  1.00  0.00     0.062 A 
ATOM     17  C   UNL     1       2.741  -2.648 -22.200  1.00  0.00     0.158 A 
BRANCH  15  18
ATOM     18  O   UNL     1       2.866  -4.999 -22.837  1.00  0.00    -0.504 OA
ATOM     19  H   UNL     1       2.001  -5.437 -23.127  1.00  0.00     0.293 HD
ENDBRANCH  15  18
BRANCH  17  20
ATOM     20  O   UNL     1       2.056  -2.981 -21.034  1.00  0.00    -0.504 OA
ATOM     21  H   UNL     1       1.894  -3.946 -20.770  1.00  0.00     0.293 HD
ENDBRANCH  17  20
ENDBRANCH   1  12
BRANCH   2  22
ATOM     22  O   UNL     1       5.951   0.510 -22.498  1.00  0.00    -0.502 OA
ATOM     23  H   UNL     1       6.691   1.000 -22.009  1.00  0.00     0.293 HD
ENDBRANCH   2  22
BRANCH   9  24
ATOM     24  O   UNL     1       1.876   4.759 -27.566  1.00  0.00    -0.508 OA
ATOM     25  H   UNL     1       1.463   5.675 -27.442  1.00  0.00     0.293 HD
ENDBRANCH   9  24
TORSDOF 5
ENDMDL
MODEL 6
REMARK VINA RESULT:    -6.708      1.762      6.915
REMARK INTER + INTRA:          -8.205
REMARK INTER:                  -7.889
REMARK INTRA:                  -0.316
REMARK UNBOUND:                -0.322
REMARK SMILES O=c1c(O)c(-c2ccc(O)c(O)c2)oc2cc(O)ccc12
REMARK SMILES IDX 5 1 3 2 2 3 1 4 21 5 15 6 14 7 16 8 17 9 19 10 20 11 6 12
REMARK SMILES IDX 7 13 8 14 9 15 13 16 11 17 10 18 12 20 4 22 18 24
REMARK H PARENT 10 19 12 21 4 23 18 25
REMARK Flexibility Score: inf
ROOT
ATOM      1  C   UNL     1       4.238   1.094 -23.905  1.00  0.00     0.180 A 
ATOM      2  C   UNL     1       5.164   1.847 -23.155  1.00  0.00     0.208 A 
ATOM      3  C   UNL     1       5.305   3.216 -23.432  1.00  0.00     0.235 A 
ATOM      4  O   UNL     1       6.119   3.914 -22.767  1.00  0.00    -0.285 OA
ATOM      5  C   UNL     1       4.538   3.796 -24.456  1.00  0.00     0.069 A 
ATOM      6  C   UNL     1       3.650   2.969 -25.176  1.00  0.00     0.142 A 
ATOM      7  O   UNL     1       3.540   1.679 -24.878  1.00  0.00    -0.452 OA
ATOM      8  C   UNL     1       2.877   3.506 -26.212  1.00  0.00     0.094 A 
ATOM      9  C   UNL     1       2.977   4.863 -26.535  1.00  0.00     0.119 A 
ATOM     10  C   UNL     1       3.857   5.688 -25.820  1.00  0.00     0.047 A 
ATOM     11  C   UNL     1       4.635   5.159 -24.786  1.00  0.00     0.020 A 
ENDROOT
BRANCH   1  12
ATOM     12  C   UNL     1       4.019  -0.350 -23.662  1.00  0.00     0.025 A 
ATOM     13  C   UNL     1       3.051  -0.755 -22.729  1.00  0.00     0.016 A 
ATOM     14  C   UNL     1       2.842  -2.111 -22.469  1.00  0.00     0.051 A 
ATOM     15  C   UNL     1       3.607  -3.083 -23.121  1.00  0.00     0.157 A 
ATOM     16  C   UNL     1       4.802  -1.328 -24.302  1.00  0.00     0.062 A 
ATOM     17  C   UNL     1       4.595  -2.691 -24.040  1.00  0.00     0.158 A 
BRANCH  15  18
ATOM     18  O   UNL     1       3.375  -4.429 -22.842  1.00  0.00    -0.504 OA
ATOM     19  H   UNL     1       2.613  -4.731 -22.247  1.00  0.00     0.293 HD
ENDBRANCH  15  18
BRANCH  17  20
ATOM     20  O   UNL     1       5.370  -3.652 -24.684  1.00  0.00    -0.504 OA
ATOM     21  H   UNL     1       5.469  -3.667 -25.693  1.00  0.00     0.293 HD
ENDBRANCH  17  20
ENDBRANCH   1  12
BRANCH   2  22
ATOM     22  O   UNL     1       5.949   1.233 -22.176  1.00  0.00    -0.502 OA
ATOM     23  H   UNL     1       5.600   0.479 -21.597  1.00  0.00     0.293 HD
ENDBRANCH   2  22
BRANCH   9  24
ATOM     24  O   UNL     1       2.199   5.383 -27.567  1.00  0.00    -0.508 OA
ATOM     25  H   UNL     1       1.204   5.533 -27.456  1.00  0.00     0.293 HD
ENDBRANCH   9  24
TORSDOF 5
ENDMDL
MODEL 7
REMARK VINA RESULT:    -6.429      1.565      3.220
REMARK INTER + INTRA:          -7.878
REMARK INTER:                  -7.563
REMARK INTRA:                  -0.315
REMARK UNBOUND:                -0.322
REMARK SMILES O=c1c(O)c(-c2ccc(O)c(O)c2)oc2cc(O)ccc12
REMARK SMILES IDX 5 1 3 2 2 3 1 4 21 5 15 6 14 7 16 8 17 9 19 10 20 11 6 12
REMARK SMILES IDX 7 13 8 14 9 15 13 16 11 17 10 18 12 20 4 22 18 24
REMARK H PARENT 10 19 12 21 4 23 18 25
REMARK Flexibility Score: inf
ROOT
ATOM      1  C   UNL     1       4.662   2.126 -23.703  1.00  0.00     0.180 A 
ATOM      2  C   UNL     1       4.172   1.324 -22.652  1.00  0.00     0.208 A 
ATOM      3  C   UNL     1       3.921  -0.035 -22.899  1.00  0.00     0.235 A 
ATOM      4  O   UNL     1       3.493  -0.777 -21.972  1.00  0.00    -0.285 OA
ATOM      5  C   UNL     1       4.143  -0.556 -24.184  1.00  0.00     0.069 A 
ATOM      6  C   UNL     1       4.612   0.318 -25.188  1.00  0.00     0.142 A 
ATOM      7  O   UNL     1       4.845   1.596 -24.911  1.00  0.00    -0.452 OA
ATOM      8  C   UNL     1       4.836  -0.160 -26.484  1.00  0.00     0.094 A 
ATOM      9  C   UNL     1       4.600  -1.504 -26.790  1.00  0.00     0.119 A 
ATOM     10  C   UNL     1       4.136  -2.376 -25.795  1.00  0.00     0.047 A 
ATOM     11  C   UNL     1       3.907  -1.906 -24.498  1.00  0.00     0.020 A 
ENDROOT
BRANCH   1  12
ATOM     12  C   UNL     1       4.967   3.563 -23.517  1.00  0.00     0.025 A 
ATOM     13  C   UNL     1       6.229   3.944 -23.035  1.00  0.00     0.016 A 
ATOM     14  C   UNL     1       6.532   5.293 -22.833  1.00  0.00     0.051 A 
ATOM     15  C   UNL     1       5.576   6.279 -23.092  1.00  0.00     0.157 A 
ATOM     16  C   UNL     1       3.999   4.555 -23.758  1.00  0.00     0.062 A 
ATOM     17  C   UNL     1       4.301   5.910 -23.554  1.00  0.00     0.158 A 
BRANCH  15  18
ATOM     18  O   UNL     1       5.908   7.617 -22.883  1.00  0.00    -0.504 OA
ATOM     19  H   UNL     1       5.875   8.302 -23.628  1.00  0.00     0.293 HD
ENDBRANCH  15  18
BRANCH  17  20
ATOM     20  O   UNL     1       3.339   6.886 -23.802  1.00  0.00    -0.504 OA
ATOM     21  H   UNL     1       3.278   7.727 -23.239  1.00  0.00     0.293 HD
ENDBRANCH  17  20
ENDBRANCH   1  12
BRANCH   2  22
ATOM     22  O   UNL     1       3.913   1.880 -21.398  1.00  0.00    -0.502 OA
ATOM     23  H   UNL     1       4.386   2.712 -21.066  1.00  0.00     0.293 HD
ENDBRANCH   2  22
BRANCH   9  24
ATOM     24  O   UNL     1       4.830  -1.964 -28.085  1.00  0.00    -0.508 OA
ATOM     25  H   UNL     1       4.938  -1.325 -28.863  1.00  0.00     0.293 HD
ENDBRANCH   9  24
TORSDOF 5
ENDMDL
MODEL 8
REMARK VINA RESULT:    -6.309      2.102      6.805
REMARK INTER + INTRA:          -7.737
REMARK INTER:                  -7.420
REMARK INTRA:                  -0.317
REMARK UNBOUND:                -0.322
REMARK SMILES O=c1c(O)c(-c2ccc(O)c(O)c2)oc2cc(O)ccc12
REMARK SMILES IDX 5 1 3 2 2 3 1 4 21 5 15 6 14 7 16 8 17 9 19 10 20 11 6 12
REMARK SMILES IDX 7 13 8 14 9 15 13 16 11 17 10 18 12 20 4 22 18 24
REMARK H PARENT 10 19 12 21 4 23 18 25
REMARK Flexibility Score: inf
ROOT
ATOM      1  C   UNL     1       3.209  -0.381 -25.391  1.00  0.00     0.180 A 
ATOM      2  C   UNL     1       4.236  -0.823 -26.251  1.00  0.00     0.208 A 
ATOM      3  C   UNL     1       5.017   0.133 -26.918  1.00  0.00     0.235 A 
ATOM      4  O   UNL     1       5.949  -0.237 -27.684  1.00  0.00    -0.285 OA
ATOM      5  C   UNL     1       4.747   1.498 -26.732  1.00  0.00     0.069 A 
ATOM      6  C   UNL     1       3.687   1.859 -25.873  1.00  0.00     0.142 A 
ATOM      7  O   UNL     1       2.976   0.923 -25.253  1.00  0.00    -0.452 OA
ATOM      8  C   UNL     1       3.379   3.209 -25.669  1.00  0.00     0.094 A 
ATOM      9  C   UNL     1       4.121   4.205 -26.311  1.00  0.00     0.119 A 
ATOM     10  C   UNL     1       5.176   3.851 -27.163  1.00  0.00     0.047 A 
ATOM     11  C   UNL     1       5.489   2.505 -27.375  1.00  0.00     0.020 A 
ENDROOT
BRANCH   1  12
ATOM     12  C   UNL     1       2.354  -1.326 -24.638  1.00  0.00     0.025 A 
ATOM     13  C   UNL     1       1.077  -1.643 -25.128  1.00  0.00     0.016 A 
ATOM     14  C   UNL     1       0.245  -2.516 -24.423  1.00  0.00     0.051 A 
ATOM     15  C   UNL     1       0.667  -3.073 -23.211  1.00  0.00     0.157 A 
ATOM     16  C   UNL     1       2.769  -1.871 -23.409  1.00  0.00     0.062 A 
ATOM     17  C   UNL     1       1.934  -2.746 -22.699  1.00  0.00     0.158 A 
BRANCH  15  18
ATOM     18  O   UNL     1      -0.185  -3.942 -22.532  1.00  0.00    -0.504 OA
ATOM     19  H   UNL     1      -0.598  -4.750 -22.981  1.00  0.00     0.293 HD
ENDBRANCH  15  18
BRANCH  17  20
ATOM     20  O   UNL     1       2.356  -3.286 -21.486  1.00  0.00    -0.504 OA
ATOM     21  H   UNL     1       1.702  -3.703 -20.833  1.00  0.00     0.293 HD
ENDBRANCH  17  20
ENDBRANCH   1  12
BRANCH   2  22
ATOM     22  O   UNL     1       4.449  -2.188 -26.455  1.00  0.00    -0.502 OA
ATOM     23  H   UNL     1       3.701  -2.869 -26.395  1.00  0.00     0.293 HD
ENDBRANCH   2  22
BRANCH   9  24
ATOM     24  O   UNL     1       3.802   5.545 -26.095  1.00  0.00    -0.508 OA
ATOM     25  H   UNL     1       4.472   6.190 -25.696  1.00  0.00     0.293 HD
ENDBRANCH   9  24
TORSDOF 5
ENDMDL
MODEL 9
REMARK VINA RESULT:    -6.269      1.797      2.495
REMARK INTER + INTRA:          -7.690
REMARK INTER:                  -7.425
REMARK INTRA:                  -0.265
REMARK UNBOUND:                -0.322
REMARK SMILES O=c1c(O)c(-c2ccc(O)c(O)c2)oc2cc(O)ccc12
REMARK SMILES IDX 5 1 3 2 2 3 1 4 21 5 15 6 14 7 16 8 17 9 19 10 20 11 6 12
REMARK SMILES IDX 7 13 8 14 9 15 13 16 11 17 10 18 12 20 4 22 18 24
REMARK H PARENT 10 19 12 21 4 23 18 25
REMARK Flexibility Score: inf
ROOT
ATOM      1  C   UNL     1       3.253   0.227 -25.163  1.00  0.00     0.180 A 
ATOM      2  C   UNL     1       4.362  -0.591 -25.458  1.00  0.00     0.208 A 
ATOM      3  C   UNL     1       4.300  -1.956 -25.136  1.00  0.00     0.235 A 
ATOM      4  O   UNL     1       5.276  -2.712 -25.401  1.00  0.00    -0.285 OA
ATOM      5  C   UNL     1       3.150  -2.468 -24.516  1.00  0.00     0.069 A 
ATOM      6  C   UNL     1       2.091  -1.579 -24.232  1.00  0.00     0.142 A 
ATOM      7  O   UNL     1       2.186  -0.295 -24.559  1.00  0.00    -0.452 OA
ATOM      8  C   UNL     1       0.932  -2.048 -23.603  1.00  0.00     0.094 A 
ATOM      9  C   UNL     1       0.816  -3.398 -23.257  1.00  0.00     0.119 A 
ATOM     10  C   UNL     1       1.864  -4.285 -23.539  1.00  0.00     0.047 A 
ATOM     11  C   UNL     1       3.027  -3.824 -24.164  1.00  0.00     0.020 A 
ENDROOT
BRANCH   1  12
ATOM     12  C   UNL     1       3.234   1.672 -25.486  1.00  0.00     0.025 A 
ATOM     13  C   UNL     1       2.545   2.115 -26.626  1.00  0.00     0.016 A 
ATOM     14  C   UNL     1       2.531   3.472 -26.961  1.00  0.00     0.051 A 
ATOM     15  C   UNL     1       3.218   4.402 -26.174  1.00  0.00     0.157 A 
ATOM     16  C   UNL     1       3.941   2.606 -24.707  1.00  0.00     0.062 A 
ATOM     17  C   UNL     1       3.930   3.968 -25.044  1.00  0.00     0.158 A 
BRANCH  15  18
ATOM     18  O   UNL     1       3.184   5.749 -26.533  1.00  0.00    -0.504 OA
ATOM     19  H   UNL     1       2.357   6.319 -26.403  1.00  0.00     0.293 HD
ENDBRANCH  15  18
BRANCH  17  20
ATOM     20  O   UNL     1       4.626   4.887 -24.263  1.00  0.00    -0.504 OA
ATOM     21  H   UNL     1       5.126   4.605 -23.427  1.00  0.00     0.293 HD
ENDBRANCH  17  20
ENDBRANCH   1  12
BRANCH   2  22
ATOM     22  O   UNL     1       5.513  -0.044 -26.031  1.00  0.00    -0.502 OA
ATOM     23  H   UNL     1       5.688  -0.076 -27.028  1.00  0.00     0.293 HD
ENDBRANCH   2  22
BRANCH   9  24
ATOM     24  O   UNL     1      -0.346  -3.849 -22.633  1.00  0.00    -0.508 OA
ATOM     25  H   UNL     1      -1.030  -4.408 -23.128  1.00  0.00     0.293 HD
ENDBRANCH   9  24
TORSDOF 5
ENDMDL
