MODEL 1
REMARK VINA RESULT:    -7.069      0.000      0.000
REMARK INTER + INTRA:         -10.452
REMARK INTER:                  -9.962
REMARK INTRA:                  -0.490
REMARK UNBOUND:                -0.490
REMARK SMILES C=C(CC[C@@H](C(=O)[O-])[C@H]1[C@H](O)C[C@]2(C)C3=C(CC[C@]12C)[C@]1(C)CC[C@@H](O)C(C)(C)[C@H]1CC3)C(C)C
REMARK SMILES IDX 4 1 5 2 6 3 7 4 8 5 9 6 10 7 19 8 12 9 13 10 18 11 20 12
REMARK SMILES IDX 14 13 15 14 17 15 16 16 32 17 21 18 31 19 30 20 23 21 22 22
REMARK SMILES IDX 27 23 24 24 25 25 28 26 29 27 11 28 26 30 3 32 2 33 1 34
REMARK SMILES IDX 33 35 34 36 35 37
REMARK H PARENT 11 29 26 31
REMARK Flexibility Score: inf
ROOT
ATOM      1  C   UNL     1      18.887 -15.240   7.226  1.00  0.00     0.014 C 
ENDROOT
BRANCH   1   2
ATOM      2  C   UNL     1      19.623 -15.501   5.884  1.00  0.00     0.042 C 
BRANCH   2   3
ATOM      3  C   UNL     1      18.685 -15.680   4.709  1.00  0.00     0.045 C 
ATOM      4  O   UNL     1      18.734 -16.711   3.987  1.00  0.00    -0.550 OA
ATOM      5  O   UNL     1      17.776 -14.677   4.393  1.00  0.00    -0.550 OA
ENDBRANCH   2   3
BRANCH   2   6
ATOM      6  C   UNL     1      20.816 -14.513   5.638  1.00  0.00     0.033 C 
ATOM      7  C   UNL     1      21.347 -14.565   4.204  1.00  0.00     0.119 C 
ATOM      8  C   UNL     1      20.741 -12.971   5.986  1.00  0.00    -0.017 C 
ATOM      9  C   UNL     1      22.359 -13.438   4.154  1.00  0.00     0.043 C 
ATOM     10  C   UNL     1      21.709 -12.258   4.918  1.00  0.00    -0.003 C 
ATOM     11  C   UNL     1      21.266 -12.761   7.434  1.00  0.00     0.012 C 
ATOM     12  C   UNL     1      19.286 -12.421   5.918  1.00  0.00     0.013 C 
ATOM     13  C   UNL     1      20.960 -11.377   3.875  1.00  0.00     0.017 C 
ATOM     14  C   UNL     1      22.812 -11.360   5.529  1.00  0.00    -0.064 C 
ATOM     15  C   UNL     1      21.616 -11.302   7.707  1.00  0.00     0.032 C 
ATOM     16  C   UNL     1      22.720 -10.831   6.784  1.00  0.00    -0.064 C 
ATOM     17  C   UNL     1      24.012 -10.985   4.676  1.00  0.00     0.032 C 
ATOM     18  C   UNL     1      23.720  -9.729   7.227  1.00  0.00    -0.008 C 
ATOM     19  C   UNL     1      24.328  -9.481   4.697  1.00  0.00     0.009 C 
ATOM     20  C   UNL     1      23.878  -8.755   5.999  1.00  0.00     0.007 C 
ATOM     21  C   UNL     1      23.152  -8.917   8.434  1.00  0.00     0.014 C 
ATOM     22  C   UNL     1      25.045 -10.429   7.652  1.00  0.00     0.016 C 
ATOM     23  C   UNL     1      24.623  -7.388   6.277  1.00  0.00    -0.006 C 
ATOM     24  C   UNL     1      23.924  -7.627   8.735  1.00  0.00     0.033 C 
ATOM     25  C   UNL     1      23.968  -6.701   7.518  1.00  0.00     0.120 C 
ATOM     26  C   UNL     1      24.420  -6.448   5.061  1.00  0.00     0.014 C 
ATOM     27  C   UNL     1      26.156  -7.545   6.486  1.00  0.00     0.014 C 
BRANCH   7  28
ATOM     28  O   UNL     1      21.919 -15.810   3.875  1.00  0.00    -0.393 OA
ATOM     29  H   UNL     1      21.532 -16.498   4.478  1.00  0.00     0.210 HD
ENDBRANCH   7  28
BRANCH  25  30
ATOM     30  O   UNL     1      24.668  -5.530   7.872  1.00  0.00    -0.393 OA
ATOM     31  H   UNL     1      25.003  -5.113   7.034  1.00  0.00     0.210 HD
ENDBRANCH  25  30
ENDBRANCH   2   6
ENDBRANCH   1   2
BRANCH   1  32
ATOM     32  C   UNL     1      18.376 -16.520   7.933  1.00  0.00     0.031 C 
BRANCH  32  33
ATOM     33  C   UNL     1      18.489 -16.462   9.450  1.00  0.00    -0.075 C 
ATOM     34  C   UNL     1      17.948 -17.449  10.186  1.00  0.00     0.008 C 
BRANCH  33  35
ATOM     35  C   UNL     1      18.940 -15.190  10.155  1.00  0.00     0.008 C 
ATOM     36  C   UNL     1      19.956 -15.523  11.258  1.00  0.00     0.012 C 
ATOM     37  C   UNL     1      17.767 -14.369  10.715  1.00  0.00     0.012 C 
ENDBRANCH  33  35
ENDBRANCH  32  33
ENDBRANCH   1  32
TORSDOF 8
ENDMDL
MODEL 2
REMARK VINA RESULT:    -6.868      2.393      8.959
REMARK INTER + INTRA:         -10.169
REMARK INTER:                  -9.458
REMARK INTRA:                  -0.711
REMARK UNBOUND:                -0.490
REMARK SMILES C=C(CC[C@@H](C(=O)[O-])[C@H]1[C@H](O)C[C@]2(C)C3=C(CC[C@]12C)[C@]1(C)CC[C@@H](O)C(C)(C)[C@H]1CC3)C(C)C
REMARK SMILES IDX 4 1 5 2 6 3 7 4 8 5 9 6 10 7 19 8 12 9 13 10 18 11 20 12
REMARK SMILES IDX 14 13 15 14 17 15 16 16 32 17 21 18 31 19 30 20 23 21 22 22
REMARK SMILES IDX 27 23 24 24 25 25 28 26 29 27 11 28 26 30 3 32 2 33 1 34
REMARK SMILES IDX 33 35 34 36 35 37
REMARK H PARENT 11 29 26 31
REMARK Flexibility Score: inf
ROOT
ATOM      1  C   UNL     1      28.075  -6.884   7.676  1.00  0.00     0.014 C 
ENDROOT
BRANCH   1   2
ATOM      2  C   UNL     1      26.735  -6.905   6.893  1.00  0.00     0.042 C 
BRANCH   2   3
ATOM      3  C   UNL     1      26.814  -6.215   5.548  1.00  0.00     0.045 C 
ATOM      4  O   UNL     1      27.001  -6.869   4.488  1.00  0.00    -0.550 OA
ATOM      5  O   UNL     1      26.715  -4.830   5.477  1.00  0.00    -0.550 OA
ENDBRANCH   2   3
BRANCH   2   6
ATOM      6  C   UNL     1      26.059  -8.321   6.875  1.00  0.00     0.033 C 
ATOM      7  C   UNL     1      26.493  -9.204   8.047  1.00  0.00     0.119 C 
ATOM      8  C   UNL     1      24.494  -8.525   6.772  1.00  0.00    -0.017 C 
ATOM      9  C   UNL     1      25.611 -10.430   7.920  1.00  0.00     0.043 C 
ATOM     10  C   UNL     1      24.203  -9.896   7.561  1.00  0.00    -0.003 C 
ATOM     11  C   UNL     1      24.106  -8.658   5.273  1.00  0.00     0.012 C 
ATOM     12  C   UNL     1      23.702  -7.324   7.368  1.00  0.00     0.013 C 
ATOM     13  C   UNL     1      23.418  -9.704   8.893  1.00  0.00     0.017 C 
ATOM     14  C   UNL     1      23.428 -10.966   6.754  1.00  0.00    -0.064 C 
ATOM     15  C   UNL     1      22.715  -9.258   5.095  1.00  0.00     0.032 C 
ATOM     16  C   UNL     1      22.654 -10.656   5.674  1.00  0.00    -0.064 C 
ATOM     17  C   UNL     1      23.463 -12.411   7.225  1.00  0.00     0.032 C 
ATOM     18  C   UNL     1      21.697 -11.727   5.083  1.00  0.00    -0.008 C 
ATOM     19  C   UNL     1      22.073 -13.060   7.300  1.00  0.00     0.009 C 
ATOM     20  C   UNL     1      21.032 -12.453   6.314  1.00  0.00     0.007 C 
ATOM     21  C   UNL     1      20.570 -11.057   4.235  1.00  0.00     0.014 C 
ATOM     22  C   UNL     1      22.538 -12.670   4.173  1.00  0.00     0.016 C 
ATOM     23  C   UNL     1      19.804 -13.397   5.994  1.00  0.00    -0.006 C 
ATOM     24  C   UNL     1      19.416 -12.000   3.875  1.00  0.00     0.033 C 
ATOM     25  C   UNL     1      18.774 -12.606   5.125  1.00  0.00     0.120 C 
ATOM     26  C   UNL     1      19.101 -13.775   7.323  1.00  0.00     0.014 C 
ATOM     27  C   UNL     1      20.205 -14.725   5.292  1.00  0.00     0.014 C 
BRANCH   7  28
ATOM     28  O   UNL     1      27.864  -9.527   8.013  1.00  0.00    -0.393 OA
ATOM     29  H   UNL     1      28.065 -10.110   8.791  1.00  0.00     0.210 HD
ENDBRANCH   7  28
BRANCH  25  30
ATOM     30  O   UNL     1      17.711 -13.439   4.723  1.00  0.00    -0.393 OA
ATOM     31  H   UNL     1      17.869 -14.340   5.111  1.00  0.00     0.210 HD
ENDBRANCH  25  30
ENDBRANCH   2   6
ENDBRANCH   1   2
BRANCH   1  32
ATOM     32  C   UNL     1      28.052  -6.015   8.958  1.00  0.00     0.031 C 
BRANCH  32  33
ATOM     33  C   UNL     1      27.258  -6.637  10.099  1.00  0.00    -0.075 C 
ATOM     34  C   UNL     1      25.978  -6.269  10.283  1.00  0.00     0.008 C 
BRANCH  33  35
ATOM     35  C   UNL     1      27.953  -7.435  11.194  1.00  0.00     0.008 C 
ATOM     36  C   UNL     1      27.206  -8.754  11.447  1.00  0.00     0.012 C 
ATOM     37  C   UNL     1      28.123  -6.639  12.497  1.00  0.00     0.012 C 
ENDBRANCH  33  35
ENDBRANCH  32  33
ENDBRANCH   1  32
TORSDOF 8
ENDMDL
MODEL 3
REMARK VINA RESULT:    -6.711      1.595      2.249
REMARK INTER + INTRA:          -9.948
REMARK INTER:                  -9.510
REMARK INTRA:                  -0.438
REMARK UNBOUND:                -0.490
REMARK SMILES C=C(CC[C@@H](C(=O)[O-])[C@H]1[C@H](O)C[C@]2(C)C3=C(CC[C@]12C)[C@]1(C)CC[C@@H](O)C(C)(C)[C@H]1CC3)C(C)C
REMARK SMILES IDX 4 1 5 2 6 3 7 4 8 5 9 6 10 7 19 8 12 9 13 10 18 11 20 12
REMARK SMILES IDX 14 13 15 14 17 15 16 16 32 17 21 18 31 19 30 20 23 21 22 22
REMARK SMILES IDX 27 23 24 24 25 25 28 26 29 27 11 28 26 30 3 32 2 33 1 34
REMARK SMILES IDX 33 35 34 36 35 37
REMARK H PARENT 11 29 26 31
REMARK Flexibility Score: inf
ROOT
ATOM      1  C   UNL     1      19.503 -13.347   6.794  1.00  0.00     0.014 C 
ENDROOT
BRANCH   1   2
ATOM      2  C   UNL     1      20.527 -14.024   5.844  1.00  0.00     0.042 C 
BRANCH   2   3
ATOM      3  C   UNL     1      19.943 -14.394   4.497  1.00  0.00     0.045 C 
ATOM      4  O   UNL     1      19.183 -13.605   3.876  1.00  0.00    -0.550 OA
ATOM      5  O   UNL     1      20.217 -15.641   3.945  1.00  0.00    -0.550 OA
ENDBRANCH   2   3
BRANCH   2   6
ATOM      6  C   UNL     1      21.902 -13.270   5.788  1.00  0.00     0.033 C 
ATOM      7  C   UNL     1      22.689 -13.560   4.508  1.00  0.00     0.119 C 
ATOM      8  C   UNL     1      22.035 -11.708   6.000  1.00  0.00    -0.017 C 
ATOM      9  C   UNL     1      23.875 -12.620   4.595  1.00  0.00     0.043 C 
ATOM     10  C   UNL     1      23.307 -11.278   5.115  1.00  0.00    -0.003 C 
ATOM     11  C   UNL     1      22.292 -11.430   7.508  1.00  0.00     0.012 C 
ATOM     12  C   UNL     1      20.744 -10.944   5.584  1.00  0.00     0.013 C 
ATOM     13  C   UNL     1      22.949 -10.405   3.876  1.00  0.00     0.017 C 
ATOM     14  C   UNL     1      24.409 -10.507   5.883  1.00  0.00    -0.064 C 
ATOM     15  C   UNL     1      22.834 -10.025   7.744  1.00  0.00     0.032 C 
ATOM     16  C   UNL     1      24.166  -9.838   7.047  1.00  0.00    -0.064 C 
ATOM     17  C   UNL     1      25.802 -10.421   5.280  1.00  0.00     0.032 C 
ATOM     18  C   UNL     1      25.238  -8.869   7.614  1.00  0.00    -0.008 C 
ATOM     19  C   UNL     1      26.370  -8.993   5.261  1.00  0.00     0.009 C 
ATOM     20  C   UNL     1      25.808  -8.069   6.381  1.00  0.00     0.007 C 
ATOM     21  C   UNL     1      24.596  -7.852   8.610  1.00  0.00     0.014 C 
ATOM     22  C   UNL     1      26.306  -9.721   8.361  1.00  0.00     0.016 C 
ATOM     23  C   UNL     1      26.715  -6.817   6.713  1.00  0.00    -0.006 C 
ATOM     24  C   UNL     1      25.510  -6.677   8.976  1.00  0.00     0.033 C 
ATOM     25  C   UNL     1      25.960  -5.905   7.733  1.00  0.00     0.120 C 
ATOM     26  C   UNL     1      26.928  -5.992   5.418  1.00  0.00     0.014 C 
ATOM     27  C   UNL     1      28.123  -7.193   7.256  1.00  0.00     0.014 C 
BRANCH   7  28
ATOM     28  O   UNL     1      23.083 -14.908   4.399  1.00  0.00    -0.393 OA
ATOM     29  H   UNL     1      23.808 -14.966   3.722  1.00  0.00     0.210 HD
ENDBRANCH   7  28
BRANCH  25  30
ATOM     30  O   UNL     1      26.773  -4.830   8.144  1.00  0.00    -0.393 OA
ATOM     31  H   UNL     1      27.717  -5.139   8.124  1.00  0.00     0.210 HD
ENDBRANCH  25  30
ENDBRANCH   2   6
ENDBRANCH   1   2
BRANCH   1  32
ATOM     32  C   UNL     1      19.468 -13.942   8.223  1.00  0.00     0.031 C 
BRANCH  32  33
ATOM     33  C   UNL     1      18.191 -13.616   8.986  1.00  0.00    -0.075 C 
ATOM     34  C   UNL     1      17.138 -13.116   8.317  1.00  0.00     0.008 C 
BRANCH  33  35
ATOM     35  C   UNL     1      18.177 -13.572  10.508  1.00  0.00     0.008 C 
ATOM     36  C   UNL     1      18.444 -12.142  11.002  1.00  0.00     0.012 C 
ATOM     37  C   UNL     1      19.159 -14.568  11.144  1.00  0.00     0.012 C 
ENDBRANCH  33  35
ENDBRANCH  32  33
ENDBRANCH   1  32
TORSDOF 8
ENDMDL
MODEL 4
REMARK VINA RESULT:    -5.924      7.723     13.931
REMARK INTER + INTRA:          -8.839
REMARK INTER:                  -8.389
REMARK INTRA:                  -0.450
REMARK UNBOUND:                -0.490
REMARK SMILES C=C(CC[C@@H](C(=O)[O-])[C@H]1[C@H](O)C[C@]2(C)C3=C(CC[C@]12C)[C@]1(C)CC[C@@H](O)C(C)(C)[C@H]1CC3)C(C)C
REMARK SMILES IDX 4 1 5 2 6 3 7 4 8 5 9 6 10 7 19 8 12 9 13 10 18 11 20 12
REMARK SMILES IDX 14 13 15 14 17 15 16 16 32 17 21 18 31 19 30 20 23 21 22 22
REMARK SMILES IDX 27 23 24 24 25 25 28 26 29 27 11 28 26 30 3 32 2 33 1 34
REMARK SMILES IDX 33 35 34 36 35 37
REMARK H PARENT 11 29 26 31
REMARK Flexibility Score: inf
ROOT
ATOM      1  C   UNL     1      16.818 -15.957  11.751  1.00  0.00     0.014 C 
ENDROOT
BRANCH   1   2
ATOM      2  C   UNL     1      15.949 -17.146  11.259  1.00  0.00     0.042 C 
BRANCH   2   3
ATOM      3  C   UNL     1      16.718 -18.445  11.144  1.00  0.00     0.045 C 
ATOM      4  O   UNL     1      17.365 -18.910  12.120  1.00  0.00    -0.550 OA
ATOM      5  O   UNL     1      16.747 -19.124   9.931  1.00  0.00    -0.550 OA
ENDBRANCH   2   3
BRANCH   2   6
ATOM      6  C   UNL     1      14.575 -17.252  12.009  1.00  0.00     0.033 C 
ATOM      7  C   UNL     1      13.860 -18.581  11.757  1.00  0.00     0.119 C 
ATOM      8  C   UNL     1      14.422 -16.997  13.563  1.00  0.00    -0.017 C 
ATOM      9  C   UNL     1      12.665 -18.528  12.689  1.00  0.00     0.043 C 
ATOM     10  C   UNL     1      13.197 -17.935  14.017  1.00  0.00    -0.003 C 
ATOM     11  C   UNL     1      14.084 -15.498  13.791  1.00  0.00     0.012 C 
ATOM     12  C   UNL     1      15.729 -17.319  14.345  1.00  0.00     0.013 C 
ATOM     13  C   UNL     1      13.616 -19.125  14.930  1.00  0.00     0.017 C 
ATOM     14  C   UNL     1      12.051 -17.204  14.758  1.00  0.00    -0.064 C 
ATOM     15  C   UNL     1      13.521 -15.246  15.186  1.00  0.00     0.032 C 
ATOM     16  C   UNL     1      12.228 -16.008  15.390  1.00  0.00    -0.064 C 
ATOM     17  C   UNL     1      10.692 -17.877  14.858  1.00  0.00     0.032 C 
ATOM     18  C   UNL     1      11.122 -15.469  16.337  1.00  0.00    -0.008 C 
ATOM     19  C   UNL     1      10.118 -17.881  16.283  1.00  0.00     0.009 C 
ATOM     20  C   UNL     1      10.614 -16.704  17.173  1.00  0.00     0.007 C 
ATOM     21  C   UNL     1      11.703 -14.408  17.324  1.00  0.00     0.014 C 
ATOM     22  C   UNL     1      10.020 -14.807  15.457  1.00  0.00     0.016 C 
ATOM     23  C   UNL     1       9.684 -16.382  18.410  1.00  0.00    -0.006 C 
ATOM     24  C   UNL     1      10.765 -14.054  18.483  1.00  0.00     0.033 C 
ATOM     25  C   UNL     1      10.378 -15.295  19.292  1.00  0.00     0.120 C 
ATOM     26  C   UNL     1       9.536 -17.660  19.276  1.00  0.00     0.014 C 
ATOM     27  C   UNL     1       8.251 -15.928  18.011  1.00  0.00     0.014 C 
BRANCH   7  28
ATOM     28  O   UNL     1      13.479 -18.753  10.411  1.00  0.00    -0.393 OA
ATOM     29  H   UNL     1      12.877 -19.541  10.358  1.00  0.00     0.210 HD
ENDBRANCH   7  28
BRANCH  25  30
ATOM     30  O   UNL     1       9.538 -14.894  20.351  1.00  0.00    -0.393 OA
ATOM     31  H   UNL     1       8.971 -15.672  20.597  1.00  0.00     0.210 HD
ENDBRANCH  25  30
ENDBRANCH   2   6
ENDBRANCH   1   2
BRANCH   1  32
ATOM     32  C   UNL     1      18.231 -15.894  11.118  1.00  0.00     0.031 C 
BRANCH  32  33
ATOM     33  C   UNL     1      18.545 -14.555  10.466  1.00  0.00    -0.075 C 
ATOM     34  C   UNL     1      18.658 -13.461  11.238  1.00  0.00     0.008 C 
BRANCH  33  35
ATOM     35  C   UNL     1      18.450 -14.377   8.957  1.00  0.00     0.008 C 
ATOM     36  C   UNL     1      17.254 -13.479   8.601  1.00  0.00     0.012 C 
ATOM     37  C   UNL     1      18.380 -15.713   8.200  1.00  0.00     0.012 C 
ENDBRANCH  33  35
ENDBRANCH  32  33
ENDBRANCH   1  32
TORSDOF 8
ENDMDL
MODEL 5
REMARK VINA RESULT:    -5.867      8.667     13.878
REMARK INTER + INTRA:          -8.758
REMARK INTER:                  -7.881
REMARK INTRA:                  -0.878
REMARK UNBOUND:                -0.490
REMARK SMILES C=C(CC[C@@H](C(=O)[O-])[C@H]1[C@H](O)C[C@]2(C)C3=C(CC[C@]12C)[C@]1(C)CC[C@@H](O)C(C)(C)[C@H]1CC3)C(C)C
REMARK SMILES IDX 4 1 5 2 6 3 7 4 8 5 9 6 10 7 19 8 12 9 13 10 18 11 20 12
REMARK SMILES IDX 14 13 15 14 17 15 16 16 32 17 21 18 31 19 30 20 23 21 22 22
REMARK SMILES IDX 27 23 24 24 25 25 28 26 29 27 11 28 26 30 3 32 2 33 1 34
REMARK SMILES IDX 33 35 34 36 35 37
REMARK H PARENT 11 29 26 31
REMARK Flexibility Score: inf
ROOT
ATOM      1  C   UNL     1      10.429 -16.197  18.507  1.00  0.00     0.014 C 
ENDROOT
BRANCH   1   2
ATOM      2  C   UNL     1      10.628 -17.516  17.714  1.00  0.00     0.042 C 
BRANCH   2   3
ATOM      3  C   UNL     1       9.396 -18.395  17.692  1.00  0.00     0.045 C 
ATOM      4  O   UNL     1       8.808 -18.668  16.613  1.00  0.00    -0.550 OA
ATOM      5  O   UNL     1       8.876 -18.884  18.886  1.00  0.00    -0.550 OA
ENDBRANCH   2   3
BRANCH   2   6
ATOM      6  C   UNL     1      11.311 -17.295  16.320  1.00  0.00     0.033 C 
ATOM      7  C   UNL     1      10.762 -16.078  15.573  1.00  0.00     0.119 C 
ATOM      8  C   UNL     1      12.881 -17.208  16.135  1.00  0.00    -0.017 C 
ATOM      9  C   UNL     1      11.661 -15.965  14.358  1.00  0.00     0.043 C 
ATOM     10  C   UNL     1      13.096 -16.236  14.873  1.00  0.00    -0.003 C 
ATOM     11  C   UNL     1      13.426 -18.632  15.835  1.00  0.00     0.012 C 
ATOM     12  C   UNL     1      13.596 -16.680  17.413  1.00  0.00     0.013 C 
ATOM     13  C   UNL     1      13.733 -14.861  15.235  1.00  0.00     0.017 C 
ATOM     14  C   UNL     1      13.959 -16.824  13.731  1.00  0.00    -0.064 C 
ATOM     15  C   UNL     1      14.832 -18.591  15.245  1.00  0.00     0.032 C 
ATOM     16  C   UNL     1      14.841 -17.847  13.926  1.00  0.00    -0.064 C 
ATOM     17  C   UNL     1      13.884 -16.192  12.351  1.00  0.00     0.032 C 
ATOM     18  C   UNL     1      15.863 -18.203  12.813  1.00  0.00    -0.008 C 
ATOM     19  C   UNL     1      15.263 -15.895  11.742  1.00  0.00     0.009 C 
ATOM     20  C   UNL     1      16.398 -16.832  12.249  1.00  0.00     0.007 C 
ATOM     21  C   UNL     1      17.069 -19.002  13.400  1.00  0.00     0.014 C 
ATOM     22  C   UNL     1      15.130 -19.077  11.753  1.00  0.00     0.016 C 
ATOM     23  C   UNL     1      17.660 -16.907  11.298  1.00  0.00    -0.006 C 
ATOM     24  C   UNL     1      18.260 -19.125  12.443  1.00  0.00     0.033 C 
ATOM     25  C   UNL     1      18.770 -17.751  12.001  1.00  0.00     0.120 C 
ATOM     26  C   UNL     1      18.221 -15.476  11.093  1.00  0.00     0.014 C 
ATOM     27  C   UNL     1      17.345 -17.484   9.890  1.00  0.00     0.014 C 
BRANCH   7  28
ATOM     28  O   UNL     1       9.404 -16.216  15.221  1.00  0.00    -0.393 OA
ATOM     29  H   UNL     1       9.273 -17.126  14.845  1.00  0.00     0.210 HD
ENDBRANCH   7  28
BRANCH  25  30
ATOM     30  O   UNL     1      19.876 -17.938  11.147  1.00  0.00    -0.393 OA
ATOM     31  H   UNL     1      20.259 -18.835  11.340  1.00  0.00     0.210 HD
ENDBRANCH  25  30
ENDBRANCH   2   6
ENDBRANCH   1   2
BRANCH   1  32
ATOM     32  C   UNL     1       9.006 -15.593  18.397  1.00  0.00     0.031 C 
BRANCH  32  33
ATOM     33  C   UNL     1       8.930 -14.135  18.826  1.00  0.00    -0.075 C 
ATOM     34  C   UNL     1       8.719 -13.842  20.121  1.00  0.00     0.008 C 
BRANCH  33  35
ATOM     35  C   UNL     1       8.801 -13.021  17.796  1.00  0.00     0.008 C 
ATOM     36  C   UNL     1       7.934 -13.484  16.615  1.00  0.00     0.012 C 
ATOM     37  C   UNL     1      10.162 -12.497  17.308  1.00  0.00     0.012 C 
ENDBRANCH  33  35
ENDBRANCH  32  33
ENDBRANCH   1  32
TORSDOF 8
ENDMDL
MODEL 6
REMARK VINA RESULT:    -5.820      8.574     13.875
REMARK INTER + INTRA:          -8.692
REMARK INTER:                  -8.005
REMARK INTRA:                  -0.687
REMARK UNBOUND:                -0.490
REMARK SMILES C=C(CC[C@@H](C(=O)[O-])[C@H]1[C@H](O)C[C@]2(C)C3=C(CC[C@]12C)[C@]1(C)CC[C@@H](O)C(C)(C)[C@H]1CC3)C(C)C
REMARK SMILES IDX 4 1 5 2 6 3 7 4 8 5 9 6 10 7 19 8 12 9 13 10 18 11 20 12
REMARK SMILES IDX 14 13 15 14 17 15 16 16 32 17 21 18 31 19 30 20 23 21 22 22
REMARK SMILES IDX 27 23 24 24 25 25 28 26 29 27 11 28 26 30 3 32 2 33 1 34
REMARK SMILES IDX 33 35 34 36 35 37
REMARK H PARENT 11 29 26 31
REMARK Flexibility Score: inf
ROOT
ATOM      1  C   UNL     1      11.113 -14.863  18.830  1.00  0.00     0.014 C 
ENDROOT
BRANCH   1   2
ATOM      2  C   UNL     1      10.184 -14.629  17.609  1.00  0.00     0.042 C 
BRANCH   2   3
ATOM      3  C   UNL     1       9.519 -13.269  17.611  1.00  0.00     0.045 C 
ATOM      4  O   UNL     1      10.185 -12.217  17.802  1.00  0.00    -0.550 OA
ATOM      5  O   UNL     1       8.143 -13.173  17.437  1.00  0.00    -0.550 OA
ENDBRANCH   2   3
BRANCH   2   6
ATOM      6  C   UNL     1      10.846 -15.043  16.248  1.00  0.00     0.033 C 
ATOM      7  C   UNL     1      10.441 -14.133  15.087  1.00  0.00     0.119 C 
ATOM      8  C   UNL     1      12.406 -15.247  16.078  1.00  0.00    -0.017 C 
ATOM      9  C   UNL     1      11.308 -14.608  13.938  1.00  0.00     0.043 C 
ATOM     10  C   UNL     1      12.709 -14.858  14.547  1.00  0.00    -0.003 C 
ATOM     11  C   UNL     1      12.745 -16.740  16.346  1.00  0.00     0.012 C 
ATOM     12  C   UNL     1      13.227 -14.381  17.077  1.00  0.00     0.013 C 
ATOM     13  C   UNL     1      13.536 -13.550  14.379  1.00  0.00     0.017 C 
ATOM     14  C   UNL     1      13.448 -15.945  13.728  1.00  0.00    -0.064 C 
ATOM     15  C   UNL     1      14.124 -17.115  15.814  1.00  0.00     0.032 C 
ATOM     16  C   UNL     1      14.190 -16.930  14.312  1.00  0.00    -0.064 C 
ATOM     17  C   UNL     1      13.415 -15.872  12.210  1.00  0.00     0.032 C 
ATOM     18  C   UNL     1      15.119 -17.813  13.436  1.00  0.00    -0.008 C 
ATOM     19  C   UNL     1      14.801 -16.017  11.563  1.00  0.00     0.009 C 
ATOM     20  C   UNL     1      15.815 -16.841  12.410  1.00  0.00     0.007 C 
ATOM     21  C   UNL     1      16.225 -18.490  14.305  1.00  0.00     0.014 C 
ATOM     22  C   UNL     1      14.242 -18.912  12.767  1.00  0.00     0.016 C 
ATOM     23  C   UNL     1      17.024 -17.438  11.583  1.00  0.00    -0.006 C 
ATOM     24  C   UNL     1      17.358 -19.124  13.491  1.00  0.00     0.033 C 
ATOM     25  C   UNL     1      18.033 -18.100  12.575  1.00  0.00     0.120 C 
ATOM     26  C   UNL     1      17.765 -16.280  10.866  1.00  0.00     0.014 C 
ATOM     27  C   UNL     1      16.589 -18.454  10.489  1.00  0.00     0.014 C 
BRANCH   7  28
ATOM     28  O   UNL     1       9.067 -14.206  14.785  1.00  0.00    -0.393 OA
ATOM     29  H   UNL     1       8.701 -13.283  14.776  1.00  0.00     0.210 HD
ENDBRANCH   7  28
BRANCH  25  30
ATOM     30  O   UNL     1      19.076 -18.743  11.877  1.00  0.00    -0.393 OA
ATOM     31  H   UNL     1      18.932 -19.723  11.954  1.00  0.00     0.210 HD
ENDBRANCH  25  30
ENDBRANCH   2   6
ENDBRANCH   1   2
BRANCH   1  32
ATOM     32  C   UNL     1      10.595 -15.924  19.833  1.00  0.00     0.031 C 
BRANCH  32  33
ATOM     33  C   UNL     1      10.989 -17.348  19.468  1.00  0.00    -0.075 C 
ATOM     34  C   UNL     1      10.063 -18.172  18.948  1.00  0.00     0.008 C 
BRANCH  33  35
ATOM     35  C   UNL     1      12.311 -17.940  19.937  1.00  0.00     0.008 C 
ATOM     36  C   UNL     1      13.302 -16.820  20.291  1.00  0.00     0.012 C 
ATOM     37  C   UNL     1      12.924 -18.916  18.920  1.00  0.00     0.012 C 
ENDBRANCH  33  35
ENDBRANCH  32  33
ENDBRANCH   1  32
TORSDOF 8
ENDMDL
MODEL 7
REMARK VINA RESULT:    -5.555      1.937      8.533
REMARK INTER + INTRA:          -8.318
REMARK INTER:                  -6.721
REMARK INTRA:                  -1.597
REMARK UNBOUND:                -0.490
REMARK SMILES C=C(CC[C@@H](C(=O)[O-])[C@H]1[C@H](O)C[C@]2(C)C3=C(CC[C@]12C)[C@]1(C)CC[C@@H](O)C(C)(C)[C@H]1CC3)C(C)C
REMARK SMILES IDX 4 1 5 2 6 3 7 4 8 5 9 6 10 7 19 8 12 9 13 10 18 11 20 12
REMARK SMILES IDX 14 13 15 14 17 15 16 16 32 17 21 18 31 19 30 20 23 21 22 22
REMARK SMILES IDX 27 23 24 24 25 25 28 26 29 27 11 28 26 30 3 32 2 33 1 34
REMARK SMILES IDX 33 35 34 36 35 37
REMARK H PARENT 11 29 26 31
REMARK Flexibility Score: inf
ROOT
ATOM      1  C   UNL     1      26.228  -8.364   6.821  1.00  0.00     0.014 C 
ENDROOT
BRANCH   1   2
ATOM      2  C   UNL     1      24.737  -8.401   7.251  1.00  0.00     0.042 C 
BRANCH   2   3
ATOM      3  C   UNL     1      24.140  -7.027   7.468  1.00  0.00     0.045 C 
ATOM      4  O   UNL     1      23.685  -6.353   6.506  1.00  0.00    -0.550 OA
ATOM      5  O   UNL     1      24.123  -6.476   8.745  1.00  0.00    -0.550 OA
ENDBRANCH   2   3
BRANCH   2   6
ATOM      6  C   UNL     1      23.870  -9.371   6.375  1.00  0.00     0.033 C 
ATOM      7  C   UNL     1      24.437  -9.570   4.967  1.00  0.00     0.119 C 
ATOM      8  C   UNL     1      23.454 -10.822   6.852  1.00  0.00    -0.017 C 
ATOM      9  C   UNL     1      23.552 -10.647   4.372  1.00  0.00     0.043 C 
ATOM     10  C   UNL     1      23.340 -11.685   5.500  1.00  0.00    -0.003 C 
ATOM     11  C   UNL     1      22.079 -10.735   7.571  1.00  0.00     0.012 C 
ATOM     12  C   UNL     1      24.481 -11.430   7.852  1.00  0.00     0.013 C 
ATOM     13  C   UNL     1      24.441 -12.775   5.351  1.00  0.00     0.017 C 
ATOM     14  C   UNL     1      21.986 -12.408   5.297  1.00  0.00    -0.064 C 
ATOM     15  C   UNL     1      21.414 -12.101   7.696  1.00  0.00     0.032 C 
ATOM     16  C   UNL     1      21.141 -12.694   6.330  1.00  0.00    -0.064 C 
ATOM     17  C   UNL     1      21.611 -12.891   3.905  1.00  0.00     0.032 C 
ATOM     18  C   UNL     1      19.942 -13.653   6.098  1.00  0.00    -0.008 C 
ATOM     19  C   UNL     1      21.130 -14.350   3.876  1.00  0.00     0.009 C 
ATOM     20  C   UNL     1      20.486 -14.835   5.209  1.00  0.00     0.007 C 
ATOM     21  C   UNL     1      19.434 -14.245   7.451  1.00  0.00     0.014 C 
ATOM     22  C   UNL     1      18.798 -12.835   5.429  1.00  0.00     0.016 C 
ATOM     23  C   UNL     1      19.542 -16.095   5.059  1.00  0.00    -0.006 C 
ATOM     24  C   UNL     1      18.467 -15.424   7.292  1.00  0.00     0.033 C 
ATOM     25  C   UNL     1      19.095 -16.560   6.482  1.00  0.00     0.120 C 
ATOM     26  C   UNL     1      20.349 -17.255   4.420  1.00  0.00     0.014 C 
ATOM     27  C   UNL     1      18.304 -15.842   4.153  1.00  0.00     0.014 C 
BRANCH   7  28
ATOM     28  O   UNL     1      24.430  -8.388   4.200  1.00  0.00    -0.393 OA
ATOM     29  H   UNL     1      23.838  -8.531   3.416  1.00  0.00     0.210 HD
ENDBRANCH   7  28
BRANCH  25  30
ATOM     30  O   UNL     1      18.165 -17.616   6.396  1.00  0.00    -0.393 OA
ATOM     31  H   UNL     1      17.557 -17.422   5.634  1.00  0.00     0.210 HD
ENDBRANCH  25  30
ENDBRANCH   2   6
ENDBRANCH   1   2
BRANCH   1  32
ATOM     32  C   UNL     1      27.201  -9.016   7.834  1.00  0.00     0.031 C 
BRANCH  32  33
ATOM     33  C   UNL     1      27.163  -8.374   9.213  1.00  0.00    -0.075 C 
ATOM     34  C   UNL     1      27.560  -7.097   9.353  1.00  0.00     0.008 C 
BRANCH  33  35
ATOM     35  C   UNL     1      26.962  -9.217  10.465  1.00  0.00     0.008 C 
ATOM     36  C   UNL     1      25.465  -9.352  10.782  1.00  0.00     0.012 C 
ATOM     37  C   UNL     1      27.736  -8.677  11.679  1.00  0.00     0.012 C 
ENDBRANCH  33  35
ENDBRANCH  32  33
ENDBRANCH   1  32
TORSDOF 8
ENDMDL
MODEL 8
REMARK VINA RESULT:    -5.535     12.945     16.012
REMARK INTER + INTRA:          -8.290
REMARK INTER:                  -8.817
REMARK INTRA:                   0.527
REMARK UNBOUND:                -0.490
REMARK SMILES C=C(CC[C@@H](C(=O)[O-])[C@H]1[C@H](O)C[C@]2(C)C3=C(CC[C@]12C)[C@]1(C)CC[C@@H](O)C(C)(C)[C@H]1CC3)C(C)C
REMARK SMILES IDX 4 1 5 2 6 3 7 4 8 5 9 6 10 7 19 8 12 9 13 10 18 11 20 12
REMARK SMILES IDX 14 13 15 14 17 15 16 16 32 17 21 18 31 19 30 20 23 21 22 22
REMARK SMILES IDX 27 23 24 24 25 25 28 26 29 27 11 28 26 30 3 32 2 33 1 34
REMARK SMILES IDX 33 35 34 36 35 37
REMARK H PARENT 11 29 26 31
REMARK Flexibility Score: inf
ROOT
ATOM      1  C   UNL     1      16.892  -5.964  16.133  1.00  0.00     0.014 C 
ENDROOT
BRANCH   1   2
ATOM      2  C   UNL     1      15.826  -4.940  16.606  1.00  0.00     0.042 C 
BRANCH   2   3
ATOM      3  C   UNL     1      14.628  -5.583  17.272  1.00  0.00     0.045 C 
ATOM      4  O   UNL     1      14.413  -5.443  18.505  1.00  0.00    -0.550 OA
ATOM      5  O   UNL     1      13.765  -6.376  16.523  1.00  0.00    -0.550 OA
ENDBRANCH   2   3
BRANCH   2   6
ATOM      6  C   UNL     1      16.445  -3.726  17.383  1.00  0.00     0.033 C 
ATOM      7  C   UNL     1      15.389  -2.746  17.898  1.00  0.00     0.119 C 
ATOM      8  C   UNL     1      17.457  -3.901  18.587  1.00  0.00    -0.017 C 
ATOM      9  C   UNL     1      16.185  -1.767  18.738  1.00  0.00     0.043 C 
ATOM     10  C   UNL     1      17.198  -2.626  19.533  1.00  0.00    -0.003 C 
ATOM     11  C   UNL     1      18.906  -3.888  18.027  1.00  0.00     0.012 C 
ATOM     12  C   UNL     1      17.246  -5.246  19.343  1.00  0.00     0.013 C 
ATOM     13  C   UNL     1      16.546  -2.977  20.903  1.00  0.00     0.017 C 
ATOM     14  C   UNL     1      18.457  -1.784  19.856  1.00  0.00    -0.064 C 
ATOM     15  C   UNL     1      19.938  -3.639  19.121  1.00  0.00     0.032 C 
ATOM     16  C   UNL     1      19.722  -2.286  19.766  1.00  0.00    -0.064 C 
ATOM     17  C   UNL     1      18.280  -0.365  20.370  1.00  0.00     0.032 C 
ATOM     18  C   UNL     1      20.911  -1.484  20.361  1.00  0.00    -0.008 C 
ATOM     19  C   UNL     1      19.116  -0.063  21.624  1.00  0.00     0.009 C 
ATOM     20  C   UNL     1      20.413  -0.916  21.745  1.00  0.00     0.007 C 
ATOM     21  C   UNL     1      22.136  -2.416  20.621  1.00  0.00     0.014 C 
ATOM     22  C   UNL     1      21.307  -0.383  19.334  1.00  0.00     0.016 C 
ATOM     23  C   UNL     1      21.519  -0.296  22.690  1.00  0.00    -0.006 C 
ATOM     24  C   UNL     1      23.232  -1.780  21.483  1.00  0.00     0.033 C 
ATOM     25  C   UNL     1      22.687  -1.323  22.839  1.00  0.00     0.120 C 
ATOM     26  C   UNL     1      20.910  -0.074  24.099  1.00  0.00     0.014 C 
ATOM     27  C   UNL     1      22.058   1.077  22.200  1.00  0.00     0.014 C 
BRANCH   7  28
ATOM     28  O   UNL     1      14.680  -2.107  16.862  1.00  0.00    -0.393 OA
ATOM     29  H   UNL     1      14.121  -1.392  17.264  1.00  0.00     0.210 HD
ENDBRANCH   7  28
BRANCH  25  30
ATOM     30  O   UNL     1      23.748  -0.773  23.586  1.00  0.00    -0.393 OA
ATOM     31  H   UNL     1      23.516   0.171  23.790  1.00  0.00     0.210 HD
ENDBRANCH  25  30
ENDBRANCH   2   6
ENDBRANCH   1   2
BRANCH   1  32
ATOM     32  C   UNL     1      16.409  -6.916  15.011  1.00  0.00     0.031 C 
BRANCH  32  33
ATOM     33  C   UNL     1      17.360  -8.074  14.745  1.00  0.00    -0.075 C 
ATOM     34  C   UNL     1      18.686  -7.868  14.840  1.00  0.00     0.008 C 
BRANCH  33  35
ATOM     35  C   UNL     1      16.867  -9.363  14.103  1.00  0.00     0.008 C 
ATOM     36  C   UNL     1      17.798  -9.777  12.953  1.00  0.00     0.012 C 
ATOM     37  C   UNL     1      15.409  -9.273  13.626  1.00  0.00     0.012 C 
ENDBRANCH  33  35
ENDBRANCH  32  33
ENDBRANCH   1  32
TORSDOF 8
ENDMDL
MODEL 9
REMARK VINA RESULT:    -5.503      2.476      9.176
REMARK INTER + INTRA:          -8.245
REMARK INTER:                  -8.636
REMARK INTRA:                   0.391
REMARK UNBOUND:                -0.490
REMARK SMILES C=C(CC[C@@H](C(=O)[O-])[C@H]1[C@H](O)C[C@]2(C)C3=C(CC[C@]12C)[C@]1(C)CC[C@@H](O)C(C)(C)[C@H]1CC3)C(C)C
REMARK SMILES IDX 4 1 5 2 6 3 7 4 8 5 9 6 10 7 19 8 12 9 13 10 18 11 20 12
REMARK SMILES IDX 14 13 15 14 17 15 16 16 32 17 21 18 31 19 30 20 23 21 22 22
REMARK SMILES IDX 27 23 24 24 25 25 28 26 29 27 11 28 26 30 3 32 2 33 1 34
REMARK SMILES IDX 33 35 34 36 35 37
REMARK H PARENT 11 29 26 31
REMARK Flexibility Score: inf
ROOT
ATOM      1  C   UNL     1      21.012 -12.035   4.358  1.00  0.00     0.014 C 
ENDROOT
BRANCH   1   2
ATOM      2  C   UNL     1      21.006 -13.551   4.687  1.00  0.00     0.042 C 
BRANCH   2   3
ATOM      3  C   UNL     1      22.233 -14.281   4.181  1.00  0.00     0.045 C 
ATOM      4  O   UNL     1      22.186 -15.503   3.878  1.00  0.00    -0.550 OA
ATOM      5  O   UNL     1      23.444 -13.607   4.081  1.00  0.00    -0.550 OA
ENDBRANCH   2   3
BRANCH   2   6
ATOM      6  C   UNL     1      20.622 -13.853   6.178  1.00  0.00     0.033 C 
ATOM      7  C   UNL     1      20.765 -12.632   7.089  1.00  0.00     0.119 C 
ATOM      8  C   UNL     1      19.244 -14.509   6.594  1.00  0.00    -0.017 C 
ATOM      9  C   UNL     1      20.196 -13.102   8.413  1.00  0.00     0.043 C 
ATOM     10  C   UNL     1      18.929 -13.918   8.056  1.00  0.00    -0.003 C 
ATOM     11  C   UNL     1      19.424 -16.052   6.650  1.00  0.00     0.012 C 
ATOM     12  C   UNL     1      18.109 -14.194   5.577  1.00  0.00     0.013 C 
ATOM     13  C   UNL     1      17.714 -12.945   8.097  1.00  0.00     0.017 C 
ATOM     14  C   UNL     1      18.668 -14.981   9.151  1.00  0.00    -0.064 C 
ATOM     15  C   UNL     1      18.299 -16.730   7.424  1.00  0.00     0.032 C 
ATOM     16  C   UNL     1      18.274 -16.255   8.862  1.00  0.00    -0.064 C 
ATOM     17  C   UNL     1      18.777 -14.575  10.612  1.00  0.00     0.032 C 
ATOM     18  C   UNL     1      17.769 -17.180  10.003  1.00  0.00    -0.008 C 
ATOM     19  C   UNL     1      17.573 -15.018  11.459  1.00  0.00     0.009 C 
ATOM     20  C   UNL     1      16.851 -16.288  10.922  1.00  0.00     0.007 C 
ATOM     21  C   UNL     1      16.909 -18.350   9.430  1.00  0.00     0.014 C 
ATOM     22  C   UNL     1      19.015 -17.763  10.732  1.00  0.00     0.016 C 
ATOM     23  C   UNL     1      15.982 -17.051  12.000  1.00  0.00    -0.006 C 
ATOM     24  C   UNL     1      16.123 -19.125  10.493  1.00  0.00     0.033 C 
ATOM     25  C   UNL     1      15.199 -18.203  11.292  1.00  0.00     0.120 C 
ATOM     26  C   UNL     1      14.936 -16.070  12.591  1.00  0.00     0.014 C 
ATOM     27  C   UNL     1      16.814 -17.608  13.190  1.00  0.00     0.014 C 
BRANCH   7  28
ATOM     28  O   UNL     1      22.097 -12.188   7.208  1.00  0.00    -0.393 OA
ATOM     29  H   UNL     1      22.312 -12.108   8.174  1.00  0.00     0.210 HD
ENDBRANCH   7  28
BRANCH  25  30
ATOM     30  O   UNL     1      14.492 -18.982  12.231  1.00  0.00    -0.393 OA
ATOM     31  H   UNL     1      14.112 -19.764  11.750  1.00  0.00     0.210 HD
ENDBRANCH  25  30
ENDBRANCH   2   6
ENDBRANCH   1   2
BRANCH   1  32
ATOM     32  C   UNL     1      22.390 -11.484   3.911  1.00  0.00     0.031 C 
BRANCH  32  33
ATOM     33  C   UNL     1      22.683 -10.085   4.434  1.00  0.00    -0.075 C 
ATOM     34  C   UNL     1      21.713  -9.154   4.394  1.00  0.00     0.008 C 
BRANCH  33  35
ATOM     35  C   UNL     1      24.109  -9.640   4.729  1.00  0.00     0.008 C 
ATOM     36  C   UNL     1      24.859 -10.734   5.505  1.00  0.00     0.012 C 
ATOM     37  C   UNL     1      24.175  -8.295   5.470  1.00  0.00     0.012 C 
ENDBRANCH  33  35
ENDBRANCH  32  33
ENDBRANCH   1  32
TORSDOF 8
ENDMDL
