MODEL 1
REMARK VINA RESULT:    -6.029      0.000      0.000
REMARK INTER + INTRA:          -8.965
REMARK INTER:                  -7.439
REMARK INTRA:                  -1.526
REMARK UNBOUND:                -1.526
REMARK SMILES CC(C)=CCC[C@H](C)c1ccc(C)cc1
REMARK SMILES IDX 6 1 7 2 8 3 9 4 13 5 12 6 11 7 14 8 10 9 15 10 5 11 4 12
REMARK SMILES IDX 2 13 1 14 3 15
REMARK H PARENT
REMARK Flexibility Score: inf
ROOT
ATOM      1  C   UNL     1       8.189 196.705   3.899  1.00  0.00     0.012 C 
ENDROOT
BRANCH   1   2
ATOM      2  C   UNL     1       8.381 196.531   2.375  1.00  0.00     0.016 C 
ATOM      3  C   UNL     1       8.648 195.071   1.976  1.00  0.00     0.013 C 
BRANCH   2   4
ATOM      4  C   UNL     1       9.400 197.520   1.823  1.00  0.00    -0.045 A 
ATOM      5  C   UNL     1      12.296 200.418   0.444  1.00  0.00     0.044 C 
ATOM      6  C   UNL     1      11.306 199.410   0.949  1.00  0.00    -0.051 A 
ATOM      7  C   UNL     1      10.144 199.830   1.609  1.00  0.00     0.004 A 
ATOM      8  C   UNL     1      11.506 198.044   0.712  1.00  0.00     0.004 A 
ATOM      9  C   UNL     1       9.206 198.894   2.051  1.00  0.00     0.004 A 
ATOM     10  C   UNL     1      10.569 197.105   1.153  1.00  0.00     0.004 A 
ENDBRANCH   2   4
ENDBRANCH   1   2
BRANCH   1  11
ATOM     11  C   UNL     1       9.244 195.982   4.756  1.00  0.00     0.028 C 
BRANCH  11  12
ATOM     12  C   UNL     1      10.453 196.858   4.966  1.00  0.00    -0.028 C 
ATOM     13  C   UNL     1      11.700 196.541   4.552  1.00  0.00    -0.080 C 
ATOM     14  C   UNL     1      12.811 197.527   4.798  1.00  0.00     0.039 C 
ATOM     15  C   UNL     1      12.007 195.226   3.872  1.00  0.00     0.039 C 
ENDBRANCH  11  12
ENDBRANCH   1  11
TORSDOF 4
ENDMDL
MODEL 2
REMARK VINA RESULT:    -5.926      0.415      1.316
REMARK INTER + INTRA:          -8.837
REMARK INTER:                  -7.502
REMARK INTRA:                  -1.335
REMARK UNBOUND:                -1.526
REMARK SMILES CC(C)=CCC[C@H](C)c1ccc(C)cc1
REMARK SMILES IDX 6 1 7 2 8 3 9 4 13 5 12 6 11 7 14 8 10 9 15 10 5 11 4 12
REMARK SMILES IDX 2 13 1 14 3 15
REMARK H PARENT
REMARK Flexibility Score: inf
ROOT
ATOM      1  C   UNL     1       8.503 196.483   3.911  1.00  0.00     0.012 C 
ENDROOT
BRANCH   1   2
ATOM      2  C   UNL     1       8.583 196.563   2.369  1.00  0.00     0.016 C 
ATOM      3  C   UNL     1       8.865 195.198   1.721  1.00  0.00     0.013 C 
BRANCH   2   4
ATOM      4  C   UNL     1       9.525 197.670   1.915  1.00  0.00    -0.045 A 
ATOM      5  C   UNL     1      12.205 200.723   0.435  1.00  0.00     0.044 C 
ATOM      6  C   UNL     1      11.260 199.665   0.922  1.00  0.00    -0.051 A 
ATOM      7  C   UNL     1      11.561 198.309   0.738  1.00  0.00     0.004 A 
ATOM      8  C   UNL     1      10.097 200.022   1.618  1.00  0.00     0.004 A 
ATOM      9  C   UNL     1      10.697 197.322   1.220  1.00  0.00     0.004 A 
ATOM     10  C   UNL     1       9.231 199.037   2.101  1.00  0.00     0.004 A 
ENDBRANCH   2   4
ENDBRANCH   1   2
BRANCH   1  11
ATOM     11  C   UNL     1       9.600 195.617   4.557  1.00  0.00     0.028 C 
BRANCH  11  12
ATOM     12  C   UNL     1      10.846 196.429   4.802  1.00  0.00    -0.028 C 
ATOM     13  C   UNL     1      12.067 196.107   4.321  1.00  0.00    -0.080 C 
ATOM     14  C   UNL     1      13.222 197.029   4.615  1.00  0.00     0.039 C 
ATOM     15  C   UNL     1      12.305 194.846   3.521  1.00  0.00     0.039 C 
ENDBRANCH  11  12
ENDBRANCH   1  11
TORSDOF 4
ENDMDL
MODEL 3
REMARK VINA RESULT:    -5.796      1.098      4.206
REMARK INTER + INTRA:          -8.677
REMARK INTER:                  -7.221
REMARK INTRA:                  -1.456
REMARK UNBOUND:                -1.526
REMARK SMILES CC(C)=CCC[C@H](C)c1ccc(C)cc1
REMARK SMILES IDX 6 1 7 2 8 3 9 4 13 5 12 6 11 7 14 8 10 9 15 10 5 11 4 12
REMARK SMILES IDX 2 13 1 14 3 15
REMARK H PARENT
REMARK Flexibility Score: inf
ROOT
ATOM      1  C   UNL     1       8.005 197.976   3.906  1.00  0.00     0.012 C 
ENDROOT
BRANCH   1   2
ATOM      2  C   UNL     1       8.310 196.657   4.653  1.00  0.00     0.016 C 
ATOM      3  C   UNL     1       7.920 196.716   6.139  1.00  0.00     0.013 C 
BRANCH   2   4
ATOM      4  C   UNL     1       9.739 196.191   4.406  1.00  0.00    -0.045 A 
ATOM      5  C   UNL     1      13.746 194.841   3.505  1.00  0.00     0.044 C 
ATOM      6  C   UNL     1      12.356 195.325   3.792  1.00  0.00    -0.051 A 
ATOM      7  C   UNL     1      11.246 194.570   3.386  1.00  0.00     0.004 A 
ATOM      8  C   UNL     1      12.154 196.505   4.519  1.00  0.00     0.004 A 
ATOM      9  C   UNL     1       9.951 195.005   3.681  1.00  0.00     0.004 A 
ATOM     10  C   UNL     1      10.860 196.942   4.815  1.00  0.00     0.004 A 
ENDBRANCH   2   4
ENDBRANCH   1   2
BRANCH   1  11
ATOM     11  C   UNL     1       8.305 197.932   2.396  1.00  0.00     0.028 C 
BRANCH  11  12
ATOM     12  C   UNL     1       9.236 199.050   2.004  1.00  0.00    -0.028 C 
ATOM     13  C   UNL     1      10.423 198.866   1.383  1.00  0.00    -0.080 C 
ATOM     14  C   UNL     1      11.239 200.078   1.018  1.00  0.00     0.039 C 
ATOM     15  C   UNL     1      10.954 197.486   1.066  1.00  0.00     0.039 C 
ENDBRANCH  11  12
ENDBRANCH   1  11
TORSDOF 4
ENDMDL
MODEL 4
REMARK VINA RESULT:    -5.579      1.483      3.775
REMARK INTER + INTRA:          -8.410
REMARK INTER:                  -7.462
REMARK INTRA:                  -0.947
REMARK UNBOUND:                -1.526
REMARK SMILES CC(C)=CCC[C@H](C)c1ccc(C)cc1
REMARK SMILES IDX 6 1 7 2 8 3 9 4 13 5 12 6 11 7 14 8 10 9 15 10 5 11 4 12
REMARK SMILES IDX 2 13 1 14 3 15
REMARK H PARENT
REMARK Flexibility Score: inf
ROOT
ATOM      1  C   UNL     1      12.064 197.216   2.263  1.00  0.00     0.012 C 
ENDROOT
BRANCH   1   2
ATOM      2  C   UNL     1      11.528 197.803   0.937  1.00  0.00     0.016 C 
ATOM      3  C   UNL     1      12.304 197.296  -0.290  1.00  0.00     0.013 C 
BRANCH   2   4
ATOM      4  C   UNL     1      11.403 199.319   1.006  1.00  0.00    -0.045 A 
ATOM      5  C   UNL     1      11.100 203.632   0.999  1.00  0.00     0.044 C 
ATOM      6  C   UNL     1      11.191 202.135   0.974  1.00  0.00    -0.051 A 
ATOM      7  C   UNL     1      12.328 201.505   0.450  1.00  0.00     0.004 A 
ATOM      8  C   UNL     1      10.168 201.356   1.529  1.00  0.00     0.004 A 
ATOM      9  C   UNL     1      12.428 200.111   0.456  1.00  0.00     0.004 A 
ATOM     10  C   UNL     1      10.265 199.961   1.536  1.00  0.00     0.004 A 
ENDBRANCH   2   4
ENDBRANCH   1   2
BRANCH   1  11
ATOM     11  C   UNL     1      10.969 196.838   3.276  1.00  0.00     0.028 C 
BRANCH  11  12
ATOM     12  C   UNL     1      10.109 195.723   2.741  1.00  0.00    -0.028 C 
ATOM     13  C   UNL     1       8.818 195.873   2.368  1.00  0.00    -0.080 C 
ATOM     14  C   UNL     1       8.085 194.678   1.817  1.00  0.00     0.039 C 
ATOM     15  C   UNL     1       8.093 197.193   2.508  1.00  0.00     0.039 C 
ENDBRANCH  11  12
ENDBRANCH   1  11
TORSDOF 4
ENDMDL
MODEL 5
REMARK VINA RESULT:    -5.385      1.035      4.139
REMARK INTER + INTRA:          -8.170
REMARK INTER:                  -6.631
REMARK INTRA:                  -1.539
REMARK UNBOUND:                -1.526
REMARK SMILES CC(C)=CCC[C@H](C)c1ccc(C)cc1
REMARK SMILES IDX 6 1 7 2 8 3 9 4 13 5 12 6 11 7 14 8 10 9 15 10 5 11 4 12
REMARK SMILES IDX 2 13 1 14 3 15
REMARK H PARENT
REMARK Flexibility Score: inf
ROOT
ATOM      1  C   UNL     1       9.621 194.878   2.884  1.00  0.00     0.012 C 
ENDROOT
BRANCH   1   2
ATOM      2  C   UNL     1       9.754 195.464   4.308  1.00  0.00     0.016 C 
ATOM      3  C   UNL     1       8.525 196.290   4.724  1.00  0.00     0.013 C 
BRANCH   2   4
ATOM      4  C   UNL     1      11.079 196.192   4.493  1.00  0.00    -0.045 A 
ATOM      5  C   UNL     1      14.889 198.210   4.818  1.00  0.00     0.044 C 
ATOM      6  C   UNL     1      13.563 197.521   4.677  1.00  0.00    -0.051 A 
ATOM      7  C   UNL     1      13.494 196.216   4.172  1.00  0.00     0.004 A 
ATOM      8  C   UNL     1      12.389 198.154   5.105  1.00  0.00     0.004 A 
ATOM      9  C   UNL     1      12.264 195.562   4.071  1.00  0.00     0.004 A 
ATOM     10  C   UNL     1      11.156 197.503   5.005  1.00  0.00     0.004 A 
ENDBRANCH   2   4
ENDBRANCH   1   2
BRANCH   1  11
ATOM     11  C   UNL     1       9.109 195.880   1.833  1.00  0.00     0.028 C 
BRANCH  11  12
ATOM     12  C   UNL     1      10.243 196.717   1.297  1.00  0.00    -0.028 C 
ATOM     13  C   UNL     1      10.318 198.061   1.423  1.00  0.00    -0.080 C 
ATOM     14  C   UNL     1      11.527 198.769   0.869  1.00  0.00     0.039 C 
ATOM     15  C   UNL     1       9.220 198.866   2.082  1.00  0.00     0.039 C 
ENDBRANCH  11  12
ENDBRANCH   1  11
TORSDOF 4
ENDMDL
MODEL 6
REMARK VINA RESULT:    -5.361      1.335      4.882
REMARK INTER + INTRA:          -8.140
REMARK INTER:                  -6.597
REMARK INTRA:                  -1.543
REMARK UNBOUND:                -1.526
REMARK SMILES CC(C)=CCC[C@H](C)c1ccc(C)cc1
REMARK SMILES IDX 6 1 7 2 8 3 9 4 13 5 12 6 11 7 14 8 10 9 15 10 5 11 4 12
REMARK SMILES IDX 2 13 1 14 3 15
REMARK H PARENT
REMARK Flexibility Score: inf
ROOT
ATOM      1  C   UNL     1      14.004 196.573   2.683  1.00  0.00     0.012 C 
ENDROOT
BRANCH   1   2
ATOM      2  C   UNL     1      13.490 195.522   3.693  1.00  0.00     0.016 C 
ATOM      3  C   UNL     1      13.705 194.080   3.205  1.00  0.00     0.013 C 
BRANCH   2   4
ATOM      4  C   UNL     1      12.062 195.819   4.132  1.00  0.00    -0.045 A 
ATOM      5  C   UNL     1       8.027 196.853   5.290  1.00  0.00     0.044 C 
ATOM      6  C   UNL     1       9.422 196.508   4.861  1.00  0.00    -0.051 A 
ATOM      7  C   UNL     1      10.486 197.374   5.151  1.00  0.00     0.004 A 
ATOM      8  C   UNL     1       9.684 195.290   4.221  1.00  0.00     0.004 A 
ATOM      9  C   UNL     1      11.790 197.038   4.779  1.00  0.00     0.004 A 
ATOM     10  C   UNL     1      10.988 194.951   3.849  1.00  0.00     0.004 A 
ENDBRANCH   2   4
ENDBRANCH   1   2
BRANCH   1  11
ATOM     11  C   UNL     1      13.133 196.718   1.422  1.00  0.00     0.028 C 
BRANCH  11  12
ATOM     12  C   UNL     1      12.538 198.101   1.340  1.00  0.00    -0.028 C 
ATOM     13  C   UNL     1      11.212 198.353   1.269  1.00  0.00    -0.080 C 
ATOM     14  C   UNL     1      10.754 199.787   1.226  1.00  0.00     0.039 C 
ATOM     15  C   UNL     1      10.189 197.241   1.212  1.00  0.00     0.039 C 
ENDBRANCH  11  12
ENDBRANCH   1  11
TORSDOF 4
ENDMDL
MODEL 7
REMARK VINA RESULT:    -5.338      1.421      5.000
REMARK INTER + INTRA:          -8.112
REMARK INTER:                  -6.648
REMARK INTRA:                  -1.464
REMARK UNBOUND:                -1.526
REMARK SMILES CC(C)=CCC[C@H](C)c1ccc(C)cc1
REMARK SMILES IDX 6 1 7 2 8 3 9 4 13 5 12 6 11 7 14 8 10 9 15 10 5 11 4 12
REMARK SMILES IDX 2 13 1 14 3 15
REMARK H PARENT
REMARK Flexibility Score: inf
ROOT
ATOM      1  C   UNL     1      13.926 197.610   4.336  1.00  0.00     0.012 C 
ENDROOT
BRANCH   1   2
ATOM      2  C   UNL     1      13.206 196.423   5.015  1.00  0.00     0.016 C 
ATOM      3  C   UNL     1      14.122 195.201   5.195  1.00  0.00     0.013 C 
BRANCH   2   4
ATOM      4  C   UNL     1      11.882 196.107   4.333  1.00  0.00    -0.045 A 
ATOM      5  C   UNL     1       8.128 195.020   2.482  1.00  0.00     0.044 C 
ATOM      6  C   UNL     1       9.422 195.384   3.150  1.00  0.00    -0.051 A 
ATOM      7  C   UNL     1      10.534 194.538   3.044  1.00  0.00     0.004 A 
ATOM      8  C   UNL     1       9.546 196.599   3.835  1.00  0.00     0.004 A 
ATOM      9  C   UNL     1      11.748 194.891   3.639  1.00  0.00     0.004 A 
ATOM     10  C   UNL     1      10.760 196.955   4.431  1.00  0.00     0.004 A 
ENDBRANCH   2   4
ENDBRANCH   1   2
BRANCH   1  11
ATOM     11  C   UNL     1      13.923 197.556   2.798  1.00  0.00     0.028 C 
BRANCH  11  12
ATOM     12  C   UNL     1      13.203 198.750   2.223  1.00  0.00    -0.028 C 
ATOM     13  C   UNL     1      12.189 198.667   1.334  1.00  0.00    -0.080 C 
ATOM     14  C   UNL     1      11.536 199.942   0.868  1.00  0.00     0.039 C 
ATOM     15  C   UNL     1      11.711 197.341   0.786  1.00  0.00     0.039 C 
ENDBRANCH  11  12
ENDBRANCH   1  11
TORSDOF 4
ENDMDL
MODEL 8
REMARK VINA RESULT:    -5.303      1.413      3.934
REMARK INTER + INTRA:          -8.069
REMARK INTER:                  -7.081
REMARK INTRA:                  -0.987
REMARK UNBOUND:                -1.526
REMARK SMILES CC(C)=CCC[C@H](C)c1ccc(C)cc1
REMARK SMILES IDX 6 1 7 2 8 3 9 4 13 5 12 6 11 7 14 8 10 9 15 10 5 11 4 12
REMARK SMILES IDX 2 13 1 14 3 15
REMARK H PARENT
REMARK Flexibility Score: inf
ROOT
ATOM      1  C   UNL     1      13.178 197.335   1.457  1.00  0.00     0.012 C 
ENDROOT
BRANCH   1   2
ATOM      2  C   UNL     1      12.150 198.084   0.578  1.00  0.00     0.016 C 
ATOM      3  C   UNL     1      12.637 199.481   0.160  1.00  0.00     0.013 C 
BRANCH   2   4
ATOM      4  C   UNL     1      10.763 198.075   1.208  1.00  0.00    -0.045 A 
ATOM      5  C   UNL     1       6.894 197.906   3.131  1.00  0.00     0.044 C 
ATOM      6  C   UNL     1       8.250 197.964   2.491  1.00  0.00    -0.051 A 
ATOM      7  C   UNL     1       8.891 196.785   2.084  1.00  0.00     0.004 A 
ATOM      8  C   UNL     1       8.861 199.199   2.239  1.00  0.00     0.004 A 
ATOM      9  C   UNL     1      10.139 196.840   1.460  1.00  0.00     0.004 A 
ATOM     10  C   UNL     1      10.110 199.257   1.614  1.00  0.00     0.004 A 
ENDBRANCH   2   4
ENDBRANCH   1   2
BRANCH   1  11
ATOM     11  C   UNL     1      13.393 197.959   2.849  1.00  0.00     0.028 C 
BRANCH  11  12
ATOM     12  C   UNL     1      14.041 196.969   3.782  1.00  0.00    -0.028 C 
ATOM     13  C   UNL     1      13.357 196.087   4.546  1.00  0.00    -0.080 C 
ATOM     14  C   UNL     1      14.135 195.130   5.410  1.00  0.00     0.039 C 
ATOM     15  C   UNL     1      11.845 196.052   4.568  1.00  0.00     0.039 C 
ENDBRANCH  11  12
ENDBRANCH   1  11
TORSDOF 4
ENDMDL
MODEL 9
REMARK VINA RESULT:    -5.286      1.207      4.010
REMARK INTER + INTRA:          -8.048
REMARK INTER:                  -6.470
REMARK INTRA:                  -1.578
REMARK UNBOUND:                -1.526
REMARK SMILES CC(C)=CCC[C@H](C)c1ccc(C)cc1
REMARK SMILES IDX 6 1 7 2 8 3 9 4 13 5 12 6 11 7 14 8 10 9 15 10 5 11 4 12
REMARK SMILES IDX 2 13 1 14 3 15
REMARK H PARENT
REMARK Flexibility Score: inf
ROOT
ATOM      1  C   UNL     1      11.865 200.099   2.180  1.00  0.00     0.012 C 
ENDROOT
BRANCH   1   2
ATOM      2  C   UNL     1      10.454 200.070   1.548  1.00  0.00     0.016 C 
ATOM      3  C   UNL     1       9.577 201.247   2.007  1.00  0.00     0.013 C 
BRANCH   2   4
ATOM      4  C   UNL     1       9.795 198.707   1.712  1.00  0.00    -0.045 A 
ATOM      5  C   UNL     1       8.103 194.767   2.262  1.00  0.00     0.044 C 
ATOM      6  C   UNL     1       8.703 196.132   2.098  1.00  0.00    -0.051 A 
ATOM      7  C   UNL     1       9.947 196.287   1.472  1.00  0.00     0.004 A 
ATOM      8  C   UNL     1       7.999 197.268   2.516  1.00  0.00     0.004 A 
ATOM      9  C   UNL     1      10.492 197.560   1.291  1.00  0.00     0.004 A 
ATOM     10  C   UNL     1       8.542 198.544   2.336  1.00  0.00     0.004 A 
ENDBRANCH   2   4
ENDBRANCH   1   2
BRANCH   1  11
ATOM     11  C   UNL     1      11.883 199.848   3.699  1.00  0.00     0.028 C 
BRANCH  11  12
ATOM     12  C   UNL     1      12.648 198.591   4.023  1.00  0.00    -0.028 C 
ATOM     13  C   UNL     1      12.117 197.523   4.659  1.00  0.00    -0.080 C 
ATOM     14  C   UNL     1      12.989 196.316   4.889  1.00  0.00     0.039 C 
ATOM     15  C   UNL     1      10.690 197.518   5.159  1.00  0.00     0.039 C 
ENDBRANCH  11  12
ENDBRANCH   1  11
TORSDOF 4
ENDMDL
