MODEL 1
REMARK VINA RESULT:    -3.185      0.000      0.000
REMARK INTER + INTRA:          -3.977
REMARK INTER:                  -3.930
REMARK INTRA:                  -0.048
REMARK UNBOUND:                -0.048
REMARK SMILES CCCCCC(=O)[O-]
REMARK SMILES IDX 4 1 5 2 6 3 7 4 8 5 3 6 2 7 1 8
REMARK H PARENT
REMARK Flexibility Score: inf
ROOT
ATOM      1  C   UNL     1      21.928 -22.102  31.843  1.00  0.00     0.006 C 
ENDROOT
BRANCH   1   2
ATOM      2  C   UNL     1      23.046 -21.283  32.499  1.00  0.00     0.053 C 
BRANCH   2   3
ATOM      3  C   UNL     1      23.889 -20.620  31.455  1.00  0.00     0.041 C 
ATOM      4  O   UNL     1      24.075 -19.375  31.486  1.00  0.00    -0.550 OA
ATOM      5  O   UNL     1      24.511 -21.385  30.476  1.00  0.00    -0.550 OA
ENDBRANCH   2   3
ENDBRANCH   1   2
BRANCH   1   6
ATOM      6  C   UNL     1      20.788 -22.435  32.819  1.00  0.00     0.000 C 
BRANCH   6   7
ATOM      7  C   UNL     1      20.048 -23.728  32.445  1.00  0.00    -0.003 C 
ATOM      8  C   UNL     1      18.718 -23.421  31.762  1.00  0.00     0.004 C 
ENDBRANCH   6   7
ENDBRANCH   1   6
TORSDOF 4
ENDMDL
MODEL 2
REMARK VINA RESULT:    -2.971     21.173     22.731
REMARK INTER + INTRA:          -3.714
REMARK INTER:                  -3.554
REMARK INTRA:                  -0.160
REMARK UNBOUND:                -0.048
REMARK SMILES CCCCCC(=O)[O-]
REMARK SMILES IDX 4 1 5 2 6 3 7 4 8 5 3 6 2 7 1 8
REMARK H PARENT
REMARK Flexibility Score: inf
ROOT
ATOM      1  C   UNL     1       8.393 -32.214  15.872  1.00  0.00     0.006 C 
ENDROOT
BRANCH   1   2
ATOM      2  C   UNL     1       8.477 -32.583  17.358  1.00  0.00     0.053 C 
BRANCH   2   3
ATOM      3  C   UNL     1       9.263 -31.553  18.108  1.00  0.00     0.041 C 
ATOM      4  O   UNL     1       9.154 -31.458  19.358  1.00  0.00    -0.550 OA
ATOM      5  O   UNL     1      10.154 -30.730  17.430  1.00  0.00    -0.550 OA
ENDBRANCH   2   3
ENDBRANCH   1   2
BRANCH   1   6
ATOM      6  C   UNL     1       9.253 -33.129  14.986  1.00  0.00     0.000 C 
BRANCH   6   7
ATOM      7  C   UNL     1       9.823 -32.399  13.761  1.00  0.00    -0.003 C 
ATOM      8  C   UNL     1      11.165 -31.748  14.084  1.00  0.00     0.004 C 
ENDBRANCH   6   7
ENDBRANCH   1   6
TORSDOF 4
ENDMDL
MODEL 3
REMARK VINA RESULT:    -2.923     14.226     15.239
REMARK INTER + INTRA:          -3.654
REMARK INTER:                  -3.541
REMARK INTRA:                  -0.113
REMARK UNBOUND:                -0.048
REMARK SMILES CCCCCC(=O)[O-]
REMARK SMILES IDX 4 1 5 2 6 3 7 4 8 5 3 6 2 7 1 8
REMARK H PARENT
REMARK Flexibility Score: inf
ROOT
ATOM      1  C   UNL     1      16.239 -35.465  31.399  1.00  0.00     0.006 C 
ENDROOT
BRANCH   1   2
ATOM      2  C   UNL     1      14.933 -35.258  32.176  1.00  0.00     0.053 C 
BRANCH   2   3
ATOM      3  C   UNL     1      14.456 -33.847  32.028  1.00  0.00     0.041 C 
ATOM      4  O   UNL     1      15.006 -33.075  31.199  1.00  0.00    -0.550 OA
ATOM      5  O   UNL     1      13.372 -33.399  32.772  1.00  0.00    -0.550 OA
ENDBRANCH   2   3
ENDBRANCH   1   2
BRANCH   1   6
ATOM      6  C   UNL     1      16.360 -36.880  30.812  1.00  0.00     0.000 C 
BRANCH   6   7
ATOM      7  C   UNL     1      17.154 -36.910  29.498  1.00  0.00    -0.003 C 
ATOM      8  C   UNL     1      17.565 -35.503  29.073  1.00  0.00     0.004 C 
ENDBRANCH   6   7
ENDBRANCH   1   6
TORSDOF 4
ENDMDL
MODEL 4
REMARK VINA RESULT:    -2.906     21.843     23.303
REMARK INTER + INTRA:          -3.633
REMARK INTER:                  -3.451
REMARK INTRA:                  -0.182
REMARK UNBOUND:                -0.048
REMARK SMILES CCCCCC(=O)[O-]
REMARK SMILES IDX 4 1 5 2 6 3 7 4 8 5 3 6 2 7 1 8
REMARK H PARENT
REMARK Flexibility Score: inf
ROOT
ATOM      1  C   UNL     1       8.970 -32.925  15.331  1.00  0.00     0.006 C 
ENDROOT
BRANCH   1   2
ATOM      2  C   UNL     1       8.061 -32.458  16.474  1.00  0.00     0.053 C 
BRANCH   2   3
ATOM      3  C   UNL     1       8.873 -31.837  17.567  1.00  0.00     0.041 C 
ATOM      4  O   UNL     1       9.852 -31.096  17.287  1.00  0.00    -0.550 OA
ATOM      5  O   UNL     1       8.518 -32.036  18.895  1.00  0.00    -0.550 OA
ENDBRANCH   2   3
ENDBRANCH   1   2
BRANCH   1   6
ATOM      6  C   UNL     1       8.591 -32.298  13.980  1.00  0.00     0.000 C 
BRANCH   6   7
ATOM      7  C   UNL     1       9.818 -31.948  13.125  1.00  0.00    -0.003 C 
ATOM      8  C   UNL     1      11.071 -31.827  13.987  1.00  0.00     0.004 C 
ENDBRANCH   6   7
ENDBRANCH   1   6
TORSDOF 4
ENDMDL
MODEL 5
REMARK VINA RESULT:    -2.897     22.062     23.437
REMARK INTER + INTRA:          -3.622
REMARK INTER:                  -3.485
REMARK INTRA:                  -0.137
REMARK UNBOUND:                -0.048
REMARK SMILES CCCCCC(=O)[O-]
REMARK SMILES IDX 4 1 5 2 6 3 7 4 8 5 3 6 2 7 1 8
REMARK H PARENT
REMARK Flexibility Score: inf
ROOT
ATOM      1  C   UNL     1       9.950 -32.114  13.764  1.00  0.00     0.006 C 
ENDROOT
BRANCH   1   2
ATOM      2  C   UNL     1       9.327 -33.010  14.841  1.00  0.00     0.053 C 
BRANCH   2   3
ATOM      3  C   UNL     1       8.681 -32.177  15.904  1.00  0.00     0.041 C 
ATOM      4  O   UNL     1       7.428 -32.173  16.031  1.00  0.00    -0.550 OA
ATOM      5  O   UNL     1       9.465 -31.444  16.785  1.00  0.00    -0.550 OA
ENDBRANCH   2   3
ENDBRANCH   1   2
BRANCH   1   6
ATOM      6  C   UNL     1      11.480 -32.244  13.699  1.00  0.00     0.000 C 
BRANCH   6   7
ATOM      7  C   UNL     1      12.202 -31.105  14.435  1.00  0.00    -0.003 C 
ATOM      8  C   UNL     1      13.691 -31.093  14.100  1.00  0.00     0.004 C 
ENDBRANCH   6   7
ENDBRANCH   1   6
TORSDOF 4
ENDMDL
MODEL 6
REMARK VINA RESULT:    -2.881     21.370     23.100
REMARK INTER + INTRA:          -3.603
REMARK INTER:                  -3.529
REMARK INTRA:                  -0.073
REMARK UNBOUND:                -0.048
REMARK SMILES CCCCCC(=O)[O-]
REMARK SMILES IDX 4 1 5 2 6 3 7 4 8 5 3 6 2 7 1 8
REMARK H PARENT
REMARK Flexibility Score: inf
ROOT
ATOM      1  C   UNL     1       9.220 -32.912  15.190  1.00  0.00     0.006 C 
ENDROOT
BRANCH   1   2
ATOM      2  C   UNL     1       9.643 -32.289  13.854  1.00  0.00     0.053 C 
BRANCH   2   3
ATOM      3  C   UNL     1      11.135 -32.221  13.758  1.00  0.00     0.041 C 
ATOM      4  O   UNL     1      11.760 -31.256  14.268  1.00  0.00    -0.550 OA
ATOM      5  O   UNL     1      11.839 -33.251  13.147  1.00  0.00    -0.550 OA
ENDBRANCH   2   3
ENDBRANCH   1   2
BRANCH   1   6
ATOM      6  C   UNL     1       8.852 -31.856  16.244  1.00  0.00     0.000 C 
BRANCH   6   7
ATOM      7  C   UNL     1       8.566 -32.472  17.622  1.00  0.00    -0.003 C 
ATOM      8  C   UNL     1       9.004 -31.535  18.744  1.00  0.00     0.004 C 
ENDBRANCH   6   7
ENDBRANCH   1   6
TORSDOF 4
ENDMDL
MODEL 7
REMARK VINA RESULT:    -2.847     21.438     23.293
REMARK INTER + INTRA:          -3.561
REMARK INTER:                  -3.473
REMARK INTRA:                  -0.088
REMARK UNBOUND:                -0.048
REMARK SMILES CCCCCC(=O)[O-]
REMARK SMILES IDX 4 1 5 2 6 3 7 4 8 5 3 6 2 7 1 8
REMARK H PARENT
REMARK Flexibility Score: inf
ROOT
ATOM      1  C   UNL     1       8.358 -32.238  15.866  1.00  0.00     0.006 C 
ENDROOT
BRANCH   1   2
ATOM      2  C   UNL     1       8.480 -32.586  17.355  1.00  0.00     0.053 C 
BRANCH   2   3
ATOM      3  C   UNL     1       9.295 -31.553  18.068  1.00  0.00     0.041 C 
ATOM      4  O   UNL     1      10.104 -30.831  17.428  1.00  0.00    -0.550 OA
ATOM      5  O   UNL     1       9.125 -31.353  19.432  1.00  0.00    -0.550 OA
ENDBRANCH   2   3
ENDBRANCH   1   2
BRANCH   1   6
ATOM      6  C   UNL     1       6.956 -32.523  15.305  1.00  0.00     0.000 C 
BRANCH   6   7
ATOM      7  C   UNL     1       6.969 -32.794  13.793  1.00  0.00    -0.003 C 
ATOM      8  C   UNL     1       8.234 -32.239  13.147  1.00  0.00     0.004 C 
ENDBRANCH   6   7
ENDBRANCH   1   6
TORSDOF 4
ENDMDL
MODEL 8
REMARK VINA RESULT:    -2.762     13.746     14.819
REMARK INTER + INTRA:          -3.455
REMARK INTER:                  -3.351
REMARK INTRA:                  -0.104
REMARK UNBOUND:                -0.048
REMARK SMILES CCCCCC(=O)[O-]
REMARK SMILES IDX 4 1 5 2 6 3 7 4 8 5 3 6 2 7 1 8
REMARK H PARENT
REMARK Flexibility Score: inf
ROOT
ATOM      1  C   UNL     1      16.032 -35.249  30.874  1.00  0.00     0.006 C 
ENDROOT
BRANCH   1   2
ATOM      2  C   UNL     1      16.741 -36.395  30.140  1.00  0.00     0.053 C 
BRANCH   2   3
ATOM      3  C   UNL     1      17.431 -35.882  28.915  1.00  0.00     0.041 C 
ATOM      4  O   UNL     1      18.215 -34.900  28.993  1.00  0.00    -0.550 OA
ATOM      5  O   UNL     1      17.247 -36.521  27.695  1.00  0.00    -0.550 OA
ENDBRANCH   2   3
ENDBRANCH   1   2
BRANCH   1   6
ATOM      6  C   UNL     1      16.374 -35.205  32.371  1.00  0.00     0.000 C 
BRANCH   6   7
ATOM      7  C   UNL     1      15.592 -34.120  33.125  1.00  0.00    -0.003 C 
ATOM      8  C   UNL     1      14.835 -33.216  32.156  1.00  0.00     0.004 C 
ENDBRANCH   6   7
ENDBRANCH   1   6
TORSDOF 4
ENDMDL
MODEL 9
REMARK VINA RESULT:    -2.760     22.401     23.317
REMARK INTER + INTRA:          -3.453
REMARK INTER:                  -3.279
REMARK INTRA:                  -0.174
REMARK UNBOUND:                -0.048
REMARK SMILES CCCCCC(=O)[O-]
REMARK SMILES IDX 4 1 5 2 6 3 7 4 8 5 3 6 2 7 1 8
REMARK H PARENT
REMARK Flexibility Score: inf
ROOT
ATOM      1  C   UNL     1       9.578 -32.899  14.453  1.00  0.00     0.006 C 
ENDROOT
BRANCH   1   2
ATOM      2  C   UNL     1      10.401 -31.895  13.636  1.00  0.00     0.053 C 
BRANCH   2   3
ATOM      3  C   UNL     1      11.631 -31.492  14.389  1.00  0.00     0.041 C 
ATOM      4  O   UNL     1      11.532 -30.940  15.516  1.00  0.00    -0.550 OA
ATOM      5  O   UNL     1      12.887 -31.773  13.868  1.00  0.00    -0.550 OA
ENDBRANCH   2   3
ENDBRANCH   1   2
BRANCH   1   6
ATOM      6  C   UNL     1       8.068 -32.630  14.373  1.00  0.00     0.000 C 
BRANCH   6   7
ATOM      7  C   UNL     1       7.444 -32.344  15.748  1.00  0.00    -0.003 C 
ATOM      8  C   UNL     1       8.501 -32.383  16.848  1.00  0.00     0.004 C 
ENDBRANCH   6   7
ENDBRANCH   1   6
TORSDOF 4
ENDMDL
