MODEL 1
REMARK VINA RESULT:    -5.655      0.000      0.000
REMARK INTER + INTRA:          -6.194
REMARK INTER:                  -5.986
REMARK INTRA:                  -0.208
REMARK UNBOUND:                -0.208
REMARK SMILES CC1=CC[C@]23[C@H]([C@@H](C(C)C)CC[C@H]2C)[C@@H]13
REMARK SMILES IDX 14 1 13 2 12 3 11 4 7 5 6 6 5 7 15 8 2 9 3 10 4 11 1 12 8 13
REMARK SMILES IDX 9 14 10 15
REMARK H PARENT
REMARK Flexibility Score: inf
ROOT
ATOM      1  C   UNL     1       0.292   5.853  14.896  1.00  0.00     0.008 C 
ATOM      2  C   UNL     1      -0.996   5.017  14.815  1.00  0.00    -0.007 C 
ATOM      3  C   UNL     1      -0.801   3.603  15.395  1.00  0.00     0.004 C 
ATOM      4  C   UNL     1      -0.274   2.609  14.361  1.00  0.00     0.004 C 
ATOM      5  C   UNL     1      -1.307   2.416  13.227  1.00  0.00    -0.004 C 
ATOM      6  C   UNL     1      -1.775   3.739  12.572  1.00  0.00     0.007 C 
ATOM      7  C   UNL     1      -1.633   5.031  13.395  1.00  0.00    -0.013 C 
ATOM      8  C   UNL     1      -0.700   4.760  12.208  1.00  0.00     0.025 C 
ATOM      9  C   UNL     1      -1.091   5.782  11.196  1.00  0.00    -0.073 C 
ATOM     10  C   UNL     1      -2.060   6.581  11.620  1.00  0.00    -0.027 C 
ATOM     11  C   UNL     1      -2.516   6.224  12.992  1.00  0.00     0.035 C 
ATOM     12  C   UNL     1      -0.459   5.893   9.842  1.00  0.00     0.039 C 
ENDROOT
BRANCH   5  13
ATOM     13  C   UNL     1      -0.891   1.365  12.152  1.00  0.00    -0.014 C 
ATOM     14  C   UNL     1      -1.325  -0.072  12.478  1.00  0.00     0.007 C 
ATOM     15  C   UNL     1      -1.378   1.757  10.749  1.00  0.00     0.007 C 
ENDBRANCH   5  13
TORSDOF 1
ENDMDL
MODEL 2
REMARK VINA RESULT:    -5.545      1.544      3.957
REMARK INTER + INTRA:          -6.077
REMARK INTER:                  -5.809
REMARK INTRA:                  -0.268
REMARK UNBOUND:                -0.208
REMARK SMILES CC1=CC[C@]23[C@H]([C@@H](C(C)C)CC[C@H]2C)[C@@H]13
REMARK SMILES IDX 14 1 13 2 12 3 11 4 7 5 6 6 5 7 15 8 2 9 3 10 4 11 1 12 8 13
REMARK SMILES IDX 9 14 10 15
REMARK H PARENT
REMARK Flexibility Score: inf
ROOT
ATOM      1  C   UNL     1      -2.817   1.786  14.572  1.00  0.00     0.008 C 
ATOM      2  C   UNL     1      -1.293   1.877  14.385  1.00  0.00    -0.007 C 
ATOM      3  C   UNL     1      -0.603   2.528  15.600  1.00  0.00     0.004 C 
ATOM      4  C   UNL     1      -0.552   4.053  15.502  1.00  0.00     0.004 C 
ATOM      5  C   UNL     1       0.314   4.483  14.296  1.00  0.00    -0.004 C 
ATOM      6  C   UNL     1      -0.106   3.832  12.956  1.00  0.00     0.007 C 
ATOM      7  C   UNL     1      -0.891   2.510  13.022  1.00  0.00    -0.013 C 
ATOM      8  C   UNL     1      -1.595   3.813  12.621  1.00  0.00     0.025 C 
ATOM      9  C   UNL     1      -1.936   3.618  11.184  1.00  0.00    -0.073 C 
ATOM     10  C   UNL     1      -1.562   2.431  10.724  1.00  0.00    -0.027 C 
ATOM     11  C   UNL     1      -0.878   1.619  11.768  1.00  0.00     0.035 C 
ATOM     12  C   UNL     1      -2.623   4.651  10.345  1.00  0.00     0.039 C 
ENDROOT
BRANCH   5  13
ATOM     13  C   UNL     1       0.486   6.027  14.149  1.00  0.00    -0.014 C 
ATOM     14  C   UNL     1       1.504   6.641  15.122  1.00  0.00     0.007 C 
ATOM     15  C   UNL     1       0.827   6.430  12.706  1.00  0.00     0.007 C 
ENDBRANCH   5  13
TORSDOF 1
ENDMDL
MODEL 3
REMARK VINA RESULT:    -5.343      2.229      4.875
REMARK INTER + INTRA:          -5.864
REMARK INTER:                  -5.605
REMARK INTRA:                  -0.258
REMARK UNBOUND:                -0.208
REMARK SMILES CC1=CC[C@]23[C@H]([C@@H](C(C)C)CC[C@H]2C)[C@@H]13
REMARK SMILES IDX 14 1 13 2 12 3 11 4 7 5 6 6 5 7 15 8 2 9 3 10 4 11 1 12 8 13
REMARK SMILES IDX 9 14 10 15
REMARK H PARENT
REMARK Flexibility Score: inf
ROOT
ATOM      1  C   UNL     1      -0.083   6.465  11.488  1.00  0.00     0.008 C 
ATOM      2  C   UNL     1      -0.786   5.624  10.409  1.00  0.00    -0.007 C 
ATOM      3  C   UNL     1      -1.795   6.459   9.596  1.00  0.00     0.004 C 
ATOM      4  C   UNL     1      -3.179   6.505  10.243  1.00  0.00     0.004 C 
ATOM      5  C   UNL     1      -3.800   5.090  10.282  1.00  0.00    -0.004 C 
ATOM      6  C   UNL     1      -2.890   4.022  10.938  1.00  0.00     0.007 C 
ATOM      7  C   UNL     1      -1.377   4.298  10.970  1.00  0.00    -0.013 C 
ATOM      8  C   UNL     1      -2.211   4.392  12.254  1.00  0.00     0.025 C 
ATOM      9  C   UNL     1      -1.735   3.249  13.084  1.00  0.00    -0.073 C 
ATOM     10  C   UNL     1      -0.774   2.552  12.494  1.00  0.00    -0.027 C 
ATOM     11  C   UNL     1      -0.444   3.088  11.145  1.00  0.00     0.035 C 
ATOM     12  C   UNL     1      -2.286   2.920  14.437  1.00  0.00     0.039 C 
ENDROOT
BRANCH   5  13
ATOM     13  C   UNL     1      -5.246   5.041  10.864  1.00  0.00    -0.014 C 
ATOM     14  C   UNL     1      -5.499   6.038  12.005  1.00  0.00     0.007 C 
ATOM     15  C   UNL     1      -6.311   5.214   9.769  1.00  0.00     0.007 C 
ENDBRANCH   5  13
TORSDOF 1
ENDMDL
MODEL 4
REMARK VINA RESULT:    -5.223      1.738      4.401
REMARK INTER + INTRA:          -5.736
REMARK INTER:                  -5.522
REMARK INTRA:                  -0.214
REMARK UNBOUND:                -0.208
REMARK SMILES CC1=CC[C@]23[C@H]([C@@H](C(C)C)CC[C@H]2C)[C@@H]13
REMARK SMILES IDX 14 1 13 2 12 3 11 4 7 5 6 6 5 7 15 8 2 9 3 10 4 11 1 12 8 13
REMARK SMILES IDX 9 14 10 15
REMARK H PARENT
REMARK Flexibility Score: inf
ROOT
ATOM      1  C   UNL     1       0.138   5.620  14.834  1.00  0.00     0.008 C 
ATOM      2  C   UNL     1      -0.211   5.576  13.338  1.00  0.00    -0.007 C 
ATOM      3  C   UNL     1      -1.015   6.814  12.897  1.00  0.00     0.004 C 
ATOM      4  C   UNL     1      -2.521   6.641  13.096  1.00  0.00     0.004 C 
ATOM      5  C   UNL     1      -3.052   5.502  12.195  1.00  0.00    -0.004 C 
ATOM      6  C   UNL     1      -2.290   4.164  12.358  1.00  0.00     0.007 C 
ATOM      7  C   UNL     1      -0.855   4.225  12.910  1.00  0.00    -0.013 C 
ATOM      8  C   UNL     1      -2.000   3.690  13.780  1.00  0.00     0.025 C 
ATOM      9  C   UNL     1      -1.697   2.239  13.932  1.00  0.00    -0.073 C 
ATOM     10  C   UNL     1      -0.578   1.881  13.317  1.00  0.00    -0.027 C 
ATOM     11  C   UNL     1       0.064   3.027  12.617  1.00  0.00     0.035 C 
ATOM     12  C   UNL     1      -2.564   1.285  14.694  1.00  0.00     0.039 C 
ENDROOT
BRANCH   5  13
ATOM     13  C   UNL     1      -4.596   5.291  12.274  1.00  0.00    -0.014 C 
ATOM     14  C   UNL     1      -5.358   6.458  12.919  1.00  0.00     0.007 C 
ATOM     15  C   UNL     1      -5.200   4.965  10.899  1.00  0.00     0.007 C 
ENDBRANCH   5  13
TORSDOF 1
ENDMDL
MODEL 5
REMARK VINA RESULT:    -5.085      1.452      1.916
REMARK INTER + INTRA:          -5.590
REMARK INTER:                  -5.330
REMARK INTRA:                  -0.260
REMARK UNBOUND:                -0.208
REMARK SMILES CC1=CC[C@]23[C@H]([C@@H](C(C)C)CC[C@H]2C)[C@@H]13
REMARK SMILES IDX 14 1 13 2 12 3 11 4 7 5 6 6 5 7 15 8 2 9 3 10 4 11 1 12 8 13
REMARK SMILES IDX 9 14 10 15
REMARK H PARENT
REMARK Flexibility Score: inf
ROOT
ATOM      1  C   UNL     1       0.544   5.901  12.575  1.00  0.00     0.008 C 
ATOM      2  C   UNL     1      -0.265   5.358  13.765  1.00  0.00    -0.007 C 
ATOM      3  C   UNL     1       0.445   4.174  14.449  1.00  0.00     0.004 C 
ATOM      4  C   UNL     1       0.106   2.830  13.804  1.00  0.00     0.004 C 
ATOM      5  C   UNL     1      -1.399   2.520  13.971  1.00  0.00    -0.004 C 
ATOM      6  C   UNL     1      -2.333   3.652  13.476  1.00  0.00     0.007 C 
ATOM      7  C   UNL     1      -1.751   5.074  13.403  1.00  0.00    -0.013 C 
ATOM      8  C   UNL     1      -2.018   4.277  12.119  1.00  0.00     0.025 C 
ATOM      9  C   UNL     1      -3.141   5.006  11.463  1.00  0.00    -0.073 C 
ATOM     10  C   UNL     1      -3.529   6.074  12.147  1.00  0.00    -0.027 C 
ATOM     11  C   UNL     1      -2.749   6.244  13.404  1.00  0.00     0.035 C 
ATOM     12  C   UNL     1      -3.767   4.576  10.173  1.00  0.00     0.039 C 
ENDROOT
BRANCH   5  13
ATOM     13  C   UNL     1      -1.834   1.134  13.404  1.00  0.00    -0.014 C 
ATOM     14  C   UNL     1      -1.056   0.693  12.154  1.00  0.00     0.007 C 
ATOM     15  C   UNL     1      -1.776   0.033  14.475  1.00  0.00     0.007 C 
ENDBRANCH   5  13
TORSDOF 1
ENDMDL
MODEL 6
REMARK VINA RESULT:    -4.963      1.429      2.934
REMARK INTER + INTRA:          -5.461
REMARK INTER:                  -5.097
REMARK INTRA:                  -0.364
REMARK UNBOUND:                -0.208
REMARK SMILES CC1=CC[C@]23[C@H]([C@@H](C(C)C)CC[C@H]2C)[C@@H]13
REMARK SMILES IDX 14 1 13 2 12 3 11 4 7 5 6 6 5 7 15 8 2 9 3 10 4 11 1 12 8 13
REMARK SMILES IDX 9 14 10 15
REMARK H PARENT
REMARK Flexibility Score: inf
ROOT
ATOM      1  C   UNL     1       0.452   6.704  11.673  1.00  0.00     0.008 C 
ATOM      2  C   UNL     1      -0.748   6.682  12.633  1.00  0.00    -0.007 C 
ATOM      3  C   UNL     1      -0.309   6.785  14.106  1.00  0.00     0.004 C 
ATOM      4  C   UNL     1       0.012   5.423  14.723  1.00  0.00     0.004 C 
ATOM      5  C   UNL     1      -1.257   4.542  14.765  1.00  0.00    -0.004 C 
ATOM      6  C   UNL     1      -1.973   4.404  13.398  1.00  0.00     0.007 C 
ATOM      7  C   UNL     1      -1.723   5.503  12.350  1.00  0.00    -0.013 C 
ATOM      8  C   UNL     1      -1.104   4.109  12.178  1.00  0.00     0.025 C 
ATOM      9  C   UNL     1      -1.813   3.537  10.999  1.00  0.00    -0.073 C 
ATOM     10  C   UNL     1      -2.700   4.373  10.477  1.00  0.00    -0.027 C 
ATOM     11  C   UNL     1      -2.765   5.656  11.229  1.00  0.00     0.035 C 
ATOM     12  C   UNL     1      -1.554   2.163  10.461  1.00  0.00     0.039 C 
ENDROOT
BRANCH   5  13
ATOM     13  C   UNL     1      -1.050   3.152  15.441  1.00  0.00    -0.014 C 
ATOM     14  C   UNL     1      -2.172   2.141  15.158  1.00  0.00     0.007 C 
ATOM     15  C   UNL     1       0.313   2.538  15.083  1.00  0.00     0.007 C 
ENDBRANCH   5  13
TORSDOF 1
ENDMDL
MODEL 7
REMARK VINA RESULT:    -4.925      1.786      2.980
REMARK INTER + INTRA:          -5.421
REMARK INTER:                  -5.188
REMARK INTRA:                  -0.233
REMARK UNBOUND:                -0.208
REMARK SMILES CC1=CC[C@]23[C@H]([C@@H](C(C)C)CC[C@H]2C)[C@@H]13
REMARK SMILES IDX 14 1 13 2 12 3 11 4 7 5 6 6 5 7 15 8 2 9 3 10 4 11 1 12 8 13
REMARK SMILES IDX 9 14 10 15
REMARK H PARENT
REMARK Flexibility Score: inf
ROOT
ATOM      1  C   UNL     1      -2.515   7.733  12.533  1.00  0.00     0.008 C 
ATOM      2  C   UNL     1      -3.216   6.550  11.846  1.00  0.00    -0.007 C 
ATOM      3  C   UNL     1      -3.384   5.350  12.797  1.00  0.00     0.004 C 
ATOM      4  C   UNL     1      -2.167   4.426  12.802  1.00  0.00     0.004 C 
ATOM      5  C   UNL     1      -1.976   3.783  11.409  1.00  0.00    -0.004 C 
ATOM      6  C   UNL     1      -1.922   4.806  10.247  1.00  0.00     0.007 C 
ATOM      7  C   UNL     1      -2.572   6.181  10.478  1.00  0.00    -0.013 C 
ATOM      8  C   UNL     1      -1.045   6.040  10.440  1.00  0.00     0.025 C 
ATOM      9  C   UNL     1      -0.643   6.753   9.195  1.00  0.00    -0.073 C 
ATOM     10  C   UNL     1      -1.674   7.278   8.548  1.00  0.00    -0.027 C 
ATOM     11  C   UNL     1      -2.965   6.993   9.232  1.00  0.00     0.035 C 
ATOM     12  C   UNL     1       0.774   6.862   8.721  1.00  0.00     0.039 C 
ENDROOT
BRANCH   5  13
ATOM     13  C   UNL     1      -0.795   2.767  11.328  1.00  0.00    -0.014 C 
ATOM     14  C   UNL     1       0.084   2.723  12.588  1.00  0.00     0.007 C 
ATOM     15  C   UNL     1      -1.281   1.352  10.977  1.00  0.00     0.007 C 
ENDBRANCH   5  13
TORSDOF 1
ENDMDL
MODEL 8
REMARK VINA RESULT:    -4.862      1.550      4.289
REMARK INTER + INTRA:          -5.355
REMARK INTER:                  -4.972
REMARK INTRA:                  -0.382
REMARK UNBOUND:                -0.208
REMARK SMILES CC1=CC[C@]23[C@H]([C@@H](C(C)C)CC[C@H]2C)[C@@H]13
REMARK SMILES IDX 14 1 13 2 12 3 11 4 7 5 6 6 5 7 15 8 2 9 3 10 4 11 1 12 8 13
REMARK SMILES IDX 9 14 10 15
REMARK H PARENT
REMARK Flexibility Score: inf
ROOT
ATOM      1  C   UNL     1       0.022   6.575   9.155  1.00  0.00     0.008 C 
ATOM      2  C   UNL     1      -0.932   7.047  10.265  1.00  0.00    -0.007 C 
ATOM      3  C   UNL     1      -0.233   7.993  11.260  1.00  0.00     0.004 C 
ATOM      4  C   UNL     1       0.469   7.246  12.393  1.00  0.00     0.004 C 
ATOM      5  C   UNL     1      -0.565   6.485  13.254  1.00  0.00    -0.004 C 
ATOM      6  C   UNL     1      -1.500   5.557  12.440  1.00  0.00     0.007 C 
ATOM      7  C   UNL     1      -1.690   5.871  10.945  1.00  0.00    -0.013 C 
ATOM      8  C   UNL     1      -0.855   4.661  11.385  1.00  0.00     0.025 C 
ATOM      9  C   UNL     1      -1.659   3.484  10.952  1.00  0.00    -0.073 C 
ATOM     10  C   UNL     1      -2.781   3.828  10.334  1.00  0.00    -0.027 C 
ATOM     11  C   UNL     1      -2.946   5.305  10.261  1.00  0.00     0.035 C 
ATOM     12  C   UNL     1      -1.248   2.064  11.191  1.00  0.00     0.039 C 
ENDROOT
BRANCH   5  13
ATOM     13  C   UNL     1       0.045   5.742  14.482  1.00  0.00    -0.014 C 
ATOM     14  C   UNL     1      -0.820   4.589  15.013  1.00  0.00     0.007 C 
ATOM     15  C   UNL     1       1.470   5.242  14.198  1.00  0.00     0.007 C 
ENDBRANCH   5  13
TORSDOF 1
ENDMDL
MODEL 9
REMARK VINA RESULT:    -4.861      1.442      3.102
REMARK INTER + INTRA:          -5.353
REMARK INTER:                  -5.094
REMARK INTRA:                  -0.259
REMARK UNBOUND:                -0.208
REMARK SMILES CC1=CC[C@]23[C@H]([C@@H](C(C)C)CC[C@H]2C)[C@@H]13
REMARK SMILES IDX 14 1 13 2 12 3 11 4 7 5 6 6 5 7 15 8 2 9 3 10 4 11 1 12 8 13
REMARK SMILES IDX 9 14 10 15
REMARK H PARENT
REMARK Flexibility Score: inf
ROOT
ATOM      1  C   UNL     1      -2.296   7.173  13.778  1.00  0.00     0.008 C 
ATOM      2  C   UNL     1      -1.983   6.245  12.593  1.00  0.00    -0.007 C 
ATOM      3  C   UNL     1      -2.947   5.044  12.532  1.00  0.00     0.004 C 
ATOM      4  C   UNL     1      -2.476   3.865  13.382  1.00  0.00     0.004 C 
ATOM      5  C   UNL     1      -1.142   3.309  12.833  1.00  0.00    -0.004 C 
ATOM      6  C   UNL     1      -0.036   4.380  12.666  1.00  0.00     0.007 C 
ATOM      7  C   UNL     1      -0.480   5.846  12.522  1.00  0.00    -0.013 C 
ATOM      8  C   UNL     1       0.175   5.356  13.820  1.00  0.00     0.025 C 
ATOM      9  C   UNL     1       1.493   6.052  13.850  1.00  0.00    -0.073 C 
ATOM     10  C   UNL     1       1.674   6.854  12.809  1.00  0.00    -0.027 C 
ATOM     11  C   UNL     1       0.515   6.823  11.874  1.00  0.00     0.035 C 
ATOM     12  C   UNL     1       2.506   5.865  14.936  1.00  0.00     0.039 C 
ENDROOT
BRANCH   5  13
ATOM     13  C   UNL     1      -0.609   2.055  13.593  1.00  0.00    -0.014 C 
ATOM     14  C   UNL     1      -1.041   1.982  15.066  1.00  0.00     0.007 C 
ATOM     15  C   UNL     1      -0.978   0.749  12.872  1.00  0.00     0.007 C 
ENDBRANCH   5  13
TORSDOF 1
ENDMDL
