MODEL 1
REMARK VINA RESULT:    -2.424      0.000      0.000
REMARK INTER + INTRA:          -2.713
REMARK INTER:                  -2.708
REMARK INTRA:                  -0.005
REMARK UNBOUND:                -0.005
REMARK SMILES CCCC(=O)[O-]
REMARK SMILES IDX 3 1 4 2 5 3 6 4 2 5 1 6
REMARK H PARENT
REMARK Flexibility Score: inf
ROOT
ATOM      1  C   UNL     1      17.457  20.751  50.128  1.00  0.00     0.052 C 
ENDROOT
BRANCH   1   2
ATOM      2  C   UNL     1      18.650  20.244  49.382  1.00  0.00     0.041 C 
ATOM      3  O   UNL     1      18.543  19.894  48.178  1.00  0.00    -0.550 OA
ATOM      4  O   UNL     1      19.892  20.203  50.004  1.00  0.00    -0.550 OA
ENDBRANCH   1   2
BRANCH   1   5
ATOM      5  C   UNL     1      17.177  19.875  51.351  1.00  0.00     0.003 C 
ATOM      6  C   UNL     1      15.821  20.207  51.968  1.00  0.00     0.004 C 
ENDBRANCH   1   5
TORSDOF 2
ENDMDL
MODEL 2
REMARK VINA RESULT:    -2.358     18.762     19.284
REMARK INTER + INTRA:          -2.639
REMARK INTER:                  -2.634
REMARK INTRA:                  -0.005
REMARK UNBOUND:                -0.005
REMARK SMILES CCCC(=O)[O-]
REMARK SMILES IDX 3 1 4 2 5 3 6 4 2 5 1 6
REMARK H PARENT
REMARK Flexibility Score: inf
ROOT
ATOM      1  C   UNL     1      15.589  38.683  47.350  1.00  0.00     0.052 C 
ENDROOT
BRANCH   1   2
ATOM      2  C   UNL     1      14.167  38.792  46.896  1.00  0.00     0.041 C 
ATOM      3  O   UNL     1      13.373  37.830  47.062  1.00  0.00    -0.550 OA
ATOM      4  O   UNL     1      13.707  39.976  46.335  1.00  0.00    -0.550 OA
ENDBRANCH   1   2
BRANCH   1   5
ATOM      5  C   UNL     1      16.537  38.688  46.148  1.00  0.00     0.003 C 
ATOM      6  C   UNL     1      17.897  38.105  46.518  1.00  0.00     0.004 C 
ENDBRANCH   1   5
TORSDOF 2
ENDMDL
MODEL 3
REMARK VINA RESULT:    -2.087      2.159      3.038
REMARK INTER + INTRA:          -2.336
REMARK INTER:                  -2.324
REMARK INTRA:                  -0.012
REMARK UNBOUND:                -0.005
REMARK SMILES CCCC(=O)[O-]
REMARK SMILES IDX 3 1 4 2 5 3 6 4 2 5 1 6
REMARK H PARENT
REMARK Flexibility Score: inf
ROOT
ATOM      1  C   UNL     1      19.755  20.550  50.044  1.00  0.00     0.052 C 
ENDROOT
BRANCH   1   2
ATOM      2  C   UNL     1      18.436  20.068  49.528  1.00  0.00     0.041 C 
ATOM      3  O   UNL     1      17.477  19.876  50.321  1.00  0.00    -0.550 OA
ATOM      4  O   UNL     1      18.250  19.879  48.165  1.00  0.00    -0.550 OA
ENDBRANCH   1   2
BRANCH   1   5
ATOM      5  C   UNL     1      20.088  19.875  51.376  1.00  0.00     0.003 C 
ATOM      6  C   UNL     1      21.244  20.583  52.078  1.00  0.00     0.004 C 
ENDBRANCH   1   5
TORSDOF 2
ENDMDL
MODEL 4
REMARK VINA RESULT:    -1.697      2.320      3.230
REMARK INTER + INTRA:          -1.901
REMARK INTER:                  -1.946
REMARK INTRA:                   0.044
REMARK UNBOUND:                -0.005
REMARK SMILES CCCC(=O)[O-]
REMARK SMILES IDX 3 1 4 2 5 3 6 4 2 5 1 6
REMARK H PARENT
REMARK Flexibility Score: inf
ROOT
ATOM      1  C   UNL     1      17.375  20.842  50.106  1.00  0.00     0.052 C 
ENDROOT
BRANCH   1   2
ATOM      2  C   UNL     1      16.801  20.225  51.342  1.00  0.00     0.041 C 
ATOM      3  O   UNL     1      15.569  19.974  51.411  1.00  0.00    -0.550 OA
ATOM      4  O   UNL     1      17.635  19.879  52.398  1.00  0.00    -0.550 OA
ENDBRANCH   1   2
BRANCH   1   5
ATOM      5  C   UNL     1      18.346  19.875  49.425  1.00  0.00     0.003 C 
ATOM      6  C   UNL     1      19.779  20.113  49.892  1.00  0.00     0.004 C 
ENDBRANCH   1   5
TORSDOF 2
ENDMDL
MODEL 5
REMARK VINA RESULT:    -1.480     18.336     18.707
REMARK INTER + INTRA:          -1.659
REMARK INTER:                  -1.652
REMARK INTRA:                  -0.006
REMARK UNBOUND:                -0.005
REMARK SMILES CCCC(=O)[O-]
REMARK SMILES IDX 3 1 4 2 5 3 6 4 2 5 1 6
REMARK H PARENT
REMARK Flexibility Score: inf
ROOT
ATOM      1  C   UNL     1      17.017  38.516  46.002  1.00  0.00     0.052 C 
ENDROOT
BRANCH   1   2
ATOM      2  C   UNL     1      18.401  38.233  46.492  1.00  0.00     0.041 C 
ATOM      3  O   UNL     1      18.880  37.072  46.401  1.00  0.00    -0.550 OA
ATOM      4  O   UNL     1      19.181  39.261  47.005  1.00  0.00    -0.550 OA
ENDBRANCH   1   2
BRANCH   1   5
ATOM      5  C   UNL     1      16.041  38.612  47.177  1.00  0.00     0.003 C 
ATOM      6  C   UNL     1      14.762  39.340  46.774  1.00  0.00     0.004 C 
ENDBRANCH   1   5
TORSDOF 2
ENDMDL
MODEL 6
REMARK VINA RESULT:    -1.380     18.320     18.700
REMARK INTER + INTRA:          -1.547
REMARK INTER:                  -1.541
REMARK INTRA:                  -0.006
REMARK UNBOUND:                -0.005
REMARK SMILES CCCC(=O)[O-]
REMARK SMILES IDX 3 1 4 2 5 3 6 4 2 5 1 6
REMARK H PARENT
REMARK Flexibility Score: inf
ROOT
ATOM      1  C   UNL     1      16.484  38.647  46.049  1.00  0.00     0.052 C 
ENDROOT
BRANCH   1   2
ATOM      2  C   UNL     1      17.890  38.320  46.442  1.00  0.00     0.041 C 
ATOM      3  O   UNL     1      18.637  39.212  46.924  1.00  0.00    -0.550 OA
ATOM      4  O   UNL     1      18.360  37.019  46.323  1.00  0.00    -0.550 OA
ENDBRANCH   1   2
BRANCH   1   5
ATOM      5  C   UNL     1      15.647  38.987  47.284  1.00  0.00     0.003 C 
ATOM      6  C   UNL     1      14.177  38.644  47.064  1.00  0.00     0.004 C 
ENDBRANCH   1   5
TORSDOF 2
ENDMDL
MODEL 7
REMARK VINA RESULT:    -0.834     18.407     18.773
REMARK INTER + INTRA:          -0.937
REMARK INTER:                  -0.929
REMARK INTRA:                  -0.008
REMARK UNBOUND:                -0.005
REMARK SMILES CCCC(=O)[O-]
REMARK SMILES IDX 3 1 4 2 5 3 6 4 2 5 1 6
REMARK H PARENT
REMARK Flexibility Score: inf
ROOT
ATOM      1  C   UNL     1      14.561  38.293  47.819  1.00  0.00     0.052 C 
ENDROOT
BRANCH   1   2
ATOM      2  C   UNL     1      15.232  39.077  46.737  1.00  0.00     0.041 C 
ATOM      3  O   UNL     1      14.697  40.125  46.288  1.00  0.00    -0.550 OA
ATOM      4  O   UNL     1      16.474  38.679  46.257  1.00  0.00    -0.550 OA
ENDBRANCH   1   2
BRANCH   1   5
ATOM      5  C   UNL     1      13.301  37.610  47.284  1.00  0.00     0.003 C 
ATOM      6  C   UNL     1      13.218  36.160  47.754  1.00  0.00     0.004 C 
ENDBRANCH   1   5
TORSDOF 2
ENDMDL
