MODEL 1
REMARK VINA RESULT:    -3.840      0.000      0.000
REMARK INTER + INTRA:          -5.078
REMARK INTER:                  -4.962
REMARK INTRA:                  -0.115
REMARK UNBOUND:                -0.115
REMARK SMILES CCCCCCC(=O)[O-]
REMARK SMILES IDX 5 1 6 2 7 3 8 4 9 5 4 6 3 7 2 8 1 9
REMARK H PARENT
REMARK Flexibility Score: inf
ROOT
ATOM      1  C   UNL     1       4.098  -5.608  -6.375  1.00  0.00     0.006 C 
ENDROOT
BRANCH   1   2
ATOM      2  C   UNL     1       3.758  -6.328  -5.065  1.00  0.00     0.053 C 
BRANCH   2   3
ATOM      3  C   UNL     1       4.992  -6.911  -4.454  1.00  0.00     0.041 C 
ATOM      4  O   UNL     1       6.088  -6.295  -4.527  1.00  0.00    -0.550 OA
ATOM      5  O   UNL     1       4.924  -8.111  -3.757  1.00  0.00    -0.550 OA
ENDBRANCH   2   3
ENDBRANCH   1   2
BRANCH   1   6
ATOM      6  C   UNL     1       2.902  -4.834  -6.954  1.00  0.00     0.000 C 
BRANCH   6   7
ATOM      7  C   UNL     1       3.292  -3.437  -7.461  1.00  0.00    -0.000 C 
BRANCH   7   8
ATOM      8  C   UNL     1       2.046  -2.616  -7.812  1.00  0.00    -0.003 C 
ATOM      9  C   UNL     1       0.992  -3.478  -8.500  1.00  0.00     0.004 C 
ENDBRANCH   7   8
ENDBRANCH   6   7
ENDBRANCH   1   6
TORSDOF 5
ENDMDL
MODEL 2
REMARK VINA RESULT:    -3.836      0.805      1.594
REMARK INTER + INTRA:          -5.073
REMARK INTER:                  -4.921
REMARK INTRA:                  -0.152
REMARK UNBOUND:                -0.115
REMARK SMILES CCCCCCC(=O)[O-]
REMARK SMILES IDX 5 1 6 2 7 3 8 4 9 5 4 6 3 7 2 8 1 9
REMARK H PARENT
REMARK Flexibility Score: inf
ROOT
ATOM      1  C   UNL     1       3.392  -6.370  -6.238  1.00  0.00     0.006 C 
ENDROOT
BRANCH   1   2
ATOM      2  C   UNL     1       3.545  -6.501  -4.718  1.00  0.00     0.053 C 
BRANCH   2   3
ATOM      3  C   UNL     1       4.880  -7.083  -4.376  1.00  0.00     0.041 C 
ATOM      4  O   UNL     1       4.962  -8.245  -3.897  1.00  0.00    -0.550 OA
ATOM      5  O   UNL     1       6.040  -6.363  -4.635  1.00  0.00    -0.550 OA
ENDBRANCH   2   3
ENDBRANCH   1   2
BRANCH   1   6
ATOM      6  C   UNL     1       3.494  -4.914  -6.721  1.00  0.00     0.000 C 
BRANCH   6   7
ATOM      7  C   UNL     1       2.162  -4.378  -7.267  1.00  0.00    -0.000 C 
BRANCH   7   8
ATOM      8  C   UNL     1       2.297  -2.911  -7.694  1.00  0.00    -0.003 C 
ATOM      9  C   UNL     1       3.705  -2.610  -8.197  1.00  0.00     0.004 C 
ENDBRANCH   7   8
ENDBRANCH   6   7
ENDBRANCH   1   6
TORSDOF 5
ENDMDL
MODEL 3
REMARK VINA RESULT:    -3.564      3.024      5.216
REMARK INTER + INTRA:          -4.722
REMARK INTER:                  -4.493
REMARK INTRA:                  -0.229
REMARK UNBOUND:                -0.115
REMARK SMILES CCCCCCC(=O)[O-]
REMARK SMILES IDX 5 1 6 2 7 3 8 4 9 5 4 6 3 7 2 8 1 9
REMARK H PARENT
REMARK Flexibility Score: inf
ROOT
ATOM      1  C   UNL     1       3.050  -5.994  -6.414  1.00  0.00     0.006 C 
ENDROOT
BRANCH   1   2
ATOM      2  C   UNL     1       3.897  -4.944  -7.143  1.00  0.00     0.053 C 
BRANCH   2   3
ATOM      3  C   UNL     1       3.089  -3.712  -7.405  1.00  0.00     0.041 C 
ATOM      4  O   UNL     1       1.846  -3.714  -7.204  1.00  0.00    -0.550 OA
ATOM      5  O   UNL     1       3.716  -2.545  -7.823  1.00  0.00    -0.550 OA
ENDBRANCH   2   3
ENDBRANCH   1   2
BRANCH   1   6
ATOM      6  C   UNL     1       3.630  -6.374  -5.042  1.00  0.00     0.000 C 
BRANCH   6   7
ATOM      7  C   UNL     1       5.164  -6.312  -5.011  1.00  0.00    -0.000 C 
BRANCH   7   8
ATOM      8  C   UNL     1       5.748  -7.548  -4.316  1.00  0.00    -0.003 C 
ATOM      9  C   UNL     1       4.670  -8.597  -4.058  1.00  0.00     0.004 C 
ENDBRANCH   7   8
ENDBRANCH   6   7
ENDBRANCH   1   6
TORSDOF 5
ENDMDL
MODEL 4
REMARK VINA RESULT:    -3.538      3.649      5.350
REMARK INTER + INTRA:          -4.688
REMARK INTER:                  -4.437
REMARK INTRA:                  -0.251
REMARK UNBOUND:                -0.115
REMARK SMILES CCCCCCC(=O)[O-]
REMARK SMILES IDX 5 1 6 2 7 3 8 4 9 5 4 6 3 7 2 8 1 9
REMARK H PARENT
REMARK Flexibility Score: inf
ROOT
ATOM      1  C   UNL     1       3.384  -3.977  -7.206  1.00  0.00     0.006 C 
ENDROOT
BRANCH   1   2
ATOM      2  C   UNL     1       1.852  -4.025  -7.177  1.00  0.00     0.053 C 
BRANCH   2   3
ATOM      3  C   UNL     1       1.289  -3.519  -8.468  1.00  0.00     0.041 C 
ATOM      4  O   UNL     1       0.974  -2.306  -8.590  1.00  0.00    -0.550 OA
ATOM      5  O   UNL     1       1.160  -4.376  -9.553  1.00  0.00    -0.550 OA
ENDBRANCH   2   3
ENDBRANCH   1   2
BRANCH   1   6
ATOM      6  C   UNL     1       4.021  -5.377  -7.191  1.00  0.00     0.000 C 
BRANCH   6   7
ATOM      7  C   UNL     1       3.275  -6.355  -6.270  1.00  0.00    -0.000 C 
BRANCH   7   8
ATOM      8  C   UNL     1       3.934  -6.414  -4.887  1.00  0.00    -0.003 C 
ATOM      9  C   UNL     1       5.456  -6.381  -4.999  1.00  0.00     0.004 C 
ENDBRANCH   7   8
ENDBRANCH   6   7
ENDBRANCH   1   6
TORSDOF 5
ENDMDL
MODEL 5
REMARK VINA RESULT:    -3.444     11.859     13.330
REMARK INTER + INTRA:          -4.567
REMARK INTER:                  -4.370
REMARK INTRA:                  -0.197
REMARK UNBOUND:                -0.115
REMARK SMILES CCCCCCC(=O)[O-]
REMARK SMILES IDX 5 1 6 2 7 3 8 4 9 5 4 6 3 7 2 8 1 9
REMARK H PARENT
REMARK Flexibility Score: inf
ROOT
ATOM      1  C   UNL     1       7.325   7.257  -7.684  1.00  0.00     0.006 C 
ENDROOT
BRANCH   1   2
ATOM      2  C   UNL     1       5.969   7.474  -8.367  1.00  0.00     0.053 C 
BRANCH   2   3
ATOM      3  C   UNL     1       5.268   6.167  -8.563  1.00  0.00     0.041 C 
ATOM      4  O   UNL     1       5.656   5.140  -7.945  1.00  0.00    -0.550 OA
ATOM      5  O   UNL     1       4.153   6.093  -9.387  1.00  0.00    -0.550 OA
ENDBRANCH   2   3
ENDBRANCH   1   2
BRANCH   1   6
ATOM      6  C   UNL     1       7.539   8.192  -6.482  1.00  0.00     0.000 C 
BRANCH   6   7
ATOM      7  C   UNL     1       6.300   8.287  -5.580  1.00  0.00    -0.000 C 
BRANCH   7   8
ATOM      8  C   UNL     1       6.666   8.011  -4.117  1.00  0.00    -0.003 C 
ATOM      9  C   UNL     1       5.566   7.221  -3.413  1.00  0.00     0.004 C 
ENDBRANCH   7   8
ENDBRANCH   6   7
ENDBRANCH   1   6
TORSDOF 5
ENDMDL
MODEL 6
REMARK VINA RESULT:    -3.399     12.218     13.505
REMARK INTER + INTRA:          -4.508
REMARK INTER:                  -4.288
REMARK INTRA:                  -0.220
REMARK UNBOUND:                -0.115
REMARK SMILES CCCCCCC(=O)[O-]
REMARK SMILES IDX 5 1 6 2 7 3 8 4 9 5 4 6 3 7 2 8 1 9
REMARK H PARENT
REMARK Flexibility Score: inf
ROOT
ATOM      1  C   UNL     1       7.420   7.986  -6.292  1.00  0.00     0.006 C 
ENDROOT
BRANCH   1   2
ATOM      2  C   UNL     1       6.063   7.577  -5.705  1.00  0.00     0.053 C 
BRANCH   2   3
ATOM      3  C   UNL     1       6.008   7.898  -4.245  1.00  0.00     0.041 C 
ATOM      4  O   UNL     1       5.287   7.214  -3.471  1.00  0.00    -0.550 OA
ATOM      5  O   UNL     1       6.792   8.921  -3.728  1.00  0.00    -0.550 OA
ENDBRANCH   2   3
ENDBRANCH   1   2
BRANCH   1   6
ATOM      6  C   UNL     1       7.363   8.217  -7.811  1.00  0.00     0.000 C 
BRANCH   6   7
ATOM      7  C   UNL     1       5.957   7.999  -8.389  1.00  0.00    -0.000 C 
BRANCH   7   8
ATOM      8  C   UNL     1       6.003   7.060  -9.600  1.00  0.00    -0.003 C 
ATOM      9  C   UNL     1       4.922   5.987  -9.507  1.00  0.00     0.004 C 
ENDBRANCH   7   8
ENDBRANCH   6   7
ENDBRANCH   1   6
TORSDOF 5
ENDMDL
MODEL 7
REMARK VINA RESULT:    -3.345      2.257      2.558
REMARK INTER + INTRA:          -4.439
REMARK INTER:                  -4.239
REMARK INTRA:                  -0.200
REMARK UNBOUND:                -0.115
REMARK SMILES CCCCCCC(=O)[O-]
REMARK SMILES IDX 5 1 6 2 7 3 8 4 9 5 4 6 3 7 2 8 1 9
REMARK H PARENT
REMARK Flexibility Score: inf
ROOT
ATOM      1  C   UNL     1       3.973  -5.145  -6.629  1.00  0.00     0.006 C 
ENDROOT
BRANCH   1   2
ATOM      2  C   UNL     1       2.995  -6.303  -6.393  1.00  0.00     0.053 C 
BRANCH   2   3
ATOM      3  C   UNL     1       3.415  -7.508  -7.175  1.00  0.00     0.041 C 
ATOM      4  O   UNL     1       4.298  -8.283  -6.721  1.00  0.00    -0.550 OA
ATOM      5  O   UNL     1       2.795  -7.804  -8.382  1.00  0.00    -0.550 OA
ENDBRANCH   2   3
ENDBRANCH   1   2
BRANCH   1   6
ATOM      6  C   UNL     1       3.286  -3.900  -7.212  1.00  0.00     0.000 C 
BRANCH   6   7
ATOM      7  C   UNL     1       1.772  -4.088  -7.389  1.00  0.00    -0.000 C 
BRANCH   7   8
ATOM      8  C   UNL     1       1.351  -3.812  -8.836  1.00  0.00    -0.003 C 
ATOM      9  C   UNL     1       0.365  -2.650  -8.912  1.00  0.00     0.004 C 
ENDBRANCH   7   8
ENDBRANCH   6   7
ENDBRANCH   1   6
TORSDOF 5
ENDMDL
MODEL 8
REMARK VINA RESULT:    -3.293     11.645     13.418
REMARK INTER + INTRA:          -4.371
REMARK INTER:                  -4.221
REMARK INTRA:                  -0.150
REMARK UNBOUND:                -0.115
REMARK SMILES CCCCCCC(=O)[O-]
REMARK SMILES IDX 5 1 6 2 7 3 8 4 9 5 4 6 3 7 2 8 1 9
REMARK H PARENT
REMARK Flexibility Score: inf
ROOT
ATOM      1  C   UNL     1      -2.248   6.339  -8.293  1.00  0.00     0.006 C 
ENDROOT
BRANCH   1   2
ATOM      2  C   UNL     1      -0.784   6.498  -8.724  1.00  0.00     0.053 C 
BRANCH   2   3
ATOM      3  C   UNL     1      -0.229   5.185  -9.178  1.00  0.00     0.041 C 
ATOM      4  O   UNL     1      -0.774   4.558 -10.125  1.00  0.00    -0.550 OA
ATOM      5  O   UNL     1       0.922   4.676  -8.590  1.00  0.00    -0.550 OA
ENDBRANCH   2   3
ENDBRANCH   1   2
BRANCH   1   6
ATOM      6  C   UNL     1      -2.565   7.088  -6.989  1.00  0.00     0.000 C 
BRANCH   6   7
ATOM      7  C   UNL     1      -3.795   8.000  -7.115  1.00  0.00    -0.000 C 
BRANCH   7   8
ATOM      8  C   UNL     1      -5.082   7.173  -7.212  1.00  0.00    -0.003 C 
ATOM      9  C   UNL     1      -5.246   6.262  -5.999  1.00  0.00     0.004 C 
ENDBRANCH   7   8
ENDBRANCH   6   7
ENDBRANCH   1   6
TORSDOF 5
ENDMDL
MODEL 9
REMARK VINA RESULT:    -3.251     13.667     15.181
REMARK INTER + INTRA:          -4.317
REMARK INTER:                  -3.934
REMARK INTRA:                  -0.383
REMARK UNBOUND:                -0.115
REMARK SMILES CCCCCCC(=O)[O-]
REMARK SMILES IDX 5 1 6 2 7 3 8 4 9 5 4 6 3 7 2 8 1 9
REMARK H PARENT
REMARK Flexibility Score: inf
ROOT
ATOM      1  C   UNL     1      -3.574   8.983  -7.096  1.00  0.00     0.006 C 
ENDROOT
BRANCH   1   2
ATOM      2  C   UNL     1      -3.160   7.784  -7.958  1.00  0.00     0.053 C 
BRANCH   2   3
ATOM      3  C   UNL     1      -2.153   6.945  -7.236  1.00  0.00     0.041 C 
ATOM      4  O   UNL     1      -2.256   6.757  -5.996  1.00  0.00    -0.550 OA
ATOM      5  O   UNL     1      -1.128   6.327  -7.942  1.00  0.00    -0.550 OA
ENDBRANCH   2   3
ENDBRANCH   1   2
BRANCH   1   6
ATOM      6  C   UNL     1      -5.093   9.219  -7.101  1.00  0.00     0.000 C 
BRANCH   6   7
ATOM      7  C   UNL     1      -5.893   7.916  -7.249  1.00  0.00    -0.000 C 
BRANCH   7   8
ATOM      8  C   UNL     1      -6.310   7.372  -5.878  1.00  0.00    -0.003 C 
ATOM      9  C   UNL     1      -5.638   6.033  -5.588  1.00  0.00     0.004 C 
ENDBRANCH   7   8
ENDBRANCH   6   7
ENDBRANCH   1   6
TORSDOF 5
ENDMDL
