MODEL 1
REMARK VINA RESULT:    -4.213      0.000      0.000
REMARK INTER + INTRA:          -6.457
REMARK INTER:                  -6.430
REMARK INTRA:                  -0.027
REMARK UNBOUND:                -0.027
REMARK SMILES CC1=CCC[C@@H](C)C(=O)C[C@H](C(C)C)C(=O)C1
REMARK SMILES IDX 8 1 9 2 6 3 7 4 5 5 4 6 3 7 2 8 1 9 10 11 11 12 15 13 16 14
REMARK SMILES IDX 17 15 12 17 13 18 14 19
REMARK H PARENT
REMARK Flexibility Score: 70.00
ROOT
ATOM      1  C   UNL     1     -17.058  12.873 -31.086  1.00  0.00     0.136 C 
ATOM      2  O   UNL     1     -17.741  13.638 -31.748  1.00  0.00    -0.299 OA
ENDROOT
BRANCH   1   3
ATOM      3  C   UNL     1     -17.658  12.254 -29.835  1.00  0.00     0.053 C 
ATOM      4  C   UNL     1     -19.025  11.623 -30.138  1.00  0.00     0.016 C 
BRANCH   3   5
ATOM      5  C   UNL     1     -17.759  13.285 -28.693  1.00  0.00     0.015 C 
BRANCH   5   6
ATOM      6  C   UNL     1     -16.512  13.263 -27.788  1.00  0.00     0.028 C 
BRANCH   6   7
ATOM      7  C   UNL     1     -16.152  11.859 -27.375  1.00  0.00    -0.028 C 
ATOM      8  C   UNL     1     -14.937  11.291 -27.558  1.00  0.00    -0.070 CG0
ATOM      9  C   UNL     1     -14.732   9.881 -27.066  1.00  0.00     0.039 C 
ATOM     10  G   UNL     1     -13.773  12.004 -28.225  1.00  0.00     0.000 G0
ENDBRANCH   6   7
ENDBRANCH   5   6
ENDBRANCH   3   5
ENDBRANCH   1   3
BRANCH   1  11
ATOM     11  C   UNL     1     -15.617  12.622 -31.485  1.00  0.00     0.087 C 
BRANCH  11  12
ATOM     12  C   UNL     1     -14.548  13.157 -30.497  1.00  0.00     0.066 C 
BRANCH  12  13
ATOM     13  C   UNL     1     -13.889  12.008 -29.744  1.00  0.00     0.140 C 
ATOM     14  O   UNL     1     -13.482  11.049 -30.386  1.00  0.00    -0.299 OA
BRANCH  13  15
ATOM     15  C   UNL     1     -13.763  11.991 -28.236  1.00  0.00     0.106 CG0
ATOM     16  G   UNL     1     -14.934  11.295 -27.561  1.00  0.00     0.000 G0
ENDBRANCH  13  15
ENDBRANCH  12  13
BRANCH  12  17
ATOM     17  C   UNL     1     -13.524  14.179 -31.095  1.00  0.00    -0.006 C 
ATOM     18  C   UNL     1     -14.171  15.567 -31.261  1.00  0.00     0.008 C 
ATOM     19  C   UNL     1     -12.979  13.730 -32.463  1.00  0.00     0.008 C 
ENDBRANCH  12  17
ENDBRANCH  11  12
ENDBRANCH   1  11
TORSDOF 1
ENDMDL
MODEL 2
REMARK VINA RESULT:    -3.986      1.535      3.988
REMARK INTER + INTRA:          -6.110
REMARK INTER:                  -6.576
REMARK INTRA:                   0.466
REMARK UNBOUND:                -0.027
REMARK SMILES CC1=CCC[C@@H](C)C(=O)C[C@H](C(C)C)C(=O)C1
REMARK SMILES IDX 8 1 9 2 6 3 7 4 5 5 4 6 3 7 2 8 1 9 10 11 11 12 15 13 16 14
REMARK SMILES IDX 17 15 12 17 13 18 14 19
REMARK H PARENT
REMARK Flexibility Score: 70.00
ROOT
ATOM      1  C   UNL     1     -15.951  13.995 -31.016  1.00  0.00     0.136 C 
ATOM      2  O   UNL     1     -16.210  14.144 -32.200  1.00  0.00    -0.299 OA
ENDROOT
BRANCH   1   3
ATOM      3  C   UNL     1     -14.521  14.201 -30.549  1.00  0.00     0.053 C 
ATOM      4  C   UNL     1     -14.025  15.609 -30.909  1.00  0.00     0.016 C 
BRANCH   3   5
ATOM      5  C   UNL     1     -13.584  13.116 -31.117  1.00  0.00     0.015 C 
BRANCH   5   6
ATOM      6  C   UNL     1     -13.837  11.741 -30.469  1.00  0.00     0.028 C 
BRANCH   6   7
ATOM      7  C   UNL     1     -13.254  11.666 -29.082  1.00  0.00    -0.028 C 
ATOM      8  C   UNL     1     -13.914  11.211 -27.992  1.00  0.00    -0.070 CG0
ATOM      9  C   UNL     1     -13.178  11.179 -26.678  1.00  0.00     0.039 C 
ATOM     10  G   UNL     1     -15.354  10.725 -28.030  1.00  0.00     0.000 G0
ENDBRANCH   6   7
ENDBRANCH   5   6
ENDBRANCH   3   5
ENDBRANCH   1   3
BRANCH   1  11
ATOM     11  C   UNL     1     -17.041  13.537 -30.066  1.00  0.00     0.087 C 
BRANCH  11  12
ATOM     12  C   UNL     1     -16.995  12.037 -29.671  1.00  0.00     0.066 C 
BRANCH  12  13
ATOM     13  C   UNL     1     -16.341  11.861 -28.306  1.00  0.00     0.140 C 
ATOM     14  O   UNL     1     -16.582  12.685 -27.435  1.00  0.00    -0.299 OA
BRANCH  13  15
ATOM     15  C   UNL     1     -15.374  10.735 -28.008  1.00  0.00     0.106 CG0
ATOM     16  G   UNL     1     -13.926  11.198 -27.997  1.00  0.00     0.000 G0
ENDBRANCH  13  15
ENDBRANCH  12  13
BRANCH  12  17
ATOM     17  C   UNL     1     -18.343  11.256 -29.823  1.00  0.00    -0.006 C 
ATOM     18  C   UNL     1     -19.544  12.216 -29.738  1.00  0.00     0.008 C 
ATOM     19  C   UNL     1     -18.513  10.168 -28.746  1.00  0.00     0.008 C 
ENDBRANCH  12  17
ENDBRANCH  11  12
ENDBRANCH   1  11
TORSDOF 1
ENDMDL
MODEL 3
REMARK VINA RESULT:    -3.934      1.838      3.975
REMARK INTER + INTRA:          -6.031
REMARK INTER:                  -5.932
REMARK INTRA:                  -0.099
REMARK UNBOUND:                -0.027
REMARK SMILES CC1=CCC[C@@H](C)C(=O)C[C@H](C(C)C)C(=O)C1
REMARK SMILES IDX 8 1 9 2 6 3 7 4 5 5 4 6 3 7 2 8 1 9 10 11 11 12 15 13 16 14
REMARK SMILES IDX 17 15 12 17 13 18 14 19
REMARK H PARENT
REMARK Flexibility Score: 70.00
ROOT
ATOM      1  C   UNL     1     -13.645  12.118 -30.724  1.00  0.00     0.136 C 
ATOM      2  O   UNL     1     -12.514  12.150 -31.182  1.00  0.00    -0.299 OA
ENDROOT
BRANCH   1   3
ATOM      3  C   UNL     1     -14.652  13.156 -31.188  1.00  0.00     0.053 C 
ATOM      4  C   UNL     1     -14.367  13.585 -32.636  1.00  0.00     0.016 C 
BRANCH   3   5
ATOM      5  C   UNL     1     -14.681  14.372 -30.241  1.00  0.00     0.015 C 
BRANCH   5   6
ATOM      6  C   UNL     1     -16.100  14.654 -29.712  1.00  0.00     0.028 C 
BRANCH   6   7
ATOM      7  C   UNL     1     -17.024  13.489 -29.957  1.00  0.00    -0.028 C 
ATOM      8  C   UNL     1     -17.259  12.493 -29.072  1.00  0.00    -0.070 CG0
ATOM      9  C   UNL     1     -18.232  11.411 -29.463  1.00  0.00     0.039 C 
ATOM     10  G   UNL     1     -16.597  12.415 -27.706  1.00  0.00     0.000 G0
ENDBRANCH   6   7
ENDBRANCH   5   6
ENDBRANCH   3   5
ENDBRANCH   1   3
BRANCH   1  11
ATOM     11  C   UNL     1     -13.990  11.098 -29.656  1.00  0.00     0.087 C 
BRANCH  11  12
ATOM     12  C   UNL     1     -14.090  11.653 -28.211  1.00  0.00     0.066 C 
BRANCH  12  13
ATOM     13  C   UNL     1     -15.477  11.397 -27.633  1.00  0.00     0.140 C 
ATOM     14  O   UNL     1     -15.703  10.307 -27.125  1.00  0.00    -0.299 OA
BRANCH  13  15
ATOM     15  C   UNL     1     -16.589  12.420 -27.707  1.00  0.00     0.106 CG0
ATOM     16  G   UNL     1     -17.252  12.463 -29.074  1.00  0.00     0.000 G0
ENDBRANCH  13  15
ENDBRANCH  12  13
BRANCH  12  17
ATOM     17  C   UNL     1     -12.927  11.245 -27.246  1.00  0.00    -0.006 C 
ATOM     18  C   UNL     1     -12.444  12.458 -26.429  1.00  0.00     0.008 C 
ATOM     19  C   UNL     1     -11.721  10.654 -27.999  1.00  0.00     0.008 C 
ENDBRANCH  12  17
ENDBRANCH  11  12
ENDBRANCH   1  11
TORSDOF 1
ENDMDL
MODEL 4
REMARK VINA RESULT:    -3.714      1.231      1.637
REMARK INTER + INTRA:          -5.694
REMARK INTER:                  -6.676
REMARK INTRA:                   0.982
REMARK UNBOUND:                -0.027
REMARK SMILES CC1=CCC[C@@H](C)C(=O)C[C@H](C(C)C)C(=O)C1
REMARK SMILES IDX 8 1 9 2 6 3 7 4 5 5 4 6 3 7 2 8 1 9 10 11 11 12 15 13 16 14
REMARK SMILES IDX 17 15 12 17 13 18 14 19
REMARK H PARENT
REMARK Flexibility Score: 70.00
ROOT
ATOM      1  C   UNL     1     -16.975  13.124 -31.283  1.00  0.00     0.136 C 
ATOM      2  O   UNL     1     -17.171  13.713 -32.334  1.00  0.00    -0.299 OA
ENDROOT
BRANCH   1   3
ATOM      3  C   UNL     1     -18.119  12.999 -30.291  1.00  0.00     0.053 C 
ATOM      4  C   UNL     1     -17.750  13.643 -28.946  1.00  0.00     0.016 C 
BRANCH   3   5
ATOM      5  C   UNL     1     -18.544  11.529 -30.108  1.00  0.00     0.015 C 
BRANCH   5   6
ATOM      6  C   UNL     1     -17.338  10.612 -29.830  1.00  0.00     0.028 C 
BRANCH   6   7
ATOM      7  C   UNL     1     -17.003  10.568 -28.361  1.00  0.00    -0.028 C 
ATOM      8  C   UNL     1     -15.778  10.817 -27.843  1.00  0.00    -0.070 CG0
ATOM      9  C   UNL     1     -15.615  10.755 -26.346  1.00  0.00     0.039 C 
ATOM     10  G   UNL     1     -14.566  11.163 -28.693  1.00  0.00     0.000 G0
ENDBRANCH   6   7
ENDBRANCH   5   6
ENDBRANCH   3   5
ENDBRANCH   1   3
BRANCH   1  11
ATOM     11  C   UNL     1     -15.586  12.605 -30.965  1.00  0.00     0.087 C 
BRANCH  11  12
ATOM     12  C   UNL     1     -14.758  13.474 -29.983  1.00  0.00     0.066 C 
BRANCH  12  13
ATOM     13  C   UNL     1     -14.281  12.640 -28.799  1.00  0.00     0.140 C 
ATOM     14  O   UNL     1     -13.623  13.190 -27.928  1.00  0.00    -0.299 OA
BRANCH  13  15
ATOM     15  C   UNL     1     -14.554  11.155 -28.690  1.00  0.00     0.106 CG0
ATOM     16  G   UNL     1     -15.780  10.849 -27.846  1.00  0.00     0.000 G0
ENDBRANCH  13  15
ENDBRANCH  12  13
BRANCH  12  17
ATOM     17  C   UNL     1     -13.625  14.339 -30.632  1.00  0.00    -0.006 C 
ATOM     18  C   UNL     1     -13.984  15.836 -30.582  1.00  0.00     0.008 C 
ATOM     19  C   UNL     1     -13.360  13.951 -32.098  1.00  0.00     0.008 C 
ENDBRANCH  12  17
ENDBRANCH  11  12
ENDBRANCH   1  11
TORSDOF 1
ENDMDL
MODEL 5
REMARK VINA RESULT:    -3.582      9.052     11.397
REMARK INTER + INTRA:          -5.493
REMARK INTER:                  -5.660
REMARK INTRA:                   0.166
REMARK UNBOUND:                -0.027
REMARK SMILES CC1=CCC[C@@H](C)C(=O)C[C@H](C(C)C)C(=O)C1
REMARK SMILES IDX 8 1 9 2 6 3 7 4 5 5 4 6 3 7 2 8 1 9 10 11 11 12 15 13 16 14
REMARK SMILES IDX 17 15 12 17 13 18 14 19
REMARK H PARENT
REMARK Flexibility Score: 70.00
ROOT
ATOM      1  C   UNL     1     -24.509  11.408 -28.656  1.00  0.00     0.136 C 
ATOM      2  O   UNL     1     -23.867  10.766 -29.472  1.00  0.00    -0.299 OA
ENDROOT
BRANCH   1   3
ATOM      3  C   UNL     1     -24.928  10.732 -27.361  1.00  0.00     0.053 C 
ATOM      4  C   UNL     1     -23.786   9.875 -26.797  1.00  0.00     0.016 C 
BRANCH   3   5
ATOM      5  C   UNL     1     -26.211   9.899 -27.553  1.00  0.00     0.015 C 
BRANCH   5   6
ATOM      6  C   UNL     1     -27.459  10.790 -27.696  1.00  0.00     0.028 C 
BRANCH   6   7
ATOM      7  C   UNL     1     -28.212  10.489 -28.966  1.00  0.00    -0.028 C 
ATOM      8  C   UNL     1     -28.303  11.327 -30.024  1.00  0.00    -0.070 CG0
ATOM      9  C   UNL     1     -29.077  10.864 -31.232  1.00  0.00     0.039 C 
ATOM     10  G   UNL     1     -27.660  12.704 -30.058  1.00  0.00     0.000 G0
ENDBRANCH   6   7
ENDBRANCH   5   6
ENDBRANCH   3   5
ENDBRANCH   1   3
BRANCH   1  11
ATOM     11  C   UNL     1     -24.934  12.825 -28.987  1.00  0.00     0.087 C 
BRANCH  11  12
ATOM     12  C   UNL     1     -25.071  13.144 -30.499  1.00  0.00     0.066 C 
BRANCH  12  13
ATOM     13  C   UNL     1     -26.461  12.770 -31.002  1.00  0.00     0.140 C 
ATOM     14  O   UNL     1     -26.608  12.553 -32.196  1.00  0.00    -0.299 OA
BRANCH  13  15
ATOM     15  C   UNL     1     -27.665  12.705 -30.087  1.00  0.00     0.106 CG0
ATOM     16  G   UNL     1     -28.273  11.313 -30.023  1.00  0.00     0.000 G0
ENDBRANCH  13  15
ENDBRANCH  12  13
BRANCH  12  17
ATOM     17  C   UNL     1     -24.616  14.578 -30.933  1.00  0.00    -0.006 C 
ATOM     18  C   UNL     1     -23.107  14.768 -30.692  1.00  0.00     0.008 C 
ATOM     19  C   UNL     1     -25.373  15.687 -30.179  1.00  0.00     0.008 C 
ENDBRANCH  12  17
ENDBRANCH  11  12
ENDBRANCH   1  11
TORSDOF 1
ENDMDL
MODEL 6
REMARK VINA RESULT:    -3.577      1.895      4.850
REMARK INTER + INTRA:          -5.486
REMARK INTER:                  -5.535
REMARK INTRA:                   0.049
REMARK UNBOUND:                -0.027
REMARK SMILES CC1=CCC[C@@H](C)C(=O)C[C@H](C(C)C)C(=O)C1
REMARK SMILES IDX 8 1 9 2 6 3 7 4 5 5 4 6 3 7 2 8 1 9 10 11 11 12 15 13 16 14
REMARK SMILES IDX 17 15 12 17 13 18 14 19
REMARK H PARENT
REMARK Flexibility Score: 70.00
ROOT
ATOM      1  C   UNL     1     -16.040  10.535 -28.089  1.00  0.00     0.136 C 
ATOM      2  O   UNL     1     -16.725  10.731 -27.097  1.00  0.00    -0.299 OA
ENDROOT
BRANCH   1   3
ATOM      3  C   UNL     1     -14.595  10.103 -27.904  1.00  0.00     0.053 C 
ATOM      4  C   UNL     1     -14.190  10.165 -26.424  1.00  0.00     0.016 C 
BRANCH   3   5
ATOM      5  C   UNL     1     -13.643  10.942 -28.780  1.00  0.00     0.015 C 
BRANCH   5   6
ATOM      6  C   UNL     1     -13.802  12.451 -28.519  1.00  0.00     0.028 C 
BRANCH   6   7
ATOM      7  C   UNL     1     -13.628  13.253 -29.783  1.00  0.00    -0.028 C 
ATOM      8  C   UNL     1     -14.600  13.995 -30.363  1.00  0.00    -0.070 CG0
ATOM      9  C   UNL     1     -14.256  14.759 -31.616  1.00  0.00     0.039 C 
ATOM     10  G   UNL     1     -16.013  14.101 -29.812  1.00  0.00     0.000 G0
ENDBRANCH   6   7
ENDBRANCH   5   6
ENDBRANCH   3   5
ENDBRANCH   1   3
BRANCH   1  11
ATOM     11  C   UNL     1     -16.621  10.801 -29.463  1.00  0.00     0.087 C 
BRANCH  11  12
ATOM     12  C   UNL     1     -17.593  12.007 -29.555  1.00  0.00     0.066 C 
BRANCH  12  13
ATOM     13  C   UNL     1     -16.983  13.126 -30.390  1.00  0.00     0.140 C 
ATOM     14  O   UNL     1     -17.259  13.181 -31.580  1.00  0.00    -0.299 OA
BRANCH  13  15
ATOM     15  C   UNL     1     -16.017  14.137 -29.810  1.00  0.00     0.106 CG0
ATOM     16  G   UNL     1     -14.611  13.986 -30.368  1.00  0.00     0.000 G0
ENDBRANCH  13  15
ENDBRANCH  12  13
BRANCH  12  17
ATOM     17  C   UNL     1     -19.066  11.660 -29.958  1.00  0.00    -0.006 C 
ATOM     18  C   UNL     1     -19.992  12.870 -29.735  1.00  0.00     0.008 C 
ATOM     19  C   UNL     1     -19.625  10.466 -29.164  1.00  0.00     0.008 C 
ENDBRANCH  12  17
ENDBRANCH  11  12
ENDBRANCH   1  11
TORSDOF 1
ENDMDL
MODEL 7
REMARK VINA RESULT:    -3.381      2.067      4.578
REMARK INTER + INTRA:          -5.186
REMARK INTER:                  -5.131
REMARK INTRA:                  -0.055
REMARK UNBOUND:                -0.027
REMARK SMILES CC1=CCC[C@@H](C)C(=O)C[C@H](C(C)C)C(=O)C1
REMARK SMILES IDX 8 1 9 2 6 3 7 4 5 5 4 6 3 7 2 8 1 9 10 11 11 12 15 13 16 14
REMARK SMILES IDX 17 15 12 17 13 18 14 19
REMARK H PARENT
REMARK Flexibility Score: 70.00
ROOT
ATOM      1  C   UNL     1     -15.571  10.507 -28.865  1.00  0.00     0.136 C 
ATOM      2  O   UNL     1     -16.529  10.271 -28.146  1.00  0.00    -0.299 OA
ENDROOT
BRANCH   1   3
ATOM      3  C   UNL     1     -14.176  10.207 -28.344  1.00  0.00     0.053 C 
ATOM      4  C   UNL     1     -13.812  11.144 -27.182  1.00  0.00     0.016 C 
BRANCH   3   5
ATOM      5  C   UNL     1     -13.128  10.281 -29.471  1.00  0.00     0.015 C 
BRANCH   5   6
ATOM      6  C   UNL     1     -12.415  11.647 -29.505  1.00  0.00     0.028 C 
BRANCH   6   7
ATOM      7  C   UNL     1     -11.865  11.951 -30.874  1.00  0.00    -0.028 C 
ATOM      8  C   UNL     1     -12.334  12.921 -31.693  1.00  0.00    -0.070 CG0
ATOM      9  C   UNL     1     -11.655  13.113 -33.025  1.00  0.00     0.039 C 
ATOM     10  G   UNL     1     -13.501  13.827 -31.335  1.00  0.00     0.000 G0
ENDBRANCH   6   7
ENDBRANCH   5   6
ENDBRANCH   3   5
ENDBRANCH   1   3
BRANCH   1  11
ATOM     11  C   UNL     1     -15.792  11.159 -30.216  1.00  0.00     0.087 C 
BRANCH  11  12
ATOM     12  C   UNL     1     -15.646  12.702 -30.244  1.00  0.00     0.066 C 
BRANCH  12  13
ATOM     13  C   UNL     1     -14.849  13.144 -31.465  1.00  0.00     0.140 C 
ATOM     14  O   UNL     1     -15.299  12.897 -32.575  1.00  0.00    -0.299 OA
BRANCH  13  15
ATOM     15  C   UNL     1     -13.505  13.832 -31.352  1.00  0.00     0.106 CG0
ATOM     16  G   UNL     1     -12.346  12.903 -31.675  1.00  0.00     0.000 G0
ENDBRANCH  13  15
ENDBRANCH  12  13
BRANCH  12  17
ATOM     17  C   UNL     1     -16.971  13.512 -30.038  1.00  0.00    -0.006 C 
ATOM     18  C   UNL     1     -17.102  13.981 -28.577  1.00  0.00     0.008 C 
ATOM     19  C   UNL     1     -18.222  12.691 -30.400  1.00  0.00     0.008 C 
ENDBRANCH  12  17
ENDBRANCH  11  12
ENDBRANCH   1  11
TORSDOF 1
ENDMDL
MODEL 8
REMARK VINA RESULT:    -3.366      1.583      2.453
REMARK INTER + INTRA:          -5.163
REMARK INTER:                  -5.988
REMARK INTRA:                   0.825
REMARK UNBOUND:                -0.027
REMARK SMILES CC1=CCC[C@@H](C)C(=O)C[C@H](C(C)C)C(=O)C1
REMARK SMILES IDX 8 1 9 2 6 3 7 4 5 5 4 6 3 7 2 8 1 9 10 11 11 12 15 13 16 14
REMARK SMILES IDX 17 15 12 17 13 18 14 19
REMARK H PARENT
REMARK Flexibility Score: 70.00
ROOT
ATOM      1  C   UNL     1     -14.937  13.832 -32.189  1.00  0.00     0.136 C 
ATOM      2  O   UNL     1     -15.104  13.227 -33.236  1.00  0.00    -0.299 OA
ENDROOT
BRANCH   1   3
ATOM      3  C   UNL     1     -16.148  14.158 -31.332  1.00  0.00     0.053 C 
ATOM      4  C   UNL     1     -15.790  15.183 -30.246  1.00  0.00     0.016 C 
BRANCH   3   5
ATOM      5  C   UNL     1     -16.760  12.883 -30.719  1.00  0.00     0.015 C 
BRANCH   5   6
ATOM      6  C   UNL     1     -16.858  12.974 -29.184  1.00  0.00     0.028 C 
BRANCH   6   7
ATOM      7  C   UNL     1     -16.211  11.787 -28.517  1.00  0.00    -0.028 C 
ATOM      8  C   UNL     1     -14.876  11.603 -28.401  1.00  0.00    -0.070 CG0
ATOM      9  C   UNL     1     -14.389  10.371 -27.682  1.00  0.00     0.039 C 
ATOM     10  G   UNL     1     -13.846  12.577 -28.950  1.00  0.00     0.000 G0
ENDBRANCH   6   7
ENDBRANCH   5   6
ENDBRANCH   3   5
ENDBRANCH   1   3
BRANCH   1  11
ATOM     11  C   UNL     1     -13.546  14.304 -31.813  1.00  0.00     0.087 C 
BRANCH  11  12
ATOM     12  C   UNL     1     -12.602  13.213 -31.244  1.00  0.00     0.066 C 
BRANCH  12  13
ATOM     13  C   UNL     1     -13.379  12.229 -30.379  1.00  0.00     0.140 C 
ATOM     14  O   UNL     1     -13.695  11.151 -30.864  1.00  0.00    -0.299 OA
BRANCH  13  15
ATOM     15  C   UNL     1     -13.812  12.556 -28.965  1.00  0.00     0.106 CG0
ATOM     16  G   UNL     1     -14.869  11.596 -28.443  1.00  0.00     0.000 G0
ENDBRANCH  13  15
ENDBRANCH  12  13
BRANCH  12  17
ATOM     17  C   UNL     1     -11.661  12.520 -32.286  1.00  0.00    -0.006 C 
ATOM     18  C   UNL     1     -10.806  11.432 -31.611  1.00  0.00     0.008 C 
ATOM     19  C   UNL     1     -10.718  13.519 -32.980  1.00  0.00     0.008 C 
ENDBRANCH  12  17
ENDBRANCH  11  12
ENDBRANCH   1  11
TORSDOF 1
ENDMDL
MODEL 9
REMARK VINA RESULT:    -2.990      2.933      5.254
REMARK INTER + INTRA:          -4.590
REMARK INTER:                  -4.678
REMARK INTRA:                   0.087
REMARK UNBOUND:                -0.027
REMARK SMILES CC1=CCC[C@@H](C)C(=O)C[C@H](C(C)C)C(=O)C1
REMARK SMILES IDX 8 1 9 2 6 3 7 4 5 5 4 6 3 7 2 8 1 9 10 11 11 12 15 13 16 14
REMARK SMILES IDX 17 15 12 17 13 18 14 19
REMARK H PARENT
REMARK Flexibility Score: 70.00
ROOT
ATOM      1  C   UNL     1     -13.455  11.854 -28.988  1.00  0.00     0.136 C 
ATOM      2  O   UNL     1     -13.715  12.760 -28.213  1.00  0.00    -0.299 OA
ENDROOT
BRANCH   1   3
ATOM      3  C   UNL     1     -12.692  10.646 -28.470  1.00  0.00     0.053 C 
ATOM      4  C   UNL     1     -11.905  11.000 -27.199  1.00  0.00     0.016 C 
BRANCH   3   5
ATOM      5  C   UNL     1     -11.768  10.059 -29.555  1.00  0.00     0.015 C 
BRANCH   5   6
ATOM      6  C   UNL     1     -10.711  11.078 -30.023  1.00  0.00     0.028 C 
BRANCH   6   7
ATOM      7  C   UNL     1     -10.411  10.929 -31.492  1.00  0.00    -0.028 C 
ATOM      8  C   UNL     1     -10.603  11.897 -32.418  1.00  0.00    -0.070 CG0
ATOM      9  C   UNL     1     -10.229  11.596 -33.847  1.00  0.00     0.039 C 
ATOM     10  G   UNL     1     -11.169  13.269 -32.090  1.00  0.00     0.000 G0
ENDBRANCH   6   7
ENDBRANCH   5   6
ENDBRANCH   3   5
ENDBRANCH   1   3
BRANCH   1  11
ATOM     11  C   UNL     1     -13.829  11.991 -30.451  1.00  0.00     0.087 C 
BRANCH  11  12
ATOM     12  C   UNL     1     -13.628  13.402 -31.062  1.00  0.00     0.066 C 
BRANCH  12  13
ATOM     13  C   UNL     1     -12.682  13.340 -32.255  1.00  0.00     0.140 C 
ATOM     14  O   UNL     1     -13.164  13.314 -33.379  1.00  0.00    -0.299 OA
BRANCH  13  15
ATOM     15  C   UNL     1     -11.179  13.265 -32.097  1.00  0.00     0.106 CG0
ATOM     16  G   UNL     1     -10.625  11.892 -32.443  1.00  0.00     0.000 G0
ENDBRANCH  13  15
ENDBRANCH  12  13
BRANCH  12  17
ATOM     17  C   UNL     1     -14.938  14.210 -31.346  1.00  0.00    -0.006 C 
ATOM     18  C   UNL     1     -15.260  15.158 -30.176  1.00  0.00     0.008 C 
ATOM     19  C   UNL     1     -16.154  13.294 -31.577  1.00  0.00     0.008 C 
ENDBRANCH  12  17
ENDBRANCH  11  12
ENDBRANCH   1  11
TORSDOF 1
ENDMDL
