MODEL 1
REMARK VINA RESULT:   128.396      0.000      0.000
REMARK INTER + INTRA:         147.511
REMARK INTER:                 147.162
REMARK INTRA:                   0.349
REMARK UNBOUND:                 0.349
REMARK SMILES C=C(C)[C@@H]1CC[C@]2(C(=O)[O-])CC[C@@]3(C)[C@@H](CC[C@H]4[C@@]5(C)CC[C@@H](O)C(C)(C)[C@H]5CC[C@]43C)[C@@H]12
REMARK SMILES IDX 7 1 6 2 33 3 11 4 5 5 15 6 4 7 12 8 16 9 13 10 17 11 31 12
REMARK SMILES IDX 14 13 18 14 30 15 32 16 19 17 29 18 21 19 20 20 28 21 22 22
REMARK SMILES IDX 25 23 23 24 26 25 27 26 8 27 9 28 10 29 2 30 3 31 1 32 24 33
REMARK H PARENT 24 34
REMARK Flexibility Score: inf
ROOT
ATOM      1  C   UNL     1      19.050  32.606   0.658  1.00  0.00     0.014 C 
ATOM      2  C   UNL     1      17.723  32.421   1.417  1.00  0.00     0.014 C 
ATOM      3  C   UNL     1      18.673  33.723  -0.313  1.00  0.00     0.012 C 
ATOM      4  C   UNL     1      20.229  33.126   1.542  1.00  0.00     0.014 C 
ATOM      5  C   UNL     1      16.618  32.615   0.354  1.00  0.00     0.009 C 
ATOM      6  C   UNL     1      19.795  34.220  -1.281  1.00  0.00     0.000 C 
ATOM      7  C   UNL     1      17.246  33.421  -0.808  1.00  0.00     0.018 C 
ATOM      8  C   UNL     1      21.264  34.045   0.795  1.00  0.00     0.008 C 
ATOM      9  C   UNL     1      19.655  33.979  -2.781  1.00  0.00     0.005 C 
ATOM     10  C   UNL     1      21.271  33.969  -0.789  1.00  0.00    -0.024 C 
ATOM     11  C   UNL     1      20.519  35.013  -3.516  1.00  0.00     0.005 C 
ATOM     12  C   UNL     1      22.230  35.082  -1.486  1.00  0.00    -0.024 C 
ATOM     13  C   UNL     1      21.790  32.529  -1.179  1.00  0.00     0.012 C 
ATOM     14  C   UNL     1      22.031  35.084  -3.078  1.00  0.00     0.002 C 
ATOM     15  C   UNL     1      21.957  36.531  -0.923  1.00  0.00     0.008 C 
ATOM     16  C   UNL     1      23.729  34.732  -1.154  1.00  0.00     0.012 C 
ATOM     17  C   UNL     1      22.896  36.218  -3.869  1.00  0.00    -0.026 C 
ATOM     18  C   UNL     1      22.020  37.679  -1.948  1.00  0.00     0.005 C 
ATOM     19  C   UNL     1      22.169  36.645  -5.196  1.00  0.00     0.010 C 
ATOM     20  C   UNL     1      24.242  35.547  -4.296  1.00  0.00     0.012 C 
ATOM     21  C   UNL     1      23.180  37.501  -2.960  1.00  0.00     0.003 C 
ATOM     22  C   UNL     1      22.781  37.842  -5.925  1.00  0.00     0.033 C 
ATOM     23  C   UNL     1      23.604  38.850  -3.721  1.00  0.00    -0.006 C 
ATOM     24  C   UNL     1      22.782  39.083  -5.023  1.00  0.00     0.120 C 
ATOM     25  C   UNL     1      25.125  38.824  -4.063  1.00  0.00     0.014 C 
ATOM     26  C   UNL     1      23.443  40.111  -2.821  1.00  0.00     0.014 C 
ENDROOT
BRANCH   1  27
ATOM     27  C   UNL     1      19.367  31.251   0.031  1.00  0.00     0.048 C 
ATOM     28  O   UNL     1      19.387  31.108  -1.225  1.00  0.00    -0.550 OA
ATOM     29  O   UNL     1      19.514  30.121   0.837  1.00  0.00    -0.550 OA
ENDBRANCH   1  27
BRANCH   7  30
ATOM     30  C   UNL     1      16.456  34.687  -1.144  1.00  0.00    -0.077 C 
ATOM     31  C   UNL     1      16.587  35.366  -2.488  1.00  0.00     0.039 C 
ATOM     32  C   UNL     1      15.621  35.224  -0.239  1.00  0.00     0.008 C 
ENDBRANCH   7  30
BRANCH  24  33
ATOM     33  O   UNL     1      21.456  39.441  -4.707  1.00  0.00    -0.393 OA
ATOM     34  H   UNL     1      20.890  39.168  -5.477  1.00  0.00     0.210 HD
ENDBRANCH  24  33
TORSDOF 3
ENDMDL
