MODEL 1
REMARK VINA RESULT:    -8.727      0.000      0.000
REMARK INTER + INTRA:         -10.551
REMARK INTER:                 -10.257
REMARK INTRA:                  -0.294
REMARK UNBOUND:                -0.294
REMARK SMILES O=c1c(O)c(-c2ccc(O)cc2)oc2cc(O)cc(O)c12
REMARK SMILES IDX 5 1 3 2 2 3 1 4 21 5 19 6 18 7 16 8 15 9 14 10 13 11 6 12
REMARK SMILES IDX 7 13 8 14 9 15 12 16 11 17 10 18 4 20 20 22 17 24
REMARK H PARENT 10 19 4 21 20 23 17 25
REMARK Flexibility Score: inf
ROOT
ATOM      1  C   UNL     1     126.330 135.191 110.210  1.00  0.00     0.180 A 
ATOM      2  C   UNL     1     126.635 136.395 109.548  1.00  0.00     0.208 A 
ATOM      3  C   UNL     1     127.369 136.345 108.353  1.00  0.00     0.238 A 
ATOM      4  O   UNL     1     127.658 137.419 107.757  1.00  0.00    -0.285 OA
ATOM      5  C   UNL     1     127.765 135.097 107.830  1.00  0.00     0.111 A 
ATOM      6  C   UNL     1     128.503 134.960 106.629  1.00  0.00     0.134 A 
ATOM      7  C   UNL     1     128.852 133.681 106.170  1.00  0.00     0.093 A 
ATOM      8  C   UNL     1     128.477 132.540 106.887  1.00  0.00     0.123 A 
ATOM      9  C   UNL     1     127.750 132.671 108.071  1.00  0.00     0.094 A 
ATOM     10  C   UNL     1     127.394 133.936 108.547  1.00  0.00     0.146 A 
ATOM     11  O   UNL     1     126.707 134.031 109.680  1.00  0.00    -0.452 OA
ENDROOT
BRANCH   1  12
ATOM     12  C   UNL     1     125.577 135.162 111.485  1.00  0.00     0.021 A 
ATOM     13  C   UNL     1     126.222 135.341 112.722  1.00  0.00     0.016 A 
ATOM     14  C   UNL     1     125.494 135.286 113.914  1.00  0.00     0.047 A 
ATOM     15  C   UNL     1     124.115 135.038 113.886  1.00  0.00     0.115 A 
ATOM     16  C   UNL     1     124.198 134.894 111.468  1.00  0.00     0.016 A 
ATOM     17  C   UNL     1     123.472 134.841 112.661  1.00  0.00     0.047 A 
BRANCH  15  18
ATOM     18  O   UNL     1     123.379 134.982 115.067  1.00  0.00    -0.508 OA
ATOM     19  H   UNL     1     122.465 134.547 115.101  1.00  0.00     0.293 HD
ENDBRANCH  15  18
ENDBRANCH   1  12
BRANCH   2  20
ATOM     20  O   UNL     1     126.188 137.616 110.061  1.00  0.00    -0.502 OA
ATOM     21  H   UNL     1     126.498 138.506 109.690  1.00  0.00     0.293 HD
ENDBRANCH   2  20
BRANCH   6  22
ATOM     22  O   UNL     1     128.890 136.080 105.891  1.00  0.00    -0.507 OA
ATOM     23  H   UNL     1     129.807 136.498 105.999  1.00  0.00     0.293 HD
ENDBRANCH   6  22
BRANCH   8  24
ATOM     24  O   UNL     1     128.822 131.270 106.430  1.00  0.00    -0.508 OA
ATOM     25  H   UNL     1     128.139 130.524 106.369  1.00  0.00     0.293 HD
ENDBRANCH   8  24
TORSDOF 5
ENDMDL
MODEL 2
REMARK VINA RESULT:    -8.421      4.385      4.812
REMARK INTER + INTRA:         -10.192
REMARK INTER:                  -9.908
REMARK INTRA:                  -0.284
REMARK UNBOUND:                -0.294
REMARK SMILES O=c1c(O)c(-c2ccc(O)cc2)oc2cc(O)cc(O)c12
REMARK SMILES IDX 5 1 3 2 2 3 1 4 21 5 19 6 18 7 16 8 15 9 14 10 13 11 6 12
REMARK SMILES IDX 7 13 8 14 9 15 12 16 11 17 10 18 4 20 20 22 17 24
REMARK H PARENT 10 19 4 21 20 23 17 25
REMARK Flexibility Score: inf
ROOT
ATOM      1  C   UNL     1     128.860 134.850 112.746  1.00  0.00     0.180 A 
ATOM      2  C   UNL     1     129.755 135.754 113.349  1.00  0.00     0.208 A 
ATOM      3  C   UNL     1     131.129 135.620 113.093  1.00  0.00     0.238 A 
ATOM      4  O   UNL     1     131.941 136.417 113.638  1.00  0.00    -0.285 OA
ATOM      5  C   UNL     1     131.580 134.604 112.227  1.00  0.00     0.111 A 
ATOM      6  C   UNL     1     132.947 134.404 111.914  1.00  0.00     0.134 A 
ATOM      7  C   UNL     1     133.316 133.375 111.035  1.00  0.00     0.093 A 
ATOM      8  C   UNL     1     132.346 132.544 110.463  1.00  0.00     0.123 A 
ATOM      9  C   UNL     1     130.998 132.738 110.769  1.00  0.00     0.094 A 
ATOM     10  C   UNL     1     130.609 133.756 111.645  1.00  0.00     0.146 A 
ATOM     11  O   UNL     1     129.320 133.913 111.922  1.00  0.00    -0.452 OA
ENDROOT
BRANCH   1  12
ATOM     12  C   UNL     1     127.399 134.914 112.982  1.00  0.00     0.021 A 
ATOM     13  C   UNL     1     126.548 135.629 112.120  1.00  0.00     0.016 A 
ATOM     14  C   UNL     1     125.175 135.694 112.376  1.00  0.00     0.047 A 
ATOM     15  C   UNL     1     124.637 135.057 113.503  1.00  0.00     0.115 A 
ATOM     16  C   UNL     1     126.854 134.295 114.119  1.00  0.00     0.016 A 
ATOM     17  C   UNL     1     125.481 134.360 114.372  1.00  0.00     0.047 A 
BRANCH  15  18
ATOM     18  O   UNL     1     123.271 135.114 113.767  1.00  0.00    -0.508 OA
ATOM     19  H   UNL     1     122.805 135.993 113.958  1.00  0.00     0.293 HD
ENDBRANCH  15  18
ENDBRANCH   1  12
BRANCH   2  20
ATOM     20  O   UNL     1     129.278 136.783 114.165  1.00  0.00    -0.502 OA
ATOM     21  H   UNL     1     129.799 137.131 114.960  1.00  0.00     0.293 HD
ENDBRANCH   2  20
BRANCH   6  22
ATOM     22  O   UNL     1     133.937 135.218 112.467  1.00  0.00    -0.507 OA
ATOM     23  H   UNL     1     133.772 136.197 112.667  1.00  0.00     0.293 HD
ENDBRANCH   6  22
BRANCH   8  24
ATOM     24  O   UNL     1     132.712 131.524 109.589  1.00  0.00    -0.508 OA
ATOM     25  H   UNL     1     132.142 131.283 108.787  1.00  0.00     0.293 HD
ENDBRANCH   8  24
TORSDOF 5
ENDMDL
MODEL 3
REMARK VINA RESULT:    -8.392     10.706     11.580
REMARK INTER + INTRA:         -10.157
REMARK INTER:                  -9.867
REMARK INTRA:                  -0.290
REMARK UNBOUND:                -0.294
REMARK SMILES O=c1c(O)c(-c2ccc(O)cc2)oc2cc(O)cc(O)c12
REMARK SMILES IDX 5 1 3 2 2 3 1 4 21 5 19 6 18 7 16 8 15 9 14 10 13 11 6 12
REMARK SMILES IDX 7 13 8 14 9 15 12 16 11 17 10 18 4 20 20 22 17 24
REMARK H PARENT 10 19 4 21 20 23 17 25
REMARK Flexibility Score: inf
ROOT
ATOM      1  C   UNL     1     135.302 134.357 114.611  1.00  0.00     0.180 A 
ATOM      2  C   UNL     1     136.268 134.605 113.617  1.00  0.00     0.208 A 
ATOM      3  C   UNL     1     137.618 134.694 113.990  1.00  0.00     0.238 A 
ATOM      4  O   UNL     1     138.490 134.927 113.108  1.00  0.00    -0.285 OA
ATOM      5  C   UNL     1     137.981 134.514 115.340  1.00  0.00     0.111 A 
ATOM      6  C   UNL     1     139.320 134.583 115.797  1.00  0.00     0.134 A 
ATOM      7  C   UNL     1     139.602 134.383 117.157  1.00  0.00     0.093 A 
ATOM      8  C   UNL     1     138.573 134.115 118.066  1.00  0.00     0.123 A 
ATOM      9  C   UNL     1     137.252 134.045 117.619  1.00  0.00     0.094 A 
ATOM     10  C   UNL     1     136.949 134.243 116.269  1.00  0.00     0.146 A 
ATOM     11  O   UNL     1     135.684 134.177 115.873  1.00  0.00    -0.452 OA
ENDROOT
BRANCH   1  12
ATOM     12  C   UNL     1     133.857 134.268 114.301  1.00  0.00     0.021 A 
ATOM     13  C   UNL     1     133.265 133.055 113.905  1.00  0.00     0.016 A 
ATOM     14  C   UNL     1     131.903 133.002 113.594  1.00  0.00     0.047 A 
ATOM     15  C   UNL     1     131.119 134.161 113.663  1.00  0.00     0.115 A 
ATOM     16  C   UNL     1     133.067 135.429 114.348  1.00  0.00     0.016 A 
ATOM     17  C   UNL     1     131.706 135.373 114.038  1.00  0.00     0.047 A 
BRANCH  15  18
ATOM     18  O   UNL     1     129.761 134.119 113.357  1.00  0.00    -0.508 OA
ATOM     19  H   UNL     1     129.070 134.558 113.954  1.00  0.00     0.293 HD
ENDBRANCH  15  18
ENDBRANCH   1  12
BRANCH   2  20
ATOM     20  O   UNL     1     135.887 134.730 112.278  1.00  0.00    -0.502 OA
ATOM     21  H   UNL     1     136.561 134.818 111.528  1.00  0.00     0.293 HD
ENDBRANCH   2  20
BRANCH   6  22
ATOM     22  O   UNL     1     140.368 134.848 114.914  1.00  0.00    -0.507 OA
ATOM     23  H   UNL     1     140.847 135.741 114.908  1.00  0.00     0.293 HD
ENDBRANCH   6  22
BRANCH   8  24
ATOM     24  O   UNL     1     138.852 133.915 119.416  1.00  0.00    -0.508 OA
ATOM     25  H   UNL     1     138.932 132.985 119.808  1.00  0.00     0.293 HD
ENDBRANCH   8  24
TORSDOF 5
ENDMDL
MODEL 4
REMARK VINA RESULT:    -8.291      8.685     10.248
REMARK INTER + INTRA:         -10.039
REMARK INTER:                 -10.171
REMARK INTRA:                   0.132
REMARK UNBOUND:                -0.294
REMARK SMILES O=c1c(O)c(-c2ccc(O)cc2)oc2cc(O)cc(O)c12
REMARK SMILES IDX 5 1 3 2 2 3 1 4 21 5 19 6 18 7 16 8 15 9 14 10 13 11 6 12
REMARK SMILES IDX 7 13 8 14 9 15 12 16 11 17 10 18 4 20 20 22 17 24
REMARK H PARENT 10 19 4 21 20 23 17 25
REMARK Flexibility Score: inf
ROOT
ATOM      1  C   UNL     1     134.858 134.412 113.303  1.00  0.00     0.180 A 
ATOM      2  C   UNL     1     134.480 133.465 112.333  1.00  0.00     0.208 A 
ATOM      3  C   UNL     1     133.130 133.382 111.956  1.00  0.00     0.238 A 
ATOM      4  O   UNL     1     132.778 132.529 111.096  1.00  0.00    -0.285 OA
ATOM      5  C   UNL     1     132.189 134.256 112.538  1.00  0.00     0.111 A 
ATOM      6  C   UNL     1     130.811 134.239 112.211  1.00  0.00     0.134 A 
ATOM      7  C   UNL     1     129.939 135.149 112.828  1.00  0.00     0.093 A 
ATOM      8  C   UNL     1     130.418 136.073 113.763  1.00  0.00     0.123 A 
ATOM      9  C   UNL     1     131.775 136.092 114.089  1.00  0.00     0.094 A 
ATOM     10  C   UNL     1     132.661 135.193 113.487  1.00  0.00     0.146 A 
ATOM     11  O   UNL     1     133.946 135.230 113.820  1.00  0.00    -0.452 OA
ENDROOT
BRANCH   1  12
ATOM     12  C   UNL     1     136.258 134.548 113.767  1.00  0.00     0.021 A 
ATOM     13  C   UNL     1     137.336 134.516 112.864  1.00  0.00     0.016 A 
ATOM     14  C   UNL     1     138.651 134.622 113.328  1.00  0.00     0.047 A 
ATOM     15  C   UNL     1     138.905 134.749 114.701  1.00  0.00     0.115 A 
ATOM     16  C   UNL     1     136.524 134.654 115.143  1.00  0.00     0.016 A 
ATOM     17  C   UNL     1     137.839 134.762 115.604  1.00  0.00     0.047 A 
BRANCH  15  18
ATOM     18  O   UNL     1     140.210 134.857 115.174  1.00  0.00    -0.508 OA
ATOM     19  H   UNL     1     140.985 135.053 114.551  1.00  0.00     0.293 HD
ENDBRANCH  15  18
ENDBRANCH   1  12
BRANCH   2  20
ATOM     20  O   UNL     1     135.439 132.644 111.735  1.00  0.00    -0.502 OA
ATOM     21  H   UNL     1     136.434 132.796 111.853  1.00  0.00     0.293 HD
ENDBRANCH   2  20
BRANCH   6  22
ATOM     22  O   UNL     1     130.304 133.331 111.281  1.00  0.00    -0.507 OA
ATOM     23  H   UNL     1     130.148 133.590 110.314  1.00  0.00     0.293 HD
ENDBRANCH   6  22
BRANCH   8  24
ATOM     24  O   UNL     1     129.553 136.977 114.375  1.00  0.00    -0.508 OA
ATOM     25  H   UNL     1     129.311 137.858 113.937  1.00  0.00     0.293 HD
ENDBRANCH   8  24
TORSDOF 5
ENDMDL
MODEL 5
REMARK VINA RESULT:    -8.185      5.095      6.998
REMARK INTER + INTRA:          -9.914
REMARK INTER:                  -9.616
REMARK INTRA:                  -0.298
REMARK UNBOUND:                -0.294
REMARK SMILES O=c1c(O)c(-c2ccc(O)cc2)oc2cc(O)cc(O)c12
REMARK SMILES IDX 5 1 3 2 2 3 1 4 21 5 19 6 18 7 16 8 15 9 14 10 13 11 6 12
REMARK SMILES IDX 7 13 8 14 9 15 12 16 11 17 10 18 4 20 20 22 17 24
REMARK H PARENT 10 19 4 21 20 23 17 25
REMARK Flexibility Score: inf
ROOT
ATOM      1  C   UNL     1     130.080 134.344 110.662  1.00  0.00     0.180 A 
ATOM      2  C   UNL     1     130.472 132.998 110.537  1.00  0.00     0.208 A 
ATOM      3  C   UNL     1     131.495 132.509 111.365  1.00  0.00     0.238 A 
ATOM      4  O   UNL     1     131.861 131.307 111.253  1.00  0.00    -0.285 OA
ATOM      5  C   UNL     1     132.091 133.364 112.313  1.00  0.00     0.111 A 
ATOM      6  C   UNL     1     133.125 132.949 113.188  1.00  0.00     0.134 A 
ATOM      7  C   UNL     1     133.662 133.858 114.112  1.00  0.00     0.093 A 
ATOM      8  C   UNL     1     133.185 135.171 114.178  1.00  0.00     0.123 A 
ATOM      9  C   UNL     1     132.166 135.585 113.318  1.00  0.00     0.094 A 
ATOM     10  C   UNL     1     131.619 134.696 112.388  1.00  0.00     0.146 A 
ATOM     11  O   UNL     1     130.655 135.118 111.579  1.00  0.00    -0.452 OA
ENDROOT
BRANCH   1  12
ATOM     12  C   UNL     1     129.023 134.940 109.812  1.00  0.00     0.021 A 
ATOM     13  C   UNL     1     129.326 135.533 108.573  1.00  0.00     0.016 A 
ATOM     14  C   UNL     1     128.315 136.110 107.799  1.00  0.00     0.047 A 
ATOM     15  C   UNL     1     126.991 136.112 108.259  1.00  0.00     0.115 A 
ATOM     16  C   UNL     1     127.697 134.965 110.274  1.00  0.00     0.016 A 
ATOM     17  C   UNL     1     126.688 135.541 109.498  1.00  0.00     0.047 A 
BRANCH  15  18
ATOM     18  O   UNL     1     125.975 136.683 107.496  1.00  0.00    -0.508 OA
ATOM     19  H   UNL     1     125.183 137.144 107.929  1.00  0.00     0.293 HD
ENDBRANCH  15  18
ENDBRANCH   1  12
BRANCH   2  20
ATOM     20  O   UNL     1     129.831 132.158 109.622  1.00  0.00    -0.502 OA
ATOM     21  H   UNL     1     128.823 132.130 109.525  1.00  0.00     0.293 HD
ENDBRANCH   2  20
BRANCH   6  22
ATOM     22  O   UNL     1     133.620 131.644 113.147  1.00  0.00    -0.507 OA
ATOM     23  H   UNL     1     133.014 130.840 113.257  1.00  0.00     0.293 HD
ENDBRANCH   6  22
BRANCH   8  24
ATOM     24  O   UNL     1     133.716 136.074 115.097  1.00  0.00    -0.508 OA
ATOM     25  H   UNL     1     134.713 136.246 115.155  1.00  0.00     0.293 HD
ENDBRANCH   8  24
TORSDOF 5
ENDMDL
MODEL 6
REMARK VINA RESULT:    -8.137      5.698      7.629
REMARK INTER + INTRA:          -9.857
REMARK INTER:                  -9.612
REMARK INTRA:                  -0.246
REMARK UNBOUND:                -0.294
REMARK SMILES O=c1c(O)c(-c2ccc(O)cc2)oc2cc(O)cc(O)c12
REMARK SMILES IDX 5 1 3 2 2 3 1 4 21 5 19 6 18 7 16 8 15 9 14 10 13 11 6 12
REMARK SMILES IDX 7 13 8 14 9 15 12 16 11 17 10 18 4 20 20 22 17 24
REMARK H PARENT 10 19 4 21 20 23 17 25
REMARK Flexibility Score: inf
ROOT
ATOM      1  C   UNL     1     130.861 134.562 111.071  1.00  0.00     0.180 A 
ATOM      2  C   UNL     1     130.145 135.204 112.099  1.00  0.00     0.208 A 
ATOM      3  C   UNL     1     130.823 135.568 113.273  1.00  0.00     0.238 A 
ATOM      4  O   UNL     1     130.189 136.134 114.205  1.00  0.00    -0.285 OA
ATOM      5  C   UNL     1     132.203 135.303 113.390  1.00  0.00     0.111 A 
ATOM      6  C   UNL     1     132.961 135.642 114.539  1.00  0.00     0.134 A 
ATOM      7  C   UNL     1     134.333 135.353 114.575  1.00  0.00     0.093 A 
ATOM      8  C   UNL     1     134.961 134.735 113.488  1.00  0.00     0.123 A 
ATOM      9  C   UNL     1     134.218 134.400 112.355  1.00  0.00     0.094 A 
ATOM     10  C   UNL     1     132.849 134.677 112.299  1.00  0.00     0.146 A 
ATOM     11  O   UNL     1     132.165 134.342 111.210  1.00  0.00    -0.452 OA
ENDROOT
BRANCH   1  12
ATOM     12  C   UNL     1     130.213 134.130 109.811  1.00  0.00     0.021 A 
ATOM     13  C   UNL     1     129.909 132.778 109.569  1.00  0.00     0.016 A 
ATOM     14  C   UNL     1     129.319 132.391 108.361  1.00  0.00     0.047 A 
ATOM     15  C   UNL     1     129.037 133.348 107.377  1.00  0.00     0.115 A 
ATOM     16  C   UNL     1     129.946 135.079 108.810  1.00  0.00     0.016 A 
ATOM     17  C   UNL     1     129.354 134.690 107.605  1.00  0.00     0.047 A 
BRANCH  15  18
ATOM     18  O   UNL     1     128.449 132.974 106.172  1.00  0.00    -0.508 OA
ATOM     19  H   UNL     1     127.456 133.093 106.008  1.00  0.00     0.293 HD
ENDBRANCH  15  18
ENDBRANCH   1  12
BRANCH   2  20
ATOM     20  O   UNL     1     128.789 135.499 111.937  1.00  0.00    -0.502 OA
ATOM     21  H   UNL     1     128.300 136.152 112.538  1.00  0.00     0.293 HD
ENDBRANCH   2  20
BRANCH   6  22
ATOM     22  O   UNL     1     132.363 136.260 115.638  1.00  0.00    -0.507 OA
ATOM     23  H   UNL     1     131.566 136.878 115.533  1.00  0.00     0.293 HD
ENDBRANCH   6  22
BRANCH   8  24
ATOM     24  O   UNL     1     136.324 134.450 113.524  1.00  0.00    -0.508 OA
ATOM     25  H   UNL     1     136.749 133.991 114.320  1.00  0.00     0.293 HD
ENDBRANCH   8  24
TORSDOF 5
ENDMDL
MODEL 7
REMARK VINA RESULT:    -8.025      7.120      8.412
REMARK INTER + INTRA:          -9.726
REMARK INTER:                  -9.436
REMARK INTRA:                  -0.290
REMARK UNBOUND:                -0.294
REMARK SMILES O=c1c(O)c(-c2ccc(O)cc2)oc2cc(O)cc(O)c12
REMARK SMILES IDX 5 1 3 2 2 3 1 4 21 5 19 6 18 7 16 8 15 9 14 10 13 11 6 12
REMARK SMILES IDX 7 13 8 14 9 15 12 16 11 17 10 18 4 20 20 22 17 24
REMARK H PARENT 10 19 4 21 20 23 17 25
REMARK Flexibility Score: inf
ROOT
ATOM      1  C   UNL     1     133.439 133.982 112.212  1.00  0.00     0.180 A 
ATOM      2  C   UNL     1     132.995 132.652 112.086  1.00  0.00     0.208 A 
ATOM      3  C   UNL     1     131.898 132.379 111.254  1.00  0.00     0.238 A 
ATOM      4  O   UNL     1     131.485 131.192 111.143  1.00  0.00    -0.285 OA
ATOM      5  C   UNL     1     131.278 133.431 110.550  1.00  0.00     0.111 A 
ATOM      6  C   UNL     1     130.170 133.240 109.689  1.00  0.00     0.134 A 
ATOM      7  C   UNL     1     129.614 134.338 109.015  1.00  0.00     0.093 A 
ATOM      8  C   UNL     1     130.146 135.621 109.186  1.00  0.00     0.123 A 
ATOM      9  C   UNL     1     131.238 135.814 110.033  1.00  0.00     0.094 A 
ATOM     10  C   UNL     1     131.805 134.734 110.716  1.00  0.00     0.146 A 
ATOM     11  O   UNL     1     132.840 134.948 111.520  1.00  0.00    -0.452 OA
ENDROOT
BRANCH   1  12
ATOM     12  C   UNL     1     134.577 134.354 113.084  1.00  0.00     0.021 A 
ATOM     13  C   UNL     1     135.902 134.324 112.612  1.00  0.00     0.016 A 
ATOM     14  C   UNL     1     136.962 134.656 113.461  1.00  0.00     0.047 A 
ATOM     15  C   UNL     1     136.712 135.010 114.794  1.00  0.00     0.115 A 
ATOM     16  C   UNL     1     134.338 134.690 114.427  1.00  0.00     0.016 A 
ATOM     17  C   UNL     1     135.399 135.023 115.273  1.00  0.00     0.047 A 
BRANCH  15  18
ATOM     18  O   UNL     1     137.760 135.344 115.648  1.00  0.00    -0.508 OA
ATOM     19  H   UNL     1     138.474 136.010 115.376  1.00  0.00     0.293 HD
ENDBRANCH  15  18
ENDBRANCH   1  12
BRANCH   2  20
ATOM     20  O   UNL     1     133.657 131.620 112.756  1.00  0.00    -0.502 OA
ATOM     21  H   UNL     1     133.236 131.116 113.526  1.00  0.00     0.293 HD
ENDBRANCH   2  20
BRANCH   6  22
ATOM     22  O   UNL     1     129.619 131.971 109.498  1.00  0.00    -0.507 OA
ATOM     23  H   UNL     1     129.365 131.378 110.279  1.00  0.00     0.293 HD
ENDBRANCH   6  22
BRANCH   8  24
ATOM     24  O   UNL     1     129.595 136.712 108.516  1.00  0.00    -0.508 OA
ATOM     25  H   UNL     1     129.555 137.630 108.941  1.00  0.00     0.293 HD
ENDBRANCH   8  24
TORSDOF 5
ENDMDL
MODEL 8
REMARK VINA RESULT:    -7.998      7.170      8.303
REMARK INTER + INTRA:          -9.694
REMARK INTER:                  -9.796
REMARK INTRA:                   0.102
REMARK UNBOUND:                -0.294
REMARK SMILES O=c1c(O)c(-c2ccc(O)cc2)oc2cc(O)cc(O)c12
REMARK SMILES IDX 5 1 3 2 2 3 1 4 21 5 19 6 18 7 16 8 15 9 14 10 13 11 6 12
REMARK SMILES IDX 7 13 8 14 9 15 12 16 11 17 10 18 4 20 20 22 17 24
REMARK H PARENT 10 19 4 21 20 23 17 25
REMARK Flexibility Score: inf
ROOT
ATOM      1  C   UNL     1     133.075 134.739 113.084  1.00  0.00     0.180 A 
ATOM      2  C   UNL     1     132.146 135.627 113.658  1.00  0.00     0.208 A 
ATOM      3  C   UNL     1     130.828 135.634 113.176  1.00  0.00     0.238 A 
ATOM      4  O   UNL     1     129.990 136.434 113.676  1.00  0.00    -0.285 OA
ATOM      5  C   UNL     1     130.456 134.743 112.149  1.00  0.00     0.111 A 
ATOM      6  C   UNL     1     129.147 134.684 111.611  1.00  0.00     0.134 A 
ATOM      7  C   UNL     1     128.854 133.762 110.595  1.00  0.00     0.093 A 
ATOM      8  C   UNL     1     129.842 132.899 110.109  1.00  0.00     0.123 A 
ATOM      9  C   UNL     1     131.134 132.954 110.636  1.00  0.00     0.094 A 
ATOM     10  C   UNL     1     131.448 133.867 111.647  1.00  0.00     0.146 A 
ATOM     11  O   UNL     1     132.686 133.902 112.127  1.00  0.00    -0.452 OA
ENDROOT
BRANCH   1  12
ATOM     12  C   UNL     1     134.489 134.685 113.523  1.00  0.00     0.021 A 
ATOM     13  C   UNL     1     134.833 134.683 114.887  1.00  0.00     0.016 A 
ATOM     14  C   UNL     1     136.176 134.655 115.277  1.00  0.00     0.047 A 
ATOM     15  C   UNL     1     137.190 134.644 114.310  1.00  0.00     0.115 A 
ATOM     16  C   UNL     1     135.513 134.694 112.561  1.00  0.00     0.016 A 
ATOM     17  C   UNL     1     136.853 134.666 112.954  1.00  0.00     0.047 A 
BRANCH  15  18
ATOM     18  O   UNL     1     138.530 134.616 114.687  1.00  0.00    -0.508 OA
ATOM     19  H   UNL     1     139.147 135.400 114.509  1.00  0.00     0.293 HD
ENDBRANCH  15  18
ENDBRANCH   1  12
BRANCH   2  20
ATOM     20  O   UNL     1     132.527 136.467 114.708  1.00  0.00    -0.502 OA
ATOM     21  H   UNL     1     133.494 136.712 114.883  1.00  0.00     0.293 HD
ENDBRANCH   2  20
BRANCH   6  22
ATOM     22  O   UNL     1     128.140 135.530 112.077  1.00  0.00    -0.507 OA
ATOM     23  H   UNL     1     128.117 136.514 111.835  1.00  0.00     0.293 HD
ENDBRANCH   6  22
BRANCH   8  24
ATOM     24  O   UNL     1     129.551 131.982 109.101  1.00  0.00    -0.508 OA
ATOM     25  H   UNL     1     129.256 132.283 108.180  1.00  0.00     0.293 HD
ENDBRANCH   8  24
TORSDOF 5
ENDMDL
MODEL 9
REMARK VINA RESULT:    -7.928      5.506      8.238
REMARK INTER + INTRA:          -9.612
REMARK INTER:                  -9.386
REMARK INTRA:                  -0.227
REMARK UNBOUND:                -0.294
REMARK SMILES O=c1c(O)c(-c2ccc(O)cc2)oc2cc(O)cc(O)c12
REMARK SMILES IDX 5 1 3 2 2 3 1 4 21 5 19 6 18 7 16 8 15 9 14 10 13 11 6 12
REMARK SMILES IDX 7 13 8 14 9 15 12 16 11 17 10 18 4 20 20 22 17 24
REMARK H PARENT 10 19 4 21 20 23 17 25
REMARK Flexibility Score: inf
ROOT
ATOM      1  C   UNL     1     131.116 133.811 111.599  1.00  0.00     0.180 A 
ATOM      2  C   UNL     1     132.407 133.290 111.809  1.00  0.00     0.208 A 
ATOM      3  C   UNL     1     132.984 133.402 113.084  1.00  0.00     0.238 A 
ATOM      4  O   UNL     1     134.145 132.949 113.281  1.00  0.00    -0.285 OA
ATOM      5  C   UNL     1     132.257 134.010 114.127  1.00  0.00     0.111 A 
ATOM      6  C   UNL     1     132.765 134.158 115.441  1.00  0.00     0.134 A 
ATOM      7  C   UNL     1     131.975 134.768 116.428  1.00  0.00     0.093 A 
ATOM      8  C   UNL     1     130.689 135.230 116.126  1.00  0.00     0.123 A 
ATOM      9  C   UNL     1     130.185 135.086 114.832  1.00  0.00     0.094 A 
ATOM     10  C   UNL     1     130.956 134.484 113.834  1.00  0.00     0.146 A 
ATOM     11  O   UNL     1     130.453 134.365 112.611  1.00  0.00    -0.452 OA
ENDROOT
BRANCH   1  12
ATOM     12  C   UNL     1     130.447 133.750 110.279  1.00  0.00     0.021 A 
ATOM     13  C   UNL     1     130.296 134.897 109.480  1.00  0.00     0.016 A 
ATOM     14  C   UNL     1     129.640 134.819 108.247  1.00  0.00     0.047 A 
ATOM     15  C   UNL     1     129.116 133.597 107.805  1.00  0.00     0.115 A 
ATOM     16  C   UNL     1     129.900 132.533 109.837  1.00  0.00     0.016 A 
ATOM     17  C   UNL     1     129.246 132.458 108.604  1.00  0.00     0.047 A 
BRANCH  15  18
ATOM     18  O   UNL     1     128.461 133.508 106.579  1.00  0.00    -0.508 OA
ATOM     19  H   UNL     1     128.909 133.797 105.718  1.00  0.00     0.293 HD
ENDBRANCH  15  18
ENDBRANCH   1  12
BRANCH   2  20
ATOM     20  O   UNL     1     133.087 132.648 110.771  1.00  0.00    -0.502 OA
ATOM     21  H   UNL     1     134.086 132.742 110.637  1.00  0.00     0.293 HD
ENDBRANCH   2  20
BRANCH   6  22
ATOM     22  O   UNL     1     134.043 133.706 115.773  1.00  0.00    -0.507 OA
ATOM     23  H   UNL     1     134.821 133.787 115.128  1.00  0.00     0.293 HD
ENDBRANCH   6  22
BRANCH   8  24
ATOM     24  O   UNL     1     129.904 135.833 117.105  1.00  0.00    -0.508 OA
ATOM     25  H   UNL     1     128.936 136.077 116.934  1.00  0.00     0.293 HD
ENDBRANCH   8  24
TORSDOF 5
ENDMDL
