MODEL 1
REMARK VINA RESULT:    -0.939      0.000      0.000
REMARK INTER + INTRA:          -3.616
REMARK INTER:                  -2.146
REMARK INTRA:                  -1.471
REMARK UNBOUND:                -1.471
REMARK SMILES CCCCCCCCCCCCCCCCCCCCCCCC(=O)[O-]
REMARK SMILES IDX 13 1 14 2 15 3 16 4 17 5 18 6 19 7 20 8 21 9 22 10 23 11
REMARK SMILES IDX 24 12 25 13 26 14 12 15 11 16 10 17 9 18 8 19 7 20 6 21 5 22
REMARK SMILES IDX 4 23 3 24 2 25 1 26
REMARK H PARENT
REMARK Flexibility Score: inf
ROOT
ATOM      1  C   UNL     1      30.697   0.437  -1.006  1.00  0.00     0.000 C 
ENDROOT
BRANCH   1   2
ATOM      2  C   UNL     1      30.782   1.157   0.349  1.00  0.00     0.000 C 
BRANCH   2   3
ATOM      3  C   UNL     1      29.495   1.010   1.181  1.00  0.00     0.000 C 
BRANCH   3   4
ATOM      4  C   UNL     1      29.361   2.106   2.251  1.00  0.00     0.000 C 
BRANCH   4   5
ATOM      5  C   UNL     1      30.691   2.821   2.534  1.00  0.00     0.000 C 
BRANCH   5   6
ATOM      6  C   UNL     1      30.903   3.003   4.044  1.00  0.00     0.000 C 
BRANCH   6   7
ATOM      7  C   UNL     1      31.002   4.482   4.463  1.00  0.00     0.000 C 
BRANCH   7   8
ATOM      8  C   UNL     1      30.753   5.501   3.336  1.00  0.00     0.000 C 
BRANCH   8   9
ATOM      9  C   UNL     1      29.943   6.723   3.801  1.00  0.00     0.000 C 
BRANCH   9  10
ATOM     10  C   UNL     1      30.286   7.151   5.240  1.00  0.00     0.006 C 
BRANCH  10  11
ATOM     11  C   UNL     1      30.295   8.672   5.465  1.00  0.00     0.053 C 
BRANCH  11  12
ATOM     12  C   UNL     1      29.974   9.030   6.884  1.00  0.00     0.041 C 
ATOM     13  O   UNL     1      29.350  10.093   7.144  1.00  0.00    -0.550 OA
ATOM     14  O   UNL     1      30.339   8.175   7.916  1.00  0.00    -0.550 OA
ENDBRANCH  11  12
ENDBRANCH  10  11
ENDBRANCH   9  10
ENDBRANCH   8   9
ENDBRANCH   7   8
ENDBRANCH   6   7
ENDBRANCH   5   6
ENDBRANCH   4   5
ENDBRANCH   3   4
ENDBRANCH   2   3
ENDBRANCH   1   2
BRANCH   1  15
ATOM     15  C   UNL     1      31.976  -0.339  -1.351  1.00  0.00     0.000 C 
BRANCH  15  16
ATOM     16  C   UNL     1      32.219  -0.351  -2.868  1.00  0.00     0.000 C 
BRANCH  16  17
ATOM     17  C   UNL     1      31.562   0.837  -3.589  1.00  0.00     0.000 C 
BRANCH  17  18
ATOM     18  C   UNL     1      32.580   1.906  -4.023  1.00  0.00    -0.000 C 
BRANCH  18  19
ATOM     19  C   UNL     1      32.047   3.335  -3.831  1.00  0.00    -0.000 C 
BRANCH  19  20
ATOM     20  C   UNL     1      33.171   4.384  -3.789  1.00  0.00    -0.000 C 
BRANCH  20  21
ATOM     21  C   UNL     1      32.712   5.718  -3.178  1.00  0.00    -0.000 C 
BRANCH  21  22
ATOM     22  C   UNL     1      31.382   5.591  -2.414  1.00  0.00    -0.000 C 
BRANCH  22  23
ATOM     23  C   UNL     1      30.804   6.966  -2.017  1.00  0.00    -0.000 C 
BRANCH  23  24
ATOM     24  C   UNL     1      30.922   8.032  -3.124  1.00  0.00    -0.000 C 
BRANCH  24  25
ATOM     25  C   UNL     1      29.642   8.847  -3.369  1.00  0.00    -0.003 C 
ATOM     26  C   UNL     1      28.618   8.697  -2.244  1.00  0.00     0.004 C 
ENDBRANCH  24  25
ENDBRANCH  23  24
ENDBRANCH  22  23
ENDBRANCH  21  22
ENDBRANCH  20  21
ENDBRANCH  19  20
ENDBRANCH  18  19
ENDBRANCH  17  18
ENDBRANCH  16  17
ENDBRANCH  15  16
ENDBRANCH   1  15
TORSDOF 22
ENDMDL
MODEL 2
REMARK VINA RESULT:    -0.725      4.315      8.094
REMARK INTER + INTRA:          -3.128
REMARK INTER:                  -2.276
REMARK INTRA:                  -0.852
REMARK UNBOUND:                -1.471
REMARK SMILES CCCCCCCCCCCCCCCCCCCCCCCC(=O)[O-]
REMARK SMILES IDX 13 1 14 2 15 3 16 4 17 5 18 6 19 7 20 8 21 9 22 10 23 11
REMARK SMILES IDX 24 12 25 13 26 14 12 15 11 16 10 17 9 18 8 19 7 20 6 21 5 22
REMARK SMILES IDX 4 23 3 24 2 25 1 26
REMARK H PARENT
REMARK Flexibility Score: inf
ROOT
ATOM      1  C   UNL     1      30.985  -0.170  -1.717  1.00  0.00     0.000 C 
ENDROOT
BRANCH   1   2
ATOM      2  C   UNL     1      30.926   0.021  -0.193  1.00  0.00     0.000 C 
BRANCH   2   3
ATOM      3  C   UNL     1      30.207   1.319   0.216  1.00  0.00     0.000 C 
BRANCH   3   4
ATOM      4  C   UNL     1      29.285   1.120   1.429  1.00  0.00     0.000 C 
BRANCH   4   5
ATOM      5  C   UNL     1      29.790   1.853   2.682  1.00  0.00     0.000 C 
BRANCH   5   6
ATOM      6  C   UNL     1      30.343   3.239   2.319  1.00  0.00     0.000 C 
BRANCH   6   7
ATOM      7  C   UNL     1      31.234   3.839   3.423  1.00  0.00     0.000 C 
BRANCH   7   8
ATOM      8  C   UNL     1      31.151   5.369   3.571  1.00  0.00     0.000 C 
BRANCH   8   9
ATOM      9  C   UNL     1      30.590   5.809   4.934  1.00  0.00     0.000 C 
BRANCH   9  10
ATOM     10  C   UNL     1      29.764   7.105   4.848  1.00  0.00     0.006 C 
BRANCH  10  11
ATOM     11  C   UNL     1      30.514   8.367   5.303  1.00  0.00     0.053 C 
BRANCH  11  12
ATOM     12  C   UNL     1      30.085   8.812   6.668  1.00  0.00     0.041 C 
ATOM     13  O   UNL     1      29.705   9.998   6.859  1.00  0.00    -0.550 OA
ATOM     14  O   UNL     1      30.079   7.909   7.724  1.00  0.00    -0.550 OA
ENDBRANCH  11  12
ENDBRANCH  10  11
ENDBRANCH   9  10
ENDBRANCH   8   9
ENDBRANCH   7   8
ENDBRANCH   6   7
ENDBRANCH   5   6
ENDBRANCH   4   5
ENDBRANCH   3   4
ENDBRANCH   2   3
ENDBRANCH   1   2
BRANCH   1  15
ATOM     15  C   UNL     1      32.415  -0.368  -2.240  1.00  0.00     0.000 C 
BRANCH  15  16
ATOM     16  C   UNL     1      32.403  -0.853  -3.699  1.00  0.00     0.000 C 
BRANCH  16  17
ATOM     17  C   UNL     1      33.586  -1.775  -4.033  1.00  0.00     0.000 C 
BRANCH  17  18
ATOM     18  C   UNL     1      34.938  -1.195  -3.584  1.00  0.00    -0.000 C 
BRANCH  18  19
ATOM     19  C   UNL     1      35.975  -2.290  -3.282  1.00  0.00    -0.000 C 
BRANCH  19  20
ATOM     20  C   UNL     1      35.755  -3.559  -4.125  1.00  0.00    -0.000 C 
BRANCH  20  21
ATOM     21  C   UNL     1      36.915  -4.559  -4.000  1.00  0.00    -0.000 C 
BRANCH  21  22
ATOM     22  C   UNL     1      36.433  -5.990  -3.706  1.00  0.00    -0.000 C 
BRANCH  22  23
ATOM     23  C   UNL     1      36.704  -6.408  -2.244  1.00  0.00    -0.000 C 
BRANCH  23  24
ATOM     24  C   UNL     1      35.850  -7.601  -1.772  1.00  0.00    -0.000 C 
BRANCH  24  25
ATOM     25  C   UNL     1      36.547  -8.968  -1.873  1.00  0.00    -0.003 C 
ATOM     26  C   UNL     1      35.674 -10.117  -1.367  1.00  0.00     0.004 C 
ENDBRANCH  24  25
ENDBRANCH  23  24
ENDBRANCH  22  23
ENDBRANCH  21  22
ENDBRANCH  20  21
ENDBRANCH  19  20
ENDBRANCH  18  19
ENDBRANCH  17  18
ENDBRANCH  16  17
ENDBRANCH  15  16
ENDBRANCH   1  15
TORSDOF 22
ENDMDL
MODEL 3
REMARK VINA RESULT:    -0.530      1.709      3.648
REMARK INTER + INTRA:          -2.681
REMARK INTER:                  -1.126
REMARK INTRA:                  -1.556
REMARK UNBOUND:                -1.471
REMARK SMILES CCCCCCCCCCCCCCCCCCCCCCCC(=O)[O-]
REMARK SMILES IDX 13 1 14 2 15 3 16 4 17 5 18 6 19 7 20 8 21 9 22 10 23 11
REMARK SMILES IDX 24 12 25 13 26 14 12 15 11 16 10 17 9 18 8 19 7 20 6 21 5 22
REMARK SMILES IDX 4 23 3 24 2 25 1 26
REMARK H PARENT
REMARK Flexibility Score: inf
ROOT
ATOM      1  C   UNL     1      33.343  -0.539  -4.101  1.00  0.00     0.000 C 
ENDROOT
BRANCH   1   2
ATOM      2  C   UNL     1      31.889  -0.936  -3.803  1.00  0.00     0.000 C 
BRANCH   2   3
ATOM      3  C   UNL     1      31.742  -1.700  -2.474  1.00  0.00     0.000 C 
BRANCH   3   4
ATOM      4  C   UNL     1      30.778  -1.004  -1.501  1.00  0.00     0.000 C 
BRANCH   4   5
ATOM      5  C   UNL     1      31.506  -0.097  -0.496  1.00  0.00     0.000 C 
BRANCH   5   6
ATOM      6  C   UNL     1      30.725   1.204  -0.269  1.00  0.00     0.000 C 
BRANCH   6   7
ATOM      7  C   UNL     1      29.620   1.066   0.796  1.00  0.00     0.000 C 
BRANCH   7   8
ATOM      8  C   UNL     1      29.979   1.619   2.187  1.00  0.00     0.000 C 
BRANCH   8   9
ATOM      9  C   UNL     1      30.131   3.150   2.202  1.00  0.00     0.000 C 
BRANCH   9  10
ATOM     10  C   UNL     1      30.967   3.653   3.392  1.00  0.00     0.006 C 
BRANCH  10  11
ATOM     11  C   UNL     1      31.310   5.151   3.339  1.00  0.00     0.053 C 
BRANCH  11  12
ATOM     12  C   UNL     1      30.645   5.918   4.441  1.00  0.00     0.041 C 
ATOM     13  O   UNL     1      31.032   5.781   5.631  1.00  0.00    -0.550 OA
ATOM     14  O   UNL     1      29.615   6.803   4.149  1.00  0.00    -0.550 OA
ENDBRANCH  11  12
ENDBRANCH  10  11
ENDBRANCH   9  10
ENDBRANCH   8   9
ENDBRANCH   7   8
ENDBRANCH   6   7
ENDBRANCH   5   6
ENDBRANCH   4   5
ENDBRANCH   3   4
ENDBRANCH   2   3
ENDBRANCH   1   2
BRANCH   1  15
ATOM     15  C   UNL     1      33.554   0.982  -4.124  1.00  0.00     0.000 C 
BRANCH  15  16
ATOM     16  C   UNL     1      32.360   1.711  -3.486  1.00  0.00     0.000 C 
BRANCH  16  17
ATOM     17  C   UNL     1      32.095   3.089  -4.113  1.00  0.00     0.000 C 
BRANCH  17  18
ATOM     18  C   UNL     1      33.327   4.010  -4.066  1.00  0.00    -0.000 C 
BRANCH  18  19
ATOM     19  C   UNL     1      32.963   5.455  -3.685  1.00  0.00    -0.000 C 
BRANCH  19  20
ATOM     20  C   UNL     1      31.689   5.536  -2.826  1.00  0.00    -0.000 C 
BRANCH  20  21
ATOM     21  C   UNL     1      31.481   6.928  -2.208  1.00  0.00    -0.000 C 
BRANCH  21  22
ATOM     22  C   UNL     1      30.040   7.440  -2.376  1.00  0.00    -0.000 C 
BRANCH  22  23
ATOM     23  C   UNL     1      29.974   8.979  -2.469  1.00  0.00    -0.000 C 
BRANCH  23  24
ATOM     24  C   UNL     1      29.200   9.493  -3.698  1.00  0.00    -0.000 C 
BRANCH  24  25
ATOM     25  C   UNL     1      27.738   9.881  -3.420  1.00  0.00    -0.003 C 
ATOM     26  C   UNL     1      27.384   9.834  -1.933  1.00  0.00     0.004 C 
ENDBRANCH  24  25
ENDBRANCH  23  24
ENDBRANCH  22  23
ENDBRANCH  21  22
ENDBRANCH  20  21
ENDBRANCH  19  20
ENDBRANCH  18  19
ENDBRANCH  17  18
ENDBRANCH  16  17
ENDBRANCH  15  16
ENDBRANCH   1  15
TORSDOF 22
ENDMDL
MODEL 4
REMARK VINA RESULT:    -0.430      7.259     11.740
REMARK INTER + INTRA:          -2.453
REMARK INTER:                  -1.481
REMARK INTRA:                  -0.972
REMARK UNBOUND:                -1.471
REMARK SMILES CCCCCCCCCCCCCCCCCCCCCCCC(=O)[O-]
REMARK SMILES IDX 13 1 14 2 15 3 16 4 17 5 18 6 19 7 20 8 21 9 22 10 23 11
REMARK SMILES IDX 24 12 25 13 26 14 12 15 11 16 10 17 9 18 8 19 7 20 6 21 5 22
REMARK SMILES IDX 4 23 3 24 2 25 1 26
REMARK H PARENT
REMARK Flexibility Score: inf
ROOT
ATOM      1  C   UNL     1      31.644  -0.184  -4.125  1.00  0.00     0.000 C 
ENDROOT
BRANCH   1   2
ATOM      2  C   UNL     1      33.059   0.328  -3.815  1.00  0.00     0.000 C 
BRANCH   2   3
ATOM      3  C   UNL     1      34.147  -0.724  -4.095  1.00  0.00     0.000 C 
BRANCH   3   4
ATOM      4  C   UNL     1      34.873  -1.171  -2.816  1.00  0.00     0.000 C 
BRANCH   4   5
ATOM      5  C   UNL     1      36.163  -1.953  -3.111  1.00  0.00     0.000 C 
BRANCH   5   6
ATOM      6  C   UNL     1      35.878  -3.149  -4.029  1.00  0.00     0.000 C 
BRANCH   6   7
ATOM      7  C   UNL     1      36.628  -4.426  -3.604  1.00  0.00     0.000 C 
BRANCH   7   8
ATOM      8  C   UNL     1      36.025  -5.743  -4.125  1.00  0.00     0.000 C 
BRANCH   8   9
ATOM      9  C   UNL     1      36.699  -6.989  -3.525  1.00  0.00     0.000 C 
BRANCH   9  10
ATOM     10  C   UNL     1      36.431  -7.143  -2.017  1.00  0.00     0.006 C 
BRANCH  10  11
ATOM     11  C   UNL     1      36.742  -8.540  -1.456  1.00  0.00     0.053 C 
BRANCH  11  12
ATOM     12  C   UNL     1      35.669  -9.530  -1.791  1.00  0.00     0.041 C 
ATOM     13  O   UNL     1      34.846  -9.895  -0.911  1.00  0.00    -0.550 OA
ATOM     14  O   UNL     1      35.563 -10.029  -3.083  1.00  0.00    -0.550 OA
ENDBRANCH  11  12
ENDBRANCH  10  11
ENDBRANCH   9  10
ENDBRANCH   8   9
ENDBRANCH   7   8
ENDBRANCH   6   7
ENDBRANCH   5   6
ENDBRANCH   4   5
ENDBRANCH   3   4
ENDBRANCH   2   3
ENDBRANCH   1   2
BRANCH   1  15
ATOM     15  C   UNL     1      30.591   0.334  -3.134  1.00  0.00     0.000 C 
BRANCH  15  16
ATOM     16  C   UNL     1      31.057   0.134  -1.683  1.00  0.00     0.000 C 
BRANCH  16  17
ATOM     17  C   UNL     1      30.517   1.209  -0.727  1.00  0.00     0.000 C 
BRANCH  17  18
ATOM     18  C   UNL     1      30.251   0.667   0.688  1.00  0.00    -0.000 C 
BRANCH  18  19
ATOM     19  C   UNL     1      29.435   1.647   1.547  1.00  0.00    -0.000 C 
BRANCH  19  20
ATOM     20  C   UNL     1      30.006   1.803   2.967  1.00  0.00    -0.000 C 
BRANCH  20  21
ATOM     21  C   UNL     1      30.931   3.024   3.100  1.00  0.00    -0.000 C 
BRANCH  21  22
ATOM     22  C   UNL     1      30.375   4.267   2.383  1.00  0.00    -0.000 C 
BRANCH  22  23
ATOM     23  C   UNL     1      30.115   5.436   3.358  1.00  0.00    -0.000 C 
BRANCH  23  24
ATOM     24  C   UNL     1      31.308   6.400   3.501  1.00  0.00    -0.000 C 
BRANCH  24  25
ATOM     25  C   UNL     1      31.147   7.463   4.600  1.00  0.00    -0.003 C 
ATOM     26  C   UNL     1      30.152   7.049   5.685  1.00  0.00     0.004 C 
ENDBRANCH  24  25
ENDBRANCH  23  24
ENDBRANCH  22  23
ENDBRANCH  21  22
ENDBRANCH  20  21
ENDBRANCH  19  20
ENDBRANCH  18  19
ENDBRANCH  17  18
ENDBRANCH  16  17
ENDBRANCH  15  16
ENDBRANCH   1  15
TORSDOF 22
ENDMDL
MODEL 5
REMARK VINA RESULT:    -0.063      2.768      6.918
REMARK INTER + INTRA:          -1.615
REMARK INTER:                  -0.831
REMARK INTRA:                  -0.784
REMARK UNBOUND:                -1.471
REMARK SMILES CCCCCCCCCCCCCCCCCCCCCCCC(=O)[O-]
REMARK SMILES IDX 13 1 14 2 15 3 16 4 17 5 18 6 19 7 20 8 21 9 22 10 23 11
REMARK SMILES IDX 24 12 25 13 26 14 12 15 11 16 10 17 9 18 8 19 7 20 6 21 5 22
REMARK SMILES IDX 4 23 3 24 2 25 1 26
REMARK H PARENT
REMARK Flexibility Score: inf
ROOT
ATOM      1  C   UNL     1      32.907  -0.597  -2.208  1.00  0.00     0.000 C 
ENDROOT
BRANCH   1   2
ATOM      2  C   UNL     1      33.011  -0.232  -3.697  1.00  0.00     0.000 C 
BRANCH   2   3
ATOM      3  C   UNL     1      33.040   1.289  -3.934  1.00  0.00     0.000 C 
BRANCH   3   4
ATOM      4  C   UNL     1      31.633   1.879  -4.125  1.00  0.00     0.000 C 
BRANCH   4   5
ATOM      5  C   UNL     1      31.519   3.317  -3.596  1.00  0.00     0.000 C 
BRANCH   5   6
ATOM      6  C   UNL     1      32.814   4.100  -3.855  1.00  0.00     0.000 C 
BRANCH   6   7
ATOM      7  C   UNL     1      32.855   5.455  -3.124  1.00  0.00     0.000 C 
BRANCH   7   8
ATOM      8  C   UNL     1      31.509   5.928  -2.546  1.00  0.00     0.000 C 
BRANCH   8   9
ATOM      9  C   UNL     1      31.188   7.391  -2.896  1.00  0.00     0.000 C 
BRANCH   9  10
ATOM     10  C   UNL     1      29.874   7.880  -2.261  1.00  0.00     0.006 C 
BRANCH  10  11
ATOM     11  C   UNL     1      29.572   9.369  -2.495  1.00  0.00     0.053 C 
BRANCH  11  12
ATOM     12  C   UNL     1      28.137   9.700  -2.220  1.00  0.00     0.041 C 
ATOM     13  O   UNL     1      27.312   9.781  -3.168  1.00  0.00    -0.550 OA
ATOM     14  O   UNL     1      27.705   9.891  -0.913  1.00  0.00    -0.550 OA
ENDBRANCH  11  12
ENDBRANCH  10  11
ENDBRANCH   9  10
ENDBRANCH   8   9
ENDBRANCH   7   8
ENDBRANCH   6   7
ENDBRANCH   5   6
ENDBRANCH   4   5
ENDBRANCH   3   4
ENDBRANCH   2   3
ENDBRANCH   1   2
BRANCH   1  15
ATOM     15  C   UNL     1      31.462  -0.859  -1.756  1.00  0.00     0.000 C 
BRANCH  15  16
ATOM     16  C   UNL     1      30.810   0.431  -1.232  1.00  0.00     0.000 C 
BRANCH  16  17
ATOM     17  C   UNL     1      30.734   0.483   0.302  1.00  0.00     0.000 C 
BRANCH  17  18
ATOM     18  C   UNL     1      29.397   1.047   0.813  1.00  0.00    -0.000 C 
BRANCH  18  19
ATOM     19  C   UNL     1      29.277   0.974   2.344  1.00  0.00    -0.000 C 
BRANCH  19  20
ATOM     20  C   UNL     1      30.065   2.090   3.051  1.00  0.00    -0.000 C 
BRANCH  20  21
ATOM     21  C   UNL     1      30.547   3.179   2.079  1.00  0.00    -0.000 C 
BRANCH  21  22
ATOM     22  C   UNL     1      31.099   4.418   2.807  1.00  0.00    -0.000 C 
BRANCH  22  23
ATOM     23  C   UNL     1      31.152   4.221   4.337  1.00  0.00    -0.000 C 
BRANCH  23  24
ATOM     24  C   UNL     1      30.657   5.442   5.137  1.00  0.00    -0.000 C 
BRANCH  24  25
ATOM     25  C   UNL     1      30.517   6.734   4.315  1.00  0.00    -0.003 C 
ATOM     26  C   UNL     1      31.854   7.239   3.771  1.00  0.00     0.004 C 
ENDBRANCH  24  25
ENDBRANCH  23  24
ENDBRANCH  22  23
ENDBRANCH  21  22
ENDBRANCH  20  21
ENDBRANCH  19  20
ENDBRANCH  18  19
ENDBRANCH  17  18
ENDBRANCH  16  17
ENDBRANCH  15  16
ENDBRANCH   1  15
TORSDOF 22
ENDMDL
MODEL 6
REMARK VINA RESULT:     0.384      2.894      7.799
REMARK INTER + INTRA:          -0.593
REMARK INTER:                   0.303
REMARK INTRA:                  -0.896
REMARK UNBOUND:                -1.471
REMARK SMILES CCCCCCCCCCCCCCCCCCCCCCCC(=O)[O-]
REMARK SMILES IDX 13 1 14 2 15 3 16 4 17 5 18 6 19 7 20 8 21 9 22 10 23 11
REMARK SMILES IDX 24 12 25 13 26 14 12 15 11 16 10 17 9 18 8 19 7 20 6 21 5 22
REMARK SMILES IDX 4 23 3 24 2 25 1 26
REMARK H PARENT
REMARK Flexibility Score: inf
ROOT
ATOM      1  C   UNL     1      30.409   0.884  -0.577  1.00  0.00     0.000 C 
ENDROOT
BRANCH   1   2
ATOM      2  C   UNL     1      31.505  -0.183  -0.723  1.00  0.00     0.000 C 
BRANCH   2   3
ATOM      3  C   UNL     1      31.297  -1.085  -1.953  1.00  0.00     0.000 C 
BRANCH   3   4
ATOM      4  C   UNL     1      32.469  -1.003  -2.944  1.00  0.00     0.000 C 
BRANCH   4   5
ATOM      5  C   UNL     1      32.232   0.032  -4.055  1.00  0.00     0.000 C 
BRANCH   5   6
ATOM      6  C   UNL     1      31.018   0.915  -3.730  1.00  0.00     0.000 C 
BRANCH   6   7
ATOM      7  C   UNL     1      31.224   2.390  -4.125  1.00  0.00     0.000 C 
BRANCH   7   8
ATOM      8  C   UNL     1      32.251   3.158  -3.273  1.00  0.00     0.000 C 
BRANCH   8   9
ATOM      9  C   UNL     1      32.912   4.319  -4.036  1.00  0.00     0.000 C 
BRANCH   9  10
ATOM     10  C   UNL     1      32.651   5.687  -3.380  1.00  0.00     0.006 C 
BRANCH  10  11
ATOM     11  C   UNL     1      31.486   5.699  -2.378  1.00  0.00     0.053 C 
BRANCH  11  12
ATOM     12  C   UNL     1      30.799   7.029  -2.333  1.00  0.00     0.041 C 
ATOM     13  O   UNL     1      29.802   7.203  -1.583  1.00  0.00    -0.550 OA
ATOM     14  O   UNL     1      31.278   8.085  -3.098  1.00  0.00    -0.550 OA
ENDBRANCH  11  12
ENDBRANCH  10  11
ENDBRANCH   9  10
ENDBRANCH   8   9
ENDBRANCH   7   8
ENDBRANCH   6   7
ENDBRANCH   5   6
ENDBRANCH   4   5
ENDBRANCH   3   4
ENDBRANCH   2   3
ENDBRANCH   1   2
BRANCH   1  15
ATOM     15  C   UNL     1      29.880   1.004   0.860  1.00  0.00     0.000 C 
BRANCH  15  16
ATOM     16  C   UNL     1      30.436   2.263   1.545  1.00  0.00     0.000 C 
BRANCH  16  17
ATOM     17  C   UNL     1      30.302   2.220   3.075  1.00  0.00     0.000 C 
BRANCH  17  18
ATOM     18  C   UNL     1      30.778   3.518   3.750  1.00  0.00    -0.000 C 
BRANCH  18  19
ATOM     19  C   UNL     1      31.102   4.624   2.732  1.00  0.00    -0.000 C 
BRANCH  19  20
ATOM     20  C   UNL     1      30.000   5.694   2.652  1.00  0.00    -0.000 C 
BRANCH  20  21
ATOM     21  C   UNL     1      29.953   6.587   3.903  1.00  0.00    -0.000 C 
BRANCH  21  22
ATOM     22  C   UNL     1      31.153   6.356   4.839  1.00  0.00    -0.000 C 
BRANCH  22  23
ATOM     23  C   UNL     1      30.714   6.056   6.288  1.00  0.00    -0.000 C 
BRANCH  23  24
ATOM     24  C   UNL     1      29.690   7.063   6.847  1.00  0.00    -0.000 C 
BRANCH  24  25
ATOM     25  C   UNL     1      30.305   8.343   7.436  1.00  0.00    -0.003 C 
ATOM     26  C   UNL     1      29.678   9.618   6.869  1.00  0.00     0.004 C 
ENDBRANCH  24  25
ENDBRANCH  23  24
ENDBRANCH  22  23
ENDBRANCH  21  22
ENDBRANCH  20  21
ENDBRANCH  19  20
ENDBRANCH  18  19
ENDBRANCH  17  18
ENDBRANCH  16  17
ENDBRANCH  15  16
ENDBRANCH   1  15
TORSDOF 22
ENDMDL
MODEL 7
REMARK VINA RESULT:     0.559      6.669     11.453
REMARK INTER + INTRA:          -0.192
REMARK INTER:                  -0.078
REMARK INTRA:                  -0.114
REMARK UNBOUND:                -1.471
REMARK SMILES CCCCCCCCCCCCCCCCCCCCCCCC(=O)[O-]
REMARK SMILES IDX 13 1 14 2 15 3 16 4 17 5 18 6 19 7 20 8 21 9 22 10 23 11
REMARK SMILES IDX 24 12 25 13 26 14 12 15 11 16 10 17 9 18 8 19 7 20 6 21 5 22
REMARK SMILES IDX 4 23 3 24 2 25 1 26
REMARK H PARENT
REMARK Flexibility Score: inf
ROOT
ATOM      1  C   UNL     1      32.599   0.157  -1.450  1.00  0.00     0.000 C 
ENDROOT
BRANCH   1   2
ATOM      2  C   UNL     1      32.401  -0.618  -2.762  1.00  0.00     0.000 C 
BRANCH   2   3
ATOM      3  C   UNL     1      32.821   0.195  -4.000  1.00  0.00     0.000 C 
BRANCH   3   4
ATOM      4  C   UNL     1      34.341   0.414  -4.069  1.00  0.00     0.000 C 
BRANCH   4   5
ATOM      5  C   UNL     1      35.127  -0.906  -4.106  1.00  0.00     0.000 C 
BRANCH   5   6
ATOM      6  C   UNL     1      34.177  -2.110  -4.050  1.00  0.00     0.000 C 
BRANCH   6   7
ATOM      7  C   UNL     1      34.918  -3.461  -4.056  1.00  0.00     0.000 C 
BRANCH   7   8
ATOM      8  C   UNL     1      36.247  -3.482  -3.280  1.00  0.00     0.000 C 
BRANCH   8   9
ATOM      9  C   UNL     1      37.124  -4.697  -3.628  1.00  0.00     0.000 C 
BRANCH   9  10
ATOM     10  C   UNL     1      36.331  -6.016  -3.651  1.00  0.00     0.006 C 
BRANCH  10  11
ATOM     11  C   UNL     1      36.685  -6.990  -2.515  1.00  0.00     0.053 C 
BRANCH  11  12
ATOM     12  C   UNL     1      35.778  -8.183  -2.497  1.00  0.00     0.041 C 
ATOM     13  O   UNL     1      35.227  -8.544  -1.424  1.00  0.00    -0.550 OA
ATOM     14  O   UNL     1      35.522  -8.879  -3.671  1.00  0.00    -0.550 OA
ENDBRANCH  11  12
ENDBRANCH  10  11
ENDBRANCH   9  10
ENDBRANCH   8   9
ENDBRANCH   7   8
ENDBRANCH   6   7
ENDBRANCH   5   6
ENDBRANCH   4   5
ENDBRANCH   3   4
ENDBRANCH   2   3
ENDBRANCH   1   2
BRANCH   1  15
ATOM     15  C   UNL     1      31.642  -0.298  -0.338  1.00  0.00     0.000 C 
BRANCH  15  16
ATOM     16  C   UNL     1      30.342   0.521  -0.363  1.00  0.00     0.000 C 
BRANCH  16  17
ATOM     17  C   UNL     1      30.401   1.765   0.537  1.00  0.00     0.000 C 
BRANCH  17  18
ATOM     18  C   UNL     1      29.743   1.538   1.909  1.00  0.00    -0.000 C 
BRANCH  18  19
ATOM     19  C   UNL     1      30.414   2.358   3.024  1.00  0.00    -0.000 C 
BRANCH  19  20
ATOM     20  C   UNL     1      30.763   3.787   2.576  1.00  0.00    -0.000 C 
BRANCH  20  21
ATOM     21  C   UNL     1      30.833   4.775   3.752  1.00  0.00    -0.000 C 
BRANCH  21  22
ATOM     22  C   UNL     1      30.271   6.162   3.394  1.00  0.00    -0.000 C 
BRANCH  22  23
ATOM     23  C   UNL     1      29.780   6.932   4.638  1.00  0.00    -0.000 C 
BRANCH  23  24
ATOM     24  C   UNL     1      30.736   6.837   5.843  1.00  0.00    -0.000 C 
BRANCH  24  25
ATOM     25  C   UNL     1      30.096   7.176   7.199  1.00  0.00    -0.003 C 
ATOM     26  C   UNL     1      30.101   8.675   7.500  1.00  0.00     0.004 C 
ENDBRANCH  24  25
ENDBRANCH  23  24
ENDBRANCH  22  23
ENDBRANCH  21  22
ENDBRANCH  20  21
ENDBRANCH  19  20
ENDBRANCH  18  19
ENDBRANCH  17  18
ENDBRANCH  16  17
ENDBRANCH  15  16
ENDBRANCH   1  15
TORSDOF 22
ENDMDL
MODEL 8
REMARK VINA RESULT:     1.142      2.969      7.483
REMARK INTER + INTRA:           1.140
REMARK INTER:                   2.253
REMARK INTRA:                  -1.113
REMARK UNBOUND:                -1.471
REMARK SMILES CCCCCCCCCCCCCCCCCCCCCCCC(=O)[O-]
REMARK SMILES IDX 13 1 14 2 15 3 16 4 17 5 18 6 19 7 20 8 21 9 22 10 23 11
REMARK SMILES IDX 24 12 25 13 26 14 12 15 11 16 10 17 9 18 8 19 7 20 6 21 5 22
REMARK SMILES IDX 4 23 3 24 2 25 1 26
REMARK H PARENT
REMARK Flexibility Score: inf
ROOT
ATOM      1  C   UNL     1      30.880   0.032  -1.428  1.00  0.00     0.000 C 
ENDROOT
BRANCH   1   2
ATOM      2  C   UNL     1      32.352  -0.354  -1.642  1.00  0.00     0.000 C 
BRANCH   2   3
ATOM      3  C   UNL     1      32.718  -0.498  -3.130  1.00  0.00     0.000 C 
BRANCH   3   4
ATOM      4  C   UNL     1      32.870   0.862  -3.830  1.00  0.00     0.000 C 
BRANCH   4   5
ATOM      5  C   UNL     1      31.518   1.531  -4.120  1.00  0.00     0.000 C 
BRANCH   5   6
ATOM      6  C   UNL     1      31.540   3.010  -3.708  1.00  0.00     0.000 C 
BRANCH   6   7
ATOM      7  C   UNL     1      32.868   3.710  -4.053  1.00  0.00     0.000 C 
BRANCH   7   8
ATOM      8  C   UNL     1      32.971   5.178  -3.600  1.00  0.00     0.000 C 
BRANCH   8   9
ATOM      9  C   UNL     1      31.847   5.586  -2.632  1.00  0.00     0.000 C 
BRANCH   9  10
ATOM     10  C   UNL     1      31.335   7.016  -2.885  1.00  0.00     0.006 C 
BRANCH  10  11
ATOM     11  C   UNL     1      30.211   7.464  -1.936  1.00  0.00     0.053 C 
BRANCH  11  12
ATOM     12  C   UNL     1      29.470   8.652  -2.468  1.00  0.00     0.041 C 
ATOM     13  O   UNL     1      30.101   9.651  -2.905  1.00  0.00    -0.550 OA
ATOM     14  O   UNL     1      28.081   8.646  -2.507  1.00  0.00    -0.550 OA
ENDBRANCH  11  12
ENDBRANCH  10  11
ENDBRANCH   9  10
ENDBRANCH   8   9
ENDBRANCH   7   8
ENDBRANCH   6   7
ENDBRANCH   5   6
ENDBRANCH   4   5
ENDBRANCH   3   4
ENDBRANCH   2   3
ENDBRANCH   1   2
BRANCH   1  15
ATOM     15  C   UNL     1      30.471   0.029   0.052  1.00  0.00     0.000 C 
BRANCH  15  16
ATOM     16  C   UNL     1      30.170   1.455   0.541  1.00  0.00     0.000 C 
BRANCH  16  17
ATOM     17  C   UNL     1      31.217   1.980   1.536  1.00  0.00     0.000 C 
BRANCH  17  18
ATOM     18  C   UNL     1      30.584   2.582   2.802  1.00  0.00    -0.000 C 
BRANCH  18  19
ATOM     19  C   UNL     1      29.842   3.899   2.517  1.00  0.00    -0.000 C 
BRANCH  19  20
ATOM     20  C   UNL     1      30.788   5.111   2.472  1.00  0.00    -0.000 C 
BRANCH  20  21
ATOM     21  C   UNL     1      31.027   5.725   3.861  1.00  0.00    -0.000 C 
BRANCH  21  22
ATOM     22  C   UNL     1      30.006   6.824   4.205  1.00  0.00    -0.000 C 
BRANCH  22  23
ATOM     23  C   UNL     1      30.506   7.755   5.331  1.00  0.00    -0.000 C 
BRANCH  23  24
ATOM     24  C   UNL     1      30.013   7.350   6.734  1.00  0.00    -0.000 C 
BRANCH  24  25
ATOM     25  C   UNL     1      29.691   8.530   7.666  1.00  0.00    -0.003 C 
ATOM     26  C   UNL     1      29.704   9.878   6.943  1.00  0.00     0.004 C 
ENDBRANCH  24  25
ENDBRANCH  23  24
ENDBRANCH  22  23
ENDBRANCH  21  22
ENDBRANCH  20  21
ENDBRANCH  19  20
ENDBRANCH  18  19
ENDBRANCH  17  18
ENDBRANCH  16  17
ENDBRANCH  15  16
ENDBRANCH   1  15
TORSDOF 22
ENDMDL
