MODEL 1
REMARK VINA RESULT:    -4.756      0.000      0.000
REMARK INTER + INTRA:          -5.188
REMARK INTER:                  -5.173
REMARK INTRA:                  -0.015
REMARK UNBOUND:                -0.015
REMARK SMILES OCc1ccco1
REMARK SMILES IDX 2 1 3 2 5 3 6 4 4 5 7 6 1 7
REMARK H PARENT 1 8
REMARK Flexibility Score: inf
ROOT
ATOM      1  C   UNL     1     -21.131  24.992  -6.466  1.00  0.00     0.231 C 
ENDROOT
BRANCH   1   2
ATOM      2  C   UNL     1     -21.790  24.986  -5.123  1.00  0.00     0.129 A 
ATOM      3  C   UNL     1     -23.139  25.416  -3.444  1.00  0.00     0.042 A 
ATOM      4  C   UNL     1     -22.137  24.544  -3.068  1.00  0.00     0.195 A 
ATOM      5  C   UNL     1     -22.914  25.705  -4.773  1.00  0.00     0.048 A 
ATOM      6  O   UNL     1     -21.346  24.310  -4.090  1.00  0.00    -0.467 OA
ENDBRANCH   1   2
BRANCH   1   7
ATOM      7  O   UNL     1     -22.046  25.389  -7.449  1.00  0.00    -0.388 OA
ATOM      8  H   UNL     1     -22.614  24.599  -7.646  1.00  0.00     0.211 HD
ENDBRANCH   1   7
TORSDOF 2
ENDMDL
MODEL 2
REMARK VINA RESULT:    -4.678     11.307     12.247
REMARK INTER + INTRA:          -5.103
REMARK INTER:                  -5.082
REMARK INTRA:                  -0.021
REMARK UNBOUND:                -0.015
REMARK SMILES OCc1ccco1
REMARK SMILES IDX 2 1 3 2 5 3 6 4 4 5 7 6 1 7
REMARK H PARENT 1 8
REMARK Flexibility Score: inf
ROOT
ATOM      1  C   UNL     1     -14.497  34.345  -9.488  1.00  0.00     0.231 C 
ENDROOT
BRANCH   1   2
ATOM      2  C   UNL     1     -15.710  33.910 -10.246  1.00  0.00     0.129 A 
ATOM      3  C   UNL     1     -17.056  33.226 -11.841  1.00  0.00     0.042 A 
ATOM      4  C   UNL     1     -17.755  33.496 -10.681  1.00  0.00     0.195 A 
ATOM      5  C   UNL     1     -15.734  33.496 -11.562  1.00  0.00     0.048 A 
ATOM      6  O   UNL     1     -16.925  33.905  -9.749  1.00  0.00    -0.467 OA
ENDBRANCH   1   2
BRANCH   1   7
ATOM      7  O   UNL     1     -14.845  34.679  -8.173  1.00  0.00    -0.388 OA
ATOM      8  H   UNL     1     -14.049  35.117  -7.771  1.00  0.00     0.211 HD
ENDBRANCH   1   7
TORSDOF 2
ENDMDL
MODEL 3
REMARK VINA RESULT:    -4.658      1.864      1.867
REMARK INTER + INTRA:          -5.082
REMARK INTER:                  -5.062
REMARK INTRA:                  -0.020
REMARK UNBOUND:                -0.015
REMARK SMILES OCc1ccco1
REMARK SMILES IDX 2 1 3 2 5 3 6 4 4 5 7 6 1 7
REMARK H PARENT 1 8
REMARK Flexibility Score: inf
ROOT
ATOM      1  C   UNL     1     -20.409  23.866  -5.374  1.00  0.00     0.231 C 
ENDROOT
BRANCH   1   2
ATOM      2  C   UNL     1     -21.497  24.468  -4.543  1.00  0.00     0.129 A 
ATOM      3  C   UNL     1     -23.233  25.644  -3.888  1.00  0.00     0.042 A 
ATOM      4  C   UNL     1     -22.664  24.963  -2.830  1.00  0.00     0.195 A 
ATOM      5  C   UNL     1     -22.477  25.327  -4.996  1.00  0.00     0.048 A 
ATOM      6  O   UNL     1     -21.629  24.273  -3.252  1.00  0.00    -0.467 OA
ENDBRANCH   1   2
BRANCH   1   7
ATOM      7  O   UNL     1     -19.955  22.678  -4.787  1.00  0.00    -0.388 OA
ATOM      8  H   UNL     1     -18.964  22.738  -4.753  1.00  0.00     0.211 HD
ENDBRANCH   1   7
TORSDOF 2
ENDMDL
MODEL 4
REMARK VINA RESULT:    -4.588     11.656     12.293
REMARK INTER + INTRA:          -5.005
REMARK INTER:                  -4.990
REMARK INTRA:                  -0.015
REMARK UNBOUND:                -0.015
REMARK SMILES OCc1ccco1
REMARK SMILES IDX 2 1 3 2 5 3 6 4 4 5 7 6 1 7
REMARK H PARENT 1 8
REMARK Flexibility Score: inf
ROOT
ATOM      1  C   UNL     1     -18.608  33.973 -12.806  1.00  0.00     0.231 C 
ENDROOT
BRANCH   1   2
ATOM      2  C   UNL     1     -17.494  33.857 -11.814  1.00  0.00     0.129 A 
ATOM      3  C   UNL     1     -15.531  33.507 -10.892  1.00  0.00     0.042 A 
ATOM      4  C   UNL     1     -16.480  33.827  -9.940  1.00  0.00     0.195 A 
ATOM      5  C   UNL     1     -16.187  33.523 -12.105  1.00  0.00     0.048 A 
ATOM      6  O   UNL     1     -17.641  34.026 -10.521  1.00  0.00    -0.467 OA
ENDBRANCH   1   2
BRANCH   1   7
ATOM      7  O   UNL     1     -18.090  34.047 -14.105  1.00  0.00    -0.388 OA
ATOM      8  H   UNL     1     -18.440  34.887 -14.504  1.00  0.00     0.211 HD
ENDBRANCH   1   7
TORSDOF 2
ENDMDL
MODEL 5
REMARK VINA RESULT:    -4.532      1.660      2.733
REMARK INTER + INTRA:          -4.945
REMARK INTER:                  -4.931
REMARK INTRA:                  -0.014
REMARK UNBOUND:                -0.015
REMARK SMILES OCc1ccco1
REMARK SMILES IDX 2 1 3 2 5 3 6 4 4 5 7 6 1 7
REMARK H PARENT 1 8
REMARK Flexibility Score: inf
ROOT
ATOM      1  C   UNL     1     -23.352  25.484  -3.630  1.00  0.00     0.231 C 
ENDROOT
BRANCH   1   2
ATOM      2  C   UNL     1     -22.191  24.926  -4.390  1.00  0.00     0.129 A 
ATOM      3  C   UNL     1     -20.758  24.455  -5.987  1.00  0.00     0.042 A 
ATOM      4  C   UNL     1     -20.465  23.756  -4.832  1.00  0.00     0.195 A 
ATOM      5  C   UNL     1     -21.877  25.209  -5.704  1.00  0.00     0.048 A 
ATOM      6  O   UNL     1     -21.340  24.056  -3.899  1.00  0.00    -0.467 OA
ENDBRANCH   1   2
BRANCH   1   7
ATOM      7  O   UNL     1     -23.542  26.831  -3.961  1.00  0.00    -0.388 OA
ATOM      8  H   UNL     1     -23.355  26.914  -4.933  1.00  0.00     0.211 HD
ENDBRANCH   1   7
TORSDOF 2
ENDMDL
MODEL 6
REMARK VINA RESULT:    -4.451      1.536      3.179
REMARK INTER + INTRA:          -4.856
REMARK INTER:                  -4.835
REMARK INTRA:                  -0.021
REMARK UNBOUND:                -0.015
REMARK SMILES OCc1ccco1
REMARK SMILES IDX 2 1 3 2 5 3 6 4 4 5 7 6 1 7
REMARK H PARENT 1 8
REMARK Flexibility Score: inf
ROOT
ATOM      1  C   UNL     1     -22.741  25.000  -2.734  1.00  0.00     0.231 C 
ENDROOT
BRANCH   1   2
ATOM      2  C   UNL     1     -22.026  24.824  -4.036  1.00  0.00     0.129 A 
ATOM      3  C   UNL     1     -21.458  24.954  -6.154  1.00  0.00     0.042 A 
ATOM      4  C   UNL     1     -20.628  24.090  -5.467  1.00  0.00     0.195 A 
ATOM      5  C   UNL     1     -22.365  25.427  -5.230  1.00  0.00     0.048 A 
ATOM      6  O   UNL     1     -20.995  24.031  -4.207  1.00  0.00    -0.467 OA
ENDBRANCH   1   2
BRANCH   1   7
ATOM      7  O   UNL     1     -22.358  23.997  -1.836  1.00  0.00    -0.388 OA
ATOM      8  H   UNL     1     -22.112  23.204  -2.381  1.00  0.00     0.211 HD
ENDBRANCH   1   7
TORSDOF 2
ENDMDL
MODEL 7
REMARK VINA RESULT:    -4.427      1.482      2.382
REMARK INTER + INTRA:          -4.830
REMARK INTER:                  -4.815
REMARK INTRA:                  -0.015
REMARK UNBOUND:                -0.015
REMARK SMILES OCc1ccco1
REMARK SMILES IDX 2 1 3 2 5 3 6 4 4 5 7 6 1 7
REMARK H PARENT 1 8
REMARK Flexibility Score: inf
ROOT
ATOM      1  C   UNL     1     -20.078  23.564  -5.305  1.00  0.00     0.231 C 
ENDROOT
BRANCH   1   2
ATOM      2  C   UNL     1     -21.214  24.313  -4.684  1.00  0.00     0.129 A 
ATOM      3  C   UNL     1     -22.695  25.071  -3.250  1.00  0.00     0.042 A 
ATOM      4  C   UNL     1     -22.916  25.584  -4.513  1.00  0.00     0.195 A 
ATOM      5  C   UNL     1     -21.596  24.246  -3.359  1.00  0.00     0.048 A 
ATOM      6  O   UNL     1     -22.019  25.110  -5.346  1.00  0.00    -0.467 OA
ENDBRANCH   1   2
BRANCH   1   7
ATOM      7  O   UNL     1     -19.928  22.318  -4.686  1.00  0.00    -0.388 OA
ATOM      8  H   UNL     1     -19.982  21.634  -5.405  1.00  0.00     0.211 HD
ENDBRANCH   1   7
TORSDOF 2
ENDMDL
MODEL 8
REMARK VINA RESULT:    -4.346      1.632      2.110
REMARK INTER + INTRA:          -4.742
REMARK INTER:                  -4.722
REMARK INTRA:                  -0.020
REMARK UNBOUND:                -0.015
REMARK SMILES OCc1ccco1
REMARK SMILES IDX 2 1 3 2 5 3 6 4 4 5 7 6 1 7
REMARK H PARENT 1 8
REMARK Flexibility Score: inf
ROOT
ATOM      1  C   UNL     1     -22.034  25.720  -6.197  1.00  0.00     0.231 C 
ENDROOT
BRANCH   1   2
ATOM      2  C   UNL     1     -21.347  24.646  -5.416  1.00  0.00     0.129 A 
ATOM      3  C   UNL     1     -20.688  23.329  -3.787  1.00  0.00     0.042 A 
ATOM      4  C   UNL     1     -20.012  23.049  -4.958  1.00  0.00     0.195 A 
ATOM      5  C   UNL     1     -21.549  24.364  -4.081  1.00  0.00     0.048 A 
ATOM      6  O   UNL     1     -20.424  23.854  -5.910  1.00  0.00    -0.467 OA
ENDBRANCH   1   2
BRANCH   1   7
ATOM      7  O   UNL     1     -21.937  25.455  -7.569  1.00  0.00    -0.388 OA
ATOM      8  H   UNL     1     -22.594  24.736  -7.767  1.00  0.00     0.211 HD
ENDBRANCH   1   7
TORSDOF 2
ENDMDL
MODEL 9
REMARK VINA RESULT:    -4.248     10.916     12.057
REMARK INTER + INTRA:          -4.636
REMARK INTER:                  -4.624
REMARK INTRA:                  -0.012
REMARK UNBOUND:                -0.015
REMARK SMILES OCc1ccco1
REMARK SMILES IDX 2 1 3 2 5 3 6 4 4 5 7 6 1 7
REMARK H PARENT 1 8
REMARK Flexibility Score: inf
ROOT
ATOM      1  C   UNL     1     -18.464  33.653  -9.781  1.00  0.00     0.231 C 
ENDROOT
BRANCH   1   2
ATOM      2  C   UNL     1     -17.181  33.668 -10.548  1.00  0.00     0.129 A 
ATOM      3  C   UNL     1     -15.680  33.439 -12.136  1.00  0.00     0.042 A 
ATOM      4  C   UNL     1     -15.102  33.889 -10.965  1.00  0.00     0.195 A 
ATOM      5  C   UNL     1     -17.024  33.293 -11.866  1.00  0.00     0.048 A 
ATOM      6  O   UNL     1     -16.022  34.012 -10.036  1.00  0.00    -0.467 OA
ENDBRANCH   1   2
BRANCH   1   7
ATOM      7  O   UNL     1     -19.222  34.790 -10.089  1.00  0.00    -0.388 OA
ATOM      8  H   UNL     1     -18.855  35.534  -9.543  1.00  0.00     0.211 HD
ENDBRANCH   1   7
TORSDOF 2
ENDMDL
