MODEL 1
REMARK VINA RESULT:    -4.310      0.000      0.000
REMARK INTER + INTRA:         -14.689
REMARK INTER:                 -10.861
REMARK INTRA:                  -3.828
REMARK UNBOUND:                -3.828
REMARK SMILES CCCCCCCCCCCCCCCCCCCCCCCCCCCC(=O)[O-]
REMARK SMILES IDX 15 1 16 2 17 3 18 4 19 5 20 6 21 7 22 8 23 9 24 10 25 11
REMARK SMILES IDX 26 12 27 13 28 14 29 15 30 16 14 17 13 18 12 19 11 20 10 21
REMARK SMILES IDX 9 22 8 23 7 24 6 25 5 26 4 27 3 28 2 29 1 30
REMARK H PARENT
REMARK Flexibility Score: inf
ROOT
ATOM      1  C   UNL     1      41.975  20.975 227.075  1.00  0.00     0.000 C 
ENDROOT
BRANCH   1   2
ATOM      2  C   UNL     1      41.458  19.875 226.124  1.00  0.00     0.000 C 
BRANCH   2   3
ATOM      3  C   UNL     1      42.364  19.694 224.891  1.00  0.00     0.000 C 
BRANCH   3   4
ATOM      4  C   UNL     1      41.604  19.919 223.573  1.00  0.00     0.000 C 
BRANCH   4   5
ATOM      5  C   UNL     1      42.122  21.145 222.806  1.00  0.00     0.000 C 
BRANCH   5   6
ATOM      6  C   UNL     1      41.180  22.343 222.974  1.00  0.00     0.000 C 
BRANCH   6   7
ATOM      7  C   UNL     1      41.632  23.232 224.141  1.00  0.00     0.000 C 
BRANCH   7   8
ATOM      8  C   UNL     1      40.691  24.424 224.391  1.00  0.00     0.000 C 
BRANCH   8   9
ATOM      9  C   UNL     1      39.447  24.476 223.481  1.00  0.00     0.000 C 
BRANCH   9  10
ATOM     10  C   UNL     1      38.158  24.982 224.156  1.00  0.00     0.000 C 
BRANCH  10  11
ATOM     11  C   UNL     1      37.009  25.318 223.190  1.00  0.00     0.000 C 
BRANCH  11  12
ATOM     12  C   UNL     1      35.797  24.383 223.353  1.00  0.00     0.006 C 
BRANCH  12  13
ATOM     13  C   UNL     1      35.320  23.815 222.010  1.00  0.00     0.053 C 
BRANCH  13  14
ATOM     14  C   UNL     1      36.353  23.983 220.937  1.00  0.00     0.041 C 
ATOM     15  O   UNL     1      37.363  23.232 220.905  1.00  0.00    -0.550 OA
ATOM     16  O   UNL     1      36.172  24.933 219.938  1.00  0.00    -0.550 OA
ENDBRANCH  13  14
ENDBRANCH  12  13
ENDBRANCH  11  12
ENDBRANCH  10  11
ENDBRANCH   9  10
ENDBRANCH   8   9
ENDBRANCH   7   8
ENDBRANCH   6   7
ENDBRANCH   5   6
ENDBRANCH   4   5
ENDBRANCH   3   4
ENDBRANCH   2   3
ENDBRANCH   1   2
BRANCH   1  17
ATOM     17  C   UNL     1      40.909  22.010 227.471  1.00  0.00     0.000 C 
BRANCH  17  18
ATOM     18  C   UNL     1      39.493  21.415 227.514  1.00  0.00     0.000 C 
BRANCH  18  19
ATOM     19  C   UNL     1      38.512  22.114 226.555  1.00  0.00     0.000 C 
BRANCH  19  20
ATOM     20  C   UNL     1      38.288  21.403 225.203  1.00  0.00     0.000 C 
BRANCH  20  21
ATOM     21  C   UNL     1      37.072  20.455 225.147  1.00  0.00     0.000 C 
BRANCH  21  22
ATOM     22  C   UNL     1      37.316  19.049 225.723  1.00  0.00    -0.000 C 
BRANCH  22  23
ATOM     23  C   UNL     1      36.437  18.746 226.947  1.00  0.00    -0.000 C 
BRANCH  23  24
ATOM     24  C   UNL     1      37.001  17.606 227.811  1.00  0.00    -0.000 C 
BRANCH  24  25
ATOM     25  C   UNL     1      38.538  17.560 227.810  1.00  0.00    -0.000 C 
BRANCH  25  26
ATOM     26  C   UNL     1      39.048  16.180 228.250  1.00  0.00    -0.000 C 
BRANCH  26  27
ATOM     27  C   UNL     1      37.996  15.075 228.072  1.00  0.00    -0.000 C 
BRANCH  27  28
ATOM     28  C   UNL     1      38.589  13.664 228.214  1.00  0.00    -0.000 C 
BRANCH  28  29
ATOM     29  C   UNL     1      40.119  13.702 228.121  1.00  0.00    -0.003 C 
ATOM     30  C   UNL     1      40.760  13.025 229.330  1.00  0.00     0.004 C 
ENDBRANCH  28  29
ENDBRANCH  27  28
ENDBRANCH  26  27
ENDBRANCH  25  26
ENDBRANCH  24  25
ENDBRANCH  23  24
ENDBRANCH  22  23
ENDBRANCH  21  22
ENDBRANCH  20  21
ENDBRANCH  19  20
ENDBRANCH  18  19
ENDBRANCH  17  18
ENDBRANCH   1  17
TORSDOF 26
ENDMDL
MODEL 2
REMARK VINA RESULT:    -4.283      2.934      7.235
REMARK INTER + INTRA:         -14.622
REMARK INTER:                  -9.562
REMARK INTRA:                  -5.060
REMARK UNBOUND:                -3.828
REMARK SMILES CCCCCCCCCCCCCCCCCCCCCCCCCCCC(=O)[O-]
REMARK SMILES IDX 15 1 16 2 17 3 18 4 19 5 20 6 21 7 22 8 23 9 24 10 25 11
REMARK SMILES IDX 26 12 27 13 28 14 29 15 30 16 14 17 13 18 12 19 11 20 10 21
REMARK SMILES IDX 9 22 8 23 7 24 6 25 5 26 4 27 3 28 2 29 1 30
REMARK H PARENT
REMARK Flexibility Score: inf
ROOT
ATOM      1  C   UNL     1      41.989  20.215 225.562  1.00  0.00     0.000 C 
ENDROOT
BRANCH   1   2
ATOM      2  C   UNL     1      40.745  19.621 226.256  1.00  0.00     0.000 C 
BRANCH   2   3
ATOM      3  C   UNL     1      39.446  19.919 225.485  1.00  0.00     0.000 C 
BRANCH   3   4
ATOM      4  C   UNL     1      39.104  21.418 225.478  1.00  0.00     0.000 C 
BRANCH   4   5
ATOM      5  C   UNL     1      38.445  21.869 226.790  1.00  0.00     0.000 C 
BRANCH   5   6
ATOM      6  C   UNL     1      39.350  22.837 227.562  1.00  0.00     0.000 C 
BRANCH   6   7
ATOM      7  C   UNL     1      38.723  24.238 227.620  1.00  0.00     0.000 C 
BRANCH   7   8
ATOM      8  C   UNL     1      37.235  24.250 227.225  1.00  0.00     0.000 C 
BRANCH   8   9
ATOM      9  C   UNL     1      36.896  25.104 225.986  1.00  0.00     0.000 C 
BRANCH   9  10
ATOM     10  C   UNL     1      38.109  25.608 225.181  1.00  0.00     0.000 C 
BRANCH  10  11
ATOM     11  C   UNL     1      37.973  25.481 223.654  1.00  0.00     0.000 C 
BRANCH  11  12
ATOM     12  C   UNL     1      37.661  24.044 223.199  1.00  0.00     0.006 C 
BRANCH  12  13
ATOM     13  C   UNL     1      36.325  23.951 222.450  1.00  0.00     0.053 C 
BRANCH  13  14
ATOM     14  C   UNL     1      36.522  23.911 220.965  1.00  0.00     0.041 C 
ATOM     15  O   UNL     1      35.899  24.712 220.220  1.00  0.00    -0.550 OA
ATOM     16  O   UNL     1      37.436  23.024 220.407  1.00  0.00    -0.550 OA
ENDBRANCH  13  14
ENDBRANCH  12  13
ENDBRANCH  11  12
ENDBRANCH  10  11
ENDBRANCH   9  10
ENDBRANCH   8   9
ENDBRANCH   7   8
ENDBRANCH   6   7
ENDBRANCH   5   6
ENDBRANCH   4   5
ENDBRANCH   3   4
ENDBRANCH   2   3
ENDBRANCH   1   2
BRANCH   1  17
ATOM     17  C   UNL     1      42.538  19.348 224.417  1.00  0.00     0.000 C 
BRANCH  17  18
ATOM     18  C   UNL     1      42.125  19.866 223.031  1.00  0.00     0.000 C 
BRANCH  18  19
ATOM     19  C   UNL     1      42.390  21.371 222.842  1.00  0.00     0.000 C 
BRANCH  19  20
ATOM     20  C   UNL     1      41.131  22.263 222.792  1.00  0.00     0.000 C 
BRANCH  20  21
ATOM     21  C   UNL     1      41.280  23.655 223.441  1.00  0.00     0.000 C 
BRANCH  21  22
ATOM     22  C   UNL     1      41.958  23.659 224.823  1.00  0.00    -0.000 C 
BRANCH  22  23
ATOM     23  C   UNL     1      41.690  24.949 225.615  1.00  0.00    -0.000 C 
BRANCH  23  24
ATOM     24  C   UNL     1      42.324  24.924 227.015  1.00  0.00    -0.000 C 
BRANCH  24  25
ATOM     25  C   UNL     1      42.978  26.262 227.398  1.00  0.00    -0.000 C 
BRANCH  25  26
ATOM     26  C   UNL     1      42.791  27.305 226.287  1.00  0.00    -0.000 C 
BRANCH  26  27
ATOM     27  C   UNL     1      41.995  28.534 226.754  1.00  0.00    -0.000 C 
BRANCH  27  28
ATOM     28  C   UNL     1      40.507  28.454 226.380  1.00  0.00    -0.000 C 
BRANCH  28  29
ATOM     29  C   UNL     1      39.684  27.870 227.534  1.00  0.00    -0.003 C 
ATOM     30  C   UNL     1      40.131  28.446 228.876  1.00  0.00     0.004 C 
ENDBRANCH  28  29
ENDBRANCH  27  28
ENDBRANCH  26  27
ENDBRANCH  25  26
ENDBRANCH  24  25
ENDBRANCH  23  24
ENDBRANCH  22  23
ENDBRANCH  21  22
ENDBRANCH  20  21
ENDBRANCH  19  20
ENDBRANCH  18  19
ENDBRANCH  17  18
ENDBRANCH   1  17
TORSDOF 26
ENDMDL
MODEL 3
REMARK VINA RESULT:    -4.197      1.524      3.472
REMARK INTER + INTRA:         -14.405
REMARK INTER:                  -9.880
REMARK INTRA:                  -4.525
REMARK UNBOUND:                -3.828
REMARK SMILES CCCCCCCCCCCCCCCCCCCCCCCCCCCC(=O)[O-]
REMARK SMILES IDX 15 1 16 2 17 3 18 4 19 5 20 6 21 7 22 8 23 9 24 10 25 11
REMARK SMILES IDX 26 12 27 13 28 14 29 15 30 16 14 17 13 18 12 19 11 20 10 21
REMARK SMILES IDX 9 22 8 23 7 24 6 25 5 26 4 27 3 28 2 29 1 30
REMARK H PARENT
REMARK Flexibility Score: inf
ROOT
ATOM      1  C   UNL     1      40.494  21.992 223.560  1.00  0.00     0.000 C 
ENDROOT
BRANCH   1   2
ATOM      2  C   UNL     1      41.058  23.405 223.298  1.00  0.00     0.000 C 
BRANCH   2   3
ATOM      3  C   UNL     1      41.521  24.099 224.592  1.00  0.00     0.000 C 
BRANCH   3   4
ATOM      4  C   UNL     1      40.350  24.394 225.545  1.00  0.00     0.000 C 
BRANCH   4   5
ATOM      5  C   UNL     1      39.784  25.808 225.347  1.00  0.00     0.000 C 
BRANCH   5   6
ATOM      6  C   UNL     1      38.913  26.229 226.538  1.00  0.00     0.000 C 
BRANCH   6   7
ATOM      7  C   UNL     1      38.405  24.997 227.302  1.00  0.00     0.000 C 
BRANCH   7   8
ATOM      8  C   UNL     1      37.040  24.496 226.797  1.00  0.00     0.000 C 
BRANCH   8   9
ATOM      9  C   UNL     1      36.282  25.478 225.881  1.00  0.00     0.000 C 
BRANCH   9  10
ATOM     10  C   UNL     1      36.128  25.026 224.415  1.00  0.00     0.000 C 
BRANCH  10  11
ATOM     11  C   UNL     1      36.697  23.631 224.104  1.00  0.00     0.000 C 
BRANCH  11  12
ATOM     12  C   UNL     1      36.962  23.413 222.604  1.00  0.00     0.006 C 
BRANCH  12  13
ATOM     13  C   UNL     1      36.381  24.543 221.744  1.00  0.00     0.053 C 
BRANCH  13  14
ATOM     14  C   UNL     1      35.280  24.052 220.852  1.00  0.00     0.041 C 
ATOM     15  O   UNL     1      35.474  23.928 219.615  1.00  0.00    -0.550 OA
ATOM     16  O   UNL     1      34.057  23.679 221.397  1.00  0.00    -0.550 OA
ENDBRANCH  13  14
ENDBRANCH  12  13
ENDBRANCH  11  12
ENDBRANCH  10  11
ENDBRANCH   9  10
ENDBRANCH   8   9
ENDBRANCH   7   8
ENDBRANCH   6   7
ENDBRANCH   5   6
ENDBRANCH   4   5
ENDBRANCH   3   4
ENDBRANCH   2   3
ENDBRANCH   1   2
BRANCH   1  17
ATOM     17  C   UNL     1      41.572  20.903 223.681  1.00  0.00     0.000 C 
BRANCH  17  18
ATOM     18  C   UNL     1      41.237  19.853 224.751  1.00  0.00     0.000 C 
BRANCH  18  19
ATOM     19  C   UNL     1      41.625  20.293 226.175  1.00  0.00     0.000 C 
BRANCH  19  20
ATOM     20  C   UNL     1      40.480  20.270 227.209  1.00  0.00     0.000 C 
BRANCH  20  21
ATOM     21  C   UNL     1      39.455  21.418 227.087  1.00  0.00     0.000 C 
BRANCH  21  22
ATOM     22  C   UNL     1      37.995  20.969 226.903  1.00  0.00    -0.000 C 
BRANCH  22  23
ATOM     23  C   UNL     1      37.743  20.301 225.542  1.00  0.00    -0.000 C 
BRANCH  23  24
ATOM     24  C   UNL     1      36.739  19.141 225.630  1.00  0.00    -0.000 C 
BRANCH  24  25
ATOM     25  C   UNL     1      36.309  18.831 227.074  1.00  0.00    -0.000 C 
BRANCH  25  26
ATOM     26  C   UNL     1      36.963  17.536 227.577  1.00  0.00    -0.000 C 
BRANCH  26  27
ATOM     27  C   UNL     1      37.978  17.784 228.704  1.00  0.00    -0.000 C 
BRANCH  27  28
ATOM     28  C   UNL     1      39.343  17.135 228.425  1.00  0.00    -0.000 C 
BRANCH  28  29
ATOM     29  C   UNL     1      39.173  15.796 227.698  1.00  0.00    -0.003 C 
ATOM     30  C   UNL     1      39.389  14.622 228.650  1.00  0.00     0.004 C 
ENDBRANCH  28  29
ENDBRANCH  27  28
ENDBRANCH  26  27
ENDBRANCH  25  26
ENDBRANCH  24  25
ENDBRANCH  23  24
ENDBRANCH  22  23
ENDBRANCH  21  22
ENDBRANCH  20  21
ENDBRANCH  19  20
ENDBRANCH  18  19
ENDBRANCH  17  18
ENDBRANCH   1  17
TORSDOF 26
ENDMDL
MODEL 4
REMARK VINA RESULT:    -4.172      1.619      2.281
REMARK INTER + INTRA:         -14.342
REMARK INTER:                  -9.410
REMARK INTRA:                  -4.932
REMARK UNBOUND:                -3.828
REMARK SMILES CCCCCCCCCCCCCCCCCCCCCCCCCCCC(=O)[O-]
REMARK SMILES IDX 15 1 16 2 17 3 18 4 19 5 20 6 21 7 22 8 23 9 24 10 25 11
REMARK SMILES IDX 26 12 27 13 28 14 29 15 30 16 14 17 13 18 12 19 11 20 10 21
REMARK SMILES IDX 9 22 8 23 7 24 6 25 5 26 4 27 3 28 2 29 1 30
REMARK H PARENT
REMARK Flexibility Score: inf
ROOT
ATOM      1  C   UNL     1      41.785  20.770 227.304  1.00  0.00     0.000 C 
ENDROOT
BRANCH   1   2
ATOM      2  C   UNL     1      41.310  19.719 226.278  1.00  0.00     0.000 C 
BRANCH   2   3
ATOM      3  C   UNL     1      42.295  19.562 225.103  1.00  0.00     0.000 C 
BRANCH   3   4
ATOM      4  C   UNL     1      41.622  19.815 223.744  1.00  0.00     0.000 C 
BRANCH   4   5
ATOM      5  C   UNL     1      42.180  21.064 223.044  1.00  0.00     0.000 C 
BRANCH   5   6
ATOM      6  C   UNL     1      41.288  22.286 223.294  1.00  0.00     0.000 C 
BRANCH   6   7
ATOM      7  C   UNL     1      41.873  23.168 224.406  1.00  0.00     0.000 C 
BRANCH   7   8
ATOM      8  C   UNL     1      41.078  24.468 224.625  1.00  0.00     0.000 C 
BRANCH   8   9
ATOM      9  C   UNL     1      39.759  24.568 223.832  1.00  0.00     0.000 C 
BRANCH   9  10
ATOM     10  C   UNL     1      38.591  25.240 224.580  1.00  0.00     0.000 C 
BRANCH  10  11
ATOM     11  C   UNL     1      37.399  25.641 223.695  1.00  0.00     0.000 C 
BRANCH  11  12
ATOM     12  C   UNL     1      36.080  24.978 224.130  1.00  0.00     0.006 C 
BRANCH  12  13
ATOM     13  C   UNL     1      35.458  24.137 223.009  1.00  0.00     0.053 C 
BRANCH  13  14
ATOM     14  C   UNL     1      36.425  23.902 221.888  1.00  0.00     0.041 C 
ATOM     15  O   UNL     1      37.309  23.011 221.988  1.00  0.00    -0.550 OA
ATOM     16  O   UNL     1      36.314  24.631 220.709  1.00  0.00    -0.550 OA
ENDBRANCH  13  14
ENDBRANCH  12  13
ENDBRANCH  11  12
ENDBRANCH  10  11
ENDBRANCH   9  10
ENDBRANCH   8   9
ENDBRANCH   7   8
ENDBRANCH   6   7
ENDBRANCH   5   6
ENDBRANCH   4   5
ENDBRANCH   3   4
ENDBRANCH   2   3
ENDBRANCH   1   2
BRANCH   1  17
ATOM     17  C   UNL     1      40.738  21.852 227.617  1.00  0.00     0.000 C 
BRANCH  17  18
ATOM     18  C   UNL     1      39.297  21.342 227.475  1.00  0.00     0.000 C 
BRANCH  18  19
ATOM     19  C   UNL     1      38.480  22.114 226.422  1.00  0.00     0.000 C 
BRANCH  19  20
ATOM     20  C   UNL     1      38.209  21.353 225.107  1.00  0.00     0.000 C 
BRANCH  20  21
ATOM     21  C   UNL     1      36.760  20.857 224.917  1.00  0.00     0.000 C 
BRANCH  21  22
ATOM     22  C   UNL     1      36.533  19.371 225.250  1.00  0.00    -0.000 C 
BRANCH  22  23
ATOM     23  C   UNL     1      36.182  19.138 226.728  1.00  0.00    -0.000 C 
BRANCH  23  24
ATOM     24  C   UNL     1      36.734  17.807 227.263  1.00  0.00    -0.000 C 
BRANCH  24  25
ATOM     25  C   UNL     1      38.263  17.813 227.418  1.00  0.00    -0.000 C 
BRANCH  25  26
ATOM     26  C   UNL     1      38.667  17.792 228.900  1.00  0.00    -0.000 C 
BRANCH  26  27
ATOM     27  C   UNL     1      40.190  17.820 229.100  1.00  0.00    -0.000 C 
BRANCH  27  28
ATOM     28  C   UNL     1      40.610  18.613 230.347  1.00  0.00    -0.000 C 
BRANCH  28  29
ATOM     29  C   UNL     1      39.590  19.713 230.664  1.00  0.00    -0.003 C 
ATOM     30  C   UNL     1      39.136  19.638 232.120  1.00  0.00     0.004 C 
ENDBRANCH  28  29
ENDBRANCH  27  28
ENDBRANCH  26  27
ENDBRANCH  25  26
ENDBRANCH  24  25
ENDBRANCH  23  24
ENDBRANCH  22  23
ENDBRANCH  21  22
ENDBRANCH  20  21
ENDBRANCH  19  20
ENDBRANCH  18  19
ENDBRANCH  17  18
ENDBRANCH   1  17
TORSDOF 26
ENDMDL
MODEL 5
REMARK VINA RESULT:    -4.156      2.119      5.483
REMARK INTER + INTRA:         -14.301
REMARK INTER:                  -7.800
REMARK INTRA:                  -6.500
REMARK UNBOUND:                -3.828
REMARK SMILES CCCCCCCCCCCCCCCCCCCCCCCCCCCC(=O)[O-]
REMARK SMILES IDX 15 1 16 2 17 3 18 4 19 5 20 6 21 7 22 8 23 9 24 10 25 11
REMARK SMILES IDX 26 12 27 13 28 14 29 15 30 16 14 17 13 18 12 19 11 20 10 21
REMARK SMILES IDX 9 22 8 23 7 24 6 25 5 26 4 27 3 28 2 29 1 30
REMARK H PARENT
REMARK Flexibility Score: inf
ROOT
ATOM      1  C   UNL     1      36.725  17.870 227.117  1.00  0.00     0.000 C 
ENDROOT
BRANCH   1   2
ATOM      2  C   UNL     1      38.073  17.370 227.678  1.00  0.00     0.000 C 
BRANCH   2   3
ATOM      3  C   UNL     1      38.957  18.522 228.192  1.00  0.00     0.000 C 
BRANCH   3   4
ATOM      4  C   UNL     1      40.190  18.751 227.301  1.00  0.00     0.000 C 
BRANCH   4   5
ATOM      5  C   UNL     1      40.067  18.037 225.947  1.00  0.00     0.000 C 
BRANCH   5   6
ATOM      6  C   UNL     1      40.874  18.761 224.862  1.00  0.00     0.000 C 
BRANCH   6   7
ATOM      7  C   UNL     1      41.912  19.701 225.493  1.00  0.00     0.000 C 
BRANCH   7   8
ATOM      8  C   UNL     1      42.302  20.872 224.572  1.00  0.00     0.000 C 
BRANCH   8   9
ATOM      9  C   UNL     1      41.740  20.790 223.138  1.00  0.00     0.000 C 
BRANCH   9  10
ATOM     10  C   UNL     1      40.856  21.977 222.709  1.00  0.00     0.000 C 
BRANCH  10  11
ATOM     11  C   UNL     1      41.287  23.343 223.270  1.00  0.00     0.000 C 
BRANCH  11  12
ATOM     12  C   UNL     1      40.134  24.361 223.318  1.00  0.00     0.006 C 
BRANCH  12  13
ATOM     13  C   UNL     1      38.790  23.732 222.931  1.00  0.00     0.053 C 
BRANCH  13  14
ATOM     14  C   UNL     1      37.635  24.472 223.536  1.00  0.00     0.041 C 
ATOM     15  O   UNL     1      37.729  25.703 223.782  1.00  0.00    -0.550 OA
ATOM     16  O   UNL     1      36.434  23.813 223.775  1.00  0.00    -0.550 OA
ENDBRANCH  13  14
ENDBRANCH  12  13
ENDBRANCH  11  12
ENDBRANCH  10  11
ENDBRANCH   9  10
ENDBRANCH   8   9
ENDBRANCH   7   8
ENDBRANCH   6   7
ENDBRANCH   5   6
ENDBRANCH   4   5
ENDBRANCH   3   4
ENDBRANCH   2   3
ENDBRANCH   1   2
BRANCH   1  17
ATOM     17  C   UNL     1      36.639  19.398 226.969  1.00  0.00     0.000 C 
BRANCH  17  18
ATOM     18  C   UNL     1      36.736  19.859 225.507  1.00  0.00     0.000 C 
BRANCH  18  19
ATOM     19  C   UNL     1      37.856  20.889 225.268  1.00  0.00     0.000 C 
BRANCH  19  20
ATOM     20  C   UNL     1      38.132  21.850 226.443  1.00  0.00     0.000 C 
BRANCH  20  21
ATOM     21  C   UNL     1      39.530  22.503 226.450  1.00  0.00     0.000 C 
BRANCH  21  22
ATOM     22  C   UNL     1      39.567  23.956 226.957  1.00  0.00    -0.000 C 
BRANCH  22  23
ATOM     23  C   UNL     1      40.993  24.446 227.256  1.00  0.00    -0.000 C 
BRANCH  23  24
ATOM     24  C   UNL     1      42.065  23.411 226.880  1.00  0.00    -0.000 C 
BRANCH  24  25
ATOM     25  C   UNL     1      42.845  22.888 228.097  1.00  0.00    -0.000 C 
BRANCH  25  26
ATOM     26  C   UNL     1      42.223  21.591 228.634  1.00  0.00    -0.000 C 
BRANCH  26  27
ATOM     27  C   UNL     1      41.807  21.699 230.109  1.00  0.00    -0.000 C 
BRANCH  27  28
ATOM     28  C   UNL     1      40.533  22.535 230.306  1.00  0.00    -0.000 C 
BRANCH  28  29
ATOM     29  C   UNL     1      39.280  21.696 230.029  1.00  0.00    -0.003 C 
ATOM     30  C   UNL     1      38.010  22.477 230.358  1.00  0.00     0.004 C 
ENDBRANCH  28  29
ENDBRANCH  27  28
ENDBRANCH  26  27
ENDBRANCH  25  26
ENDBRANCH  24  25
ENDBRANCH  23  24
ENDBRANCH  22  23
ENDBRANCH  21  22
ENDBRANCH  20  21
ENDBRANCH  19  20
ENDBRANCH  18  19
ENDBRANCH  17  18
ENDBRANCH   1  17
TORSDOF 26
ENDMDL
MODEL 6
REMARK VINA RESULT:    -4.146      3.331      8.162
REMARK INTER + INTRA:         -14.276
REMARK INTER:                  -9.398
REMARK INTRA:                  -4.878
REMARK UNBOUND:                -3.828
REMARK SMILES CCCCCCCCCCCCCCCCCCCCCCCCCCCC(=O)[O-]
REMARK SMILES IDX 15 1 16 2 17 3 18 4 19 5 20 6 21 7 22 8 23 9 24 10 25 11
REMARK SMILES IDX 26 12 27 13 28 14 29 15 30 16 14 17 13 18 12 19 11 20 10 21
REMARK SMILES IDX 9 22 8 23 7 24 6 25 5 26 4 27 3 28 2 29 1 30
REMARK H PARENT
REMARK Flexibility Score: inf
ROOT
ATOM      1  C   UNL     1      40.952  19.679 225.016  1.00  0.00     0.000 C 
ENDROOT
BRANCH   1   2
ATOM      2  C   UNL     1      41.823  20.256 226.153  1.00  0.00     0.000 C 
BRANCH   2   3
ATOM      3  C   UNL     1      41.268  19.913 227.548  1.00  0.00     0.000 C 
BRANCH   3   4
ATOM      4  C   UNL     1      41.240  21.136 228.479  1.00  0.00     0.000 C 
BRANCH   4   5
ATOM      5  C   UNL     1      39.883  21.302 229.179  1.00  0.00     0.000 C 
BRANCH   5   6
ATOM      6  C   UNL     1      38.846  20.321 228.618  1.00  0.00     0.000 C 
BRANCH   6   7
ATOM      7  C   UNL     1      37.710  21.075 227.911  1.00  0.00     0.000 C 
BRANCH   7   8
ATOM      8  C   UNL     1      37.500  20.622 226.455  1.00  0.00     0.000 C 
BRANCH   8   9
ATOM      9  C   UNL     1      36.576  19.400 226.278  1.00  0.00     0.000 C 
BRANCH   9  10
ATOM     10  C   UNL     1      37.291  18.036 226.229  1.00  0.00     0.000 C 
BRANCH  10  11
ATOM     11  C   UNL     1      37.102  17.159 227.479  1.00  0.00     0.000 C 
BRANCH  11  12
ATOM     12  C   UNL     1      38.429  16.823 228.181  1.00  0.00     0.006 C 
BRANCH  12  13
ATOM     13  C   UNL     1      39.598  16.724 227.193  1.00  0.00     0.053 C 
BRANCH  13  14
ATOM     14  C   UNL     1      40.312  15.410 227.306  1.00  0.00     0.041 C 
ATOM     15  O   UNL     1      40.194  14.712 228.347  1.00  0.00    -0.550 OA
ATOM     16  O   UNL     1      41.062  14.931 226.238  1.00  0.00    -0.550 OA
ENDBRANCH  13  14
ENDBRANCH  12  13
ENDBRANCH  11  12
ENDBRANCH  10  11
ENDBRANCH   9  10
ENDBRANCH   8   9
ENDBRANCH   7   8
ENDBRANCH   6   7
ENDBRANCH   5   6
ENDBRANCH   4   5
ENDBRANCH   3   4
ENDBRANCH   2   3
ENDBRANCH   1   2
BRANCH   1  17
ATOM     17  C   UNL     1      41.567  19.838 223.617  1.00  0.00     0.000 C 
BRANCH  17  18
ATOM     18  C   UNL     1      42.191  21.225 223.398  1.00  0.00     0.000 C 
BRANCH  18  19
ATOM     19  C   UNL     1      41.213  22.240 222.779  1.00  0.00     0.000 C 
BRANCH  19  20
ATOM     20  C   UNL     1      41.203  23.636 223.437  1.00  0.00     0.000 C 
BRANCH  20  21
ATOM     21  C   UNL     1      41.971  23.743 224.771  1.00  0.00     0.000 C 
BRANCH  21  22
ATOM     22  C   UNL     1      41.092  23.997 226.009  1.00  0.00    -0.000 C 
BRANCH  22  23
ATOM     23  C   UNL     1      39.741  23.266 225.941  1.00  0.00    -0.000 C 
BRANCH  23  24
ATOM     24  C   UNL     1      38.548  24.207 226.173  1.00  0.00    -0.000 C 
BRANCH  24  25
ATOM     25  C   UNL     1      38.955  25.689 226.210  1.00  0.00    -0.000 C 
BRANCH  25  26
ATOM     26  C   UNL     1      38.702  26.363 224.853  1.00  0.00    -0.000 C 
BRANCH  26  27
ATOM     27  C   UNL     1      38.071  25.411 223.826  1.00  0.00    -0.000 C 
BRANCH  27  28
ATOM     28  C   UNL     1      36.536  25.463 223.833  1.00  0.00    -0.000 C 
BRANCH  28  29
ATOM     29  C   UNL     1      35.941  24.105 223.445  1.00  0.00    -0.003 C 
ATOM     30  C   UNL     1      37.015  23.172 222.891  1.00  0.00     0.004 C 
ENDBRANCH  28  29
ENDBRANCH  27  28
ENDBRANCH  26  27
ENDBRANCH  25  26
ENDBRANCH  24  25
ENDBRANCH  23  24
ENDBRANCH  22  23
ENDBRANCH  21  22
ENDBRANCH  20  21
ENDBRANCH  19  20
ENDBRANCH  18  19
ENDBRANCH  17  18
ENDBRANCH   1  17
TORSDOF 26
ENDMDL
MODEL 7
REMARK VINA RESULT:    -4.134      3.767      8.694
REMARK INTER + INTRA:         -14.246
REMARK INTER:                  -9.630
REMARK INTRA:                  -4.616
REMARK UNBOUND:                -3.828
REMARK SMILES CCCCCCCCCCCCCCCCCCCCCCCCCCCC(=O)[O-]
REMARK SMILES IDX 15 1 16 2 17 3 18 4 19 5 20 6 21 7 22 8 23 9 24 10 25 11
REMARK SMILES IDX 26 12 27 13 28 14 29 15 30 16 14 17 13 18 12 19 11 20 10 21
REMARK SMILES IDX 9 22 8 23 7 24 6 25 5 26 4 27 3 28 2 29 1 30
REMARK H PARENT
REMARK Flexibility Score: inf
ROOT
ATOM      1  C   UNL     1      42.534  19.621 224.462  1.00  0.00     0.000 C 
ENDROOT
BRANCH   1   2
ATOM      2  C   UNL     1      41.566  19.397 225.644  1.00  0.00     0.000 C 
BRANCH   2   3
ATOM      3  C   UNL     1      40.250  18.730 225.204  1.00  0.00     0.000 C 
BRANCH   3   4
ATOM      4  C   UNL     1      39.032  19.297 225.952  1.00  0.00     0.000 C 
BRANCH   4   5
ATOM      5  C   UNL     1      39.406  20.486 226.851  1.00  0.00     0.000 C 
BRANCH   5   6
ATOM      6  C   UNL     1      38.590  20.478 228.149  1.00  0.00     0.000 C 
BRANCH   6   7
ATOM      7  C   UNL     1      39.484  20.797 229.356  1.00  0.00     0.000 C 
BRANCH   7   8
ATOM      8  C   UNL     1      39.824  19.555 230.199  1.00  0.00     0.000 C 
BRANCH   8   9
ATOM      9  C   UNL     1      39.131  18.253 229.751  1.00  0.00     0.000 C 
BRANCH   9  10
ATOM     10  C   UNL     1      40.047  17.016 229.664  1.00  0.00     0.000 C 
BRANCH  10  11
ATOM     11  C   UNL     1      40.779  16.844 228.322  1.00  0.00     0.000 C 
BRANCH  11  12
ATOM     12  C   UNL     1      40.154  15.752 227.435  1.00  0.00     0.006 C 
BRANCH  12  13
ATOM     13  C   UNL     1      40.337  14.350 228.031  1.00  0.00     0.053 C 
BRANCH  13  14
ATOM     14  C   UNL     1      39.026  13.640 228.194  1.00  0.00     0.041 C 
ATOM     15  O   UNL     1      37.955  14.297 228.274  1.00  0.00    -0.550 OA
ATOM     16  O   UNL     1      38.983  12.251 228.201  1.00  0.00    -0.550 OA
ENDBRANCH  13  14
ENDBRANCH  12  13
ENDBRANCH  11  12
ENDBRANCH  10  11
ENDBRANCH   9  10
ENDBRANCH   8   9
ENDBRANCH   7   8
ENDBRANCH   6   7
ENDBRANCH   5   6
ENDBRANCH   4   5
ENDBRANCH   3   4
ENDBRANCH   2   3
ENDBRANCH   1   2
BRANCH   1  17
ATOM     17  C   UNL     1      41.862  19.543 223.082  1.00  0.00     0.000 C 
BRANCH  17  18
ATOM     18  C   UNL     1      42.056  20.822 222.254  1.00  0.00     0.000 C 
BRANCH  18  19
ATOM     19  C   UNL     1      42.001  22.107 223.101  1.00  0.00     0.000 C 
BRANCH  19  20
ATOM     20  C   UNL     1      40.681  22.902 223.011  1.00  0.00     0.000 C 
BRANCH  20  21
ATOM     21  C   UNL     1      39.588  22.486 224.017  1.00  0.00     0.000 C 
BRANCH  21  22
ATOM     22  C   UNL     1      38.812  23.652 224.654  1.00  0.00    -0.000 C 
BRANCH  22  23
ATOM     23  C   UNL     1      38.607  24.831 223.689  1.00  0.00    -0.000 C 
BRANCH  23  24
ATOM     24  C   UNL     1      38.249  26.135 224.418  1.00  0.00    -0.000 C 
BRANCH  24  25
ATOM     25  C   UNL     1      38.755  26.167 225.869  1.00  0.00    -0.000 C 
BRANCH  25  26
ATOM     26  C   UNL     1      39.864  27.216 226.042  1.00  0.00    -0.000 C 
BRANCH  26  27
ATOM     27  C   UNL     1      41.086  26.668 226.796  1.00  0.00    -0.000 C 
BRANCH  27  28
ATOM     28  C   UNL     1      41.628  25.369 226.181  1.00  0.00    -0.000 C 
BRANCH  28  29
ATOM     29  C   UNL     1      41.693  24.253 227.231  1.00  0.00    -0.003 C 
ATOM     30  C   UNL     1      42.183  22.945 226.614  1.00  0.00     0.004 C 
ENDBRANCH  28  29
ENDBRANCH  27  28
ENDBRANCH  26  27
ENDBRANCH  25  26
ENDBRANCH  24  25
ENDBRANCH  23  24
ENDBRANCH  22  23
ENDBRANCH  21  22
ENDBRANCH  20  21
ENDBRANCH  19  20
ENDBRANCH  18  19
ENDBRANCH  17  18
ENDBRANCH   1  17
TORSDOF 26
ENDMDL
MODEL 8
REMARK VINA RESULT:    -4.095      3.542      5.758
REMARK INTER + INTRA:         -14.146
REMARK INTER:                  -8.876
REMARK INTRA:                  -5.270
REMARK UNBOUND:                -3.828
REMARK SMILES CCCCCCCCCCCCCCCCCCCCCCCCCCCC(=O)[O-]
REMARK SMILES IDX 15 1 16 2 17 3 18 4 19 5 20 6 21 7 22 8 23 9 24 10 25 11
REMARK SMILES IDX 26 12 27 13 28 14 29 15 30 16 14 17 13 18 12 19 11 20 10 21
REMARK SMILES IDX 9 22 8 23 7 24 6 25 5 26 4 27 3 28 2 29 1 30
REMARK H PARENT
REMARK Flexibility Score: inf
ROOT
ATOM      1  C   UNL     1      38.938  22.327 224.807  1.00  0.00     0.000 C 
ENDROOT
BRANCH   1   2
ATOM      2  C   UNL     1      37.453  22.331 224.386  1.00  0.00     0.000 C 
BRANCH   2   3
ATOM      3  C   UNL     1      37.158  23.370 223.288  1.00  0.00     0.000 C 
BRANCH   3   4
ATOM      4  C   UNL     1      36.092  24.390 223.724  1.00  0.00     0.000 C 
BRANCH   4   5
ATOM      5  C   UNL     1      36.653  25.435 224.700  1.00  0.00     0.000 C 
BRANCH   5   6
ATOM      6  C   UNL     1      37.941  26.066 224.158  1.00  0.00     0.000 C 
BRANCH   6   7
ATOM      7  C   UNL     1      38.989  26.207 225.272  1.00  0.00     0.000 C 
BRANCH   7   8
ATOM      8  C   UNL     1      38.488  25.703 226.637  1.00  0.00     0.000 C 
BRANCH   8   9
ATOM      9  C   UNL     1      39.533  24.938 227.474  1.00  0.00     0.000 C 
BRANCH   9  10
ATOM     10  C   UNL     1      38.967  23.823 228.374  1.00  0.00     0.000 C 
BRANCH  10  11
ATOM     11  C   UNL     1      37.550  23.350 228.006  1.00  0.00     0.000 C 
BRANCH  11  12
ATOM     12  C   UNL     1      36.529  23.584 229.134  1.00  0.00     0.006 C 
BRANCH  12  13
ATOM     13  C   UNL     1      35.609  24.776 228.843  1.00  0.00     0.053 C 
BRANCH  13  14
ATOM     14  C   UNL     1      34.556  24.937 229.897  1.00  0.00     0.041 C 
ATOM     15  O   UNL     1      34.743  25.716 230.868  1.00  0.00    -0.550 OA
ATOM     16  O   UNL     1      33.343  24.267 229.777  1.00  0.00    -0.550 OA
ENDBRANCH  13  14
ENDBRANCH  12  13
ENDBRANCH  11  12
ENDBRANCH  10  11
ENDBRANCH   9  10
ENDBRANCH   8   9
ENDBRANCH   7   8
ENDBRANCH   6   7
ENDBRANCH   5   6
ENDBRANCH   4   5
ENDBRANCH   3   4
ENDBRANCH   2   3
ENDBRANCH   1   2
BRANCH   1  17
ATOM     17  C   UNL     1      39.891  22.881 223.736  1.00  0.00     0.000 C 
BRANCH  17  18
ATOM     18  C   UNL     1      41.370  22.723 224.119  1.00  0.00     0.000 C 
BRANCH  18  19
ATOM     19  C   UNL     1      41.603  22.691 225.640  1.00  0.00     0.000 C 
BRANCH  19  20
ATOM     20  C   UNL     1      41.942  21.306 226.229  1.00  0.00     0.000 C 
BRANCH  20  21
ATOM     21  C   UNL     1      42.273  20.210 225.194  1.00  0.00     0.000 C 
BRANCH  21  22
ATOM     22  C   UNL     1      41.597  18.851 225.448  1.00  0.00    -0.000 C 
BRANCH  22  23
ATOM     23  C   UNL     1      40.072  18.897 225.251  1.00  0.00    -0.000 C 
BRANCH  23  24
ATOM     24  C   UNL     1      39.334  17.865 226.118  1.00  0.00    -0.000 C 
BRANCH  24  25
ATOM     25  C   UNL     1      38.150  18.470 226.890  1.00  0.00    -0.000 C 
BRANCH  25  26
ATOM     26  C   UNL     1      38.466  19.902 227.349  1.00  0.00    -0.000 C 
BRANCH  26  27
ATOM     27  C   UNL     1      39.084  19.951 228.755  1.00  0.00    -0.000 C 
BRANCH  27  28
ATOM     28  C   UNL     1      38.637  18.777 229.640  1.00  0.00    -0.000 C 
BRANCH  28  29
ATOM     29  C   UNL     1      38.679  19.164 231.123  1.00  0.00    -0.003 C 
ATOM     30  C   UNL     1      38.642  20.680 231.297  1.00  0.00     0.004 C 
ENDBRANCH  28  29
ENDBRANCH  27  28
ENDBRANCH  26  27
ENDBRANCH  25  26
ENDBRANCH  24  25
ENDBRANCH  23  24
ENDBRANCH  22  23
ENDBRANCH  21  22
ENDBRANCH  20  21
ENDBRANCH  19  20
ENDBRANCH  18  19
ENDBRANCH  17  18
ENDBRANCH   1  17
TORSDOF 26
ENDMDL
MODEL 9
REMARK VINA RESULT:    -4.076      2.469      5.053
REMARK INTER + INTRA:         -14.100
REMARK INTER:                  -8.975
REMARK INTRA:                  -5.125
REMARK UNBOUND:                -3.828
REMARK SMILES CCCCCCCCCCCCCCCCCCCCCCCCCCCC(=O)[O-]
REMARK SMILES IDX 15 1 16 2 17 3 18 4 19 5 20 6 21 7 22 8 23 9 24 10 25 11
REMARK SMILES IDX 26 12 27 13 28 14 29 15 30 16 14 17 13 18 12 19 11 20 10 21
REMARK SMILES IDX 9 22 8 23 7 24 6 25 5 26 4 27 3 28 2 29 1 30
REMARK H PARENT
REMARK Flexibility Score: inf
ROOT
ATOM      1  C   UNL     1      38.422  25.884 225.424  1.00  0.00     0.000 C 
ENDROOT
BRANCH   1   2
ATOM      2  C   UNL     1      37.427  25.910 224.244  1.00  0.00     0.000 C 
BRANCH   2   3
ATOM      3  C   UNL     1      36.457  24.713 224.269  1.00  0.00     0.000 C 
BRANCH   3   4
ATOM      4  C   UNL     1      37.143  23.401 223.854  1.00  0.00     0.000 C 
BRANCH   4   5
ATOM      5  C   UNL     1      38.032  23.578 222.614  1.00  0.00     0.000 C 
BRANCH   5   6
ATOM      6  C   UNL     1      39.408  22.933 222.820  1.00  0.00     0.000 C 
BRANCH   6   7
ATOM      7  C   UNL     1      40.494  24.007 222.980  1.00  0.00     0.000 C 
BRANCH   7   8
ATOM      8  C   UNL     1      41.368  23.798 224.229  1.00  0.00     0.000 C 
BRANCH   8   9
ATOM      9  C   UNL     1      40.795  22.815 225.270  1.00  0.00     0.000 C 
BRANCH   9  10
ATOM     10  C   UNL     1      41.798  21.783 225.823  1.00  0.00     0.000 C 
BRANCH  10  11
ATOM     11  C   UNL     1      41.298  20.328 225.819  1.00  0.00     0.000 C 
BRANCH  11  12
ATOM     12  C   UNL     1      41.284  19.704 224.412  1.00  0.00     0.006 C 
BRANCH  12  13
ATOM     13  C   UNL     1      42.698  19.521 223.846  1.00  0.00     0.053 C 
BRANCH  13  14
ATOM     14  C   UNL     1      42.886  20.276 222.564  1.00  0.00     0.041 C 
ATOM     15  O   UNL     1      44.042  20.582 222.172  1.00  0.00    -0.550 OA
ATOM     16  O   UNL     1      41.786  20.592 221.774  1.00  0.00    -0.550 OA
ENDBRANCH  13  14
ENDBRANCH  12  13
ENDBRANCH  11  12
ENDBRANCH  10  11
ENDBRANCH   9  10
ENDBRANCH   8   9
ENDBRANCH   7   8
ENDBRANCH   6   7
ENDBRANCH   5   6
ENDBRANCH   4   5
ENDBRANCH   3   4
ENDBRANCH   2   3
ENDBRANCH   1   2
BRANCH   1  17
ATOM     17  C   UNL     1      37.789  25.478 226.765  1.00  0.00     0.000 C 
BRANCH  17  18
ATOM     18  C   UNL     1      38.632  24.448 227.531  1.00  0.00     0.000 C 
BRANCH  18  19
ATOM     19  C   UNL     1      37.796  23.297 228.121  1.00  0.00     0.000 C 
BRANCH  19  20
ATOM     20  C   UNL     1      38.425  21.893 228.003  1.00  0.00     0.000 C 
BRANCH  20  21
ATOM     21  C   UNL     1      37.480  20.785 227.494  1.00  0.00     0.000 C 
BRANCH  21  22
ATOM     22  C   UNL     1      37.671  20.394 226.017  1.00  0.00    -0.000 C 
BRANCH  22  23
ATOM     23  C   UNL     1      37.304  18.927 225.737  1.00  0.00    -0.000 C 
BRANCH  23  24
ATOM     24  C   UNL     1      36.690  18.228 226.960  1.00  0.00    -0.000 C 
BRANCH  24  25
ATOM     25  C   UNL     1      37.652  17.229 227.623  1.00  0.00    -0.000 C 
BRANCH  25  26
ATOM     26  C   UNL     1      39.047  17.299 226.982  1.00  0.00    -0.000 C 
BRANCH  26  27
ATOM     27  C   UNL     1      40.137  17.717 227.980  1.00  0.00    -0.000 C 
BRANCH  27  28
ATOM     28  C   UNL     1      39.646  17.701 229.436  1.00  0.00    -0.000 C 
BRANCH  28  29
ATOM     29  C   UNL     1      39.693  19.108 230.043  1.00  0.00    -0.003 C 
ATOM     30  C   UNL     1      41.125  19.632 230.108  1.00  0.00     0.004 C 
ENDBRANCH  28  29
ENDBRANCH  27  28
ENDBRANCH  26  27
ENDBRANCH  25  26
ENDBRANCH  24  25
ENDBRANCH  23  24
ENDBRANCH  22  23
ENDBRANCH  21  22
ENDBRANCH  20  21
ENDBRANCH  19  20
ENDBRANCH  18  19
ENDBRANCH  17  18
ENDBRANCH   1  17
TORSDOF 26
ENDMDL
