MODEL 1
REMARK VINA RESULT:    -5.581      0.000      0.000
REMARK INTER + INTRA:          -6.430
REMARK INTER:                  -5.907
REMARK INTRA:                  -0.523
REMARK UNBOUND:                -0.523
REMARK SMILES CC1=CC[C@@]23[C@H]([C@H](C(C)C)CC[C@H]2C)[C@H]13
REMARK SMILES IDX 14 1 13 2 12 3 11 4 7 5 6 6 5 7 15 8 2 9 3 10 4 11 1 12 8 13
REMARK SMILES IDX 9 14 10 15
REMARK H PARENT
REMARK Flexibility Score: inf
ROOT
ATOM      1  C   UNL     1     143.639 137.251 131.375  1.00  0.00     0.008 C 
ATOM      2  C   UNL     1     142.187 137.690 131.595  1.00  0.00    -0.007 C 
ATOM      3  C   UNL     1     141.934 139.105 130.987  1.00  0.00     0.004 C 
ATOM      4  C   UNL     1     140.538 139.712 131.333  1.00  0.00     0.004 C 
ATOM      5  C   UNL     1     140.046 139.444 132.793  1.00  0.00    -0.004 C 
ATOM      6  C   UNL     1     140.274 137.944 133.021  1.00  0.00     0.007 C 
ATOM      7  C   UNL     1     141.831 137.752 133.096  1.00  0.00    -0.013 C 
ATOM      8  C   UNL     1     140.879 137.054 134.061  1.00  0.00     0.025 C 
ATOM      9  C   UNL     1     141.126 137.683 135.387  1.00  0.00    -0.073 C 
ATOM     10  C   UNL     1     142.121 138.555 135.359  1.00  0.00    -0.027 C 
ATOM     11  C   UNL     1     142.712 138.664 133.999  1.00  0.00     0.035 C 
ATOM     12  C   UNL     1     140.345 137.358 136.621  1.00  0.00     0.039 C 
ENDROOT
BRANCH   5  13
ATOM     13  C   UNL     1     138.537 139.787 132.971  1.00  0.00    -0.014 C 
ATOM     14  C   UNL     1     137.661 138.897 132.073  1.00  0.00     0.007 C 
ATOM     15  C   UNL     1     138.085 139.628 134.432  1.00  0.00     0.007 C 
ENDBRANCH   5  13
TORSDOF 1
ENDMDL
MODEL 2
REMARK VINA RESULT:    -5.572      3.130      4.622
REMARK INTER + INTRA:          -6.421
REMARK INTER:                  -5.897
REMARK INTRA:                  -0.524
REMARK UNBOUND:                -0.523
REMARK SMILES CC1=CC[C@@]23[C@H]([C@H](C(C)C)CC[C@H]2C)[C@H]13
REMARK SMILES IDX 14 1 13 2 12 3 11 4 7 5 6 6 5 7 15 8 2 9 3 10 4 11 1 12 8 13
REMARK SMILES IDX 9 14 10 15
REMARK H PARENT
REMARK Flexibility Score: inf
ROOT
ATOM      1  C   UNL     1     137.291 138.527 131.349  1.00  0.00     0.008 C 
ATOM      2  C   UNL     1     137.735 139.978 131.569  1.00  0.00    -0.007 C 
ATOM      3  C   UNL     1     139.161 140.220 130.984  1.00  0.00     0.004 C 
ATOM      4  C   UNL     1     139.770 141.614 131.334  1.00  0.00     0.004 C 
ATOM      5  C   UNL     1     139.482 142.114 132.788  1.00  0.00    -0.004 C 
ATOM      6  C   UNL     1     137.976 141.896 132.992  1.00  0.00     0.007 C 
ATOM      7  C   UNL     1     137.774 140.339 133.070  1.00  0.00    -0.013 C 
ATOM      8  C   UNL     1     137.066 141.300 134.020  1.00  0.00     0.025 C 
ATOM      9  C   UNL     1     137.672 141.055 135.357  1.00  0.00    -0.073 C 
ATOM     10  C   UNL     1     138.539 140.056 135.347  1.00  0.00    -0.027 C 
ATOM     11  C   UNL     1     138.667 139.458 133.991  1.00  0.00     0.035 C 
ATOM     12  C   UNL     1     137.331 141.843 136.582  1.00  0.00     0.039 C 
ENDROOT
BRANCH   5  13
ATOM     13  C   UNL     1     139.830 143.622 132.965  1.00  0.00    -0.014 C 
ATOM     14  C   UNL     1     138.950 144.500 132.058  1.00  0.00     0.007 C 
ATOM     15  C   UNL     1     139.663 144.077 134.424  1.00  0.00     0.007 C 
ENDBRANCH   5  13
TORSDOF 1
ENDMDL
MODEL 3
REMARK VINA RESULT:    -5.566      3.151      4.631
REMARK INTER + INTRA:          -6.414
REMARK INTER:                  -5.891
REMARK INTRA:                  -0.523
REMARK UNBOUND:                -0.523
REMARK SMILES CC1=CC[C@@]23[C@H]([C@H](C(C)C)CC[C@H]2C)[C@H]13
REMARK SMILES IDX 14 1 13 2 12 3 11 4 7 5 6 6 5 7 15 8 2 9 3 10 4 11 1 12 8 13
REMARK SMILES IDX 9 14 10 15
REMARK H PARENT
REMARK Flexibility Score: inf
ROOT
ATOM      1  C   UNL     1     144.883 143.645 131.375  1.00  0.00     0.008 C 
ATOM      2  C   UNL     1     144.445 142.193 131.603  1.00  0.00    -0.007 C 
ATOM      3  C   UNL     1     143.021 141.942 131.018  1.00  0.00     0.004 C 
ATOM      4  C   UNL     1     142.418 140.547 131.375  1.00  0.00     0.004 C 
ATOM      5  C   UNL     1     142.707 140.056 132.832  1.00  0.00    -0.004 C 
ATOM      6  C   UNL     1     144.211 140.283 133.036  1.00  0.00     0.007 C 
ATOM      7  C   UNL     1     144.407 141.840 133.106  1.00  0.00    -0.013 C 
ATOM      8  C   UNL     1     145.118 140.888 134.061  1.00  0.00     0.025 C 
ATOM      9  C   UNL     1     144.511 141.138 135.397  1.00  0.00    -0.073 C 
ATOM     10  C   UNL     1     143.639 142.133 135.380  1.00  0.00    -0.027 C 
ATOM     11  C   UNL     1     143.510 142.722 134.022  1.00  0.00     0.035 C 
ATOM     12  C   UNL     1     144.854 140.358 136.627  1.00  0.00     0.039 C 
ENDROOT
BRANCH   5  13
ATOM     13  C   UNL     1     142.366 138.548 133.017  1.00  0.00    -0.014 C 
ATOM     14  C   UNL     1     143.245 137.669 132.111  1.00  0.00     0.007 C 
ATOM     15  C   UNL     1     142.540 138.100 134.478  1.00  0.00     0.007 C 
ENDBRANCH   5  13
TORSDOF 1
ENDMDL
MODEL 4
REMARK VINA RESULT:    -5.530      2.411      5.757
REMARK INTER + INTRA:          -6.377
REMARK INTER:                  -5.964
REMARK INTRA:                  -0.412
REMARK UNBOUND:                -0.523
REMARK SMILES CC1=CC[C@@]23[C@H]([C@H](C(C)C)CC[C@H]2C)[C@H]13
REMARK SMILES IDX 14 1 13 2 12 3 11 4 7 5 6 6 5 7 15 8 2 9 3 10 4 11 1 12 8 13
REMARK SMILES IDX 9 14 10 15
REMARK H PARENT
REMARK Flexibility Score: inf
ROOT
ATOM      1  C   UNL     1     136.991 142.112 137.403  1.00  0.00     0.008 C 
ATOM      2  C   UNL     1     137.270 141.035 136.347  1.00  0.00    -0.007 C 
ATOM      3  C   UNL     1     138.385 140.057 136.829  1.00  0.00     0.004 C 
ATOM      4  C   UNL     1     138.868 139.047 135.740  1.00  0.00     0.004 C 
ATOM      5  C   UNL     1     138.988 139.640 134.298  1.00  0.00    -0.004 C 
ATOM      6  C   UNL     1     137.673 140.398 134.069  1.00  0.00     0.007 C 
ATOM      7  C   UNL     1     137.731 141.655 135.011  1.00  0.00    -0.013 C 
ATOM      8  C   UNL     1     137.231 141.739 133.572  1.00  0.00     0.025 C 
ATOM      9  C   UNL     1     138.258 142.529 132.840  1.00  0.00    -0.073 C 
ATOM     10  C   UNL     1     139.211 142.985 133.637  1.00  0.00    -0.027 C 
ATOM     11  C   UNL     1     138.986 142.574 135.048  1.00  0.00     0.035 C 
ATOM     12  C   UNL     1     138.215 142.789 131.367  1.00  0.00     0.039 C 
ENDROOT
BRANCH   5  13
ATOM     13  C   UNL     1     139.154 138.526 133.222  1.00  0.00    -0.014 C 
ATOM     14  C   UNL     1     139.407 139.135 131.832  1.00  0.00     0.007 C 
ATOM     15  C   UNL     1     140.305 137.567 133.570  1.00  0.00     0.007 C 
ENDBRANCH   5  13
TORSDOF 1
ENDMDL
MODEL 5
REMARK VINA RESULT:    -5.517      3.644      5.544
REMARK INTER + INTRA:          -6.362
REMARK INTER:                  -5.949
REMARK INTRA:                  -0.414
REMARK UNBOUND:                -0.523
REMARK SMILES CC1=CC[C@@]23[C@H]([C@H](C(C)C)CC[C@H]2C)[C@H]13
REMARK SMILES IDX 14 1 13 2 12 3 11 4 7 5 6 6 5 7 15 8 2 9 3 10 4 11 1 12 8 13
REMARK SMILES IDX 9 14 10 15
REMARK H PARENT
REMARK Flexibility Score: inf
ROOT
ATOM      1  C   UNL     1     145.140 140.218 137.389  1.00  0.00     0.008 C 
ATOM      2  C   UNL     1     144.847 141.263 136.307  1.00  0.00    -0.007 C 
ATOM      3  C   UNL     1     143.702 142.224 136.755  1.00  0.00     0.004 C 
ATOM      4  C   UNL     1     143.207 143.197 135.639  1.00  0.00     0.004 C 
ATOM      5  C   UNL     1     143.118 142.570 134.208  1.00  0.00    -0.004 C 
ATOM      6  C   UNL     1     144.454 141.840 134.011  1.00  0.00     0.007 C 
ATOM      7  C   UNL     1     144.416 140.603 134.980  1.00  0.00    -0.013 C 
ATOM      8  C   UNL     1     144.933 140.500 133.549  1.00  0.00     0.025 C 
ATOM      9  C   UNL     1     143.934 139.669 132.824  1.00  0.00    -0.073 C 
ATOM     10  C   UNL     1     142.983 139.206 133.621  1.00  0.00    -0.027 C 
ATOM     11  C   UNL     1     143.183 139.654 135.024  1.00  0.00     0.035 C 
ATOM     12  C   UNL     1     143.999 139.377 131.358  1.00  0.00     0.039 C 
ENDROOT
BRANCH   5  13
ATOM     13  C   UNL     1     142.937 143.655 133.107  1.00  0.00    -0.014 C 
ATOM     14  C   UNL     1     142.531 143.018 131.767  1.00  0.00     0.007 C 
ATOM     15  C   UNL     1     141.883 144.702 133.507  1.00  0.00     0.007 C 
ENDBRANCH   5  13
TORSDOF 1
ENDMDL
MODEL 6
REMARK VINA RESULT:    -5.515      4.706      6.513
REMARK INTER + INTRA:          -6.360
REMARK INTER:                  -5.835
REMARK INTRA:                  -0.525
REMARK UNBOUND:                -0.523
REMARK SMILES CC1=CC[C@@]23[C@H]([C@H](C(C)C)CC[C@H]2C)[C@H]13
REMARK SMILES IDX 14 1 13 2 12 3 11 4 7 5 6 6 5 7 15 8 2 9 3 10 4 11 1 12 8 13
REMARK SMILES IDX 9 14 10 15
REMARK H PARENT
REMARK Flexibility Score: inf
ROOT
ATOM      1  C   UNL     1     138.432 144.786 131.372  1.00  0.00     0.008 C 
ATOM      2  C   UNL     1     139.891 144.365 131.587  1.00  0.00    -0.007 C 
ATOM      3  C   UNL     1     140.148 142.934 131.024  1.00  0.00     0.004 C 
ATOM      4  C   UNL     1     141.554 142.350 131.371  1.00  0.00     0.004 C 
ATOM      5  C   UNL     1     142.063 142.670 132.815  1.00  0.00    -0.004 C 
ATOM      6  C   UNL     1     141.824 144.176 132.996  1.00  0.00     0.007 C 
ATOM      7  C   UNL     1     140.266 144.357 133.084  1.00  0.00    -0.013 C 
ATOM      8  C   UNL     1     141.225 145.095 134.013  1.00  0.00     0.025 C 
ATOM      9  C   UNL     1     141.000 144.510 135.362  1.00  0.00    -0.073 C 
ATOM     10  C   UNL     1     140.013 143.629 135.376  1.00  0.00    -0.027 C 
ATOM     11  C   UNL     1     139.406 143.469 134.029  1.00  0.00     0.035 C 
ATOM     12  C   UNL     1     141.794 144.883 136.575  1.00  0.00     0.039 C 
ENDROOT
BRANCH   5  13
ATOM     13  C   UNL     1     143.576 142.347 132.984  1.00  0.00    -0.014 C 
ATOM     14  C   UNL     1     144.436 143.241 132.074  1.00  0.00     0.007 C 
ATOM     15  C   UNL     1     144.036 142.520 134.442  1.00  0.00     0.007 C 
ENDBRANCH   5  13
TORSDOF 1
ENDMDL
MODEL 7
REMARK VINA RESULT:    -5.509      4.865      6.577
REMARK INTER + INTRA:          -6.354
REMARK INTER:                  -5.940
REMARK INTRA:                  -0.414
REMARK UNBOUND:                -0.523
REMARK SMILES CC1=CC[C@@]23[C@H]([C@H](C(C)C)CC[C@H]2C)[C@H]13
REMARK SMILES IDX 14 1 13 2 12 3 11 4 7 5 6 6 5 7 15 8 2 9 3 10 4 11 1 12 8 13
REMARK SMILES IDX 9 14 10 15
REMARK H PARENT
REMARK Flexibility Score: inf
ROOT
ATOM      1  C   UNL     1     142.094 145.158 137.447  1.00  0.00     0.008 C 
ATOM      2  C   UNL     1     141.031 144.877 136.378  1.00  0.00    -0.007 C 
ATOM      3  C   UNL     1     140.072 143.734 136.832  1.00  0.00     0.004 C 
ATOM      4  C   UNL     1     139.080 143.251 135.727  1.00  0.00     0.004 C 
ATOM      5  C   UNL     1     139.686 143.169 134.287  1.00  0.00    -0.004 C 
ATOM      6  C   UNL     1     140.419 144.503 134.088  1.00  0.00     0.007 C 
ATOM      7  C   UNL     1     141.669 144.453 135.038  1.00  0.00    -0.013 C 
ATOM      8  C   UNL     1     141.754 144.980 133.609  1.00  0.00     0.025 C 
ATOM      9  C   UNL     1     142.570 143.982 132.866  1.00  0.00    -0.073 C 
ATOM     10  C   UNL     1     143.040 143.024 133.648  1.00  0.00    -0.027 C 
ATOM     11  C   UNL     1     142.613 143.216 135.060  1.00  0.00     0.035 C 
ATOM     12  C   UNL     1     142.840 144.057 131.396  1.00  0.00     0.039 C 
ENDROOT
BRANCH   5  13
ATOM     13  C   UNL     1     138.583 143.000 133.200  1.00  0.00    -0.014 C 
ATOM     14  C   UNL     1     139.204 142.663 131.834  1.00  0.00     0.007 C 
ATOM     15  C   UNL     1     137.573 141.905 133.580  1.00  0.00     0.007 C 
ENDBRANCH   5  13
TORSDOF 1
ENDMDL
MODEL 8
REMARK VINA RESULT:    -5.004      4.135      5.348
REMARK INTER + INTRA:          -5.820
REMARK INTER:                  -5.307
REMARK INTRA:                  -0.514
REMARK UNBOUND:                -0.523
REMARK SMILES CC1=CC[C@@]23[C@H]([C@H](C(C)C)CC[C@H]2C)[C@H]13
REMARK SMILES IDX 14 1 13 2 12 3 11 4 7 5 6 6 5 7 15 8 2 9 3 10 4 11 1 12 8 13
REMARK SMILES IDX 9 14 10 15
REMARK H PARENT
REMARK Flexibility Score: inf
ROOT
ATOM      1  C   UNL     1     144.921 143.634 131.369  1.00  0.00     0.008 C 
ATOM      2  C   UNL     1     144.384 142.565 132.328  1.00  0.00    -0.007 C 
ATOM      3  C   UNL     1     143.489 141.535 131.571  1.00  0.00     0.004 C 
ATOM      4  C   UNL     1     142.746 140.525 132.501  1.00  0.00     0.004 C 
ATOM      5  C   UNL     1     142.192 141.137 133.831  1.00  0.00    -0.004 C 
ATOM      6  C   UNL     1     143.358 141.951 134.409  1.00  0.00     0.007 C 
ATOM      7  C   UNL     1     143.534 143.188 133.456  1.00  0.00    -0.013 C 
ATOM      8  C   UNL     1     143.591 143.316 134.975  1.00  0.00     0.025 C 
ATOM      9  C   UNL     1     142.370 144.077 135.356  1.00  0.00    -0.073 C 
ATOM     10  C   UNL     1     141.675 144.481 134.305  1.00  0.00    -0.027 C 
ATOM     11  C   UNL     1     142.313 144.056 133.032  1.00  0.00     0.035 C 
ATOM     12  C   UNL     1     141.974 144.363 136.770  1.00  0.00     0.039 C 
ENDROOT
BRANCH   5  13
ATOM     13  C   UNL     1     141.758 140.036 134.842  1.00  0.00    -0.014 C 
ATOM     14  C   UNL     1     142.931 139.096 135.170  1.00  0.00     0.007 C 
ATOM     15  C   UNL     1     141.218 140.643 136.148  1.00  0.00     0.007 C 
ENDBRANCH   5  13
TORSDOF 1
ENDMDL
MODEL 9
REMARK VINA RESULT:    -4.975      1.924      3.584
REMARK INTER + INTRA:          -5.789
REMARK INTER:                  -5.270
REMARK INTRA:                  -0.519
REMARK UNBOUND:                -0.523
REMARK SMILES CC1=CC[C@@]23[C@H]([C@H](C(C)C)CC[C@H]2C)[C@H]13
REMARK SMILES IDX 14 1 13 2 12 3 11 4 7 5 6 6 5 7 15 8 2 9 3 10 4 11 1 12 8 13
REMARK SMILES IDX 9 14 10 15
REMARK H PARENT
REMARK Flexibility Score: inf
ROOT
ATOM      1  C   UNL     1     137.246 138.615 131.382  1.00  0.00     0.008 C 
ATOM      2  C   UNL     1     137.803 139.638 132.379  1.00  0.00    -0.007 C 
ATOM      3  C   UNL     1     138.639 140.733 131.647  1.00  0.00     0.004 C 
ATOM      4  C   UNL     1     139.402 141.703 132.602  1.00  0.00     0.004 C 
ATOM      5  C   UNL     1     140.030 141.027 133.866  1.00  0.00    -0.004 C 
ATOM      6  C   UNL     1     138.910 140.151 134.445  1.00  0.00     0.007 C 
ATOM      7  C   UNL     1     138.718 138.970 133.428  1.00  0.00    -0.013 C 
ATOM      8  C   UNL     1     138.734 138.749 134.937  1.00  0.00     0.025 C 
ATOM      9  C   UNL     1     139.987 137.998 135.216  1.00  0.00    -0.073 C 
ATOM     10  C   UNL     1     140.642 137.674 134.112  1.00  0.00    -0.027 C 
ATOM     11  C   UNL     1     139.936 138.159 132.897  1.00  0.00     0.035 C 
ATOM     12  C   UNL     1     140.454 137.637 136.591  1.00  0.00     0.039 C 
ENDROOT
BRANCH   5  13
ATOM     13  C   UNL     1     140.486 142.076 134.922  1.00  0.00    -0.014 C 
ATOM     14  C   UNL     1     139.298 142.930 135.399  1.00  0.00     0.007 C 
ATOM     15  C   UNL     1     141.148 141.408 136.139  1.00  0.00     0.007 C 
ENDBRANCH   5  13
TORSDOF 1
ENDMDL
