MODEL 1
REMARK VINA RESULT:    -3.548      0.000      0.000
REMARK INTER + INTRA:          -5.113
REMARK INTER:                  -4.792
REMARK INTRA:                  -0.321
REMARK UNBOUND:                -0.321
REMARK SMILES CCCCCCCC(=O)[O-]
REMARK SMILES IDX 5 1 6 2 7 3 8 4 9 5 10 6 4 7 3 8 2 9 1 10
REMARK H PARENT
REMARK Flexibility Score: inf
ROOT
ATOM      1  C   UNL     1     -21.671   5.423  18.857  1.00  0.00     0.000 C 
ENDROOT
BRANCH   1   2
ATOM      2  C   UNL     1     -22.761   5.156  19.911  1.00  0.00     0.006 C 
BRANCH   2   3
ATOM      3  C   UNL     1     -22.797   6.182  21.054  1.00  0.00     0.053 C 
BRANCH   3   4
ATOM      4  C   UNL     1     -23.889   7.190  20.867  1.00  0.00     0.041 C 
ATOM      5  O   UNL     1     -23.712   8.185  20.114  1.00  0.00    -0.550 OA
ATOM      6  O   UNL     1     -25.113   7.016  21.498  1.00  0.00    -0.550 OA
ENDBRANCH   3   4
ENDBRANCH   2   3
ENDBRANCH   1   2
BRANCH   1   7
ATOM      7  C   UNL     1     -22.214   6.143  17.610  1.00  0.00     0.000 C 
BRANCH   7   8
ATOM      8  C   UNL     1     -21.339   7.334  17.181  1.00  0.00    -0.000 C 
BRANCH   8   9
ATOM      9  C   UNL     1     -20.405   7.052  15.990  1.00  0.00    -0.003 C 
ATOM     10  C   UNL     1     -18.955   6.819  16.410  1.00  0.00     0.004 C 
ENDBRANCH   8   9
ENDBRANCH   7   8
ENDBRANCH   1   7
TORSDOF 6
ENDMDL
MODEL 2
REMARK VINA RESULT:    -3.505      1.424      2.027
REMARK INTER + INTRA:          -5.055
REMARK INTER:                  -4.666
REMARK INTRA:                  -0.390
REMARK UNBOUND:                -0.321
REMARK SMILES CCCCCCCC(=O)[O-]
REMARK SMILES IDX 5 1 6 2 7 3 8 4 9 5 10 6 4 7 3 8 2 9 1 10
REMARK H PARENT
REMARK Flexibility Score: inf
ROOT
ATOM      1  C   UNL     1     -22.251   6.606  17.722  1.00  0.00     0.000 C 
ENDROOT
BRANCH   1   2
ATOM      2  C   UNL     1     -21.812   8.020  18.145  1.00  0.00     0.006 C 
BRANCH   2   3
ATOM      3  C   UNL     1     -22.794   8.727  19.093  1.00  0.00     0.053 C 
BRANCH   3   4
ATOM      4  C   UNL     1     -22.979   7.971  20.373  1.00  0.00     0.041 C 
ATOM      5  O   UNL     1     -21.990   7.724  21.112  1.00  0.00    -0.550 OA
ATOM      6  O   UNL     1     -24.248   7.566  20.764  1.00  0.00    -0.550 OA
ENDBRANCH   3   4
ENDBRANCH   2   3
ENDBRANCH   1   2
BRANCH   1   7
ATOM      7  C   UNL     1     -21.481   6.087  16.495  1.00  0.00     0.000 C 
BRANCH   7   8
ATOM      8  C   UNL     1     -20.391   7.064  16.019  1.00  0.00    -0.000 C 
BRANCH   8   9
ATOM      9  C   UNL     1     -18.954   6.518  16.106  1.00  0.00    -0.003 C 
ATOM     10  C   UNL     1     -18.306   6.759  17.469  1.00  0.00     0.004 C 
ENDBRANCH   8   9
ENDBRANCH   7   8
ENDBRANCH   1   7
TORSDOF 6
ENDMDL
MODEL 3
REMARK VINA RESULT:    -3.470      2.442      4.974
REMARK INTER + INTRA:          -5.009
REMARK INTER:                  -4.664
REMARK INTRA:                  -0.344
REMARK UNBOUND:                -0.321
REMARK SMILES CCCCCCCC(=O)[O-]
REMARK SMILES IDX 5 1 6 2 7 3 8 4 9 5 10 6 4 7 3 8 2 9 1 10
REMARK H PARENT
REMARK Flexibility Score: inf
ROOT
ATOM      1  C   UNL     1     -23.269   8.343  19.222  1.00  0.00     0.000 C 
ENDROOT
BRANCH   1   2
ATOM      2  C   UNL     1     -21.836   8.538  18.693  1.00  0.00     0.006 C 
BRANCH   2   3
ATOM      3  C   UNL     1     -21.479   7.645  17.494  1.00  0.00     0.053 C 
BRANCH   3   4
ATOM      4  C   UNL     1     -21.887   6.222  17.716  1.00  0.00     0.041 C 
ATOM      5  O   UNL     1     -22.797   5.706  17.015  1.00  0.00    -0.550 OA
ATOM      6  O   UNL     1     -21.241   5.454  18.677  1.00  0.00    -0.550 OA
ENDBRANCH   3   4
ENDBRANCH   2   3
ENDBRANCH   1   2
BRANCH   1   7
ATOM      7  C   UNL     1     -23.313   8.084  20.737  1.00  0.00     0.000 C 
BRANCH   7   8
ATOM      8  C   UNL     1     -24.230   6.907  21.114  1.00  0.00    -0.000 C 
BRANCH   8   9
ATOM      9  C   UNL     1     -23.494   5.593  21.434  1.00  0.00    -0.003 C 
ATOM     10  C   UNL     1     -24.096   4.844  22.622  1.00  0.00     0.004 C 
ENDBRANCH   8   9
ENDBRANCH   7   8
ENDBRANCH   1   7
TORSDOF 6
ENDMDL
MODEL 4
REMARK VINA RESULT:    -3.439      3.229      5.134
REMARK INTER + INTRA:          -4.967
REMARK INTER:                  -4.557
REMARK INTRA:                  -0.409
REMARK UNBOUND:                -0.321
REMARK SMILES CCCCCCCC(=O)[O-]
REMARK SMILES IDX 5 1 6 2 7 3 8 4 9 5 10 6 4 7 3 8 2 9 1 10
REMARK H PARENT
REMARK Flexibility Score: inf
ROOT
ATOM      1  C   UNL     1     -21.492   6.085  16.598  1.00  0.00     0.000 C 
ENDROOT
BRANCH   1   2
ATOM      2  C   UNL     1     -20.428   7.055  16.051  1.00  0.00     0.006 C 
BRANCH   2   3
ATOM      3  C   UNL     1     -18.989   6.519  16.125  1.00  0.00     0.053 C 
BRANCH   3   4
ATOM      4  C   UNL     1     -18.520   6.370  17.539  1.00  0.00     0.041 C 
ATOM      5  O   UNL     1     -18.176   5.240  17.978  1.00  0.00    -0.550 OA
ATOM      6  O   UNL     1     -18.432   7.483  18.365  1.00  0.00    -0.550 OA
ENDBRANCH   3   4
ENDBRANCH   2   3
ENDBRANCH   1   2
BRANCH   1   7
ATOM      7  C   UNL     1     -22.290   6.680  17.771  1.00  0.00     0.000 C 
BRANCH   7   8
ATOM      8  C   UNL     1     -21.923   8.147  18.059  1.00  0.00    -0.000 C 
BRANCH   8   9
ATOM      9  C   UNL     1     -22.707   8.792  19.216  1.00  0.00    -0.003 C 
ATOM     10  C   UNL     1     -23.600   7.800  19.959  1.00  0.00     0.004 C 
ENDBRANCH   8   9
ENDBRANCH   7   8
ENDBRANCH   1   7
TORSDOF 6
ENDMDL
MODEL 5
REMARK VINA RESULT:    -3.413      2.334      4.429
REMARK INTER + INTRA:          -4.932
REMARK INTER:                  -4.378
REMARK INTRA:                  -0.554
REMARK UNBOUND:                -0.321
REMARK SMILES CCCCCCCC(=O)[O-]
REMARK SMILES IDX 5 1 6 2 7 3 8 4 9 5 10 6 4 7 3 8 2 9 1 10
REMARK H PARENT
REMARK Flexibility Score: inf
ROOT
ATOM      1  C   UNL     1     -23.098   8.013  20.697  1.00  0.00     0.000 C 
ENDROOT
BRANCH   1   2
ATOM      2  C   UNL     1     -23.134   8.369  19.199  1.00  0.00     0.006 C 
BRANCH   2   3
ATOM      3  C   UNL     1     -21.761   8.329  18.509  1.00  0.00     0.053 C 
BRANCH   3   4
ATOM      4  C   UNL     1     -21.716   7.312  17.412  1.00  0.00     0.041 C 
ATOM      5  O   UNL     1     -20.791   7.341  16.557  1.00  0.00    -0.550 OA
ATOM      6  O   UNL     1     -22.678   6.312  17.349  1.00  0.00    -0.550 OA
ENDBRANCH   3   4
ENDBRANCH   2   3
ENDBRANCH   1   2
BRANCH   1   7
ATOM      7  C   UNL     1     -24.074   6.881  21.062  1.00  0.00     0.000 C 
BRANCH   7   8
ATOM      8  C   UNL     1     -23.356   5.610  21.550  1.00  0.00    -0.000 C 
BRANCH   8   9
ATOM      9  C   UNL     1     -22.895   4.659  20.431  1.00  0.00    -0.003 C 
ATOM     10  C   UNL     1     -21.382   4.673  20.220  1.00  0.00     0.004 C 
ENDBRANCH   8   9
ENDBRANCH   7   8
ENDBRANCH   1   7
TORSDOF 6
ENDMDL
MODEL 6
REMARK VINA RESULT:    -3.404      2.473      4.306
REMARK INTER + INTRA:          -4.918
REMARK INTER:                  -4.486
REMARK INTRA:                  -0.433
REMARK UNBOUND:                -0.321
REMARK SMILES CCCCCCCC(=O)[O-]
REMARK SMILES IDX 5 1 6 2 7 3 8 4 9 5 10 6 4 7 3 8 2 9 1 10
REMARK H PARENT
REMARK Flexibility Score: inf
ROOT
ATOM      1  C   UNL     1     -21.654   7.550  17.396  1.00  0.00     0.000 C 
ENDROOT
BRANCH   1   2
ATOM      2  C   UNL     1     -21.517   6.046  17.695  1.00  0.00     0.006 C 
BRANCH   2   3
ATOM      3  C   UNL     1     -20.738   5.727  18.981  1.00  0.00     0.053 C 
BRANCH   3   4
ATOM      4  C   UNL     1     -21.231   4.476  19.639  1.00  0.00     0.041 C 
ATOM      5  O   UNL     1     -20.428   3.546  19.916  1.00  0.00    -0.550 OA
ATOM      6  O   UNL     1     -22.573   4.349  19.975  1.00  0.00    -0.550 OA
ENDBRANCH   3   4
ENDBRANCH   2   3
ENDBRANCH   1   2
BRANCH   1   7
ATOM      7  C   UNL     1     -21.768   8.401  18.672  1.00  0.00     0.000 C 
BRANCH   7   8
ATOM      8  C   UNL     1     -23.192   8.412  19.256  1.00  0.00    -0.000 C 
BRANCH   8   9
ATOM      9  C   UNL     1     -23.281   8.035  20.746  1.00  0.00    -0.003 C 
ATOM     10  C   UNL     1     -24.416   7.058  21.048  1.00  0.00     0.004 C 
ENDBRANCH   8   9
ENDBRANCH   7   8
ENDBRANCH   1   7
TORSDOF 6
ENDMDL
MODEL 7
REMARK VINA RESULT:    -3.375      2.286      4.322
REMARK INTER + INTRA:          -4.879
REMARK INTER:                  -4.308
REMARK INTRA:                  -0.572
REMARK UNBOUND:                -0.321
REMARK SMILES CCCCCCCC(=O)[O-]
REMARK SMILES IDX 5 1 6 2 7 3 8 4 9 5 10 6 4 7 3 8 2 9 1 10
REMARK H PARENT
REMARK Flexibility Score: inf
ROOT
ATOM      1  C   UNL     1     -22.807   5.283  19.469  1.00  0.00     0.000 C 
ENDROOT
BRANCH   1   2
ATOM      2  C   UNL     1     -21.301   5.035  19.265  1.00  0.00     0.006 C 
BRANCH   2   3
ATOM      3  C   UNL     1     -20.556   6.199  18.591  1.00  0.00     0.053 C 
BRANCH   3   4
ATOM      4  C   UNL     1     -21.304   6.730  17.407  1.00  0.00     0.041 C 
ATOM      5  O   UNL     1     -21.755   7.906  17.418  1.00  0.00    -0.550 OA
ATOM      6  O   UNL     1     -21.476   5.938  16.279  1.00  0.00    -0.550 OA
ENDBRANCH   3   4
ENDBRANCH   2   3
ENDBRANCH   1   2
BRANCH   1   7
ATOM      7  C   UNL     1     -23.158   5.642  20.923  1.00  0.00     0.000 C 
BRANCH   7   8
ATOM      8  C   UNL     1     -24.068   6.879  21.029  1.00  0.00    -0.000 C 
BRANCH   8   9
ATOM      9  C   UNL     1     -23.435   8.190  20.527  1.00  0.00    -0.003 C 
ATOM     10  C   UNL     1     -22.042   8.439  21.104  1.00  0.00     0.004 C 
ENDBRANCH   8   9
ENDBRANCH   7   8
ENDBRANCH   1   7
TORSDOF 6
ENDMDL
MODEL 8
REMARK VINA RESULT:    -3.337      1.710      2.283
REMARK INTER + INTRA:          -4.828
REMARK INTER:                  -4.477
REMARK INTRA:                  -0.352
REMARK UNBOUND:                -0.321
REMARK SMILES CCCCCCCC(=O)[O-]
REMARK SMILES IDX 5 1 6 2 7 3 8 4 9 5 10 6 4 7 3 8 2 9 1 10
REMARK H PARENT
REMARK Flexibility Score: inf
ROOT
ATOM      1  C   UNL     1     -22.075   8.506  20.153  1.00  0.00     0.000 C 
ENDROOT
BRANCH   1   2
ATOM      2  C   UNL     1     -23.513   8.030  19.877  1.00  0.00     0.006 C 
BRANCH   2   3
ATOM      3  C   UNL     1     -24.123   7.181  21.003  1.00  0.00     0.053 C 
BRANCH   3   4
ATOM      4  C   UNL     1     -23.597   5.778  20.994  1.00  0.00     0.041 C 
ATOM      5  O   UNL     1     -23.127   5.284  19.935  1.00  0.00    -0.550 OA
ATOM      6  O   UNL     1     -23.597   5.027  22.162  1.00  0.00    -0.550 OA
ENDBRANCH   3   4
ENDBRANCH   2   3
ENDBRANCH   1   2
BRANCH   1   7
ATOM      7  C   UNL     1     -21.095   8.117  19.032  1.00  0.00     0.000 C 
BRANCH   7   8
ATOM      8  C   UNL     1     -21.809   7.745  17.720  1.00  0.00    -0.000 C 
BRANCH   8   9
ATOM      9  C   UNL     1     -21.201   6.542  16.975  1.00  0.00    -0.003 C 
ATOM     10  C   UNL     1     -20.221   6.953  15.878  1.00  0.00     0.004 C 
ENDBRANCH   8   9
ENDBRANCH   7   8
ENDBRANCH   1   7
TORSDOF 6
ENDMDL
MODEL 9
REMARK VINA RESULT:    -3.336      2.920      5.259
REMARK INTER + INTRA:          -4.827
REMARK INTER:                  -4.536
REMARK INTRA:                  -0.291
REMARK UNBOUND:                -0.321
REMARK SMILES CCCCCCCC(=O)[O-]
REMARK SMILES IDX 5 1 6 2 7 3 8 4 9 5 10 6 4 7 3 8 2 9 1 10
REMARK H PARENT
REMARK Flexibility Score: inf
ROOT
ATOM      1  C   UNL     1     -22.008   8.138  18.241  1.00  0.00     0.000 C 
ENDROOT
BRANCH   1   2
ATOM      2  C   UNL     1     -22.185   6.700  17.719  1.00  0.00     0.006 C 
BRANCH   2   3
ATOM      3  C   UNL     1     -21.177   6.297  16.631  1.00  0.00     0.053 C 
BRANCH   3   4
ATOM      4  C   UNL     1     -19.764   6.374  17.120  1.00  0.00     0.041 C 
ATOM      5  O   UNL     1     -19.433   5.807  18.195  1.00  0.00    -0.550 OA
ATOM      6  O   UNL     1     -18.804   7.046  16.374  1.00  0.00    -0.550 OA
ENDBRANCH   3   4
ENDBRANCH   2   3
ENDBRANCH   1   2
BRANCH   1   7
ATOM      7  C   UNL     1     -23.148   8.573  19.178  1.00  0.00     0.000 C 
BRANCH   7   8
ATOM      8  C   UNL     1     -23.006   7.996  20.598  1.00  0.00    -0.000 C 
BRANCH   8   9
ATOM      9  C   UNL     1     -24.159   7.077  21.039  1.00  0.00    -0.003 C 
ATOM     10  C   UNL     1     -23.681   5.713  21.534  1.00  0.00     0.004 C 
ENDBRANCH   8   9
ENDBRANCH   7   8
ENDBRANCH   1   7
TORSDOF 6
ENDMDL
