MODEL 1
REMARK VINA RESULT:    -6.090      0.000      0.000
REMARK INTER + INTRA:         -18.658
REMARK INTER:                 -16.059
REMARK INTRA:                  -2.598
REMARK UNBOUND:                -2.598
REMARK SMILES CCCCCCCCCCCCCCCCCCCCCCCCCCCCCC(=O)[O-]
REMARK SMILES IDX 16 1 17 2 18 3 19 4 20 5 21 6 22 7 23 8 24 9 25 10 26 11
REMARK SMILES IDX 27 12 28 13 29 14 30 15 31 16 32 17 15 18 14 19 13 20 12 21
REMARK SMILES IDX 11 22 10 23 9 24 8 25 7 26 6 27 5 28 4 29 3 30 2 31 1 32
REMARK H PARENT
REMARK Flexibility Score: inf
ROOT
ATOM      1  C   UNL     1      88.715 323.756 201.168  1.00  0.00     0.000 C 
ENDROOT
BRANCH   1   2
ATOM      2  C   UNL     1      87.899 324.513 202.236  1.00  0.00     0.000 C 
BRANCH   2   3
ATOM      3  C   UNL     1      86.630 323.791 202.726  1.00  0.00     0.000 C 
BRANCH   3   4
ATOM      4  C   UNL     1      86.854 323.014 204.034  1.00  0.00     0.000 C 
BRANCH   4   5
ATOM      5  C   UNL     1      86.251 323.719 205.262  1.00  0.00     0.000 C 
BRANCH   5   6
ATOM      6  C   UNL     1      87.262 324.108 206.359  1.00  0.00     0.000 C 
BRANCH   6   7
ATOM      7  C   UNL     1      87.226 325.587 206.790  1.00  0.00     0.000 C 
BRANCH   7   8
ATOM      8  C   UNL     1      88.497 326.393 206.465  1.00  0.00     0.000 C 
BRANCH   8   9
ATOM      9  C   UNL     1      89.027 326.136 205.046  1.00  0.00     0.000 C 
BRANCH   9  10
ATOM     10  C   UNL     1      89.289 327.459 204.312  1.00  0.00     0.000 C 
BRANCH  10  11
ATOM     11  C   UNL     1      90.630 327.465 203.561  1.00  0.00     0.000 C 
BRANCH  11  12
ATOM     12  C   UNL     1      91.280 326.071 203.503  1.00  0.00     0.000 C 
BRANCH  12  13
ATOM     13  C   UNL     1      92.593 326.052 202.697  1.00  0.00     0.006 C 
BRANCH  13  14
ATOM     14  C   UNL     1      93.825 326.506 203.501  1.00  0.00     0.053 C 
BRANCH  14  15
ATOM     15  C   UNL     1      95.017 326.772 202.633  1.00  0.00     0.041 C 
ATOM     16  O   UNL     1      95.368 327.954 202.379  1.00  0.00    -0.550 OA
ATOM     17  O   UNL     1      95.721 325.713 202.075  1.00  0.00    -0.550 OA
ENDBRANCH  14  15
ENDBRANCH  13  14
ENDBRANCH  12  13
ENDBRANCH  11  12
ENDBRANCH  10  11
ENDBRANCH   9  10
ENDBRANCH   8   9
ENDBRANCH   7   8
ENDBRANCH   6   7
ENDBRANCH   5   6
ENDBRANCH   4   5
ENDBRANCH   3   4
ENDBRANCH   2   3
ENDBRANCH   1   2
BRANCH   1  18
ATOM     18  C   UNL     1      89.651 324.634 200.313  1.00  0.00     0.000 C 
BRANCH  18  19
ATOM     19  C   UNL     1      89.270 326.125 200.270  1.00  0.00     0.000 C 
BRANCH  19  20
ATOM     20  C   UNL     1      88.892 326.598 198.856  1.00  0.00     0.000 C 
BRANCH  20  21
ATOM     21  C   UNL     1      88.528 325.435 197.918  1.00  0.00     0.000 C 
BRANCH  21  22
ATOM     22  C   UNL     1      87.865 325.859 196.592  1.00  0.00     0.000 C 
BRANCH  22  23
ATOM     23  C   UNL     1      88.830 326.420 195.529  1.00  0.00     0.000 C 
BRANCH  23  24
ATOM     24  C   UNL     1      88.176 326.809 194.187  1.00  0.00    -0.000 C 
BRANCH  24  25
ATOM     25  C   UNL     1      88.029 325.655 193.179  1.00  0.00    -0.000 C 
BRANCH  25  26
ATOM     26  C   UNL     1      86.636 325.010 193.206  1.00  0.00    -0.000 C 
BRANCH  26  27
ATOM     27  C   UNL     1      86.532 323.891 192.159  1.00  0.00    -0.000 C 
BRANCH  27  28
ATOM     28  C   UNL     1      87.865 323.609 191.442  1.00  0.00    -0.000 C 
BRANCH  28  29
ATOM     29  C   UNL     1      87.728 323.138 189.981  1.00  0.00    -0.000 C 
BRANCH  29  30
ATOM     30  C   UNL     1      88.933 323.528 189.112  1.00  0.00    -0.000 C 
BRANCH  30  31
ATOM     31  C   UNL     1      89.834 322.315 188.848  1.00  0.00    -0.003 C 
ATOM     32  C   UNL     1      91.212 322.749 188.353  1.00  0.00     0.004 C 
ENDBRANCH  30  31
ENDBRANCH  29  30
ENDBRANCH  28  29
ENDBRANCH  27  28
ENDBRANCH  26  27
ENDBRANCH  25  26
ENDBRANCH  24  25
ENDBRANCH  23  24
ENDBRANCH  22  23
ENDBRANCH  21  22
ENDBRANCH  20  21
ENDBRANCH  19  20
ENDBRANCH  18  19
ENDBRANCH   1  18
TORSDOF 28
ENDMDL
MODEL 2
REMARK VINA RESULT:    -6.077      2.424      4.504
REMARK INTER + INTRA:         -18.622
REMARK INTER:                 -14.487
REMARK INTRA:                  -4.134
REMARK UNBOUND:                -2.598
REMARK SMILES CCCCCCCCCCCCCCCCCCCCCCCCCCCCCC(=O)[O-]
REMARK SMILES IDX 16 1 17 2 18 3 19 4 20 5 21 6 22 7 23 8 24 9 25 10 26 11
REMARK SMILES IDX 27 12 28 13 29 14 30 15 31 16 32 17 15 18 14 19 13 20 12 21
REMARK SMILES IDX 11 22 10 23 9 24 8 25 7 26 6 27 5 28 4 29 3 30 2 31 1 32
REMARK H PARENT
REMARK Flexibility Score: inf
ROOT
ATOM      1  C   UNL     1      90.659 327.289 204.028  1.00  0.00     0.000 C 
ENDROOT
BRANCH   1   2
ATOM      2  C   UNL     1      89.482 327.267 205.027  1.00  0.00     0.000 C 
BRANCH   2   3
ATOM      3  C   UNL     1      89.845 326.828 206.457  1.00  0.00     0.000 C 
BRANCH   3   4
ATOM      4  C   UNL     1      89.148 325.521 206.874  1.00  0.00     0.000 C 
BRANCH   4   5
ATOM      5  C   UNL     1      87.613 325.618 206.827  1.00  0.00     0.000 C 
BRANCH   5   6
ATOM      6  C   UNL     1      86.886 324.330 206.389  1.00  0.00     0.000 C 
BRANCH   6   7
ATOM      7  C   UNL     1      86.582 324.229 204.881  1.00  0.00     0.000 C 
BRANCH   7   8
ATOM      8  C   UNL     1      87.513 323.294 204.089  1.00  0.00     0.000 C 
BRANCH   8   9
ATOM      9  C   UNL     1      86.755 322.348 203.145  1.00  0.00     0.000 C 
BRANCH   9  10
ATOM     10  C   UNL     1      86.682 322.933 201.727  1.00  0.00     0.000 C 
BRANCH  10  11
ATOM     11  C   UNL     1      86.723 321.851 200.636  1.00  0.00     0.000 C 
BRANCH  11  12
ATOM     12  C   UNL     1      87.767 322.151 199.545  1.00  0.00     0.000 C 
BRANCH  12  13
ATOM     13  C   UNL     1      89.164 322.457 200.117  1.00  0.00     0.006 C 
BRANCH  13  14
ATOM     14  C   UNL     1      90.189 322.897 199.056  1.00  0.00     0.053 C 
BRANCH  14  15
ATOM     15  C   UNL     1      91.561 323.096 199.624  1.00  0.00     0.041 C 
ATOM     16  O   UNL     1      92.564 322.583 199.061  1.00  0.00    -0.550 OA
ATOM     17  O   UNL     1      91.730 323.821 200.796  1.00  0.00    -0.550 OA
ENDBRANCH  14  15
ENDBRANCH  13  14
ENDBRANCH  12  13
ENDBRANCH  11  12
ENDBRANCH  10  11
ENDBRANCH   9  10
ENDBRANCH   8   9
ENDBRANCH   7   8
ENDBRANCH   6   7
ENDBRANCH   5   6
ENDBRANCH   4   5
ENDBRANCH   3   4
ENDBRANCH   2   3
ENDBRANCH   1   2
BRANCH   1  18
ATOM     18  C   UNL     1      90.316 326.816 202.601  1.00  0.00     0.000 C 
BRANCH  18  19
ATOM     19  C   UNL     1      88.952 326.115 202.467  1.00  0.00     0.000 C 
BRANCH  19  20
ATOM     20  C   UNL     1      88.560 325.862 201.001  1.00  0.00     0.000 C 
BRANCH  20  21
ATOM     21  C   UNL     1      89.570 326.456 200.005  1.00  0.00     0.000 C 
BRANCH  21  22
ATOM     22  C   UNL     1      88.970 326.862 198.644  1.00  0.00     0.000 C 
BRANCH  22  23
ATOM     23  C   UNL     1      88.348 325.707 197.833  1.00  0.00     0.000 C 
BRANCH  23  24
ATOM     24  C   UNL     1      87.756 326.110 196.466  1.00  0.00    -0.000 C 
BRANCH  24  25
ATOM     25  C   UNL     1      88.796 326.438 195.380  1.00  0.00    -0.000 C 
BRANCH  25  26
ATOM     26  C   UNL     1      88.157 326.844 194.044  1.00  0.00    -0.000 C 
BRANCH  26  27
ATOM     27  C   UNL     1      86.689 326.399 193.983  1.00  0.00    -0.000 C 
BRANCH  27  28
ATOM     28  C   UNL     1      86.508 324.990 193.388  1.00  0.00    -0.000 C 
BRANCH  28  29
ATOM     29  C   UNL     1      87.631 324.538 192.436  1.00  0.00    -0.000 C 
BRANCH  29  30
ATOM     30  C   UNL     1      88.405 323.319 192.959  1.00  0.00    -0.000 C 
BRANCH  30  31
ATOM     31  C   UNL     1      87.798 322.805 194.270  1.00  0.00    -0.003 C 
ATOM     32  C   UNL     1      88.847 322.746 195.378  1.00  0.00     0.004 C 
ENDBRANCH  30  31
ENDBRANCH  29  30
ENDBRANCH  28  29
ENDBRANCH  27  28
ENDBRANCH  26  27
ENDBRANCH  25  26
ENDBRANCH  24  25
ENDBRANCH  23  24
ENDBRANCH  22  23
ENDBRANCH  21  22
ENDBRANCH  20  21
ENDBRANCH  19  20
ENDBRANCH  18  19
ENDBRANCH   1  18
TORSDOF 28
ENDMDL
MODEL 3
REMARK VINA RESULT:    -6.068      2.097      3.575
REMARK INTER + INTRA:         -18.599
REMARK INTER:                 -15.299
REMARK INTRA:                  -3.301
REMARK UNBOUND:                -2.598
REMARK SMILES CCCCCCCCCCCCCCCCCCCCCCCCCCCCCC(=O)[O-]
REMARK SMILES IDX 16 1 17 2 18 3 19 4 20 5 21 6 22 7 23 8 24 9 25 10 26 11
REMARK SMILES IDX 27 12 28 13 29 14 30 15 31 16 32 17 15 18 14 19 13 20 12 21
REMARK SMILES IDX 11 22 10 23 9 24 8 25 7 26 6 27 5 28 4 29 3 30 2 31 1 32
REMARK H PARENT
REMARK Flexibility Score: inf
ROOT
ATOM      1  C   UNL     1      88.946 325.863 200.897  1.00  0.00     0.000 C 
ENDROOT
BRANCH   1   2
ATOM      2  C   UNL     1      90.370 326.294 201.309  1.00  0.00     0.000 C 
BRANCH   2   3
ATOM      3  C   UNL     1      90.498 326.857 202.736  1.00  0.00     0.000 C 
BRANCH   3   4
ATOM      4  C   UNL     1      89.172 326.810 203.516  1.00  0.00     0.000 C 
BRANCH   4   5
ATOM      5  C   UNL     1      89.323 327.253 204.982  1.00  0.00     0.000 C 
BRANCH   5   6
ATOM      6  C   UNL     1      89.443 326.107 206.005  1.00  0.00     0.000 C 
BRANCH   6   7
ATOM      7  C   UNL     1      88.383 326.112 207.125  1.00  0.00     0.000 C 
BRANCH   7   8
ATOM      8  C   UNL     1      87.022 325.507 206.738  1.00  0.00     0.000 C 
BRANCH   8   9
ATOM      9  C   UNL     1      87.123 324.048 206.267  1.00  0.00     0.000 C 
BRANCH   9  10
ATOM     10  C   UNL     1      86.273 323.820 205.008  1.00  0.00     0.000 C 
BRANCH  10  11
ATOM     11  C   UNL     1      87.098 323.902 203.714  1.00  0.00     0.000 C 
BRANCH  11  12
ATOM     12  C   UNL     1      87.361 322.519 203.092  1.00  0.00     0.000 C 
BRANCH  12  13
ATOM     13  C   UNL     1      88.789 322.004 203.350  1.00  0.00     0.006 C 
BRANCH  13  14
ATOM     14  C   UNL     1      89.762 323.087 203.850  1.00  0.00     0.053 C 
BRANCH  14  15
ATOM     15  C   UNL     1      91.155 322.898 203.331  1.00  0.00     0.041 C 
ATOM     16  O   UNL     1      92.086 322.565 204.112  1.00  0.00    -0.550 OA
ATOM     17  O   UNL     1      91.435 323.123 201.989  1.00  0.00    -0.550 OA
ENDBRANCH  14  15
ENDBRANCH  13  14
ENDBRANCH  12  13
ENDBRANCH  11  12
ENDBRANCH  10  11
ENDBRANCH   9  10
ENDBRANCH   8   9
ENDBRANCH   7   8
ENDBRANCH   6   7
ENDBRANCH   5   6
ENDBRANCH   4   5
ENDBRANCH   3   4
ENDBRANCH   2   3
ENDBRANCH   1   2
BRANCH   1  18
ATOM     18  C   UNL     1      88.866 324.554 200.087  1.00  0.00     0.000 C 
BRANCH  18  19
ATOM     19  C   UNL     1      88.979 324.735 198.562  1.00  0.00     0.000 C 
BRANCH  19  20
ATOM     20  C   UNL     1      88.497 326.119 198.094  1.00  0.00     0.000 C 
BRANCH  20  21
ATOM     21  C   UNL     1      87.863 326.085 196.693  1.00  0.00     0.000 C 
BRANCH  21  22
ATOM     22  C   UNL     1      88.802 326.518 195.550  1.00  0.00     0.000 C 
BRANCH  22  23
ATOM     23  C   UNL     1      88.183 326.463 194.138  1.00  0.00     0.000 C 
BRANCH  23  24
ATOM     24  C   UNL     1      86.656 326.243 194.099  1.00  0.00    -0.000 C 
BRANCH  24  25
ATOM     25  C   UNL     1      86.199 325.009 193.301  1.00  0.00    -0.000 C 
BRANCH  25  26
ATOM     26  C   UNL     1      86.990 323.741 193.654  1.00  0.00    -0.000 C 
BRANCH  26  27
ATOM     27  C   UNL     1      88.143 323.525 192.663  1.00  0.00    -0.000 C 
BRANCH  27  28
ATOM     28  C   UNL     1      87.953 324.287 191.338  1.00  0.00    -0.000 C 
BRANCH  28  29
ATOM     29  C   UNL     1      88.242 323.464 190.069  1.00  0.00    -0.000 C 
BRANCH  29  30
ATOM     30  C   UNL     1      87.826 321.992 190.202  1.00  0.00    -0.000 C 
BRANCH  30  31
ATOM     31  C   UNL     1      86.346 321.806 189.846  1.00  0.00    -0.003 C 
ATOM     32  C   UNL     1      86.112 321.984 188.348  1.00  0.00     0.004 C 
ENDBRANCH  30  31
ENDBRANCH  29  30
ENDBRANCH  28  29
ENDBRANCH  27  28
ENDBRANCH  26  27
ENDBRANCH  25  26
ENDBRANCH  24  25
ENDBRANCH  23  24
ENDBRANCH  22  23
ENDBRANCH  21  22
ENDBRANCH  20  21
ENDBRANCH  19  20
ENDBRANCH  18  19
ENDBRANCH   1  18
TORSDOF 28
ENDMDL
MODEL 4
REMARK VINA RESULT:    -6.053      3.049      5.093
REMARK INTER + INTRA:         -18.561
REMARK INTER:                 -15.446
REMARK INTRA:                  -3.115
REMARK UNBOUND:                -2.598
REMARK SMILES CCCCCCCCCCCCCCCCCCCCCCCCCCCCCC(=O)[O-]
REMARK SMILES IDX 16 1 17 2 18 3 19 4 20 5 21 6 22 7 23 8 24 9 25 10 26 11
REMARK SMILES IDX 27 12 28 13 29 14 30 15 31 16 32 17 15 18 14 19 13 20 12 21
REMARK SMILES IDX 11 22 10 23 9 24 8 25 7 26 6 27 5 28 4 29 3 30 2 31 1 32
REMARK H PARENT
REMARK Flexibility Score: inf
ROOT
ATOM      1  C   UNL     1      91.047 327.471 204.097  1.00  0.00     0.000 C 
ENDROOT
BRANCH   1   2
ATOM      2  C   UNL     1      89.785 327.415 204.983  1.00  0.00     0.000 C 
BRANCH   2   3
ATOM      3  C   UNL     1      90.009 326.881 206.410  1.00  0.00     0.000 C 
BRANCH   3   4
ATOM      4  C   UNL     1      89.042 325.743 206.780  1.00  0.00     0.000 C 
BRANCH   4   5
ATOM      5  C   UNL     1      87.992 325.470 205.688  1.00  0.00     0.000 C 
BRANCH   5   6
ATOM      6  C   UNL     1      86.744 324.695 206.156  1.00  0.00     0.000 C 
BRANCH   6   7
ATOM      7  C   UNL     1      86.304 323.541 205.233  1.00  0.00     0.000 C 
BRANCH   7   8
ATOM      8  C   UNL     1      87.016 323.486 203.870  1.00  0.00     0.000 C 
BRANCH   8   9
ATOM      9  C   UNL     1      86.095 323.844 202.694  1.00  0.00     0.000 C 
BRANCH   9  10
ATOM     10  C   UNL     1      86.137 322.751 201.615  1.00  0.00     0.000 C 
BRANCH  10  11
ATOM     11  C   UNL     1      87.556 322.209 201.375  1.00  0.00     0.000 C 
BRANCH  11  12
ATOM     12  C   UNL     1      88.173 322.728 200.064  1.00  0.00     0.000 C 
BRANCH  12  13
ATOM     13  C   UNL     1      88.598 321.596 199.110  1.00  0.00     0.006 C 
BRANCH  13  14
ATOM     14  C   UNL     1      89.298 322.088 197.831  1.00  0.00     0.053 C 
BRANCH  14  15
ATOM     15  C   UNL     1      88.533 321.754 196.586  1.00  0.00     0.041 C 
ATOM     16  O   UNL     1      87.585 322.491 196.205  1.00  0.00    -0.550 OA
ATOM     17  O   UNL     1      88.844 320.610 195.864  1.00  0.00    -0.550 OA
ENDBRANCH  14  15
ENDBRANCH  13  14
ENDBRANCH  12  13
ENDBRANCH  11  12
ENDBRANCH  10  11
ENDBRANCH   9  10
ENDBRANCH   8   9
ENDBRANCH   7   8
ENDBRANCH   6   7
ENDBRANCH   5   6
ENDBRANCH   4   5
ENDBRANCH   3   4
ENDBRANCH   2   3
ENDBRANCH   1   2
BRANCH   1  18
ATOM     18  C   UNL     1      90.887 326.861 202.690  1.00  0.00     0.000 C 
BRANCH  18  19
ATOM     19  C   UNL     1      89.740 325.842 202.558  1.00  0.00     0.000 C 
BRANCH  19  20
ATOM     20  C   UNL     1      88.855 326.106 201.328  1.00  0.00     0.000 C 
BRANCH  20  21
ATOM     21  C   UNL     1      89.654 326.119 200.013  1.00  0.00     0.000 C 
BRANCH  21  22
ATOM     22  C   UNL     1      88.865 326.617 198.785  1.00  0.00     0.000 C 
BRANCH  22  23
ATOM     23  C   UNL     1      88.561 325.541 197.723  1.00  0.00     0.000 C 
BRANCH  23  24
ATOM     24  C   UNL     1      87.855 326.055 196.452  1.00  0.00    -0.000 C 
BRANCH  24  25
ATOM     25  C   UNL     1      88.799 326.468 195.308  1.00  0.00    -0.000 C 
BRANCH  25  26
ATOM     26  C   UNL     1      88.051 326.828 194.016  1.00  0.00    -0.000 C 
BRANCH  26  27
ATOM     27  C   UNL     1      86.710 326.084 193.937  1.00  0.00    -0.000 C 
BRANCH  27  28
ATOM     28  C   UNL     1      86.801 324.752 193.171  1.00  0.00    -0.000 C 
BRANCH  28  29
ATOM     29  C   UNL     1      87.906 324.693 192.099  1.00  0.00    -0.000 C 
BRANCH  29  30
ATOM     30  C   UNL     1      88.109 323.282 191.526  1.00  0.00    -0.000 C 
BRANCH  30  31
ATOM     31  C   UNL     1      87.813 323.253 190.021  1.00  0.00    -0.003 C 
ATOM     32  C   UNL     1      89.064 322.902 189.219  1.00  0.00     0.004 C 
ENDBRANCH  30  31
ENDBRANCH  29  30
ENDBRANCH  28  29
ENDBRANCH  27  28
ENDBRANCH  26  27
ENDBRANCH  25  26
ENDBRANCH  24  25
ENDBRANCH  23  24
ENDBRANCH  22  23
ENDBRANCH  21  22
ENDBRANCH  20  21
ENDBRANCH  19  20
ENDBRANCH  18  19
ENDBRANCH   1  18
TORSDOF 28
ENDMDL
MODEL 5
REMARK VINA RESULT:    -6.018      3.969     11.758
REMARK INTER + INTRA:         -18.468
REMARK INTER:                 -15.979
REMARK INTRA:                  -2.489
REMARK UNBOUND:                -2.598
REMARK SMILES CCCCCCCCCCCCCCCCCCCCCCCCCCCCCC(=O)[O-]
REMARK SMILES IDX 16 1 17 2 18 3 19 4 20 5 21 6 22 7 23 8 24 9 25 10 26 11
REMARK SMILES IDX 27 12 28 13 29 14 30 15 31 16 32 17 15 18 14 19 13 20 12 21
REMARK SMILES IDX 11 22 10 23 9 24 8 25 7 26 6 27 5 28 4 29 3 30 2 31 1 32
REMARK H PARENT
REMARK Flexibility Score: inf
ROOT
ATOM      1  C   UNL     1      89.806 324.878 199.999  1.00  0.00     0.000 C 
ENDROOT
BRANCH   1   2
ATOM      2  C   UNL     1      88.869 324.840 198.774  1.00  0.00     0.000 C 
BRANCH   2   3
ATOM      3  C   UNL     1      88.612 326.202 198.103  1.00  0.00     0.000 C 
BRANCH   3   4
ATOM      4  C   UNL     1      87.913 326.071 196.738  1.00  0.00     0.000 C 
BRANCH   4   5
ATOM      5  C   UNL     1      88.829 326.434 195.557  1.00  0.00     0.000 C 
BRANCH   5   6
ATOM      6  C   UNL     1      88.102 326.754 194.236  1.00  0.00     0.000 C 
BRANCH   6   7
ATOM      7  C   UNL     1      86.614 326.352 194.191  1.00  0.00     0.000 C 
BRANCH   7   8
ATOM      8  C   UNL     1      86.297 325.116 193.331  1.00  0.00     0.000 C 
BRANCH   8   9
ATOM      9  C   UNL     1      87.030 323.850 193.801  1.00  0.00     0.000 C 
BRANCH   9  10
ATOM     10  C   UNL     1      88.204 323.519 192.867  1.00  0.00     0.000 C 
BRANCH  10  11
ATOM     11  C   UNL     1      87.984 324.031 191.435  1.00  0.00     0.000 C 
BRANCH  11  12
ATOM     12  C   UNL     1      87.176 323.045 190.572  1.00  0.00     0.000 C 
BRANCH  12  13
ATOM     13  C   UNL     1      87.892 322.662 189.264  1.00  0.00     0.006 C 
BRANCH  13  14
ATOM     14  C   UNL     1      89.229 323.395 189.047  1.00  0.00     0.053 C 
BRANCH  14  15
ATOM     15  C   UNL     1      90.268 322.526 188.407  1.00  0.00     0.041 C 
ATOM     16  O   UNL     1      89.928 321.522 187.728  1.00  0.00    -0.550 OA
ATOM     17  O   UNL     1      91.616 322.806 188.588  1.00  0.00    -0.550 OA
ENDBRANCH  14  15
ENDBRANCH  13  14
ENDBRANCH  12  13
ENDBRANCH  11  12
ENDBRANCH  10  11
ENDBRANCH   9  10
ENDBRANCH   8   9
ENDBRANCH   7   8
ENDBRANCH   6   7
ENDBRANCH   5   6
ENDBRANCH   4   5
ENDBRANCH   3   4
ENDBRANCH   2   3
ENDBRANCH   1   2
BRANCH   1  18
ATOM     18  C   UNL     1      89.813 326.208 200.779  1.00  0.00     0.000 C 
BRANCH  18  19
ATOM     19  C   UNL     1      91.148 326.540 201.472  1.00  0.00     0.000 C 
BRANCH  19  20
ATOM     20  C   UNL     1      90.970 326.885 202.960  1.00  0.00     0.000 C 
BRANCH  20  21
ATOM     21  C   UNL     1      89.565 326.545 203.486  1.00  0.00     0.000 C 
BRANCH  21  22
ATOM     22  C   UNL     1      89.012 327.535 204.531  1.00  0.00     0.000 C 
BRANCH  22  23
ATOM     23  C   UNL     1      89.317 327.173 205.998  1.00  0.00     0.000 C 
BRANCH  23  24
ATOM     24  C   UNL     1      89.051 325.703 206.382  1.00  0.00    -0.000 C 
BRANCH  24  25
ATOM     25  C   UNL     1      87.571 325.351 206.618  1.00  0.00    -0.000 C 
BRANCH  25  26
ATOM     26  C   UNL     1      87.242 323.890 206.281  1.00  0.00    -0.000 C 
BRANCH  26  27
ATOM     27  C   UNL     1      86.247 323.810 205.114  1.00  0.00    -0.000 C 
BRANCH  27  28
ATOM     28  C   UNL     1      86.876 324.175 203.756  1.00  0.00    -0.000 C 
BRANCH  28  29
ATOM     29  C   UNL     1      86.348 323.365 202.558  1.00  0.00    -0.000 C 
BRANCH  29  30
ATOM     30  C   UNL     1      87.168 322.095 202.285  1.00  0.00    -0.000 C 
BRANCH  30  31
ATOM     31  C   UNL     1      86.343 320.836 202.575  1.00  0.00    -0.003 C 
ATOM     32  C   UNL     1      86.566 320.347 204.004  1.00  0.00     0.004 C 
ENDBRANCH  30  31
ENDBRANCH  29  30
ENDBRANCH  28  29
ENDBRANCH  27  28
ENDBRANCH  26  27
ENDBRANCH  25  26
ENDBRANCH  24  25
ENDBRANCH  23  24
ENDBRANCH  22  23
ENDBRANCH  21  22
ENDBRANCH  20  21
ENDBRANCH  19  20
ENDBRANCH  18  19
ENDBRANCH   1  18
TORSDOF 28
ENDMDL
MODEL 6
REMARK VINA RESULT:    -6.010      2.760      4.365
REMARK INTER + INTRA:         -18.446
REMARK INTER:                 -14.119
REMARK INTRA:                  -4.327
REMARK UNBOUND:                -2.598
REMARK SMILES CCCCCCCCCCCCCCCCCCCCCCCCCCCCCC(=O)[O-]
REMARK SMILES IDX 16 1 17 2 18 3 19 4 20 5 21 6 22 7 23 8 24 9 25 10 26 11
REMARK SMILES IDX 27 12 28 13 29 14 30 15 31 16 32 17 15 18 14 19 13 20 12 21
REMARK SMILES IDX 11 22 10 23 9 24 8 25 7 26 6 27 5 28 4 29 3 30 2 31 1 32
REMARK H PARENT
REMARK Flexibility Score: inf
ROOT
ATOM      1  C   UNL     1      89.564 323.113 197.955  1.00  0.00     0.000 C 
ENDROOT
BRANCH   1   2
ATOM      2  C   UNL     1      88.110 322.752 198.324  1.00  0.00     0.000 C 
BRANCH   2   3
ATOM      3  C   UNL     1      87.832 322.612 199.832  1.00  0.00     0.000 C 
BRANCH   3   4
ATOM      4  C   UNL     1      89.053 322.967 200.699  1.00  0.00     0.000 C 
BRANCH   4   5
ATOM      5  C   UNL     1      88.717 323.952 201.834  1.00  0.00     0.000 C 
BRANCH   5   6
ATOM      6  C   UNL     1      88.140 325.306 201.378  1.00  0.00     0.000 C 
BRANCH   6   7
ATOM      7  C   UNL     1      89.128 326.489 201.420  1.00  0.00     0.000 C 
BRANCH   7   8
ATOM      8  C   UNL     1      90.611 326.106 201.271  1.00  0.00     0.000 C 
BRANCH   8   9
ATOM      9  C   UNL     1      91.534 326.892 202.214  1.00  0.00     0.000 C 
BRANCH   9  10
ATOM     10  C   UNL     1      91.299 326.483 203.676  1.00  0.00     0.000 C 
BRANCH  10  11
ATOM     11  C   UNL     1      90.767 327.640 204.537  1.00  0.00     0.000 C 
BRANCH  11  12
ATOM     12  C   UNL     1      89.419 327.309 205.203  1.00  0.00     0.000 C 
BRANCH  12  13
ATOM     13  C   UNL     1      89.097 325.803 205.196  1.00  0.00     0.006 C 
BRANCH  13  14
ATOM     14  C   UNL     1      87.698 325.462 205.739  1.00  0.00     0.053 C 
BRANCH  14  15
ATOM     15  C   UNL     1      87.278 324.060 205.416  1.00  0.00     0.041 C 
ATOM     16  O   UNL     1      86.056 323.766 205.331  1.00  0.00    -0.550 OA
ATOM     17  O   UNL     1      88.235 323.070 205.243  1.00  0.00    -0.550 OA
ENDBRANCH  14  15
ENDBRANCH  13  14
ENDBRANCH  12  13
ENDBRANCH  11  12
ENDBRANCH  10  11
ENDBRANCH   9  10
ENDBRANCH   8   9
ENDBRANCH   7   8
ENDBRANCH   6   7
ENDBRANCH   5   6
ENDBRANCH   4   5
ENDBRANCH   3   4
ENDBRANCH   2   3
ENDBRANCH   1   2
BRANCH   1  18
ATOM     18  C   UNL     1      89.748 324.489 197.286  1.00  0.00     0.000 C 
BRANCH  18  19
ATOM     19  C   UNL     1      88.770 325.575 197.770  1.00  0.00     0.000 C 
BRANCH  19  20
ATOM     20  C   UNL     1      87.959 326.195 196.620  1.00  0.00     0.000 C 
BRANCH  20  21
ATOM     21  C   UNL     1      88.820 326.501 195.382  1.00  0.00     0.000 C 
BRANCH  21  22
ATOM     22  C   UNL     1      88.022 326.756 194.089  1.00  0.00     0.000 C 
BRANCH  22  23
ATOM     23  C   UNL     1      87.797 325.513 193.203  1.00  0.00     0.000 C 
BRANCH  23  24
ATOM     24  C   UNL     1      86.564 324.662 193.569  1.00  0.00    -0.000 C 
BRANCH  24  25
ATOM     25  C   UNL     1      86.863 323.424 194.433  1.00  0.00    -0.000 C 
BRANCH  25  26
ATOM     26  C   UNL     1      88.307 322.923 194.282  1.00  0.00    -0.000 C 
BRANCH  26  27
ATOM     27  C   UNL     1      88.349 321.615 193.478  1.00  0.00    -0.000 C 
BRANCH  27  28
ATOM     28  C   UNL     1      87.677 321.731 192.098  1.00  0.00    -0.000 C 
BRANCH  28  29
ATOM     29  C   UNL     1      88.620 322.124 190.947  1.00  0.00    -0.000 C 
BRANCH  29  30
ATOM     30  C   UNL     1      88.191 323.416 190.235  1.00  0.00    -0.000 C 
BRANCH  30  31
ATOM     31  C   UNL     1      89.085 323.697 189.022  1.00  0.00    -0.003 C 
ATOM     32  C   UNL     1      90.118 322.589 188.829  1.00  0.00     0.004 C 
ENDBRANCH  30  31
ENDBRANCH  29  30
ENDBRANCH  28  29
ENDBRANCH  27  28
ENDBRANCH  26  27
ENDBRANCH  25  26
ENDBRANCH  24  25
ENDBRANCH  23  24
ENDBRANCH  22  23
ENDBRANCH  21  22
ENDBRANCH  20  21
ENDBRANCH  19  20
ENDBRANCH  18  19
ENDBRANCH   1  18
TORSDOF 28
ENDMDL
MODEL 7
REMARK VINA RESULT:    -5.991      3.051      5.562
REMARK INTER + INTRA:         -18.396
REMARK INTER:                 -14.660
REMARK INTRA:                  -3.736
REMARK UNBOUND:                -2.598
REMARK SMILES CCCCCCCCCCCCCCCCCCCCCCCCCCCCCC(=O)[O-]
REMARK SMILES IDX 16 1 17 2 18 3 19 4 20 5 21 6 22 7 23 8 24 9 25 10 26 11
REMARK SMILES IDX 27 12 28 13 29 14 30 15 31 16 32 17 15 18 14 19 13 20 12 21
REMARK SMILES IDX 11 22 10 23 9 24 8 25 7 26 6 27 5 28 4 29 3 30 2 31 1 32
REMARK H PARENT
REMARK Flexibility Score: inf
ROOT
ATOM      1  C   UNL     1      88.722 324.579 199.978  1.00  0.00     0.000 C 
ENDROOT
BRANCH   1   2
ATOM      2  C   UNL     1      88.928 325.673 201.047  1.00  0.00     0.000 C 
BRANCH   2   3
ATOM      3  C   UNL     1      90.360 326.230 201.148  1.00  0.00     0.000 C 
BRANCH   3   4
ATOM      4  C   UNL     1      90.643 326.903 202.503  1.00  0.00     0.000 C 
BRANCH   4   5
ATOM      5  C   UNL     1      89.505 326.707 203.520  1.00  0.00     0.000 C 
BRANCH   5   6
ATOM      6  C   UNL     1      89.884 326.976 204.989  1.00  0.00     0.000 C 
BRANCH   6   7
ATOM      7  C   UNL     1      88.737 326.805 206.005  1.00  0.00     0.000 C 
BRANCH   7   8
ATOM      8  C   UNL     1      88.991 325.761 207.108  1.00  0.00     0.000 C 
BRANCH   8   9
ATOM      9  C   UNL     1      88.020 324.572 207.047  1.00  0.00     0.000 C 
BRANCH   9  10
ATOM     10  C   UNL     1      86.731 324.956 206.306  1.00  0.00     0.000 C 
BRANCH  10  11
ATOM     11  C   UNL     1      86.230 323.843 205.372  1.00  0.00     0.000 C 
BRANCH  11  12
ATOM     12  C   UNL     1      87.080 323.717 204.095  1.00  0.00     0.000 C 
BRANCH  12  13
ATOM     13  C   UNL     1      86.252 323.853 202.804  1.00  0.00     0.006 C 
BRANCH  13  14
ATOM     14  C   UNL     1      86.240 322.584 201.933  1.00  0.00     0.053 C 
BRANCH  14  15
ATOM     15  C   UNL     1      87.002 321.451 202.551  1.00  0.00     0.041 C 
ATOM     16  O   UNL     1      86.416 320.622 203.297  1.00  0.00    -0.550 OA
ATOM     17  O   UNL     1      88.367 321.329 202.331  1.00  0.00    -0.550 OA
ENDBRANCH  14  15
ENDBRANCH  13  14
ENDBRANCH  12  13
ENDBRANCH  11  12
ENDBRANCH  10  11
ENDBRANCH   9  10
ENDBRANCH   8   9
ENDBRANCH   7   8
ENDBRANCH   6   7
ENDBRANCH   5   6
ENDBRANCH   4   5
ENDBRANCH   3   4
ENDBRANCH   2   3
ENDBRANCH   1   2
BRANCH   1  18
ATOM     18  C   UNL     1      89.159 324.968 198.551  1.00  0.00     0.000 C 
BRANCH  18  19
ATOM     19  C   UNL     1      88.521 326.262 198.014  1.00  0.00     0.000 C 
BRANCH  19  20
ATOM     20  C   UNL     1      87.902 326.080 196.617  1.00  0.00     0.000 C 
BRANCH  20  21
ATOM     21  C   UNL     1      88.840 326.538 195.487  1.00  0.00     0.000 C 
BRANCH  21  22
ATOM     22  C   UNL     1      88.146 326.783 194.133  1.00  0.00     0.000 C 
BRANCH  22  23
ATOM     23  C   UNL     1      86.702 326.251 194.033  1.00  0.00     0.000 C 
BRANCH  23  24
ATOM     24  C   UNL     1      86.522 325.006 193.140  1.00  0.00    -0.000 C 
BRANCH  24  25
ATOM     25  C   UNL     1      87.805 324.513 192.447  1.00  0.00    -0.000 C 
BRANCH  25  26
ATOM     26  C   UNL     1      88.247 323.122 192.923  1.00  0.00    -0.000 C 
BRANCH  26  27
ATOM     27  C   UNL     1      88.727 323.172 194.381  1.00  0.00    -0.000 C 
BRANCH  27  28
ATOM     28  C   UNL     1      87.899 322.279 195.323  1.00  0.00    -0.000 C 
BRANCH  28  29
ATOM     29  C   UNL     1      88.635 321.816 196.593  1.00  0.00    -0.000 C 
BRANCH  29  30
ATOM     30  C   UNL     1      90.161 321.961 196.487  1.00  0.00    -0.000 C 
BRANCH  30  31
ATOM     31  C   UNL     1      90.835 321.657 197.831  1.00  0.00    -0.003 C 
ATOM     32  C   UNL     1      89.827 321.123 198.846  1.00  0.00     0.004 C 
ENDBRANCH  30  31
ENDBRANCH  29  30
ENDBRANCH  28  29
ENDBRANCH  27  28
ENDBRANCH  26  27
ENDBRANCH  25  26
ENDBRANCH  24  25
ENDBRANCH  23  24
ENDBRANCH  22  23
ENDBRANCH  21  22
ENDBRANCH  20  21
ENDBRANCH  19  20
ENDBRANCH  18  19
ENDBRANCH   1  18
TORSDOF 28
ENDMDL
MODEL 8
REMARK VINA RESULT:    -5.973      1.963      5.144
REMARK INTER + INTRA:         -18.349
REMARK INTER:                 -13.641
REMARK INTRA:                  -4.708
REMARK UNBOUND:                -2.598
REMARK SMILES CCCCCCCCCCCCCCCCCCCCCCCCCCCCCC(=O)[O-]
REMARK SMILES IDX 16 1 17 2 18 3 19 4 20 5 21 6 22 7 23 8 24 9 25 10 26 11
REMARK SMILES IDX 27 12 28 13 29 14 30 15 31 16 32 17 15 18 14 19 13 20 12 21
REMARK SMILES IDX 11 22 10 23 9 24 8 25 7 26 6 27 5 28 4 29 3 30 2 31 1 32
REMARK H PARENT
REMARK Flexibility Score: inf
ROOT
ATOM      1  C   UNL     1      89.241 325.706 198.129  1.00  0.00     0.000 C 
ENDROOT
BRANCH   1   2
ATOM      2  C   UNL     1      88.796 326.498 199.377  1.00  0.00     0.000 C 
BRANCH   2   3
ATOM      3  C   UNL     1      89.566 326.173 200.669  1.00  0.00     0.000 C 
BRANCH   3   4
ATOM      4  C   UNL     1      88.681 325.512 201.740  1.00  0.00     0.000 C 
BRANCH   4   5
ATOM      5  C   UNL     1      89.467 324.568 202.669  1.00  0.00     0.000 C 
BRANCH   5   6
ATOM      6  C   UNL     1      88.602 323.666 203.572  1.00  0.00     0.000 C 
BRANCH   6   7
ATOM      7  C   UNL     1      87.079 323.811 203.380  1.00  0.00     0.000 C 
BRANCH   7   8
ATOM      8  C   UNL     1      86.256 323.824 204.681  1.00  0.00     0.000 C 
BRANCH   8   9
ATOM      9  C   UNL     1      87.124 323.948 205.942  1.00  0.00     0.000 C 
BRANCH   9  10
ATOM     10  C   UNL     1      87.017 325.358 206.544  1.00  0.00     0.000 C 
BRANCH  10  11
ATOM     11  C   UNL     1      88.386 326.033 206.718  1.00  0.00     0.000 C 
BRANCH  11  12
ATOM     12  C   UNL     1      88.785 326.883 205.498  1.00  0.00     0.000 C 
BRANCH  12  13
ATOM     13  C   UNL     1      90.278 327.260 205.488  1.00  0.00     0.006 C 
BRANCH  13  14
ATOM     14  C   UNL     1      90.810 327.666 204.102  1.00  0.00     0.053 C 
BRANCH  14  15
ATOM     15  C   UNL     1      92.082 326.960 203.741  1.00  0.00     0.041 C 
ATOM     16  O   UNL     1      92.454 326.895 202.539  1.00  0.00    -0.550 OA
ATOM     17  O   UNL     1      92.841 326.345 204.728  1.00  0.00    -0.550 OA
ENDBRANCH  14  15
ENDBRANCH  13  14
ENDBRANCH  12  13
ENDBRANCH  11  12
ENDBRANCH  10  11
ENDBRANCH   9  10
ENDBRANCH   8   9
ENDBRANCH   7   8
ENDBRANCH   6   7
ENDBRANCH   5   6
ENDBRANCH   4   5
ENDBRANCH   3   4
ENDBRANCH   2   3
ENDBRANCH   1   2
BRANCH   1  18
ATOM     18  C   UNL     1      88.674 326.219 196.790  1.00  0.00     0.000 C 
BRANCH  18  19
ATOM     19  C   UNL     1      87.145 326.101 196.653  1.00  0.00     0.000 C 
BRANCH  19  20
ATOM     20  C   UNL     1      86.663 326.328 195.210  1.00  0.00     0.000 C 
BRANCH  20  21
ATOM     21  C   UNL     1      87.773 326.863 194.289  1.00  0.00     0.000 C 
BRANCH  21  22
ATOM     22  C   UNL     1      88.116 325.950 193.096  1.00  0.00     0.000 C 
BRANCH  22  23
ATOM     23  C   UNL     1      87.309 324.638 193.023  1.00  0.00     0.000 C 
BRANCH  23  24
ATOM     24  C   UNL     1      88.085 323.418 192.488  1.00  0.00    -0.000 C 
BRANCH  24  25
ATOM     25  C   UNL     1      88.531 322.410 193.564  1.00  0.00    -0.000 C 
BRANCH  25  26
ATOM     26  C   UNL     1      88.649 323.038 194.960  1.00  0.00    -0.000 C 
BRANCH  26  27
ATOM     27  C   UNL     1      87.780 322.279 195.974  1.00  0.00    -0.000 C 
BRANCH  27  28
ATOM     28  C   UNL     1      88.554 321.853 197.234  1.00  0.00    -0.000 C 
BRANCH  28  29
ATOM     29  C   UNL     1      88.125 322.564 198.531  1.00  0.00    -0.000 C 
BRANCH  29  30
ATOM     30  C   UNL     1      89.123 322.365 199.682  1.00  0.00    -0.000 C 
BRANCH  30  31
ATOM     31  C   UNL     1      90.567 322.379 199.164  1.00  0.00    -0.003 C 
ATOM     32  C   UNL     1      91.511 323.016 200.181  1.00  0.00     0.004 C 
ENDBRANCH  30  31
ENDBRANCH  29  30
ENDBRANCH  28  29
ENDBRANCH  27  28
ENDBRANCH  26  27
ENDBRANCH  25  26
ENDBRANCH  24  25
ENDBRANCH  23  24
ENDBRANCH  22  23
ENDBRANCH  21  22
ENDBRANCH  20  21
ENDBRANCH  19  20
ENDBRANCH  18  19
ENDBRANCH   1  18
TORSDOF 28
ENDMDL
MODEL 9
REMARK VINA RESULT:    -5.965      2.195      3.783
REMARK INTER + INTRA:         -18.326
REMARK INTER:                 -14.540
REMARK INTRA:                  -3.787
REMARK UNBOUND:                -2.598
REMARK SMILES CCCCCCCCCCCCCCCCCCCCCCCCCCCCCC(=O)[O-]
REMARK SMILES IDX 16 1 17 2 18 3 19 4 20 5 21 6 22 7 23 8 24 9 25 10 26 11
REMARK SMILES IDX 27 12 28 13 29 14 30 15 31 16 32 17 15 18 14 19 13 20 12 21
REMARK SMILES IDX 11 22 10 23 9 24 8 25 7 26 6 27 5 28 4 29 3 30 2 31 1 32
REMARK H PARENT
REMARK Flexibility Score: inf
ROOT
ATOM      1  C   UNL     1      89.554 324.691 201.722  1.00  0.00     0.000 C 
ENDROOT
BRANCH   1   2
ATOM      2  C   UNL     1      88.617 323.466 201.775  1.00  0.00     0.000 C 
BRANCH   2   3
ATOM      3  C   UNL     1      87.115 323.793 201.876  1.00  0.00     0.000 C 
BRANCH   3   4
ATOM      4  C   UNL     1      86.243 322.538 202.053  1.00  0.00     0.000 C 
BRANCH   4   5
ATOM      5  C   UNL     1      87.006 321.361 202.687  1.00  0.00     0.000 C 
BRANCH   5   6
ATOM      6  C   UNL     1      86.668 321.078 204.164  1.00  0.00     0.000 C 
BRANCH   6   7
ATOM      7  C   UNL     1      87.267 322.075 205.177  1.00  0.00     0.000 C 
BRANCH   7   8
ATOM      8  C   UNL     1      86.292 323.149 205.691  1.00  0.00     0.000 C 
BRANCH   8   9
ATOM      9  C   UNL     1      86.787 324.582 205.441  1.00  0.00     0.000 C 
BRANCH   9  10
ATOM     10  C   UNL     1      86.974 325.335 206.766  1.00  0.00     0.000 C 
BRANCH  10  11
ATOM     11  C   UNL     1      88.302 326.105 206.827  1.00  0.00     0.000 C 
BRANCH  11  12
ATOM     12  C   UNL     1      89.115 325.985 205.526  1.00  0.00     0.000 C 
BRANCH  12  13
ATOM     13  C   UNL     1      89.347 327.341 204.833  1.00  0.00     0.006 C 
BRANCH  13  14
ATOM     14  C   UNL     1      90.685 327.435 204.077  1.00  0.00     0.053 C 
BRANCH  14  15
ATOM     15  C   UNL     1      91.870 327.421 204.993  1.00  0.00     0.041 C 
ATOM     16  O   UNL     1      92.907 326.777 204.681  1.00  0.00    -0.550 OA
ATOM     17  O   UNL     1      91.819 328.091 206.208  1.00  0.00    -0.550 OA
ENDBRANCH  14  15
ENDBRANCH  13  14
ENDBRANCH  12  13
ENDBRANCH  11  12
ENDBRANCH  10  11
ENDBRANCH   9  10
ENDBRANCH   8   9
ENDBRANCH   7   8
ENDBRANCH   6   7
ENDBRANCH   5   6
ENDBRANCH   4   5
ENDBRANCH   3   4
ENDBRANCH   2   3
ENDBRANCH   1   2
BRANCH   1  18
ATOM     18  C   UNL     1      88.894 326.000 201.244  1.00  0.00     0.000 C 
BRANCH  18  19
ATOM     19  C   UNL     1      89.395 326.512 199.881  1.00  0.00     0.000 C 
BRANCH  19  20
ATOM     20  C   UNL     1      88.903 325.646 198.709  1.00  0.00     0.000 C 
BRANCH  20  21
ATOM     21  C   UNL     1      88.271 326.479 197.579  1.00  0.00     0.000 C 
BRANCH  21  22
ATOM     22  C   UNL     1      87.414 325.671 196.586  1.00  0.00     0.000 C 
BRANCH  22  23
ATOM     23  C   UNL     1      86.515 326.517 195.660  1.00  0.00     0.000 C 
BRANCH  23  24
ATOM     24  C   UNL     1      86.575 326.141 194.165  1.00  0.00    -0.000 C 
BRANCH  24  25
ATOM     25  C   UNL     1      87.974 325.760 193.647  1.00  0.00    -0.000 C 
BRANCH  25  26
ATOM     26  C   UNL     1      87.931 324.986 192.322  1.00  0.00    -0.000 C 
BRANCH  26  27
ATOM     27  C   UNL     1      87.783 323.479 192.575  1.00  0.00    -0.000 C 
BRANCH  27  28
ATOM     28  C   UNL     1      88.585 322.989 193.794  1.00  0.00    -0.000 C 
BRANCH  28  29
ATOM     29  C   UNL     1      87.780 322.153 194.807  1.00  0.00    -0.000 C 
BRANCH  29  30
ATOM     30  C   UNL     1      88.264 322.335 196.253  1.00  0.00    -0.000 C 
BRANCH  30  31
ATOM     31  C   UNL     1      89.751 322.708 196.291  1.00  0.00    -0.003 C 
ATOM     32  C   UNL     1      90.337 322.500 197.685  1.00  0.00     0.004 C 
ENDBRANCH  30  31
ENDBRANCH  29  30
ENDBRANCH  28  29
ENDBRANCH  27  28
ENDBRANCH  26  27
ENDBRANCH  25  26
ENDBRANCH  24  25
ENDBRANCH  23  24
ENDBRANCH  22  23
ENDBRANCH  21  22
ENDBRANCH  20  21
ENDBRANCH  19  20
ENDBRANCH  18  19
ENDBRANCH   1  18
TORSDOF 28
ENDMDL
