MODEL 1
REMARK VINA RESULT:    -1.320      0.000      0.000
REMARK INTER + INTRA:          -4.317
REMARK INTER:                  -2.555
REMARK INTRA:                  -1.762
REMARK UNBOUND:                -1.762
REMARK SMILES CCCCCCCCCCCCCCCCCC(=O)[O-]
REMARK SMILES IDX 10 1 11 2 12 3 13 4 14 5 15 6 16 7 17 8 18 9 19 10 20 11
REMARK SMILES IDX 9 12 8 13 7 14 6 15 5 16 4 17 3 18 2 19 1 20
REMARK H PARENT
REMARK Flexibility Score: inf
ROOT
ATOM      1  C   UNL     1     -21.148   0.175  13.726  1.00  0.00     0.000 C 
ENDROOT
BRANCH   1   2
ATOM      2  C   UNL     1     -21.763   1.516  13.274  1.00  0.00     0.000 C 
BRANCH   2   3
ATOM      3  C   UNL     1     -21.434   1.885  11.817  1.00  0.00     0.000 C 
BRANCH   3   4
ATOM      4  C   UNL     1     -22.421   1.281  10.810  1.00  0.00     0.000 C 
BRANCH   4   5
ATOM      5  C   UNL     1     -21.750   1.053   9.451  1.00  0.00     0.000 C 
BRANCH   5   6
ATOM      6  C   UNL     1     -21.980   2.250   8.517  1.00  0.00     0.000 C 
BRANCH   6   7
ATOM      7  C   UNL     1     -21.461   2.002   7.088  1.00  0.00     0.006 C 
BRANCH   7   8
ATOM      8  C   UNL     1     -20.339   0.954   6.996  1.00  0.00     0.053 C 
BRANCH   8   9
ATOM      9  C   UNL     1     -20.799  -0.305   6.329  1.00  0.00     0.041 C 
ATOM     10  O   UNL     1     -20.000  -0.979   5.627  1.00  0.00    -0.550 OA
ATOM     11  O   UNL     1     -22.100  -0.754   6.514  1.00  0.00    -0.550 OA
ENDBRANCH   8   9
ENDBRANCH   7   8
ENDBRANCH   6   7
ENDBRANCH   5   6
ENDBRANCH   4   5
ENDBRANCH   3   4
ENDBRANCH   2   3
ENDBRANCH   1   2
BRANCH   1  12
ATOM     12  C   UNL     1     -22.107  -1.007  13.505  1.00  0.00     0.000 C 
BRANCH  12  13
ATOM     13  C   UNL     1     -21.417  -2.216  12.853  1.00  0.00    -0.000 C 
BRANCH  13  14
ATOM     14  C   UNL     1     -20.535  -1.819  11.657  1.00  0.00    -0.000 C 
BRANCH  14  15
ATOM     15  C   UNL     1     -21.088  -2.335  10.318  1.00  0.00    -0.000 C 
BRANCH  15  16
ATOM     16  C   UNL     1     -19.982  -2.616   9.292  1.00  0.00    -0.000 C 
BRANCH  16  17
ATOM     17  C   UNL     1     -20.502  -3.497   8.150  1.00  0.00    -0.000 C 
BRANCH  17  18
ATOM     18  C   UNL     1     -19.635  -4.754   7.984  1.00  0.00    -0.000 C 
BRANCH  18  19
ATOM     19  C   UNL     1     -20.468  -6.044   7.946  1.00  0.00    -0.003 C 
ATOM     20  C   UNL     1     -21.665  -6.004   8.895  1.00  0.00     0.004 C 
ENDBRANCH  18  19
ENDBRANCH  17  18
ENDBRANCH  16  17
ENDBRANCH  15  16
ENDBRANCH  14  15
ENDBRANCH  13  14
ENDBRANCH  12  13
ENDBRANCH   1  12
TORSDOF 16
ENDMDL
MODEL 2
REMARK VINA RESULT:    -1.308      2.581      5.002
REMARK INTER + INTRA:          -4.294
REMARK INTER:                  -3.079
REMARK INTRA:                  -1.215
REMARK UNBOUND:                -1.762
REMARK SMILES CCCCCCCCCCCCCCCCCC(=O)[O-]
REMARK SMILES IDX 10 1 11 2 12 3 13 4 14 5 15 6 16 7 17 8 18 9 19 10 20 11
REMARK SMILES IDX 9 12 8 13 7 14 6 15 5 16 4 17 3 18 2 19 1 20
REMARK H PARENT
REMARK Flexibility Score: inf
ROOT
ATOM      1  C   UNL     1     -21.395   0.502   6.064  1.00  0.00     0.000 C 
ENDROOT
BRANCH   1   2
ATOM      2  C   UNL     1     -20.755   1.331   7.198  1.00  0.00     0.000 C 
BRANCH   2   3
ATOM      3  C   UNL     1     -21.471   2.667   7.463  1.00  0.00     0.000 C 
BRANCH   3   4
ATOM      4  C   UNL     1     -22.216   2.691   8.804  1.00  0.00     0.000 C 
BRANCH   4   5
ATOM      5  C   UNL     1     -21.888   1.447   9.637  1.00  0.00     0.000 C 
BRANCH   5   6
ATOM      6  C   UNL     1     -22.652   1.460  10.969  1.00  0.00     0.000 C 
BRANCH   6   7
ATOM      7  C   UNL     1     -21.719   1.443  12.194  1.00  0.00     0.006 C 
BRANCH   7   8
ATOM      8  C   UNL     1     -22.231   0.590  13.367  1.00  0.00     0.053 C 
BRANCH   8   9
ATOM      9  C   UNL     1     -21.287  -0.521  13.707  1.00  0.00     0.041 C 
ATOM     10  O   UNL     1     -21.263  -1.568  13.008  1.00  0.00    -0.550 OA
ATOM     11  O   UNL     1     -20.408  -0.384  14.774  1.00  0.00    -0.550 OA
ENDBRANCH   8   9
ENDBRANCH   7   8
ENDBRANCH   6   7
ENDBRANCH   5   6
ENDBRANCH   4   5
ENDBRANCH   3   4
ENDBRANCH   2   3
ENDBRANCH   1   2
BRANCH   1  12
ATOM     12  C   UNL     1     -21.836  -0.892   6.542  1.00  0.00     0.000 C 
BRANCH  12  13
ATOM     13  C   UNL     1     -20.673  -1.718   7.113  1.00  0.00    -0.000 C 
BRANCH  13  14
ATOM     14  C   UNL     1     -20.719  -1.824   8.647  1.00  0.00    -0.000 C 
BRANCH  14  15
ATOM     15  C   UNL     1     -20.219  -3.184   9.161  1.00  0.00    -0.000 C 
BRANCH  15  16
ATOM     16  C   UNL     1     -19.753  -4.108   8.027  1.00  0.00    -0.000 C 
BRANCH  16  17
ATOM     17  C   UNL     1     -20.018  -5.579   8.372  1.00  0.00    -0.000 C 
BRANCH  17  18
ATOM     18  C   UNL     1     -21.397  -6.024   7.865  1.00  0.00    -0.000 C 
BRANCH  18  19
ATOM     19  C   UNL     1     -22.344  -6.424   9.007  1.00  0.00    -0.003 C 
ATOM     20  C   UNL     1     -23.613  -7.117   8.508  1.00  0.00     0.004 C 
ENDBRANCH  18  19
ENDBRANCH  17  18
ENDBRANCH  16  17
ENDBRANCH  15  16
ENDBRANCH  14  15
ENDBRANCH  13  14
ENDBRANCH  12  13
ENDBRANCH   1  12
TORSDOF 16
ENDMDL
MODEL 3
REMARK VINA RESULT:    -1.256      2.144      4.840
REMARK INTER + INTRA:          -4.193
REMARK INTER:                  -3.016
REMARK INTRA:                  -1.177
REMARK UNBOUND:                -1.762
REMARK SMILES CCCCCCCCCCCCCCCCCC(=O)[O-]
REMARK SMILES IDX 10 1 11 2 12 3 13 4 14 5 15 6 16 7 17 8 18 9 19 10 20 11
REMARK SMILES IDX 9 12 8 13 7 14 6 15 5 16 4 17 3 18 2 19 1 20
REMARK H PARENT
REMARK Flexibility Score: inf
ROOT
ATOM      1  C   UNL     1     -20.810   1.398   7.331  1.00  0.00     0.000 C 
ENDROOT
BRANCH   1   2
ATOM      2  C   UNL     1     -21.641   2.669   7.607  1.00  0.00     0.000 C 
BRANCH   2   3
ATOM      3  C   UNL     1     -22.419   2.620   8.934  1.00  0.00     0.000 C 
BRANCH   3   4
ATOM      4  C   UNL     1     -22.026   1.425   9.812  1.00  0.00     0.000 C 
BRANCH   4   5
ATOM      5  C   UNL     1     -21.606   1.887  11.213  1.00  0.00     0.000 C 
BRANCH   5   6
ATOM      6  C   UNL     1     -22.366   1.112  12.298  1.00  0.00     0.000 C 
BRANCH   6   7
ATOM      7  C   UNL     1     -21.451   0.627  13.438  1.00  0.00     0.006 C 
BRANCH   7   8
ATOM      8  C   UNL     1     -21.736  -0.810  13.909  1.00  0.00     0.053 C 
BRANCH   8   9
ATOM      9  C   UNL     1     -21.378  -1.824  12.866  1.00  0.00     0.041 C 
ATOM     10  O   UNL     1     -21.882  -2.976  12.905  1.00  0.00    -0.550 OA
ATOM     11  O   UNL     1     -20.517  -1.482  11.831  1.00  0.00    -0.550 OA
ENDBRANCH   8   9
ENDBRANCH   7   8
ENDBRANCH   6   7
ENDBRANCH   5   6
ENDBRANCH   4   5
ENDBRANCH   3   4
ENDBRANCH   2   3
ENDBRANCH   1   2
BRANCH   1  12
ATOM     12  C   UNL     1     -21.344   0.607   6.124  1.00  0.00     0.000 C 
BRANCH  12  13
ATOM     13  C   UNL     1     -21.952  -0.747   6.526  1.00  0.00    -0.000 C 
BRANCH  13  14
ATOM     14  C   UNL     1     -20.888  -1.768   6.961  1.00  0.00    -0.000 C 
BRANCH  14  15
ATOM     15  C   UNL     1     -20.718  -1.829   8.488  1.00  0.00    -0.000 C 
BRANCH  15  16
ATOM     16  C   UNL     1     -20.061  -3.136   8.957  1.00  0.00    -0.000 C 
BRANCH  16  17
ATOM     17  C   UNL     1     -19.923  -4.129   7.797  1.00  0.00    -0.000 C 
BRANCH  17  18
ATOM     18  C   UNL     1     -20.041  -5.577   8.294  1.00  0.00    -0.000 C 
BRANCH  18  19
ATOM     19  C   UNL     1     -21.428  -6.181   8.028  1.00  0.00    -0.003 C 
ATOM     20  C   UNL     1     -22.321  -6.183   9.269  1.00  0.00     0.004 C 
ENDBRANCH  18  19
ENDBRANCH  17  18
ENDBRANCH  16  17
ENDBRANCH  15  16
ENDBRANCH  14  15
ENDBRANCH  13  14
ENDBRANCH  12  13
ENDBRANCH   1  12
TORSDOF 16
ENDMDL
MODEL 4
REMARK VINA RESULT:    -1.234      1.744      5.646
REMARK INTER + INTRA:          -4.150
REMARK INTER:                  -2.657
REMARK INTRA:                  -1.493
REMARK UNBOUND:                -1.762
REMARK SMILES CCCCCCCCCCCCCCCCCC(=O)[O-]
REMARK SMILES IDX 10 1 11 2 12 3 13 4 14 5 15 6 16 7 17 8 18 9 19 10 20 11
REMARK SMILES IDX 9 12 8 13 7 14 6 15 5 16 4 17 3 18 2 19 1 20
REMARK H PARENT
REMARK Flexibility Score: inf
ROOT
ATOM      1  C   UNL     1     -22.176  -0.735  13.807  1.00  0.00     0.000 C 
ENDROOT
BRANCH   1   2
ATOM      2  C   UNL     1     -21.656  -2.097  13.298  1.00  0.00     0.000 C 
BRANCH   2   3
ATOM      3  C   UNL     1     -20.597  -1.975  12.189  1.00  0.00     0.000 C 
BRANCH   3   4
ATOM      4  C   UNL     1     -21.129  -2.381  10.808  1.00  0.00     0.000 C 
BRANCH   4   5
ATOM      5  C   UNL     1     -20.169  -1.937   9.697  1.00  0.00     0.000 C 
BRANCH   5   6
ATOM      6  C   UNL     1     -20.433  -2.715   8.400  1.00  0.00     0.000 C 
BRANCH   6   7
ATOM      7  C   UNL     1     -20.994  -1.827   7.274  1.00  0.00     0.006 C 
BRANCH   7   8
ATOM      8  C   UNL     1     -21.303  -0.383   7.702  1.00  0.00     0.053 C 
BRANCH   8   9
ATOM      9  C   UNL     1     -21.036   0.599   6.603  1.00  0.00     0.041 C 
ATOM     10  O   UNL     1     -21.648   0.504   5.506  1.00  0.00    -0.550 OA
ATOM     11  O   UNL     1     -20.140   1.641   6.804  1.00  0.00    -0.550 OA
ENDBRANCH   8   9
ENDBRANCH   7   8
ENDBRANCH   6   7
ENDBRANCH   5   6
ENDBRANCH   4   5
ENDBRANCH   3   4
ENDBRANCH   2   3
ENDBRANCH   1   2
BRANCH   1  12
ATOM     12  C   UNL     1     -21.115   0.372  13.687  1.00  0.00     0.000 C 
BRANCH  12  13
ATOM     13  C   UNL     1     -21.597   1.566  12.847  1.00  0.00    -0.000 C 
BRANCH  13  14
ATOM     14  C   UNL     1     -22.327   1.129  11.565  1.00  0.00    -0.000 C 
BRANCH  14  15
ATOM     15  C   UNL     1     -21.746   1.785  10.301  1.00  0.00    -0.000 C 
BRANCH  15  16
ATOM     16  C   UNL     1     -22.796   2.582   9.514  1.00  0.00    -0.000 C 
BRANCH  16  17
ATOM     17  C   UNL     1     -22.132   3.469   8.454  1.00  0.00    -0.000 C 
BRANCH  17  18
ATOM     18  C   UNL     1     -22.775   4.863   8.421  1.00  0.00    -0.000 C 
BRANCH  18  19
ATOM     19  C   UNL     1     -21.766   5.986   8.705  1.00  0.00    -0.003 C 
ATOM     20  C   UNL     1     -20.796   5.638   9.834  1.00  0.00     0.004 C 
ENDBRANCH  18  19
ENDBRANCH  17  18
ENDBRANCH  16  17
ENDBRANCH  15  16
ENDBRANCH  14  15
ENDBRANCH  13  14
ENDBRANCH  12  13
ENDBRANCH   1  12
TORSDOF 16
ENDMDL
MODEL 5
REMARK VINA RESULT:    -1.194      2.682      7.344
REMARK INTER + INTRA:          -4.073
REMARK INTER:                  -2.804
REMARK INTRA:                  -1.269
REMARK UNBOUND:                -1.762
REMARK SMILES CCCCCCCCCCCCCCCCCC(=O)[O-]
REMARK SMILES IDX 10 1 11 2 12 3 13 4 14 5 15 6 16 7 17 8 18 9 19 10 20 11
REMARK SMILES IDX 9 12 8 13 7 14 6 15 5 16 4 17 3 18 2 19 1 20
REMARK H PARENT
REMARK Flexibility Score: inf
ROOT
ATOM      1  C   UNL     1     -20.632  -1.914   6.998  1.00  0.00     0.000 C 
ENDROOT
BRANCH   1   2
ATOM      2  C   UNL     1     -20.547  -2.517   8.416  1.00  0.00     0.000 C 
BRANCH   2   3
ATOM      3  C   UNL     1     -20.798  -1.493   9.536  1.00  0.00     0.000 C 
BRANCH   3   4
ATOM      4  C   UNL     1     -20.217  -1.931  10.887  1.00  0.00     0.000 C 
BRANCH   4   5
ATOM      5  C   UNL     1     -21.332  -2.318  11.866  1.00  0.00     0.000 C 
BRANCH   5   6
ATOM      6  C   UNL     1     -20.994  -1.865  13.293  1.00  0.00     0.000 C 
BRANCH   6   7
ATOM      7  C   UNL     1     -22.009  -0.851  13.854  1.00  0.00     0.006 C 
BRANCH   7   8
ATOM      8  C   UNL     1     -21.438   0.560  14.072  1.00  0.00     0.053 C 
BRANCH   8   9
ATOM      9  C   UNL     1     -21.610   1.428  12.864  1.00  0.00     0.041 C 
ATOM     10  O   UNL     1     -22.325   1.043  11.903  1.00  0.00    -0.550 OA
ATOM     11  O   UNL     1     -21.010   2.680  12.818  1.00  0.00    -0.550 OA
ENDBRANCH   8   9
ENDBRANCH   7   8
ENDBRANCH   6   7
ENDBRANCH   5   6
ENDBRANCH   4   5
ENDBRANCH   3   4
ENDBRANCH   2   3
ENDBRANCH   1   2
BRANCH   1  12
ATOM     12  C   UNL     1     -21.598  -0.718   6.933  1.00  0.00     0.000 C 
BRANCH  12  13
ATOM     13  C   UNL     1     -20.972   0.513   6.259  1.00  0.00    -0.000 C 
BRANCH  13  14
ATOM     14  C   UNL     1     -21.095   1.783   7.118  1.00  0.00    -0.000 C 
BRANCH  14  15
ATOM     15  C   UNL     1     -21.696   1.503   8.505  1.00  0.00    -0.000 C 
BRANCH  15  16
ATOM     16  C   UNL     1     -22.351   2.745   9.127  1.00  0.00    -0.000 C 
BRANCH  16  17
ATOM     17  C   UNL     1     -22.383   3.908   8.128  1.00  0.00    -0.000 C 
BRANCH  17  18
ATOM     18  C   UNL     1     -22.409   5.259   8.857  1.00  0.00    -0.000 C 
BRANCH  18  19
ATOM     19  C   UNL     1     -21.089   6.031   8.717  1.00  0.00    -0.003 C 
ATOM     20  C   UNL     1     -20.270   6.043  10.007  1.00  0.00     0.004 C 
ENDBRANCH  18  19
ENDBRANCH  17  18
ENDBRANCH  16  17
ENDBRANCH  15  16
ENDBRANCH  14  15
ENDBRANCH  13  14
ENDBRANCH  12  13
ENDBRANCH   1  12
TORSDOF 16
ENDMDL
MODEL 6
REMARK VINA RESULT:    -1.127      3.249      7.808
REMARK INTER + INTRA:          -3.943
REMARK INTER:                  -2.652
REMARK INTRA:                  -1.290
REMARK UNBOUND:                -1.762
REMARK SMILES CCCCCCCCCCCCCCCCCC(=O)[O-]
REMARK SMILES IDX 10 1 11 2 12 3 13 4 14 5 15 6 16 7 17 8 18 9 19 10 20 11
REMARK SMILES IDX 9 12 8 13 7 14 6 15 5 16 4 17 3 18 2 19 1 20
REMARK H PARENT
REMARK Flexibility Score: inf
ROOT
ATOM      1  C   UNL     1     -21.184  -0.210   6.089  1.00  0.00     0.000 C 
ENDROOT
BRANCH   1   2
ATOM      2  C   UNL     1     -20.990  -1.616   6.696  1.00  0.00     0.000 C 
BRANCH   2   3
ATOM      3  C   UNL     1     -21.031  -1.633   8.234  1.00  0.00     0.000 C 
BRANCH   3   4
ATOM      4  C   UNL     1     -20.251  -2.807   8.839  1.00  0.00     0.000 C 
BRANCH   4   5
ATOM      5  C   UNL     1     -19.686  -2.440  10.217  1.00  0.00     0.000 C 
BRANCH   5   6
ATOM      6  C   UNL     1     -20.686  -1.589  11.012  1.00  0.00     0.000 C 
BRANCH   6   7
ATOM      7  C   UNL     1     -20.968  -2.154  12.417  1.00  0.00     0.006 C 
BRANCH   7   8
ATOM      8  C   UNL     1     -22.021  -1.368  13.215  1.00  0.00     0.053 C 
BRANCH   8   9
ATOM      9  C   UNL     1     -21.465  -0.099  13.783  1.00  0.00     0.041 C 
ATOM     10  O   UNL     1     -20.821  -0.118  14.864  1.00  0.00    -0.550 OA
ATOM     11  O   UNL     1     -21.626   1.099  13.098  1.00  0.00    -0.550 OA
ENDBRANCH   8   9
ENDBRANCH   7   8
ENDBRANCH   6   7
ENDBRANCH   5   6
ENDBRANCH   4   5
ENDBRANCH   3   4
ENDBRANCH   2   3
ENDBRANCH   1   2
BRANCH   1  12
ATOM     12  C   UNL     1     -20.433   0.873   6.883  1.00  0.00     0.000 C 
BRANCH  12  13
ATOM     13  C   UNL     1     -21.362   1.992   7.380  1.00  0.00    -0.000 C 
BRANCH  13  14
ATOM     14  C   UNL     1     -21.712   1.851   8.872  1.00  0.00    -0.000 C 
BRANCH  14  15
ATOM     15  C   UNL     1     -22.414   3.097   9.435  1.00  0.00    -0.000 C 
BRANCH  15  16
ATOM     16  C   UNL     1     -22.722   4.141   8.352  1.00  0.00    -0.000 C 
BRANCH  16  17
ATOM     17  C   UNL     1     -22.465   5.562   8.869  1.00  0.00    -0.000 C 
BRANCH  17  18
ATOM     18  C   UNL     1     -20.997   5.964   8.668  1.00  0.00    -0.000 C 
BRANCH  18  19
ATOM     19  C   UNL     1     -20.221   6.049   9.992  1.00  0.00    -0.003 C 
ATOM     20  C   UNL     1     -18.925   6.849   9.869  1.00  0.00     0.004 C 
ENDBRANCH  18  19
ENDBRANCH  17  18
ENDBRANCH  16  17
ENDBRANCH  15  16
ENDBRANCH  14  15
ENDBRANCH  13  14
ENDBRANCH  12  13
ENDBRANCH   1  12
TORSDOF 16
ENDMDL
MODEL 7
REMARK VINA RESULT:    -1.081      3.187      5.882
REMARK INTER + INTRA:          -3.855
REMARK INTER:                  -2.668
REMARK INTRA:                  -1.187
REMARK UNBOUND:                -1.762
REMARK SMILES CCCCCCCCCCCCCCCCCC(=O)[O-]
REMARK SMILES IDX 10 1 11 2 12 3 13 4 14 5 15 6 16 7 17 8 18 9 19 10 20 11
REMARK SMILES IDX 9 12 8 13 7 14 6 15 5 16 4 17 3 18 2 19 1 20
REMARK H PARENT
REMARK Flexibility Score: inf
ROOT
ATOM      1  C   UNL     1     -20.563  -0.290   6.315  1.00  0.00     0.000 C 
ENDROOT
BRANCH   1   2
ATOM      2  C   UNL     1     -21.495   0.940   6.316  1.00  0.00     0.000 C 
BRANCH   2   3
ATOM      3  C   UNL     1     -21.150   1.973   7.402  1.00  0.00     0.000 C 
BRANCH   3   4
ATOM      4  C   UNL     1     -21.772   1.639   8.764  1.00  0.00     0.000 C 
BRANCH   4   5
ATOM      5  C   UNL     1     -22.492   2.858   9.353  1.00  0.00     0.000 C 
BRANCH   5   6
ATOM      6  C   UNL     1     -22.562   4.002   8.332  1.00  0.00     0.000 C 
BRANCH   6   7
ATOM      7  C   UNL     1     -22.281   5.381   8.960  1.00  0.00     0.006 C 
BRANCH   7   8
ATOM      8  C   UNL     1     -20.926   5.990   8.567  1.00  0.00     0.053 C 
BRANCH   8   9
ATOM      9  C   UNL     1     -20.041   6.208   9.756  1.00  0.00     0.041 C 
ATOM     10  O   UNL     1     -20.211   5.531  10.803  1.00  0.00    -0.550 OA
ATOM     11  O   UNL     1     -19.005   7.131   9.692  1.00  0.00    -0.550 OA
ENDBRANCH   8   9
ENDBRANCH   7   8
ENDBRANCH   6   7
ENDBRANCH   5   6
ENDBRANCH   4   5
ENDBRANCH   3   4
ENDBRANCH   2   3
ENDBRANCH   1   2
BRANCH   1  12
ATOM     12  C   UNL     1     -21.279  -1.560   6.809  1.00  0.00     0.000 C 
BRANCH  12  13
ATOM     13  C   UNL     1     -20.572  -2.208   8.010  1.00  0.00    -0.000 C 
BRANCH  13  14
ATOM     14  C   UNL     1     -20.876  -1.488   9.335  1.00  0.00    -0.000 C 
BRANCH  14  15
ATOM     15  C   UNL     1     -20.578  -2.361  10.565  1.00  0.00    -0.000 C 
BRANCH  15  16
ATOM     16  C   UNL     1     -20.502  -1.546  11.863  1.00  0.00    -0.000 C 
BRANCH  16  17
ATOM     17  C   UNL     1     -21.515  -2.059  12.894  1.00  0.00    -0.000 C 
BRANCH  17  18
ATOM     18  C   UNL     1     -22.077  -0.905  13.736  1.00  0.00    -0.000 C 
BRANCH  18  19
ATOM     19  C   UNL     1     -21.235   0.375  13.620  1.00  0.00    -0.003 C 
ATOM     20  C   UNL     1     -21.843   1.399  12.661  1.00  0.00     0.004 C 
ENDBRANCH  18  19
ENDBRANCH  17  18
ENDBRANCH  16  17
ENDBRANCH  15  16
ENDBRANCH  14  15
ENDBRANCH  13  14
ENDBRANCH  12  13
ENDBRANCH   1  12
TORSDOF 16
ENDMDL
MODEL 8
REMARK VINA RESULT:    -1.071      2.132      4.965
REMARK INTER + INTRA:          -3.836
REMARK INTER:                  -2.557
REMARK INTRA:                  -1.279
REMARK UNBOUND:                -1.762
REMARK SMILES CCCCCCCCCCCCCCCCCC(=O)[O-]
REMARK SMILES IDX 10 1 11 2 12 3 13 4 14 5 15 6 16 7 17 8 18 9 19 10 20 11
REMARK SMILES IDX 9 12 8 13 7 14 6 15 5 16 4 17 3 18 2 19 1 20
REMARK H PARENT
REMARK Flexibility Score: inf
ROOT
ATOM      1  C   UNL     1     -21.762   2.652   7.432  1.00  0.00     0.000 C 
ENDROOT
BRANCH   1   2
ATOM      2  C   UNL     1     -22.303   2.801   8.870  1.00  0.00     0.000 C 
BRANCH   2   3
ATOM      3  C   UNL     1     -22.159   1.524   9.716  1.00  0.00     0.000 C 
BRANCH   3   4
ATOM      4  C   UNL     1     -21.385   1.756  11.020  1.00  0.00     0.000 C 
BRANCH   4   5
ATOM      5  C   UNL     1     -22.214   1.327  12.236  1.00  0.00     0.000 C 
BRANCH   5   6
ATOM      6  C   UNL     1     -21.383   1.409  13.525  1.00  0.00     0.000 C 
BRANCH   6   7
ATOM      7  C   UNL     1     -21.225   0.045  14.222  1.00  0.00     0.006 C 
BRANCH   7   8
ATOM      8  C   UNL     1     -22.180  -1.044  13.705  1.00  0.00     0.053 C 
BRANCH   8   9
ATOM      9  C   UNL     1     -21.491  -2.007  12.789  1.00  0.00     0.041 C 
ATOM     10  O   UNL     1     -21.886  -3.200  12.709  1.00  0.00    -0.550 OA
ATOM     11  O   UNL     1     -20.435  -1.577  11.995  1.00  0.00    -0.550 OA
ENDBRANCH   8   9
ENDBRANCH   7   8
ENDBRANCH   6   7
ENDBRANCH   5   6
ENDBRANCH   4   5
ENDBRANCH   3   4
ENDBRANCH   2   3
ENDBRANCH   1   2
BRANCH   1  12
ATOM     12  C   UNL     1     -20.908   1.384   7.262  1.00  0.00     0.000 C 
BRANCH  12  13
ATOM     13  C   UNL     1     -21.414   0.477   6.129  1.00  0.00    -0.000 C 
BRANCH  13  14
ATOM     14  C   UNL     1     -21.878  -0.900   6.636  1.00  0.00    -0.000 C 
BRANCH  14  15
ATOM     15  C   UNL     1     -20.714  -1.765   7.147  1.00  0.00    -0.000 C 
BRANCH  15  16
ATOM     16  C   UNL     1     -20.667  -1.845   8.679  1.00  0.00    -0.000 C 
BRANCH  16  17
ATOM     17  C   UNL     1     -20.238  -3.243   9.143  1.00  0.00    -0.000 C 
BRANCH  17  18
ATOM     18  C   UNL     1     -19.894  -4.140   7.945  1.00  0.00    -0.000 C 
BRANCH  18  19
ATOM     19  C   UNL     1     -20.058  -5.634   8.260  1.00  0.00    -0.003 C 
ATOM     20  C   UNL     1     -21.518  -6.038   8.470  1.00  0.00     0.004 C 
ENDBRANCH  18  19
ENDBRANCH  17  18
ENDBRANCH  16  17
ENDBRANCH  15  16
ENDBRANCH  14  15
ENDBRANCH  13  14
ENDBRANCH  12  13
ENDBRANCH   1  12
TORSDOF 16
ENDMDL
MODEL 9
REMARK VINA RESULT:    -0.954      2.155      6.286
REMARK INTER + INTRA:          -3.609
REMARK INTER:                  -2.234
REMARK INTRA:                  -1.374
REMARK UNBOUND:                -1.762
REMARK SMILES CCCCCCCCCCCCCCCCCC(=O)[O-]
REMARK SMILES IDX 10 1 11 2 12 3 13 4 14 5 15 6 16 7 17 8 18 9 19 10 20 11
REMARK SMILES IDX 9 12 8 13 7 14 6 15 5 16 4 17 3 18 2 19 1 20
REMARK H PARENT
REMARK Flexibility Score: inf
ROOT
ATOM      1  C   UNL     1     -20.769   1.098   7.379  1.00  0.00     0.000 C 
ENDROOT
BRANCH   1   2
ATOM      2  C   UNL     1     -21.290  -0.045   6.482  1.00  0.00     0.000 C 
BRANCH   2   3
ATOM      3  C   UNL     1     -21.021  -1.447   7.054  1.00  0.00     0.000 C 
BRANCH   3   4
ATOM      4  C   UNL     1     -20.856  -1.449   8.579  1.00  0.00     0.000 C 
BRANCH   4   5
ATOM      5  C   UNL     1     -20.233  -2.763   9.064  1.00  0.00     0.000 C 
BRANCH   5   6
ATOM      6  C   UNL     1     -20.126  -3.777   7.916  1.00  0.00     0.000 C 
BRANCH   6   7
ATOM      7  C   UNL     1     -20.002  -5.230   8.411  1.00  0.00     0.006 C 
BRANCH   7   8
ATOM      8  C   UNL     1     -21.057  -6.188   7.834  1.00  0.00     0.053 C 
BRANCH   8   9
ATOM      9  C   UNL     1     -22.225  -6.359   8.755  1.00  0.00     0.041 C 
ATOM     10  O   UNL     1     -23.174  -7.124   8.440  1.00  0.00    -0.550 OA
ATOM     11  O   UNL     1     -22.246  -5.704   9.980  1.00  0.00    -0.550 OA
ENDBRANCH   8   9
ENDBRANCH   7   8
ENDBRANCH   6   7
ENDBRANCH   5   6
ENDBRANCH   4   5
ENDBRANCH   3   4
ENDBRANCH   2   3
ENDBRANCH   1   2
BRANCH   1  12
ATOM     12  C   UNL     1     -21.725   2.304   7.395  1.00  0.00     0.000 C 
BRANCH  12  13
ATOM     13  C   UNL     1     -22.124   2.723   8.819  1.00  0.00    -0.000 C 
BRANCH  13  14
ATOM     14  C   UNL     1     -22.134   1.541   9.803  1.00  0.00    -0.000 C 
BRANCH  14  15
ATOM     15  C   UNL     1     -21.605   1.925  11.194  1.00  0.00    -0.000 C 
BRANCH  15  16
ATOM     16  C   UNL     1     -22.355   1.213  12.328  1.00  0.00    -0.000 C 
BRANCH  16  17
ATOM     17  C   UNL     1     -21.539   1.236  13.627  1.00  0.00    -0.000 C 
BRANCH  17  18
ATOM     18  C   UNL     1     -21.057  -0.174  14.000  1.00  0.00    -0.000 C 
BRANCH  18  19
ATOM     19  C   UNL     1     -21.866  -1.278  13.302  1.00  0.00    -0.003 C 
ATOM     20  C   UNL     1     -21.021  -2.112  12.340  1.00  0.00     0.004 C 
ENDBRANCH  18  19
ENDBRANCH  17  18
ENDBRANCH  16  17
ENDBRANCH  15  16
ENDBRANCH  14  15
ENDBRANCH  13  14
ENDBRANCH  12  13
ENDBRANCH   1  12
TORSDOF 16
ENDMDL
