MODEL 1
REMARK VINA RESULT:    -3.552      0.000      0.000
REMARK INTER + INTRA:          -4.521
REMARK INTER:                  -4.278
REMARK INTRA:                  -0.243
REMARK UNBOUND:                -0.243
REMARK SMILES NC(=O)C[C@H]([NH3+])C(=O)[O-]
REMARK SMILES IDX 4 1 5 2 6 3 7 7 8 8 9 9 2 10 3 11 1 12
REMARK H PARENT 6 4 6 5 6 6 1 13 1 14
REMARK Flexibility Score: inf
ROOT
ATOM      1  C   UNL     1       0.902   6.286   2.629  1.00  0.00     0.171 C 
ENDROOT
BRANCH   1   2
ATOM      2  C   UNL     1       1.530   7.065   1.456  1.00  0.00     0.237 C 
BRANCH   2   3
ATOM      3  N   UNL     1       0.503   7.832   0.743  1.00  0.00    -0.350 N 
ATOM      4  H   UNL     1       0.688   7.800  -0.287  1.00  0.00     0.345 HD
ATOM      5  H   UNL     1      -0.439   7.413   0.918  1.00  0.00     0.345 HD
ATOM      6  H   UNL     1       0.501   8.830   1.058  1.00  0.00     0.345 HD
ENDBRANCH   2   3
BRANCH   2   7
ATOM      7  C   UNL     1       2.231   6.130   0.504  1.00  0.00     0.100 C 
ATOM      8  O   UNL     1       1.587   5.566  -0.418  1.00  0.00    -0.544 OA
ATOM      9  O   UNL     1       3.596   5.895   0.630  1.00  0.00    -0.544 OA
ENDBRANCH   2   7
ENDBRANCH   1   2
BRANCH   1  10
ATOM     10  C   UNL     1       0.463   7.206   3.732  1.00  0.00     0.223 C 
ATOM     11  O   UNL     1      -0.394   8.100   3.499  1.00  0.00    -0.275 OA
ATOM     12  N   UNL     1       1.037   7.101   5.036  1.00  0.00    -0.369 N 
ATOM     13  H   UNL     1       1.762   6.379   5.243  1.00  0.00     0.159 HD
ATOM     14  H   UNL     1       0.740   7.752   5.796  1.00  0.00     0.159 HD
ENDBRANCH   1  10
TORSDOF 4
ENDMDL
MODEL 2
REMARK VINA RESULT:    -3.339      1.608      1.797
REMARK INTER + INTRA:          -4.265
REMARK INTER:                  -4.157
REMARK INTRA:                  -0.108
REMARK UNBOUND:                -0.243
REMARK SMILES NC(=O)C[C@H]([NH3+])C(=O)[O-]
REMARK SMILES IDX 4 1 5 2 6 3 7 7 8 8 9 9 2 10 3 11 1 12
REMARK H PARENT 6 4 6 5 6 6 1 13 1 14
REMARK Flexibility Score: inf
ROOT
ATOM      1  C   UNL     1       1.074   6.077   2.067  1.00  0.00     0.171 C 
ENDROOT
BRANCH   1   2
ATOM      2  C   UNL     1       1.435   6.591   0.659  1.00  0.00     0.237 C 
BRANCH   2   3
ATOM      3  N   UNL     1       1.058   5.605  -0.359  1.00  0.00    -0.350 N 
ATOM      4  H   UNL     1       0.017   5.585  -0.465  1.00  0.00     0.345 HD
ATOM      5  H   UNL     1       1.474   5.870  -1.282  1.00  0.00     0.345 HD
ATOM      6  H   UNL     1       1.392   4.650  -0.092  1.00  0.00     0.345 HD
ENDBRANCH   2   3
BRANCH   2   7
ATOM      7  C   UNL     1       2.907   6.898   0.560  1.00  0.00     0.100 C 
ATOM      8  O   UNL     1       3.295   8.075   0.339  1.00  0.00    -0.544 OA
ATOM      9  O   UNL     1       3.847   5.887   0.725  1.00  0.00    -0.544 OA
ENDBRANCH   2   7
ENDBRANCH   1   2
BRANCH   1  10
ATOM     10  C   UNL     1       0.609   7.191   2.960  1.00  0.00     0.223 C 
ATOM     11  O   UNL     1      -0.034   6.925   4.011  1.00  0.00    -0.275 OA
ATOM     12  N   UNL     1       0.856   8.553   2.609  1.00  0.00    -0.369 N 
ATOM     13  H   UNL     1       1.370   8.793   1.734  1.00  0.00     0.159 HD
ATOM     14  H   UNL     1       0.517   9.326   3.225  1.00  0.00     0.159 HD
ENDBRANCH   1  10
TORSDOF 4
ENDMDL
MODEL 3
REMARK VINA RESULT:    -3.338     14.734     15.509
REMARK INTER + INTRA:          -4.264
REMARK INTER:                  -4.002
REMARK INTRA:                  -0.262
REMARK UNBOUND:                -0.243
REMARK SMILES NC(=O)C[C@H]([NH3+])C(=O)[O-]
REMARK SMILES IDX 4 1 5 2 6 3 7 7 8 8 9 9 2 10 3 11 1 12
REMARK H PARENT 6 4 6 5 6 6 1 13 1 14
REMARK Flexibility Score: inf
ROOT
ATOM      1  C   UNL     1       5.944  -6.983   1.746  1.00  0.00     0.171 C 
ENDROOT
BRANCH   1   2
ATOM      2  C   UNL     1       7.195  -7.884   1.781  1.00  0.00     0.237 C 
BRANCH   2   3
ATOM      3  N   UNL     1       8.302  -7.199   2.458  1.00  0.00    -0.350 N 
ATOM      4  H   UNL     1       8.429  -6.243   2.051  1.00  0.00     0.345 HD
ATOM      5  H   UNL     1       8.084  -7.094   3.476  1.00  0.00     0.345 HD
ATOM      6  H   UNL     1       9.192  -7.737   2.349  1.00  0.00     0.345 HD
ENDBRANCH   2   3
BRANCH   2   7
ATOM      7  C   UNL     1       7.609  -8.283   0.388  1.00  0.00     0.100 C 
ATOM      8  O   UNL     1       8.806  -8.151   0.021  1.00  0.00    -0.544 OA
ATOM      9  O   UNL     1       6.675  -8.811  -0.497  1.00  0.00    -0.544 OA
ENDBRANCH   2   7
ENDBRANCH   1   2
BRANCH   1  10
ATOM     10  C   UNL     1       5.142  -7.100   3.011  1.00  0.00     0.223 C 
ATOM     11  O   UNL     1       5.725  -7.335   4.103  1.00  0.00    -0.275 OA
ATOM     12  N   UNL     1       3.719  -6.987   2.980  1.00  0.00    -0.369 N 
ATOM     13  H   UNL     1       3.217  -6.811   2.081  1.00  0.00     0.159 HD
ATOM     14  H   UNL     1       3.163  -7.085   3.858  1.00  0.00     0.159 HD
ENDBRANCH   1  10
TORSDOF 4
ENDMDL
MODEL 4
REMARK VINA RESULT:    -3.281      1.801      2.200
REMARK INTER + INTRA:          -4.195
REMARK INTER:                  -3.707
REMARK INTRA:                  -0.488
REMARK UNBOUND:                -0.243
REMARK SMILES NC(=O)C[C@H]([NH3+])C(=O)[O-]
REMARK SMILES IDX 4 1 5 2 6 3 7 7 8 8 9 9 2 10 3 11 1 12
REMARK H PARENT 6 4 6 5 6 6 1 13 1 14
REMARK Flexibility Score: inf
ROOT
ATOM      1  C   UNL     1       1.153   8.124   1.537  1.00  0.00     0.171 C 
ENDROOT
BRANCH   1   2
ATOM      2  C   UNL     1       0.806   6.638   1.321  1.00  0.00     0.237 C 
BRANCH   2   3
ATOM      3  N   UNL     1       0.868   5.908   2.592  1.00  0.00    -0.350 N 
ATOM      4  H   UNL     1       0.058   5.249   2.662  1.00  0.00     0.345 HD
ATOM      5  H   UNL     1       1.750   5.346   2.636  1.00  0.00     0.345 HD
ATOM      6  H   UNL     1       0.840   6.570   3.402  1.00  0.00     0.345 HD
ENDBRANCH   2   3
BRANCH   2   7
ATOM      7  C   UNL     1       1.736   6.008   0.317  1.00  0.00     0.100 C 
ATOM      8  O   UNL     1       2.980   6.022   0.511  1.00  0.00    -0.544 OA
ATOM      9  O   UNL     1       1.227   5.395  -0.822  1.00  0.00    -0.544 OA
ENDBRANCH   2   7
ENDBRANCH   1   2
BRANCH   1  10
ATOM     10  C   UNL     1       1.943   8.331   2.797  1.00  0.00     0.223 C 
ATOM     11  O   UNL     1       1.346   8.587   3.876  1.00  0.00    -0.275 OA
ATOM     12  N   UNL     1       3.371   8.279   2.775  1.00  0.00    -0.369 N 
ATOM     13  H   UNL     1       3.884   8.086   1.887  1.00  0.00     0.159 HD
ATOM     14  H   UNL     1       3.917   8.438   3.650  1.00  0.00     0.159 HD
ENDBRANCH   1  10
TORSDOF 4
ENDMDL
MODEL 5
REMARK VINA RESULT:    -3.279      1.663      4.166
REMARK INTER + INTRA:          -4.193
REMARK INTER:                  -3.919
REMARK INTRA:                  -0.275
REMARK UNBOUND:                -0.243
REMARK SMILES NC(=O)C[C@H]([NH3+])C(=O)[O-]
REMARK SMILES IDX 4 1 5 2 6 3 7 7 8 8 9 9 2 10 3 11 1 12
REMARK H PARENT 6 4 6 5 6 6 1 13 1 14
REMARK Flexibility Score: inf
ROOT
ATOM      1  C   UNL     1       1.107   6.332   1.948  1.00  0.00     0.171 C 
ENDROOT
BRANCH   1   2
ATOM      2  C   UNL     1       0.711   7.819   2.035  1.00  0.00     0.237 C 
BRANCH   2   3
ATOM      3  N   UNL     1       1.895   8.674   1.894  1.00  0.00    -0.350 N 
ATOM      4  H   UNL     1       2.067   8.878   0.883  1.00  0.00     0.345 HD
ATOM      5  H   UNL     1       1.737   9.583   2.388  1.00  0.00     0.345 HD
ATOM      6  H   UNL     1       2.740   8.205   2.296  1.00  0.00     0.345 HD
ENDBRANCH   2   3
BRANCH   2   7
ATOM      7  C   UNL     1       0.012   8.115   3.336  1.00  0.00     0.100 C 
ATOM      8  O   UNL     1      -0.325   7.174   4.102  1.00  0.00    -0.544 OA
ATOM      9  O   UNL     1      -0.254   9.428   3.707  1.00  0.00    -0.544 OA
ENDBRANCH   2   7
ENDBRANCH   1   2
BRANCH   1  10
ATOM     10  C   UNL     1       1.781   6.013   0.644  1.00  0.00     0.223 C 
ATOM     11  O   UNL     1       3.030   6.139   0.538  1.00  0.00    -0.275 OA
ATOM     12  N   UNL     1       1.013   5.606  -0.489  1.00  0.00    -0.369 N 
ATOM     13  H   UNL     1      -0.025   5.514  -0.425  1.00  0.00     0.159 HD
ATOM     14  H   UNL     1       1.483   5.400  -1.398  1.00  0.00     0.159 HD
ENDBRANCH   1  10
TORSDOF 4
ENDMDL
MODEL 6
REMARK VINA RESULT:    -3.251      2.008      3.538
REMARK INTER + INTRA:          -4.160
REMARK INTER:                  -3.718
REMARK INTRA:                  -0.441
REMARK UNBOUND:                -0.243
REMARK SMILES NC(=O)C[C@H]([NH3+])C(=O)[O-]
REMARK SMILES IDX 4 1 5 2 6 3 7 7 8 8 9 9 2 10 3 11 1 12
REMARK H PARENT 6 4 6 5 6 6 1 13 1 14
REMARK Flexibility Score: inf
ROOT
ATOM      1  C   UNL     1       1.939   6.346   0.585  1.00  0.00     0.171 C 
ENDROOT
BRANCH   1   2
ATOM      2  C   UNL     1       0.821   7.323   0.999  1.00  0.00     0.237 C 
BRANCH   2   3
ATOM      3  N   UNL     1       1.182   8.699   0.639  1.00  0.00    -0.350 N 
ATOM      4  H   UNL     1       2.219   8.775   0.526  1.00  0.00     0.345 HD
ATOM      5  H   UNL     1       0.735   8.955  -0.272  1.00  0.00     0.345 HD
ATOM      6  H   UNL     1       0.869   9.370   1.378  1.00  0.00     0.345 HD
ENDBRANCH   2   3
BRANCH   2   7
ATOM      7  C   UNL     1       0.547   7.232   2.478  1.00  0.00     0.100 C 
ATOM      8  O   UNL     1       0.052   8.213   3.092  1.00  0.00    -0.544 OA
ATOM      9  O   UNL     1       0.826   6.060   3.172  1.00  0.00    -0.544 OA
ENDBRANCH   2   7
ENDBRANCH   1   2
BRANCH   1  10
ATOM     10  C   UNL     1       3.293   6.848   0.998  1.00  0.00     0.223 C 
ATOM     11  O   UNL     1       3.883   7.711   0.296  1.00  0.00    -0.275 OA
ATOM     12  N   UNL     1       3.936   6.324   2.162  1.00  0.00    -0.369 N 
ATOM     13  H   UNL     1       3.471   5.595   2.746  1.00  0.00     0.159 HD
ATOM     14  H   UNL     1       4.884   6.664   2.437  1.00  0.00     0.159 HD
ENDBRANCH   1  10
TORSDOF 4
ENDMDL
MODEL 7
REMARK VINA RESULT:    -3.237      1.176      1.224
REMARK INTER + INTRA:          -4.142
REMARK INTER:                  -3.859
REMARK INTRA:                  -0.283
REMARK UNBOUND:                -0.243
REMARK SMILES NC(=O)C[C@H]([NH3+])C(=O)[O-]
REMARK SMILES IDX 4 1 5 2 6 3 7 7 8 8 9 9 2 10 3 11 1 12
REMARK H PARENT 6 4 6 5 6 6 1 13 1 14
REMARK Flexibility Score: inf
ROOT
ATOM      1  C   UNL     1       2.217   7.599   2.748  1.00  0.00     0.171 C 
ENDROOT
BRANCH   1   2
ATOM      2  C   UNL     1       2.102   7.610   1.210  1.00  0.00     0.237 C 
BRANCH   2   3
ATOM      3  N   UNL     1       0.705   7.791   0.802  1.00  0.00    -0.350 N 
ATOM      4  H   UNL     1       0.073   7.289   1.469  1.00  0.00     0.345 HD
ATOM      5  H   UNL     1       0.458   8.807   0.822  1.00  0.00     0.345 HD
ATOM      6  H   UNL     1       0.549   7.416  -0.162  1.00  0.00     0.345 HD
ENDBRANCH   2   3
BRANCH   2   7
ATOM      7  C   UNL     1       2.653   6.337   0.620  1.00  0.00     0.100 C 
ATOM      8  O   UNL     1       1.892   5.542   0.009  1.00  0.00    -0.544 OA
ATOM      9  O   UNL     1       4.006   6.038   0.736  1.00  0.00    -0.544 OA
ENDBRANCH   2   7
ENDBRANCH   1   2
BRANCH   1  10
ATOM     10  C   UNL     1       0.969   7.070   3.393  1.00  0.00     0.223 C 
ATOM     11  O   UNL     1       0.615   5.878   3.189  1.00  0.00    -0.275 OA
ATOM     12  N   UNL     1       0.157   7.919   4.205  1.00  0.00    -0.369 N 
ATOM     13  H   UNL     1       0.424   8.914   4.369  1.00  0.00     0.159 HD
ATOM     14  H   UNL     1      -0.719   7.552   4.639  1.00  0.00     0.159 HD
ENDBRANCH   1  10
TORSDOF 4
ENDMDL
MODEL 8
REMARK VINA RESULT:    -3.153      2.158      2.894
REMARK INTER + INTRA:          -4.042
REMARK INTER:                  -3.647
REMARK INTRA:                  -0.395
REMARK UNBOUND:                -0.243
REMARK SMILES NC(=O)C[C@H]([NH3+])C(=O)[O-]
REMARK SMILES IDX 4 1 5 2 6 3 7 7 8 8 9 9 2 10 3 11 1 12
REMARK H PARENT 6 4 6 5 6 6 1 13 1 14
REMARK Flexibility Score: inf
ROOT
ATOM      1  C   UNL     1       1.728   6.278   2.192  1.00  0.00     0.171 C 
ENDROOT
BRANCH   1   2
ATOM      2  C   UNL     1       3.026   7.106   2.281  1.00  0.00     0.237 C 
BRANCH   2   3
ATOM      3  N   UNL     1       2.715   8.530   2.449  1.00  0.00    -0.350 N 
ATOM      4  H   UNL     1       2.499   8.730   3.453  1.00  0.00     0.345 HD
ATOM      5  H   UNL     1       3.543   9.108   2.172  1.00  0.00     0.345 HD
ATOM      6  H   UNL     1       1.893   8.801   1.862  1.00  0.00     0.345 HD
ENDBRANCH   2   3
BRANCH   2   7
ATOM      7  C   UNL     1       3.878   6.904   1.055  1.00  0.00     0.100 C 
ATOM      8  O   UNL     1       4.247   7.893   0.371  1.00  0.00    -0.544 OA
ATOM      9  O   UNL     1       4.272   5.625   0.678  1.00  0.00    -0.544 OA
ENDBRANCH   2   7
ENDBRANCH   1   2
BRANCH   1  10
ATOM     10  C   UNL     1       0.991   6.540   0.910  1.00  0.00     0.223 C 
ATOM     11  O   UNL     1       0.292   7.582   0.790  1.00  0.00    -0.275 OA
ATOM     12  N   UNL     1       1.044   5.598  -0.162  1.00  0.00    -0.369 N 
ATOM     13  H   UNL     1       1.603   4.721  -0.074  1.00  0.00     0.159 HD
ATOM     14  H   UNL     1       0.518   5.776  -1.047  1.00  0.00     0.159 HD
ENDBRANCH   1  10
TORSDOF 4
ENDMDL
MODEL 9
REMARK VINA RESULT:    -3.036      1.834      2.029
REMARK INTER + INTRA:          -3.900
REMARK INTER:                  -3.416
REMARK INTRA:                  -0.485
REMARK UNBOUND:                -0.243
REMARK SMILES NC(=O)C[C@H]([NH3+])C(=O)[O-]
REMARK SMILES IDX 4 1 5 2 6 3 7 7 8 8 9 9 2 10 3 11 1 12
REMARK H PARENT 6 4 6 5 6 6 1 13 1 14
REMARK Flexibility Score: inf
ROOT
ATOM      1  C   UNL     1       0.728   6.411   3.364  1.00  0.00     0.171 C 
ENDROOT
BRANCH   1   2
ATOM      2  C   UNL     1       1.754   6.306   2.218  1.00  0.00     0.237 C 
BRANCH   2   3
ATOM      3  N   UNL     1       2.830   7.287   2.401  1.00  0.00    -0.350 N 
ATOM      4  H   UNL     1       3.315   7.115   3.312  1.00  0.00     0.345 HD
ATOM      5  H   UNL     1       3.534   7.189   1.634  1.00  0.00     0.345 HD
ATOM      6  H   UNL     1       2.448   8.261   2.397  1.00  0.00     0.345 HD
ENDBRANCH   2   3
BRANCH   2   7
ATOM      7  C   UNL     1       1.090   6.512   0.881  1.00  0.00     0.100 C 
ATOM      8  O   UNL     1       0.322   7.492   0.700  1.00  0.00    -0.544 OA
ATOM      9  O   UNL     1       1.331   5.628  -0.165  1.00  0.00    -0.544 OA
ENDBRANCH   2   7
ENDBRANCH   1   2
BRANCH   1  10
ATOM     10  C   UNL     1       0.751   7.769   4.005  1.00  0.00     0.223 C 
ATOM     11  O   UNL     1       1.497   7.980   4.999  1.00  0.00    -0.275 OA
ATOM     12  N   UNL     1      -0.094   8.814   3.522  1.00  0.00    -0.369 N 
ATOM     13  H   UNL     1      -0.732   8.652   2.712  1.00  0.00     0.159 HD
ATOM     14  H   UNL     1      -0.086   9.752   3.980  1.00  0.00     0.159 HD
ENDBRANCH   1  10
TORSDOF 4
ENDMDL
