MODEL 1
REMARK VINA RESULT:    -3.384      0.000      0.000
REMARK INTER + INTRA:          -5.650
REMARK INTER:                  -5.164
REMARK INTRA:                  -0.486
REMARK UNBOUND:                -0.486
REMARK SMILES CC1=CCC[C@@H](C)C(=O)C[C@@H](C(C)C)C(=O)C1
REMARK SMILES IDX 8 1 9 2 6 3 7 4 5 5 4 6 3 7 2 8 1 9 10 11 11 12 15 13 16 14
REMARK SMILES IDX 17 15 12 17 13 18 14 19
REMARK H PARENT
REMARK Flexibility Score: 70.00
ROOT
ATOM      1  C   UNL     1      23.222  49.008  -1.583  1.00  0.00     0.136 C 
ATOM      2  O   UNL     1      24.081  48.511  -2.298  1.00  0.00    -0.299 OA
ENDROOT
BRANCH   1   3
ATOM      3  C   UNL     1      22.279  50.060  -2.137  1.00  0.00     0.053 C 
ATOM      4  C   UNL     1      21.431  49.540  -3.310  1.00  0.00     0.016 C 
BRANCH   3   5
ATOM      5  C   UNL     1      23.033  51.358  -2.485  1.00  0.00     0.015 C 
BRANCH   5   6
ATOM      6  C   UNL     1      22.982  52.429  -1.378  1.00  0.00     0.028 C 
BRANCH   6   7
ATOM      7  C   UNL     1      24.228  52.396  -0.530  1.00  0.00    -0.028 C 
ATOM      8  C   UNL     1      24.257  52.088   0.787  1.00  0.00    -0.070 CG0
ATOM      9  C   UNL     1      25.582  52.151   1.502  1.00  0.00     0.039 C 
ATOM     10  G   UNL     1      23.022  51.679   1.577  1.00  0.00     0.000 G0
ENDBRANCH   6   7
ENDBRANCH   5   6
ENDBRANCH   3   5
ENDBRANCH   1   3
BRANCH   1  11
ATOM     11  C   UNL     1      23.081  48.550  -0.150  1.00  0.00     0.087 C 
BRANCH  11  12
ATOM     12  C   UNL     1      22.079  49.367   0.707  1.00  0.00     0.066 C 
BRANCH  12  13
ATOM     13  C   UNL     1      22.818  50.204   1.747  1.00  0.00     0.140 C 
ATOM     14  O   UNL     1      23.304  49.632   2.714  1.00  0.00    -0.299 OA
BRANCH  13  15
ATOM     15  C   UNL     1      23.009  51.700   1.604  1.00  0.00     0.106 CG0
ATOM     16  G   UNL     1      24.236  52.062   0.781  1.00  0.00     0.000 G0
ENDBRANCH  13  15
ENDBRANCH  12  13
BRANCH  12  17
ATOM     17  C   UNL     1      20.875  48.554   1.296  1.00  0.00    -0.006 C 
ATOM     18  C   UNL     1      20.048  49.427   2.259  1.00  0.00     0.008 C 
ATOM     19  C   UNL     1      19.937  48.014   0.202  1.00  0.00     0.008 C 
ENDBRANCH  12  17
ENDBRANCH  11  12
ENDBRANCH   1  11
TORSDOF 1
ENDMDL
MODEL 2
REMARK VINA RESULT:    -2.982      1.594      4.095
REMARK INTER + INTRA:          -5.037
REMARK INTER:                  -5.061
REMARK INTRA:                   0.024
REMARK UNBOUND:                -0.486
REMARK SMILES CC1=CCC[C@@H](C)C(=O)C[C@@H](C(C)C)C(=O)C1
REMARK SMILES IDX 8 1 9 2 6 3 7 4 5 5 4 6 3 7 2 8 1 9 10 11 11 12 15 13 16 14
REMARK SMILES IDX 17 15 12 17 13 18 14 19
REMARK H PARENT
REMARK Flexibility Score: 70.00
ROOT
ATOM      1  C   UNL     1      22.827  50.959  -2.314  1.00  0.00     0.136 C 
ATOM      2  O   UNL     1      22.622  51.437  -3.421  1.00  0.00    -0.299 OA
ENDROOT
BRANCH   1   3
ATOM      3  C   UNL     1      22.940  49.455  -2.137  1.00  0.00     0.053 C 
ATOM      4  C   UNL     1      23.440  48.744  -3.406  1.00  0.00     0.016 C 
BRANCH   3   5
ATOM      5  C   UNL     1      21.625  48.855  -1.605  1.00  0.00     0.015 C 
BRANCH   5   6
ATOM      6  C   UNL     1      21.798  47.982  -0.346  1.00  0.00     0.028 C 
BRANCH   6   7
ATOM      7  C   UNL     1      20.915  48.463   0.777  1.00  0.00    -0.028 C 
ATOM      8  C   UNL     1      21.331  49.236   1.806  1.00  0.00    -0.070 CG0
ATOM      9  C   UNL     1      20.330  49.589   2.877  1.00  0.00     0.039 C 
ATOM     10  G   UNL     1      22.750  49.767   1.933  1.00  0.00     0.000 G0
ENDBRANCH   6   7
ENDBRANCH   5   6
ENDBRANCH   3   5
ENDBRANCH   1   3
BRANCH   1  11
ATOM     11  C   UNL     1      22.997  51.871  -1.122  1.00  0.00     0.087 C 
BRANCH  11  12
ATOM     12  C   UNL     1      23.836  51.283   0.044  1.00  0.00     0.066 C 
BRANCH  12  13
ATOM     13  C   UNL     1      22.974  51.103   1.290  1.00  0.00     0.140 C 
ATOM     14  O   UNL     1      22.410  52.085   1.752  1.00  0.00    -0.299 OA
BRANCH  13  15
ATOM     15  C   UNL     1      22.756  49.754   1.943  1.00  0.00     0.106 CG0
ATOM     16  G   UNL     1      21.330  49.248   1.791  1.00  0.00     0.000 G0
ENDBRANCH  13  15
ENDBRANCH  12  13
BRANCH  12  17
ATOM     17  C   UNL     1      25.200  52.002   0.323  1.00  0.00    -0.006 C 
ATOM     18  C   UNL     1      25.165  53.454  -0.191  1.00  0.00     0.008 C 
ATOM     19  C   UNL     1      25.560  52.025   1.819  1.00  0.00     0.008 C 
ENDBRANCH  12  17
ENDBRANCH  11  12
ENDBRANCH   1  11
TORSDOF 1
ENDMDL
MODEL 3
REMARK VINA RESULT:    -2.970      2.180      4.704
REMARK INTER + INTRA:          -5.019
REMARK INTER:                  -4.969
REMARK INTRA:                  -0.049
REMARK UNBOUND:                -0.486
REMARK SMILES CC1=CCC[C@@H](C)C(=O)C[C@@H](C(C)C)C(=O)C1
REMARK SMILES IDX 8 1 9 2 6 3 7 4 5 5 4 6 3 7 2 8 1 9 10 11 11 12 15 13 16 14
REMARK SMILES IDX 17 15 12 17 13 18 14 19
REMARK H PARENT
REMARK Flexibility Score: 70.00
ROOT
ATOM      1  C   UNL     1      23.943  51.403  -0.277  1.00  0.00     0.136 C 
ATOM      2  O   UNL     1      24.233  52.244  -1.116  1.00  0.00    -0.299 OA
ENDROOT
BRANCH   1   3
ATOM      3  C   UNL     1      23.823  51.790   1.186  1.00  0.00     0.053 C 
ATOM      4  C   UNL     1      24.839  51.059   2.080  1.00  0.00     0.016 C 
BRANCH   3   5
ATOM      5  C   UNL     1      22.375  51.631   1.689  1.00  0.00     0.015 C 
BRANCH   5   6
ATOM      6  C   UNL     1      22.188  50.492   2.711  1.00  0.00     0.028 C 
BRANCH   6   7
ATOM      7  C   UNL     1      20.867  49.793   2.512  1.00  0.00    -0.028 C 
ATOM      8  C   UNL     1      20.638  48.827   1.593  1.00  0.00    -0.070 CG0
ATOM      9  C   UNL     1      19.244  48.263   1.489  1.00  0.00     0.039 C 
ATOM     10  G   UNL     1      21.715  48.280   0.668  1.00  0.00     0.000 G0
ENDBRANCH   6   7
ENDBRANCH   5   6
ENDBRANCH   3   5
ENDBRANCH   1   3
BRANCH   1  11
ATOM     11  C   UNL     1      23.673  49.979  -0.703  1.00  0.00     0.087 C 
BRANCH  11  12
ATOM     12  C   UNL     1      22.342  49.763  -1.471  1.00  0.00     0.066 C 
BRANCH  12  13
ATOM     13  C   UNL     1      21.498  48.687  -0.794  1.00  0.00     0.140 C 
ATOM     14  O   UNL     1      20.638  48.122  -1.455  1.00  0.00    -0.299 OA
BRANCH  13  15
ATOM     15  C   UNL     1      21.717  48.266   0.645  1.00  0.00     0.106 CG0
ATOM     16  G   UNL     1      20.660  48.819   1.589  1.00  0.00     0.000 G0
ENDBRANCH  13  15
ENDBRANCH  12  13
BRANCH  12  17
ATOM     17  C   UNL     1      22.482  49.567  -3.020  1.00  0.00    -0.006 C 
ATOM     18  C   UNL     1      22.724  50.918  -3.720  1.00  0.00     0.008 C 
ATOM     19  C   UNL     1      23.631  48.613  -3.393  1.00  0.00     0.008 C 
ENDBRANCH  12  17
ENDBRANCH  11  12
ENDBRANCH   1  11
TORSDOF 1
ENDMDL
MODEL 4
REMARK VINA RESULT:    -2.944      2.192      4.290
REMARK INTER + INTRA:          -4.979
REMARK INTER:                  -4.983
REMARK INTRA:                   0.004
REMARK UNBOUND:                -0.486
REMARK SMILES CC1=CCC[C@@H](C)C(=O)C[C@@H](C(C)C)C(=O)C1
REMARK SMILES IDX 8 1 9 2 6 3 7 4 5 5 4 6 3 7 2 8 1 9 10 11 11 12 15 13 16 14
REMARK SMILES IDX 17 15 12 17 13 18 14 19
REMARK H PARENT
REMARK Flexibility Score: 70.00
ROOT
ATOM      1  C   UNL     1      24.922  51.988   1.134  1.00  0.00     0.136 C 
ATOM      2  O   UNL     1      25.841  52.386   1.837  1.00  0.00    -0.299 OA
ENDROOT
BRANCH   1   3
ATOM      3  C   UNL     1      24.849  52.388  -0.328  1.00  0.00     0.053 C 
ATOM      4  C   UNL     1      25.259  53.851  -0.566  1.00  0.00     0.016 C 
BRANCH   3   5
ATOM      5  C   UNL     1      23.468  52.059  -0.927  1.00  0.00     0.015 C 
BRANCH   5   6
ATOM      6  C   UNL     1      23.493  50.936  -1.982  1.00  0.00     0.028 C 
BRANCH   6   7
ATOM      7  C   UNL     1      22.340  49.984  -1.793  1.00  0.00    -0.028 C 
ATOM      8  C   UNL     1      22.388  48.853  -1.051  1.00  0.00    -0.070 CG0
ATOM      9  C   UNL     1      21.159  47.981  -1.005  1.00  0.00     0.039 C 
ATOM     10  G   UNL     1      23.616  48.422  -0.263  1.00  0.00     0.000 G0
ENDBRANCH   6   7
ENDBRANCH   5   6
ENDBRANCH   3   5
ENDBRANCH   1   3
BRANCH   1  11
ATOM     11  C   UNL     1      23.873  51.071   1.718  1.00  0.00     0.087 C 
BRANCH  11  12
ATOM     12  C   UNL     1      24.350  49.622   2.002  1.00  0.00     0.066 C 
BRANCH  12  13
ATOM     13  C   UNL     1      23.499  48.615   1.234  1.00  0.00     0.140 C 
ATOM     14  O   UNL     1      22.655  47.978   1.850  1.00  0.00    -0.299 OA
BRANCH  13  15
ATOM     15  C   UNL     1      23.630  48.411  -0.262  1.00  0.00     0.106 CG0
ATOM     16  G   UNL     1      22.399  48.868  -1.029  1.00  0.00     0.000 G0
ENDBRANCH  13  15
ENDBRANCH  12  13
BRANCH  12  17
ATOM     17  C   UNL     1      24.538  49.259   3.516  1.00  0.00    -0.006 C 
ATOM     18  C   UNL     1      25.956  49.626   3.991  1.00  0.00     0.008 C 
ATOM     19  C   UNL     1      23.520  49.971   4.424  1.00  0.00     0.008 C 
ENDBRANCH  12  17
ENDBRANCH  11  12
ENDBRANCH   1  11
TORSDOF 1
ENDMDL
MODEL 5
REMARK VINA RESULT:    -2.840      2.717      4.911
REMARK INTER + INTRA:          -4.820
REMARK INTER:                  -4.539
REMARK INTRA:                  -0.281
REMARK UNBOUND:                -0.486
REMARK SMILES CC1=CCC[C@@H](C)C(=O)C[C@@H](C(C)C)C(=O)C1
REMARK SMILES IDX 8 1 9 2 6 3 7 4 5 5 4 6 3 7 2 8 1 9 10 11 11 12 15 13 16 14
REMARK SMILES IDX 17 15 12 17 13 18 14 19
REMARK H PARENT
REMARK Flexibility Score: 70.00
ROOT
ATOM      1  C   UNL     1      20.801  50.240   2.371  1.00  0.00     0.136 C 
ATOM      2  O   UNL     1      19.794  50.493   1.725  1.00  0.00    -0.299 OA
ENDROOT
BRANCH   1   3
ATOM      3  C   UNL     1      20.770  49.174   3.451  1.00  0.00     0.053 C 
ATOM      4  C   UNL     1      19.347  48.679   3.758  1.00  0.00     0.016 C 
BRANCH   3   5
ATOM      5  C   UNL     1      21.516  49.641   4.716  1.00  0.00     0.015 C 
BRANCH   5   6
ATOM      6  C   UNL     1      22.746  48.783   5.071  1.00  0.00     0.028 C 
BRANCH   6   7
ATOM      7  C   UNL     1      23.915  49.645   5.473  1.00  0.00    -0.028 C 
ATOM      8  C   UNL     1      24.981  49.916   4.683  1.00  0.00    -0.070 CG0
ATOM      9  C   UNL     1      26.093  50.757   5.255  1.00  0.00     0.039 C 
ATOM     10  G   UNL     1      25.107  49.418   3.251  1.00  0.00     0.000 G0
ENDBRANCH   6   7
ENDBRANCH   5   6
ENDBRANCH   3   5
ENDBRANCH   1   3
BRANCH   1  11
ATOM     11  C   UNL     1      22.089  50.971   2.070  1.00  0.00     0.087 C 
BRANCH  11  12
ATOM     12  C   UNL     1      23.225  50.090   1.487  1.00  0.00     0.066 C 
BRANCH  12  13
ATOM     13  C   UNL     1      24.542  50.364   2.209  1.00  0.00     0.140 C 
ATOM     14  O   UNL     1      25.127  51.412   1.972  1.00  0.00    -0.299 OA
BRANCH  13  15
ATOM     15  C   UNL     1      25.122  49.412   3.235  1.00  0.00     0.106 CG0
ATOM     16  G   UNL     1      24.990  49.928   4.660  1.00  0.00     0.000 G0
ENDBRANCH  13  15
ENDBRANCH  12  13
BRANCH  12  17
ATOM     17  C   UNL     1      23.352  50.100  -0.075  1.00  0.00    -0.006 C 
ATOM     18  C   UNL     1      22.772  48.805  -0.676  1.00  0.00     0.008 C 
ATOM     19  C   UNL     1      22.634  51.299  -0.718  1.00  0.00     0.008 C 
ENDBRANCH  12  17
ENDBRANCH  11  12
ENDBRANCH   1  11
TORSDOF 1
ENDMDL
MODEL 6
REMARK VINA RESULT:    -2.809      1.610      4.148
REMARK INTER + INTRA:          -4.772
REMARK INTER:                  -5.150
REMARK INTRA:                   0.378
REMARK UNBOUND:                -0.486
REMARK SMILES CC1=CCC[C@@H](C)C(=O)C[C@@H](C(C)C)C(=O)C1
REMARK SMILES IDX 8 1 9 2 6 3 7 4 5 5 4 6 3 7 2 8 1 9 10 11 11 12 15 13 16 14
REMARK SMILES IDX 17 15 12 17 13 18 14 19
REMARK H PARENT
REMARK Flexibility Score: 70.00
ROOT
ATOM      1  C   UNL     1      23.213  51.261  -1.696  1.00  0.00     0.136 C 
ATOM      2  O   UNL     1      22.613  51.616  -2.701  1.00  0.00    -0.299 OA
ENDROOT
BRANCH   1   3
ATOM      3  C   UNL     1      23.656  49.818  -1.538  1.00  0.00     0.053 C 
ATOM      4  C   UNL     1      24.348  49.267  -2.796  1.00  0.00     0.016 C 
BRANCH   3   5
ATOM      5  C   UNL     1      22.492  48.925  -1.068  1.00  0.00     0.015 C 
BRANCH   5   6
ATOM      6  C   UNL     1      21.529  49.617  -0.083  1.00  0.00     0.028 C 
BRANCH   6   7
ATOM      7  C   UNL     1      21.772  49.156   1.331  1.00  0.00    -0.028 C 
ATOM      8  C   UNL     1      22.413  49.879   2.278  1.00  0.00    -0.070 CG0
ATOM      9  C   UNL     1      22.618  49.251   3.633  1.00  0.00     0.039 C 
ATOM     10  G   UNL     1      22.930  51.291   2.044  1.00  0.00     0.000 G0
ENDBRANCH   6   7
ENDBRANCH   5   6
ENDBRANCH   3   5
ENDBRANCH   1   3
BRANCH   1  11
ATOM     11  C   UNL     1      23.540  52.271  -0.621  1.00  0.00     0.087 C 
BRANCH  11  12
ATOM     12  C   UNL     1      24.789  51.937   0.238  1.00  0.00     0.066 C 
BRANCH  12  13
ATOM     13  C   UNL     1      24.375  51.335   1.578  1.00  0.00     0.140 C 
ATOM     14  O   UNL     1      25.249  50.894   2.311  1.00  0.00    -0.299 OA
BRANCH  13  15
ATOM     15  C   UNL     1      22.935  51.306   2.049  1.00  0.00     0.106 CG0
ATOM     16  G   UNL     1      22.416  49.893   2.272  1.00  0.00     0.000 G0
ENDBRANCH  13  15
ENDBRANCH  12  13
BRANCH  12  17
ATOM     17  C   UNL     1      25.846  53.087   0.367  1.00  0.00    -0.006 C 
ATOM     18  C   UNL     1      25.544  54.218  -0.634  1.00  0.00     0.008 C 
ATOM     19  C   UNL     1      25.892  53.690   1.782  1.00  0.00     0.008 C 
ENDBRANCH  12  17
ENDBRANCH  11  12
ENDBRANCH   1  11
TORSDOF 1
ENDMDL
MODEL 7
REMARK VINA RESULT:    -2.689      1.652      3.803
REMARK INTER + INTRA:          -4.590
REMARK INTER:                  -4.751
REMARK INTRA:                   0.161
REMARK UNBOUND:                -0.486
REMARK SMILES CC1=CCC[C@@H](C)C(=O)C[C@@H](C(C)C)C(=O)C1
REMARK SMILES IDX 8 1 9 2 6 3 7 4 5 5 4 6 3 7 2 8 1 9 10 11 11 12 15 13 16 14
REMARK SMILES IDX 17 15 12 17 13 18 14 19
REMARK H PARENT
REMARK Flexibility Score: 70.00
ROOT
ATOM      1  C   UNL     1      22.109  49.229   0.500  1.00  0.00     0.136 C 
ATOM      2  O   UNL     1      22.893  48.291   0.503  1.00  0.00    -0.299 OA
ENDROOT
BRANCH   1   3
ATOM      3  C   UNL     1      21.648  49.846   1.808  1.00  0.00     0.053 C 
ATOM      4  C   UNL     1      20.121  50.018   1.879  1.00  0.00     0.016 C 
BRANCH   3   5
ATOM      5  C   UNL     1      22.402  51.158   2.102  1.00  0.00     0.015 C 
BRANCH   5   6
ATOM      6  C   UNL     1      23.935  51.036   2.002  1.00  0.00     0.028 C 
BRANCH   6   7
ATOM      7  C   UNL     1      24.553  52.319   1.507  1.00  0.00    -0.028 C 
ATOM      8  C   UNL     1      24.989  52.527   0.243  1.00  0.00    -0.070 CG0
ATOM      9  C   UNL     1      25.630  53.853  -0.078  1.00  0.00     0.039 C 
ATOM     10  G   UNL     1      24.859  51.494  -0.866  1.00  0.00     0.000 G0
ENDBRANCH   6   7
ENDBRANCH   5   6
ENDBRANCH   3   5
ENDBRANCH   1   3
BRANCH   1  11
ATOM     11  C   UNL     1      21.620  49.795  -0.813  1.00  0.00     0.087 C 
BRANCH  11  12
ATOM     12  C   UNL     1      22.735  50.151  -1.832  1.00  0.00     0.066 C 
BRANCH  12  13
ATOM     13  C   UNL     1      23.424  51.455  -1.442  1.00  0.00     0.140 C 
ATOM     14  O   UNL     1      22.797  52.499  -1.555  1.00  0.00    -0.299 OA
BRANCH  13  15
ATOM     15  C   UNL     1      24.831  51.498  -0.881  1.00  0.00     0.106 CG0
ATOM     16  G   UNL     1      24.988  52.515   0.239  1.00  0.00     0.000 G0
ENDBRANCH  13  15
ENDBRANCH  12  13
BRANCH  12  17
ATOM     17  C   UNL     1      22.313  50.091  -3.341  1.00  0.00    -0.006 C 
ATOM     18  C   UNL     1      23.547  49.897  -4.243  1.00  0.00     0.008 C 
ATOM     19  C   UNL     1      21.316  48.955  -3.630  1.00  0.00     0.008 C 
ENDBRANCH  12  17
ENDBRANCH  11  12
ENDBRANCH   1  11
TORSDOF 1
ENDMDL
MODEL 8
REMARK VINA RESULT:    -2.383      2.534      4.104
REMARK INTER + INTRA:          -4.123
REMARK INTER:                  -4.276
REMARK INTRA:                   0.152
REMARK UNBOUND:                -0.486
REMARK SMILES CC1=CCC[C@@H](C)C(=O)C[C@@H](C(C)C)C(=O)C1
REMARK SMILES IDX 8 1 9 2 6 3 7 4 5 5 4 6 3 7 2 8 1 9 10 11 11 12 15 13 16 14
REMARK SMILES IDX 17 15 12 17 13 18 14 19
REMARK H PARENT
REMARK Flexibility Score: 70.00
ROOT
ATOM      1  C   UNL     1      21.380  49.464   3.330  1.00  0.00     0.136 C 
ATOM      2  O   UNL     1      20.772  49.563   4.386  1.00  0.00    -0.299 OA
ENDROOT
BRANCH   1   3
ATOM      3  C   UNL     1      20.710  49.843   2.022  1.00  0.00     0.053 C 
ATOM      4  C   UNL     1      20.801  48.730   0.964  1.00  0.00     0.016 C 
BRANCH   3   5
ATOM      5  C   UNL     1      21.230  51.196   1.499  1.00  0.00     0.015 C 
BRANCH   5   6
ATOM      6  C   UNL     1      22.221  51.076   0.325  1.00  0.00     0.028 C 
BRANCH   6   7
ATOM      7  C   UNL     1      23.375  52.032   0.485  1.00  0.00    -0.028 C 
ATOM      8  C   UNL     1      24.527  51.747   1.136  1.00  0.00    -0.070 CG0
ATOM      9  C   UNL     1      25.565  52.835   1.250  1.00  0.00     0.039 C 
ATOM     10  G   UNL     1      24.827  50.388   1.750  1.00  0.00     0.000 G0
ENDBRANCH   6   7
ENDBRANCH   5   6
ENDBRANCH   3   5
ENDBRANCH   1   3
BRANCH   1  11
ATOM     11  C   UNL     1      22.815  48.992   3.331  1.00  0.00     0.087 C 
BRANCH  11  12
ATOM     12  C   UNL     1      23.797  49.870   4.151  1.00  0.00     0.066 C 
BRANCH  12  13
ATOM     13  C   UNL     1      24.920  50.396   3.260  1.00  0.00     0.140 C 
ATOM     14  O   UNL     1      25.938  50.813   3.795  1.00  0.00    -0.299 OA
BRANCH  13  15
ATOM     15  C   UNL     1      24.837  50.377   1.748  1.00  0.00     0.106 CG0
ATOM     16  G   UNL     1      24.516  51.741   1.157  1.00  0.00     0.000 G0
ENDBRANCH  13  15
ENDBRANCH  12  13
BRANCH  12  17
ATOM     17  C   UNL     1      24.304  49.242   5.494  1.00  0.00    -0.006 C 
ATOM     18  C   UNL     1      24.526  50.336   6.556  1.00  0.00     0.008 C 
ATOM     19  C   UNL     1      23.326  48.201   6.065  1.00  0.00     0.008 C 
ENDBRANCH  12  17
ENDBRANCH  11  12
ENDBRANCH   1  11
TORSDOF 1
ENDMDL
MODEL 9
REMARK VINA RESULT:    -2.253      7.330      9.519
REMARK INTER + INTRA:          -3.924
REMARK INTER:                  -3.812
REMARK INTRA:                  -0.111
REMARK UNBOUND:                -0.486
REMARK SMILES CC1=CCC[C@@H](C)C(=O)C[C@@H](C(C)C)C(=O)C1
REMARK SMILES IDX 8 1 9 2 6 3 7 4 5 5 4 6 3 7 2 8 1 9 10 11 11 12 15 13 16 14
REMARK SMILES IDX 17 15 12 17 13 18 14 19
REMARK H PARENT
REMARK Flexibility Score: 70.00
ROOT
ATOM      1  C   UNL     1      18.122  54.617  -6.349  1.00  0.00     0.136 C 
ATOM      2  O   UNL     1      17.363  55.017  -5.478  1.00  0.00    -0.299 OA
ENDROOT
BRANCH   1   3
ATOM      3  C   UNL     1      17.571  54.047  -7.643  1.00  0.00     0.053 C 
ATOM      4  C   UNL     1      16.476  54.931  -8.263  1.00  0.00     0.016 C 
BRANCH   3   5
ATOM      5  C   UNL     1      17.116  52.587  -7.460  1.00  0.00     0.015 C 
BRANCH   5   6
ATOM      6  C   UNL     1      17.960  51.563  -8.244  1.00  0.00     0.028 C 
BRANCH   6   7
ATOM      7  C   UNL     1      18.694  50.633  -7.312  1.00  0.00    -0.028 C 
ATOM      8  C   UNL     1      20.033  50.636  -7.117  1.00  0.00    -0.070 CG0
ATOM      9  C   UNL     1      20.616  49.604  -6.186  1.00  0.00     0.039 C 
ATOM     10  G   UNL     1      20.972  51.628  -7.785  1.00  0.00     0.000 G0
ENDBRANCH   6   7
ENDBRANCH   5   6
ENDBRANCH   3   5
ENDBRANCH   1   3
BRANCH   1  11
ATOM     11  C   UNL     1      19.616  54.720  -6.147  1.00  0.00     0.087 C 
BRANCH  11  12
ATOM     12  C   UNL     1      20.477  54.205  -7.330  1.00  0.00     0.066 C 
BRANCH  12  13
ATOM     13  C   UNL     1      21.164  52.892  -6.965  1.00  0.00     0.140 C 
ATOM     14  O   UNL     1      21.853  52.858  -5.956  1.00  0.00    -0.299 OA
BRANCH  13  15
ATOM     15  C   UNL     1      20.985  51.625  -7.777  1.00  0.00     0.106 CG0
ATOM     16  G   UNL     1      20.036  50.633  -7.122  1.00  0.00     0.000 G0
ENDBRANCH  13  15
ENDBRANCH  12  13
BRANCH  12  17
ATOM     17  C   UNL     1      21.443  55.260  -7.971  1.00  0.00    -0.006 C 
ATOM     18  C   UNL     1      21.826  56.342  -6.943  1.00  0.00     0.008 C 
ATOM     19  C   UNL     1      22.736  54.625  -8.513  1.00  0.00     0.008 C 
ENDBRANCH  12  17
ENDBRANCH  11  12
ENDBRANCH   1  11
TORSDOF 1
ENDMDL
