MODEL 1
REMARK VINA RESULT:    -7.486      0.000      0.000
REMARK INTER + INTRA:          -8.143
REMARK INTER:                  -8.143
REMARK INTRA:                   0.000
REMARK UNBOUND:                 0.000
REMARK SMILES Cc1cc(O)c2c(c1)C(=O)c1cc(O)cc(O)c1C2=O
REMARK SMILES IDX 1 1 2 2 8 3 7 4 6 5 4 6 3 7 19 8 20 9 18 10 11 11 9 12 10 13
REMARK SMILES IDX 12 14 13 15 15 16 16 17 5 18 17 20 14 22
REMARK H PARENT 5 19 17 21 14 23
REMARK Flexibility Score: inf
ROOT
ATOM      1  C   UNL     1      20.125  31.570  33.624  1.00  0.00     0.044 C 
ATOM      2  C   UNL     1      20.498  30.125  33.776  1.00  0.00    -0.047 A 
ATOM      3  C   UNL     1      21.842  29.751  33.874  1.00  0.00     0.016 A 
ATOM      4  C   UNL     1      22.205  28.397  33.972  1.00  0.00     0.038 A 
ATOM      5  C   UNL     1      21.205  27.399  33.944  1.00  0.00     0.076 A 
ATOM      6  C   UNL     1      19.842  27.786  33.891  1.00  0.00     0.127 A 
ATOM      7  C   UNL     1      19.508  29.138  33.774  1.00  0.00     0.050 A 
ATOM      8  C   UNL     1      21.635  25.976  33.901  1.00  0.00     0.201 C 
ATOM      9  O   UNL     1      20.914  25.120  33.323  1.00  0.00    -0.288 OA
ATOM     10  C   UNL     1      22.994  25.602  34.369  1.00  0.00     0.076 A 
ATOM     11  C   UNL     1      23.991  26.604  34.396  1.00  0.00     0.041 A 
ATOM     12  C   UNL     1      23.629  28.012  34.107  1.00  0.00     0.194 C 
ATOM     13  O   UNL     1      24.533  28.887  34.002  1.00  0.00    -0.289 OA
ATOM     14  C   UNL     1      25.319  26.261  34.699  1.00  0.00     0.059 A 
ATOM     15  C   UNL     1      25.661  24.937  34.992  1.00  0.00     0.120 A 
ATOM     16  C   UNL     1      24.673  23.953  35.007  1.00  0.00     0.093 A 
ATOM     17  C   UNL     1      23.341  24.273  34.728  1.00  0.00     0.131 A 
ENDROOT
BRANCH   6  18
ATOM     18  O   UNL     1      18.791  26.868  33.984  1.00  0.00    -0.507 OA
ATOM     19  H   UNL     1      18.220  26.592  33.199  1.00  0.00     0.293 HD
ENDBRANCH   6  18
BRANCH  17  20
ATOM     20  O   UNL     1      22.394  23.253  34.851  1.00  0.00    -0.507 OA
ATOM     21  H   UNL     1      22.588  22.359  35.281  1.00  0.00     0.293 HD
ENDBRANCH  17  20
BRANCH  15  22
ATOM     22  O   UNL     1      26.979  24.592  35.281  1.00  0.00    -0.508 OA
ATOM     23  H   UNL     1      27.464  23.869  34.763  1.00  0.00     0.293 HD
ENDBRANCH  15  22
TORSDOF 3
ENDMDL
MODEL 2
REMARK VINA RESULT:    -7.425      5.049      7.676
REMARK INTER + INTRA:          -8.076
REMARK INTER:                  -8.076
REMARK INTRA:                   0.000
REMARK UNBOUND:                 0.000
REMARK SMILES Cc1cc(O)c2c(c1)C(=O)c1cc(O)cc(O)c1C2=O
REMARK SMILES IDX 1 1 2 2 8 3 7 4 6 5 4 6 3 7 19 8 20 9 18 10 11 11 9 12 10 13
REMARK SMILES IDX 12 14 13 15 15 16 16 17 5 18 17 20 14 22
REMARK H PARENT 5 19 17 21 14 23
REMARK Flexibility Score: inf
ROOT
ATOM      1  C   UNL     1      29.104  24.257  30.625  1.00  0.00     0.044 C 
ATOM      2  C   UNL     1      28.432  23.391  31.650  1.00  0.00    -0.047 A 
ATOM      3  C   UNL     1      27.244  23.810  32.256  1.00  0.00     0.016 A 
ATOM      4  C   UNL     1      26.631  23.028  33.250  1.00  0.00     0.038 A 
ATOM      5  C   UNL     1      27.233  21.818  33.663  1.00  0.00     0.076 A 
ATOM      6  C   UNL     1      28.414  21.376  33.013  1.00  0.00     0.127 A 
ATOM      7  C   UNL     1      29.015  22.182  32.041  1.00  0.00     0.050 A 
ATOM      8  C   UNL     1      26.636  21.095  34.816  1.00  0.00     0.201 C 
ATOM      9  O   UNL     1      27.371  20.402  35.571  1.00  0.00    -0.288 OA
ATOM     10  C   UNL     1      25.219  21.340  35.187  1.00  0.00     0.076 A 
ATOM     11  C   UNL     1      24.620  22.552  34.772  1.00  0.00     0.041 A 
ATOM     12  C   UNL     1      25.355  23.464  33.864  1.00  0.00     0.194 C 
ATOM     13  O   UNL     1      24.880  24.603  33.594  1.00  0.00    -0.289 OA
ATOM     14  C   UNL     1      23.330  22.883  35.218  1.00  0.00     0.059 A 
ATOM     15  C   UNL     1      22.626  22.015  36.058  1.00  0.00     0.120 A 
ATOM     16  C   UNL     1      23.197  20.800  36.437  1.00  0.00     0.093 A 
ATOM     17  C   UNL     1      24.472  20.439  35.990  1.00  0.00     0.131 A 
ENDROOT
BRANCH   6  18
ATOM     18  O   UNL     1      29.002  20.136  33.276  1.00  0.00    -0.507 OA
ATOM     19  H   UNL     1      28.660  19.492  33.974  1.00  0.00     0.293 HD
ENDBRANCH   6  18
BRANCH  17  20
ATOM     20  O   UNL     1      24.940  19.170  36.336  1.00  0.00    -0.507 OA
ATOM     21  H   UNL     1      24.517  18.594  37.051  1.00  0.00     0.293 HD
ENDBRANCH  17  20
BRANCH  15  22
ATOM     22  O   UNL     1      21.351  22.346  36.513  1.00  0.00    -0.508 OA
ATOM     23  H   UNL     1      20.562  22.409  35.880  1.00  0.00     0.293 HD
ENDBRANCH  15  22
TORSDOF 3
ENDMDL
MODEL 3
REMARK VINA RESULT:    -7.288      5.410      7.368
REMARK INTER + INTRA:          -7.927
REMARK INTER:                  -7.927
REMARK INTRA:                   0.000
REMARK UNBOUND:                 0.000
REMARK SMILES Cc1cc(O)c2c(c1)C(=O)c1cc(O)cc(O)c1C2=O
REMARK SMILES IDX 1 1 2 2 8 3 7 4 6 5 4 6 3 7 19 8 20 9 18 10 11 11 9 12 10 13
REMARK SMILES IDX 12 14 13 15 15 16 16 17 5 18 17 20 14 22
REMARK H PARENT 5 19 17 21 14 23
REMARK Flexibility Score: inf
ROOT
ATOM      1  C   UNL     1      21.892  22.233  36.584  1.00  0.00     0.044 C 
ATOM      2  C   UNL     1      23.196  21.859  35.943  1.00  0.00    -0.047 A 
ATOM      3  C   UNL     1      23.751  22.671  34.949  1.00  0.00     0.016 A 
ATOM      4  C   UNL     1      24.950  22.307  34.312  1.00  0.00     0.038 A 
ATOM      5  C   UNL     1      25.589  21.095  34.657  1.00  0.00     0.076 A 
ATOM      6  C   UNL     1      25.046  20.298  35.698  1.00  0.00     0.127 A 
ATOM      7  C   UNL     1      23.842  20.672  36.303  1.00  0.00     0.050 A 
ATOM      8  C   UNL     1      26.770  20.673  33.861  1.00  0.00     0.201 C 
ATOM      9  O   UNL     1      27.019  19.447  33.707  1.00  0.00    -0.288 OA
ATOM     10  C   UNL     1      27.542  21.684  33.092  1.00  0.00     0.076 A 
ATOM     11  C   UNL     1      26.898  22.895  32.749  1.00  0.00     0.041 A 
ATOM     12  C   UNL     1      25.547  23.189  33.282  1.00  0.00     0.194 C 
ATOM     13  O   UNL     1      24.916  24.205  32.878  1.00  0.00    -0.289 OA
ATOM     14  C   UNL     1      27.544  23.816  31.908  1.00  0.00     0.059 A 
ATOM     15  C   UNL     1      28.828  23.551  31.420  1.00  0.00     0.120 A 
ATOM     16  C   UNL     1      29.482  22.377  31.789  1.00  0.00     0.093 A 
ATOM     17  C   UNL     1      28.868  21.453  32.641  1.00  0.00     0.131 A 
ENDROOT
BRANCH   6  18
ATOM     18  O   UNL     1      25.682  19.152  36.182  1.00  0.00    -0.507 OA
ATOM     19  H   UNL     1      26.285  19.148  36.992  1.00  0.00     0.293 HD
ENDBRANCH   6  18
BRANCH  17  20
ATOM     20  O   UNL     1      29.619  20.345  33.039  1.00  0.00    -0.507 OA
ATOM     21  H   UNL     1      29.475  19.413  32.677  1.00  0.00     0.293 HD
ENDBRANCH  17  20
BRANCH  15  22
ATOM     22  O   UNL     1      29.467  24.457  30.575  1.00  0.00    -0.508 OA
ATOM     23  H   UNL     1      29.425  24.362  29.567  1.00  0.00     0.293 HD
ENDBRANCH  15  22
TORSDOF 3
ENDMDL
MODEL 4
REMARK VINA RESULT:    -6.885      4.855      7.172
REMARK INTER + INTRA:          -7.488
REMARK INTER:                  -7.488
REMARK INTRA:                   0.000
REMARK UNBOUND:                 0.000
REMARK SMILES Cc1cc(O)c2c(c1)C(=O)c1cc(O)cc(O)c1C2=O
REMARK SMILES IDX 1 1 2 2 8 3 7 4 6 5 4 6 3 7 19 8 20 9 18 10 11 11 9 12 10 13
REMARK SMILES IDX 12 14 13 15 15 16 16 17 5 18 17 20 14 22
REMARK H PARENT 5 19 17 21 14 23
REMARK Flexibility Score: inf
ROOT
ATOM      1  C   UNL     1      28.658  22.976  31.791  1.00  0.00     0.044 C 
ATOM      2  C   UNL     1      27.406  22.950  32.618  1.00  0.00    -0.047 A 
ATOM      3  C   UNL     1      27.014  21.773  33.263  1.00  0.00     0.016 A 
ATOM      4  C   UNL     1      25.820  21.726  34.004  1.00  0.00     0.038 A 
ATOM      5  C   UNL     1      24.993  22.869  34.077  1.00  0.00     0.076 A 
ATOM      6  C   UNL     1      25.418  24.072  33.457  1.00  0.00     0.127 A 
ATOM      7  C   UNL     1      26.600  24.088  32.710  1.00  0.00     0.050 A 
ATOM      8  C   UNL     1      23.671  22.736  34.743  1.00  0.00     0.201 C 
ATOM      9  O   UNL     1      22.704  23.453  34.368  1.00  0.00    -0.288 OA
ATOM     10  C   UNL     1      23.440  21.635  35.713  1.00  0.00     0.076 A 
ATOM     11  C   UNL     1      24.271  20.494  35.637  1.00  0.00     0.041 A 
ATOM     12  C   UNL     1      25.428  20.484  34.711  1.00  0.00     0.194 C 
ATOM     13  O   UNL     1      26.094  19.425  34.545  1.00  0.00    -0.289 OA
ATOM     14  C   UNL     1      23.998  19.376  36.443  1.00  0.00     0.059 A 
ATOM     15  C   UNL     1      22.920  19.389  37.333  1.00  0.00     0.120 A 
ATOM     16  C   UNL     1      22.123  20.528  37.441  1.00  0.00     0.093 A 
ATOM     17  C   UNL     1      22.386  21.661  36.663  1.00  0.00     0.131 A 
ENDROOT
BRANCH   6  18
ATOM     18  O   UNL     1      24.720  25.276  33.586  1.00  0.00    -0.507 OA
ATOM     19  H   UNL     1      25.136  26.128  33.933  1.00  0.00     0.293 HD
ENDBRANCH   6  18
BRANCH  17  20
ATOM     20  O   UNL     1      21.602  22.794  36.891  1.00  0.00    -0.507 OA
ATOM     21  H   UNL     1      21.892  23.732  36.651  1.00  0.00     0.293 HD
ENDBRANCH  17  20
BRANCH  15  22
ATOM     22  O   UNL     1      22.640  18.278  38.125  1.00  0.00    -0.508 OA
ATOM     23  H   UNL     1      21.907  17.622  37.878  1.00  0.00     0.293 HD
ENDBRANCH  15  22
TORSDOF 3
ENDMDL
MODEL 5
REMARK VINA RESULT:    -6.837      2.217      4.518
REMARK INTER + INTRA:          -7.436
REMARK INTER:                  -7.436
REMARK INTRA:                   0.000
REMARK UNBOUND:                 0.000
REMARK SMILES Cc1cc(O)c2c(c1)C(=O)c1cc(O)cc(O)c1C2=O
REMARK SMILES IDX 1 1 2 2 8 3 7 4 6 5 4 6 3 7 19 8 20 9 18 10 11 11 9 12 10 13
REMARK SMILES IDX 12 14 13 15 15 16 16 17 5 18 17 20 14 22
REMARK H PARENT 5 19 17 21 14 23
REMARK Flexibility Score: inf
ROOT
ATOM      1  C   UNL     1      19.806  27.028  34.375  1.00  0.00     0.044 C 
ATOM      2  C   UNL     1      21.226  26.542  34.373  1.00  0.00    -0.047 A 
ATOM      3  C   UNL     1      21.507  25.186  34.568  1.00  0.00     0.016 A 
ATOM      4  C   UNL     1      22.835  24.728  34.611  1.00  0.00     0.038 A 
ATOM      5  C   UNL     1      23.899  25.648  34.485  1.00  0.00     0.076 A 
ATOM      6  C   UNL     1      23.608  27.015  34.242  1.00  0.00     0.127 A 
ATOM      7  C   UNL     1      22.279  27.449  34.222  1.00  0.00     0.050 A 
ATOM      8  C   UNL     1      25.285  25.149  34.684  1.00  0.00     0.201 C 
ATOM      9  O   UNL     1      26.170  25.919  35.145  1.00  0.00    -0.288 OA
ATOM     10  C   UNL     1      25.579  23.702  34.519  1.00  0.00     0.076 A 
ATOM     11  C   UNL     1      24.510  22.785  34.646  1.00  0.00     0.041 A 
ATOM     12  C   UNL     1      23.122  23.285  34.786  1.00  0.00     0.194 C 
ATOM     13  O   UNL     1      22.182  22.478  35.029  1.00  0.00    -0.289 OA
ATOM     14  C   UNL     1      24.769  21.404  34.636  1.00  0.00     0.059 A 
ATOM     15  C   UNL     1      26.075  20.929  34.483  1.00  0.00     0.120 A 
ATOM     16  C   UNL     1      27.126  21.829  34.316  1.00  0.00     0.093 A 
ATOM     17  C   UNL     1      26.892  23.208  34.304  1.00  0.00     0.131 A 
ENDROOT
BRANCH   6  18
ATOM     18  O   UNL     1      24.600  27.965  33.983  1.00  0.00    -0.507 OA
ATOM     19  H   UNL     1      24.823  28.302  33.058  1.00  0.00     0.293 HD
ENDBRANCH   6  18
BRANCH  17  20
ATOM     20  O   UNL     1      27.980  24.043  34.042  1.00  0.00    -0.507 OA
ATOM     21  H   UNL     1      27.895  24.954  33.612  1.00  0.00     0.293 HD
ENDBRANCH  17  20
BRANCH  15  22
ATOM     22  O   UNL     1      26.336  19.560  34.484  1.00  0.00    -0.508 OA
ATOM     23  H   UNL     1      25.593  18.878  34.386  1.00  0.00     0.293 HD
ENDBRANCH  15  22
TORSDOF 3
ENDMDL
MODEL 6
REMARK VINA RESULT:    -6.799      1.832      2.916
REMARK INTER + INTRA:          -7.395
REMARK INTER:                  -7.395
REMARK INTRA:                   0.000
REMARK UNBOUND:                 0.000
REMARK SMILES Cc1cc(O)c2c(c1)C(=O)c1cc(O)cc(O)c1C2=O
REMARK SMILES IDX 1 1 2 2 8 3 7 4 6 5 4 6 3 7 19 8 20 9 18 10 11 11 9 12 10 13
REMARK SMILES IDX 12 14 13 15 15 16 16 17 5 18 17 20 14 22
REMARK H PARENT 5 19 17 21 14 23
REMARK Flexibility Score: inf
ROOT
ATOM      1  C   UNL     1      24.148  30.156  33.783  1.00  0.00     0.044 C 
ATOM      2  C   UNL     1      23.707  28.740  34.009  1.00  0.00    -0.047 A 
ATOM      3  C   UNL     1      24.629  27.773  34.424  1.00  0.00     0.016 A 
ATOM      4  C   UNL     1      24.235  26.435  34.597  1.00  0.00     0.038 A 
ATOM      5  C   UNL     1      22.903  26.054  34.322  1.00  0.00     0.076 A 
ATOM      6  C   UNL     1      21.962  27.046  33.945  1.00  0.00     0.127 A 
ATOM      7  C   UNL     1      22.382  28.367  33.762  1.00  0.00     0.050 A 
ATOM      8  C   UNL     1      22.563  24.608  34.373  1.00  0.00     0.201 C 
ATOM      9  O   UNL     1      21.651  24.151  33.632  1.00  0.00    -0.288 OA
ATOM     10  C   UNL     1      23.418  23.675  35.151  1.00  0.00     0.076 A 
ATOM     11  C   UNL     1      24.750  24.061  35.424  1.00  0.00     0.041 A 
ATOM     12  C   UNL     1      25.211  25.424  35.067  1.00  0.00     0.194 C 
ATOM     13  O   UNL     1      26.430  25.730  35.189  1.00  0.00    -0.289 OA
ATOM     14  C   UNL     1      25.631  23.153  36.034  1.00  0.00     0.059 A 
ATOM     15  C   UNL     1      25.194  21.873  36.391  1.00  0.00     0.120 A 
ATOM     16  C   UNL     1      23.870  21.503  36.162  1.00  0.00     0.093 A 
ATOM     17  C   UNL     1      22.969  22.396  35.572  1.00  0.00     0.131 A 
ENDROOT
BRANCH   6  18
ATOM     18  O   UNL     1      20.602  26.773  33.777  1.00  0.00    -0.507 OA
ATOM     19  H   UNL     1      20.109  26.906  32.905  1.00  0.00     0.293 HD
ENDBRANCH   6  18
BRANCH  17  20
ATOM     20  O   UNL     1      21.639  21.987  35.457  1.00  0.00    -0.507 OA
ATOM     21  H   UNL     1      21.328  21.041  35.627  1.00  0.00     0.293 HD
ENDBRANCH  17  20
BRANCH  15  22
ATOM     22  O   UNL     1      26.068  20.965  36.986  1.00  0.00    -0.508 OA
ATOM     23  H   UNL     1      25.951  20.669  37.948  1.00  0.00     0.293 HD
ENDBRANCH  15  22
TORSDOF 3
ENDMDL
MODEL 7
REMARK VINA RESULT:    -6.735      4.190      6.535
REMARK INTER + INTRA:          -7.325
REMARK INTER:                  -7.325
REMARK INTRA:                   0.000
REMARK UNBOUND:                 0.000
REMARK SMILES Cc1cc(O)c2c(c1)C(=O)c1cc(O)cc(O)c1C2=O
REMARK SMILES IDX 1 1 2 2 8 3 7 4 6 5 4 6 3 7 19 8 20 9 18 10 11 11 9 12 10 13
REMARK SMILES IDX 12 14 13 15 15 16 16 17 5 18 17 20 14 22
REMARK H PARENT 5 19 17 21 14 23
REMARK Flexibility Score: inf
ROOT
ATOM      1  C   UNL     1      21.256  21.620  36.516  1.00  0.00     0.044 C 
ATOM      2  C   UNL     1      22.377  22.178  35.690  1.00  0.00    -0.047 A 
ATOM      3  C   UNL     1      23.574  21.468  35.556  1.00  0.00     0.016 A 
ATOM      4  C   UNL     1      24.646  22.002  34.821  1.00  0.00     0.038 A 
ATOM      5  C   UNL     1      24.527  23.281  34.232  1.00  0.00     0.076 A 
ATOM      6  C   UNL     1      23.295  23.977  34.333  1.00  0.00     0.127 A 
ATOM      7  C   UNL     1      22.250  23.433  35.086  1.00  0.00     0.050 A 
ATOM      8  C   UNL     1      25.730  23.873  33.591  1.00  0.00     0.201 C 
ATOM      9  O   UNL     1      25.881  25.124  33.574  1.00  0.00    -0.288 OA
ATOM     10  C   UNL     1      26.837  22.990  33.141  1.00  0.00     0.076 A 
ATOM     11  C   UNL     1      26.952  21.711  33.733  1.00  0.00     0.041 A 
ATOM     12  C   UNL     1      25.900  21.228  34.658  1.00  0.00     0.194 C 
ATOM     13  O   UNL     1      26.061  20.146  35.287  1.00  0.00    -0.289 OA
ATOM     14  C   UNL     1      28.062  20.902  33.438  1.00  0.00     0.059 A 
ATOM     15  C   UNL     1      29.047  21.346  32.549  1.00  0.00     0.120 A 
ATOM     16  C   UNL     1      28.915  22.589  31.933  1.00  0.00     0.093 A 
ATOM     17  C   UNL     1      27.810  23.405  32.195  1.00  0.00     0.131 A 
ENDROOT
BRANCH   6  18
ATOM     18  O   UNL     1      23.055  25.187  33.677  1.00  0.00    -0.507 OA
ATOM     19  H   UNL     1      22.253  25.353  33.086  1.00  0.00     0.293 HD
ENDBRANCH   6  18
BRANCH  17  20
ATOM     20  O   UNL     1      27.702  24.595  31.472  1.00  0.00    -0.507 OA
ATOM     21  H   UNL     1      28.193  25.444  31.716  1.00  0.00     0.293 HD
ENDBRANCH  17  20
BRANCH  15  22
ATOM     22  O   UNL     1      30.155  20.551  32.264  1.00  0.00    -0.508 OA
ATOM     23  H   UNL     1      31.074  20.773  32.627  1.00  0.00     0.293 HD
ENDBRANCH  15  22
TORSDOF 3
ENDMDL
MODEL 8
REMARK VINA RESULT:    -6.561      3.332      6.166
REMARK INTER + INTRA:          -7.136
REMARK INTER:                  -7.136
REMARK INTRA:                   0.000
REMARK UNBOUND:                 0.000
REMARK SMILES Cc1cc(O)c2c(c1)C(=O)c1cc(O)cc(O)c1C2=O
REMARK SMILES IDX 1 1 2 2 8 3 7 4 6 5 4 6 3 7 19 8 20 9 18 10 11 11 9 12 10 13
REMARK SMILES IDX 12 14 13 15 15 16 16 17 5 18 17 20 14 22
REMARK H PARENT 5 19 17 21 14 23
REMARK Flexibility Score: inf
ROOT
ATOM      1  C   UNL     1      22.403  27.166  34.109  1.00  0.00     0.044 C 
ATOM      2  C   UNL     1      23.093  25.973  34.703  1.00  0.00    -0.047 A 
ATOM      3  C   UNL     1      22.344  24.907  35.212  1.00  0.00     0.016 A 
ATOM      4  C   UNL     1      22.979  23.805  35.810  1.00  0.00     0.038 A 
ATOM      5  C   UNL     1      24.387  23.782  35.923  1.00  0.00     0.076 A 
ATOM      6  C   UNL     1      25.144  24.844  35.365  1.00  0.00     0.127 A 
ATOM      7  C   UNL     1      24.488  25.938  34.793  1.00  0.00     0.050 A 
ATOM      8  C   UNL     1      25.011  22.673  36.691  1.00  0.00     0.201 C 
ATOM      9  O   UNL     1      26.095  22.866  37.305  1.00  0.00    -0.288 OA
ATOM     10  C   UNL     1      24.266  21.404  36.892  1.00  0.00     0.076 A 
ATOM     11  C   UNL     1      22.857  21.431  36.777  1.00  0.00     0.041 A 
ATOM     12  C   UNL     1      22.178  22.666  36.318  1.00  0.00     0.194 C 
ATOM     13  O   UNL     1      20.918  22.738  36.337  1.00  0.00    -0.289 OA
ATOM     14  C   UNL     1      22.107  20.286  37.093  1.00  0.00     0.059 A 
ATOM     15  C   UNL     1      22.745  19.113  37.506  1.00  0.00     0.120 A 
ATOM     16  C   UNL     1      24.137  19.069  37.581  1.00  0.00     0.093 A 
ATOM     17  C   UNL     1      24.907  20.190  37.253  1.00  0.00     0.131 A 
ENDROOT
BRANCH   6  18
ATOM     18  O   UNL     1      26.541  24.838  35.326  1.00  0.00    -0.507 OA
ATOM     19  H   UNL     1      27.103  24.036  35.574  1.00  0.00     0.293 HD
ENDBRANCH   6  18
BRANCH  17  20
ATOM     20  O   UNL     1      26.295  20.043  37.264  1.00  0.00    -0.507 OA
ATOM     21  H   UNL     1      26.866  20.190  38.085  1.00  0.00     0.293 HD
ENDBRANCH  17  20
BRANCH  15  22
ATOM     22  O   UNL     1      22.004  17.979  37.833  1.00  0.00    -0.508 OA
ATOM     23  H   UNL     1      20.997  17.954  37.723  1.00  0.00     0.293 HD
ENDBRANCH  15  22
TORSDOF 3
ENDMDL
MODEL 9
REMARK VINA RESULT:    -6.332      3.455      5.776
REMARK INTER + INTRA:          -6.888
REMARK INTER:                  -6.888
REMARK INTRA:                   0.000
REMARK UNBOUND:                 0.000
REMARK SMILES Cc1cc(O)c2c(c1)C(=O)c1cc(O)cc(O)c1C2=O
REMARK SMILES IDX 1 1 2 2 8 3 7 4 6 5 4 6 3 7 19 8 20 9 18 10 11 11 9 12 10 13
REMARK SMILES IDX 12 14 13 15 15 16 16 17 5 18 17 20 14 22
REMARK H PARENT 5 19 17 21 14 23
REMARK Flexibility Score: inf
ROOT
ATOM      1  C   UNL     1      22.207  26.370  34.385  1.00  0.00     0.044 C 
ATOM      2  C   UNL     1      22.854  25.059  34.726  1.00  0.00    -0.047 A 
ATOM      3  C   UNL     1      23.971  24.618  34.011  1.00  0.00     0.016 A 
ATOM      4  C   UNL     1      24.557  23.372  34.294  1.00  0.00     0.038 A 
ATOM      5  C   UNL     1      23.998  22.543  35.291  1.00  0.00     0.076 A 
ATOM      6  C   UNL     1      22.893  23.015  36.045  1.00  0.00     0.127 A 
ATOM      7  C   UNL     1      22.315  24.249  35.732  1.00  0.00     0.050 A 
ATOM      8  C   UNL     1      24.554  21.175  35.459  1.00  0.00     0.201 C 
ATOM      9  O   UNL     1      23.810  20.240  35.861  1.00  0.00    -0.288 OA
ATOM     10  C   UNL     1      25.925  20.871  34.975  1.00  0.00     0.076 A 
ATOM     11  C   UNL     1      26.480  21.703  33.977  1.00  0.00     0.041 A 
ATOM     12  C   UNL     1      25.760  22.926  33.551  1.00  0.00     0.194 C 
ATOM     13  O   UNL     1      26.185  23.602  32.573  1.00  0.00    -0.289 OA
ATOM     14  C   UNL     1      27.715  21.370  33.395  1.00  0.00     0.059 A 
ATOM     15  C   UNL     1      28.408  20.228  33.809  1.00  0.00     0.120 A 
ATOM     16  C   UNL     1      27.883  19.427  34.822  1.00  0.00     0.093 A 
ATOM     17  C   UNL     1      26.666  19.748  35.430  1.00  0.00     0.131 A 
ENDROOT
BRANCH   6  18
ATOM     18  O   UNL     1      22.360  22.311  37.128  1.00  0.00    -0.507 OA
ATOM     19  H   UNL     1      22.014  21.365  37.064  1.00  0.00     0.293 HD
ENDBRANCH   6  18
BRANCH  17  20
ATOM     20  O   UNL     1      26.248  18.951  36.498  1.00  0.00    -0.507 OA
ATOM     21  H   UNL     1      26.710  18.934  37.397  1.00  0.00     0.293 HD
ENDBRANCH  17  20
BRANCH  15  22
ATOM     22  O   UNL     1      29.627  19.887  33.226  1.00  0.00    -0.508 OA
ATOM     23  H   UNL     1      30.206  19.146  33.603  1.00  0.00     0.293 HD
ENDBRANCH  15  22
TORSDOF 3
ENDMDL
