MODEL 1
REMARK VINA RESULT:    -7.411      0.000      0.000
REMARK INTER + INTRA:          -9.270
REMARK INTER:                  -9.144
REMARK INTRA:                  -0.126
REMARK UNBOUND:                -0.126
REMARK SMILES Oc1cc(O)c2cc(O)c(-c3cc(O)c(O)c(O)c3)[o+]c2c1
REMARK SMILES IDX 10 1 20 2 21 3 22 4 2 5 3 6 4 7 6 8 7 9 8 10 11 11 12 12
REMARK SMILES IDX 13 13 19 14 15 15 17 16 14 17 16 19 18 21 9 23 1 25 5 27
REMARK H PARENT 14 18 16 20 18 22 9 24 1 26 5 28
REMARK Flexibility Score: inf
ROOT
ATOM      1  C   UNL     1       7.307  28.889 -13.681  1.00  0.00     0.402 A 
ATOM      2  O   UNL     1       7.665  29.843 -12.827  1.00  0.00    -0.202 OA
ATOM      3  C   UNL     1       7.488  31.140 -13.063  1.00  0.00     0.368 A 
ATOM      4  C   UNL     1       7.900  32.068 -12.105  1.00  0.00     0.162 A 
ATOM      5  C   UNL     1       7.728  33.435 -12.327  1.00  0.00     0.128 A 
ATOM      6  C   UNL     1       7.142  33.878 -13.517  1.00  0.00     0.093 A 
ATOM      7  C   UNL     1       6.722  32.968 -14.494  1.00  0.00     0.136 A 
ATOM      8  C   UNL     1       6.891  31.576 -14.270  1.00  0.00     0.125 A 
ATOM      9  C   UNL     1       6.487  30.592 -15.186  1.00  0.00     0.078 A 
ATOM     10  C   UNL     1       6.684  29.240 -14.893  1.00  0.00     0.223 A 
ENDROOT
BRANCH   1  11
ATOM     11  C   UNL     1       7.567  27.480 -13.307  1.00  0.00     0.091 A 
ATOM     12  C   UNL     1       6.532  26.534 -13.259  1.00  0.00     0.068 A 
ATOM     13  C   UNL     1       6.802  25.200 -12.924  1.00  0.00     0.162 A 
ATOM     14  C   UNL     1       8.881  27.065 -13.049  1.00  0.00     0.068 A 
ATOM     15  C   UNL     1       8.114  24.793 -12.644  1.00  0.00     0.200 A 
ATOM     16  C   UNL     1       9.166  25.737 -12.711  1.00  0.00     0.162 A 
BRANCH  13  17
ATOM     17  O   UNL     1       5.767  24.268 -12.873  1.00  0.00    -0.504 OA
ATOM     18  H   UNL     1       5.450  23.780 -13.702  1.00  0.00     0.293 HD
ENDBRANCH  13  17
BRANCH  15  19
ATOM     19  O   UNL     1       8.327  23.455 -12.309  1.00  0.00    -0.502 OA
ATOM     20  H   UNL     1       9.219  23.078 -12.018  1.00  0.00     0.293 HD
ENDBRANCH  15  19
BRANCH  16  21
ATOM     21  O   UNL     1      10.498  25.403 -12.457  1.00  0.00    -0.504 OA
ATOM     22  H   UNL     1      11.250  25.533 -13.118  1.00  0.00     0.293 HD
ENDBRANCH  16  21
ENDBRANCH   1  11
BRANCH  10  23
ATOM     23  O   UNL     1       6.238  28.259 -15.780  1.00  0.00    -0.500 OA
ATOM     24  H   UNL     1       5.475  28.432 -16.425  1.00  0.00     0.294 HD
ENDBRANCH  10  23
BRANCH   5  25
ATOM     25  O   UNL     1       8.146  34.345 -11.358  1.00  0.00    -0.507 OA
ATOM     26  H   UNL     1       8.917  34.981 -11.526  1.00  0.00     0.293 HD
ENDBRANCH   5  25
BRANCH   7  27
ATOM     27  O   UNL     1       6.147  33.491 -15.657  1.00  0.00    -0.507 OA
ATOM     28  H   UNL     1       5.984  34.474 -15.819  1.00  0.00     0.293 HD
ENDBRANCH   7  27
TORSDOF 7
ENDMDL
MODEL 2
REMARK VINA RESULT:    -7.407      0.210      1.811
REMARK INTER + INTRA:          -9.265
REMARK INTER:                  -9.138
REMARK INTRA:                  -0.127
REMARK UNBOUND:                -0.126
REMARK SMILES Oc1cc(O)c2cc(O)c(-c3cc(O)c(O)c(O)c3)[o+]c2c1
REMARK SMILES IDX 10 1 20 2 21 3 22 4 2 5 3 6 4 7 6 8 7 9 8 10 11 11 12 12
REMARK SMILES IDX 13 13 19 14 15 15 17 16 14 17 16 19 18 21 9 23 1 25 5 27
REMARK H PARENT 14 18 16 20 18 22 9 24 1 26 5 28
REMARK Flexibility Score: inf
ROOT
ATOM      1  C   UNL     1       7.256  28.904 -13.704  1.00  0.00     0.402 A 
ATOM      2  O   UNL     1       7.570  29.857 -12.831  1.00  0.00    -0.202 OA
ATOM      3  C   UNL     1       7.310  31.145 -13.030  1.00  0.00     0.368 A 
ATOM      4  C   UNL     1       7.682  32.073 -12.055  1.00  0.00     0.162 A 
ATOM      5  C   UNL     1       7.423  33.431 -12.238  1.00  0.00     0.128 A 
ATOM      6  C   UNL     1       6.788  33.868 -13.405  1.00  0.00     0.093 A 
ATOM      7  C   UNL     1       6.406  32.958 -14.399  1.00  0.00     0.136 A 
ATOM      8  C   UNL     1       6.664  31.575 -14.215  1.00  0.00     0.125 A 
ATOM      9  C   UNL     1       6.304  30.591 -15.149  1.00  0.00     0.078 A 
ATOM     10  C   UNL     1       6.588  29.246 -14.895  1.00  0.00     0.223 A 
ENDROOT
BRANCH   1  11
ATOM     11  C   UNL     1       7.608  27.505 -13.372  1.00  0.00     0.091 A 
ATOM     12  C   UNL     1       8.931  27.133 -13.087  1.00  0.00     0.068 A 
ATOM     13  C   UNL     1       9.240  25.807 -12.753  1.00  0.00     0.162 A 
ATOM     14  C   UNL     1       6.595  26.540 -13.283  1.00  0.00     0.068 A 
ATOM     15  C   UNL     1       8.228  24.839 -12.688  1.00  0.00     0.200 A 
ATOM     16  C   UNL     1       6.889  25.212 -12.952  1.00  0.00     0.162 A 
BRANCH  13  17
ATOM     17  O   UNL     1      10.558  25.445 -12.478  1.00  0.00    -0.504 OA
ATOM     18  H   UNL     1      10.802  24.915 -11.650  1.00  0.00     0.293 HD
ENDBRANCH  13  17
BRANCH  15  19
ATOM     19  O   UNL     1       8.592  23.532 -12.358  1.00  0.00    -0.502 OA
ATOM     20  H   UNL     1       8.305  23.060 -11.512  1.00  0.00     0.293 HD
ENDBRANCH  15  19
BRANCH  16  21
ATOM     21  O   UNL     1       5.828  24.306 -12.896  1.00  0.00    -0.504 OA
ATOM     22  H   UNL     1       4.886  24.519 -13.190  1.00  0.00     0.293 HD
ENDBRANCH  16  21
ENDBRANCH   1  11
BRANCH  10  23
ATOM     23  O   UNL     1       6.187  28.262 -15.799  1.00  0.00    -0.500 OA
ATOM     24  H   UNL     1       5.322  27.747 -15.676  1.00  0.00     0.294 HD
ENDBRANCH  10  23
BRANCH   5  25
ATOM     25  O   UNL     1       7.803  34.341 -11.253  1.00  0.00    -0.507 OA
ATOM     26  H   UNL     1       8.270  35.210 -11.486  1.00  0.00     0.293 HD
ENDBRANCH   5  25
BRANCH   7  27
ATOM     27  O   UNL     1       5.778  33.474 -15.537  1.00  0.00    -0.507 OA
ATOM     28  H   UNL     1       5.315  32.912 -16.236  1.00  0.00     0.293 HD
ENDBRANCH   7  27
TORSDOF 7
ENDMDL
MODEL 3
REMARK VINA RESULT:    -7.160      1.918      7.121
REMARK INTER + INTRA:          -8.960
REMARK INTER:                  -8.603
REMARK INTRA:                  -0.358
REMARK UNBOUND:                -0.126
REMARK SMILES Oc1cc(O)c2cc(O)c(-c3cc(O)c(O)c(O)c3)[o+]c2c1
REMARK SMILES IDX 10 1 20 2 21 3 22 4 2 5 3 6 4 7 6 8 7 9 8 10 11 11 12 12
REMARK SMILES IDX 13 13 19 14 15 15 17 16 14 17 16 19 18 21 9 23 1 25 5 27
REMARK H PARENT 14 18 16 20 18 22 9 24 1 26 5 28
REMARK Flexibility Score: inf
ROOT
ATOM      1  C   UNL     1       7.298  29.561 -14.234  1.00  0.00     0.402 A 
ATOM      2  O   UNL     1       6.736  28.396 -13.924  1.00  0.00    -0.202 OA
ATOM      3  C   UNL     1       7.407  27.380 -13.390  1.00  0.00     0.368 A 
ATOM      4  C   UNL     1       6.729  26.193 -13.101  1.00  0.00     0.162 A 
ATOM      5  C   UNL     1       7.408  25.110 -12.542  1.00  0.00     0.128 A 
ATOM      6  C   UNL     1       8.776  25.212 -12.270  1.00  0.00     0.093 A 
ATOM      7  C   UNL     1       9.479  26.390 -12.551  1.00  0.00     0.136 A 
ATOM      8  C   UNL     1       8.791  27.495 -13.116  1.00  0.00     0.125 A 
ATOM      9  C   UNL     1       9.410  28.718 -13.417  1.00  0.00     0.078 A 
ATOM     10  C   UNL     1       8.666  29.764 -13.969  1.00  0.00     0.223 A 
ENDROOT
BRANCH   1  11
ATOM     11  C   UNL     1       6.446  30.612 -14.834  1.00  0.00     0.091 A 
ATOM     12  C   UNL     1       5.641  31.442 -14.039  1.00  0.00     0.068 A 
ATOM     13  C   UNL     1       4.858  32.446 -14.625  1.00  0.00     0.162 A 
ATOM     14  C   UNL     1       6.484  30.824 -16.219  1.00  0.00     0.068 A 
ATOM     15  C   UNL     1       4.880  32.640 -16.013  1.00  0.00     0.200 A 
ATOM     16  C   UNL     1       5.707  31.822 -16.819  1.00  0.00     0.162 A 
BRANCH  13  17
ATOM     17  O   UNL     1       4.056  33.262 -13.829  1.00  0.00    -0.504 OA
ATOM     18  H   UNL     1       3.436  33.953 -14.232  1.00  0.00     0.293 HD
ENDBRANCH  13  17
BRANCH  15  19
ATOM     19  O   UNL     1       4.076  33.650 -16.547  1.00  0.00    -0.502 OA
ATOM     20  H   UNL     1       4.319  34.631 -16.540  1.00  0.00     0.293 HD
ENDBRANCH  15  19
BRANCH  16  21
ATOM     21  O   UNL     1       5.789  31.964 -18.205  1.00  0.00    -0.504 OA
ATOM     22  H   UNL     1       5.043  31.729 -18.843  1.00  0.00     0.293 HD
ENDBRANCH  16  21
ENDBRANCH   1  11
BRANCH  10  23
ATOM     23  O   UNL     1       9.268  30.997 -14.222  1.00  0.00    -0.500 OA
ATOM     24  H   UNL     1       9.166  31.466 -15.115  1.00  0.00     0.294 HD
ENDBRANCH  10  23
BRANCH   5  25
ATOM     25  O   UNL     1       6.713  23.936 -12.262  1.00  0.00    -0.507 OA
ATOM     26  H   UNL     1       5.805  23.746 -12.672  1.00  0.00     0.293 HD
ENDBRANCH   5  25
BRANCH   7  27
ATOM     27  O   UNL     1      10.845  26.411 -12.252  1.00  0.00    -0.507 OA
ATOM     28  H   UNL     1      11.242  26.105 -11.375  1.00  0.00     0.293 HD
ENDBRANCH   7  27
TORSDOF 7
ENDMDL
MODEL 4
REMARK VINA RESULT:    -7.153      1.905      7.142
REMARK INTER + INTRA:          -8.952
REMARK INTER:                  -8.594
REMARK INTRA:                  -0.358
REMARK UNBOUND:                -0.126
REMARK SMILES Oc1cc(O)c2cc(O)c(-c3cc(O)c(O)c(O)c3)[o+]c2c1
REMARK SMILES IDX 10 1 20 2 21 3 22 4 2 5 3 6 4 7 6 8 7 9 8 10 11 11 12 12
REMARK SMILES IDX 13 13 19 14 15 15 17 16 14 17 16 19 18 21 9 23 1 25 5 27
REMARK H PARENT 14 18 16 20 18 22 9 24 1 26 5 28
REMARK Flexibility Score: inf
ROOT
ATOM      1  C   UNL     1       7.475  29.258 -14.146  1.00  0.00     0.402 A 
ATOM      2  O   UNL     1       6.865  28.136 -13.777  1.00  0.00    -0.202 OA
ATOM      3  C   UNL     1       7.505  27.090 -13.263  1.00  0.00     0.368 A 
ATOM      4  C   UNL     1       6.775  25.953 -12.907  1.00  0.00     0.162 A 
ATOM      5  C   UNL     1       7.421  24.841 -12.367  1.00  0.00     0.128 A 
ATOM      6  C   UNL     1       8.807  24.863 -12.181  1.00  0.00     0.093 A 
ATOM      7  C   UNL     1       9.562  25.990 -12.530  1.00  0.00     0.136 A 
ATOM      8  C   UNL     1       8.908  27.125 -13.076  1.00  0.00     0.125 A 
ATOM      9  C   UNL     1       9.580  28.302 -13.441  1.00  0.00     0.078 A 
ATOM     10  C   UNL     1       8.867  29.382 -13.970  1.00  0.00     0.223 A 
ENDROOT
BRANCH   1  11
ATOM     11  C   UNL     1       6.653  30.349 -14.716  1.00  0.00     0.091 A 
ATOM     12  C   UNL     1       6.621  30.594 -16.098  1.00  0.00     0.068 A 
ATOM     13  C   UNL     1       5.818  31.618 -16.619  1.00  0.00     0.162 A 
ATOM     14  C   UNL     1       5.843  31.118 -13.869  1.00  0.00     0.068 A 
ATOM     15  C   UNL     1       5.028  32.401 -15.767  1.00  0.00     0.200 A 
ATOM     16  C   UNL     1       5.038  32.145 -14.375  1.00  0.00     0.162 A 
BRANCH  13  17
ATOM     17  O   UNL     1       5.798  31.859 -17.992  1.00  0.00    -0.504 OA
ATOM     18  H   UNL     1       5.642  31.114 -18.660  1.00  0.00     0.293 HD
ENDBRANCH  13  17
BRANCH  15  19
ATOM     19  O   UNL     1       4.252  33.413 -16.338  1.00  0.00    -0.502 OA
ATOM     20  H   UNL     1       4.501  33.911 -17.181  1.00  0.00     0.293 HD
ENDBRANCH  15  19
BRANCH  16  21
ATOM     21  O   UNL     1       4.269  32.876 -13.468  1.00  0.00    -0.504 OA
ATOM     22  H   UNL     1       3.280  32.736 -13.323  1.00  0.00     0.293 HD
ENDBRANCH  16  21
ENDBRANCH   1  11
BRANCH  10  23
ATOM     23  O   UNL     1       9.526  30.570 -14.286  1.00  0.00    -0.500 OA
ATOM     24  H   UNL     1       9.332  31.074 -15.144  1.00  0.00     0.294 HD
ENDBRANCH  10  23
BRANCH   5  25
ATOM     25  O   UNL     1       6.676  23.717 -12.019  1.00  0.00    -0.507 OA
ATOM     26  H   UNL     1       7.111  22.809 -11.898  1.00  0.00     0.293 HD
ENDBRANCH   5  25
BRANCH   7  27
ATOM     27  O   UNL     1      10.942  25.932 -12.316  1.00  0.00    -0.507 OA
ATOM     28  H   UNL     1      11.542  25.197 -12.660  1.00  0.00     0.293 HD
ENDBRANCH   7  27
TORSDOF 7
ENDMDL
MODEL 5
REMARK VINA RESULT:    -7.026     10.072     12.881
REMARK INTER + INTRA:          -8.795
REMARK INTER:                  -8.420
REMARK INTRA:                  -0.375
REMARK UNBOUND:                -0.126
REMARK SMILES Oc1cc(O)c2cc(O)c(-c3cc(O)c(O)c(O)c3)[o+]c2c1
REMARK SMILES IDX 10 1 20 2 21 3 22 4 2 5 3 6 4 7 6 8 7 9 8 10 11 11 12 12
REMARK SMILES IDX 13 13 19 14 15 15 17 16 14 17 16 19 18 21 9 23 1 25 5 27
REMARK H PARENT 14 18 16 20 18 22 9 24 1 26 5 28
REMARK Flexibility Score: inf
ROOT
ATOM      1  C   UNL     1      -1.553  33.879 -18.095  1.00  0.00     0.402 A 
ATOM      2  O   UNL     1      -2.570  34.644 -17.708  1.00  0.00    -0.202 OA
ATOM      3  C   UNL     1      -3.735  34.156 -17.292  1.00  0.00     0.368 A 
ATOM      4  C   UNL     1      -4.745  35.041 -16.908  1.00  0.00     0.162 A 
ATOM      5  C   UNL     1      -5.977  34.558 -16.469  1.00  0.00     0.128 A 
ATOM      6  C   UNL     1      -6.205  33.179 -16.414  1.00  0.00     0.093 A 
ATOM      7  C   UNL     1      -5.209  32.270 -16.794  1.00  0.00     0.136 A 
ATOM      8  C   UNL     1      -3.952  32.758 -17.238  1.00  0.00     0.125 A 
ATOM      9  C   UNL     1      -2.892  31.923 -17.624  1.00  0.00     0.078 A 
ATOM     10  C   UNL     1      -1.681  32.478 -18.047  1.00  0.00     0.223 A 
ENDROOT
BRANCH   1  11
ATOM     11  C   UNL     1      -0.310  34.543 -18.548  1.00  0.00     0.091 A 
ATOM     12  C   UNL     1       0.690  34.921 -17.638  1.00  0.00     0.068 A 
ATOM     13  C   UNL     1       1.869  35.527 -18.090  1.00  0.00     0.162 A 
ATOM     14  C   UNL     1      -0.097  34.748 -19.918  1.00  0.00     0.068 A 
ATOM     15  C   UNL     1       2.069  35.753 -19.458  1.00  0.00     0.200 A 
ATOM     16  C   UNL     1       1.075  35.354 -20.383  1.00  0.00     0.162 A 
BRANCH  13  17
ATOM     17  O   UNL     1       2.854  35.906 -17.179  1.00  0.00    -0.504 OA
ATOM     18  H   UNL     1       3.822  35.632 -17.298  1.00  0.00     0.293 HD
ENDBRANCH  13  17
BRANCH  15  19
ATOM     19  O   UNL     1       3.259  36.368 -19.854  1.00  0.00    -0.502 OA
ATOM     20  H   UNL     1       3.703  37.122 -19.350  1.00  0.00     0.293 HD
ENDBRANCH  15  19
BRANCH  16  21
ATOM     21  O   UNL     1       1.210  35.536 -21.761  1.00  0.00    -0.504 OA
ATOM     22  H   UNL     1       0.914  34.863 -22.453  1.00  0.00     0.293 HD
ENDBRANCH  16  21
ENDBRANCH   1  11
BRANCH  10  23
ATOM     23  O   UNL     1      -0.610  31.649 -18.384  1.00  0.00    -0.500 OA
ATOM     24  H   UNL     1      -0.437  31.367 -19.342  1.00  0.00     0.294 HD
ENDBRANCH  10  23
BRANCH   5  25
ATOM     25  O   UNL     1      -6.972  35.457 -16.090  1.00  0.00    -0.507 OA
ATOM     26  H   UNL     1      -7.671  35.783 -16.749  1.00  0.00     0.293 HD
ENDBRANCH   5  25
BRANCH   7  27
ATOM     27  O   UNL     1      -5.515  30.908 -16.713  1.00  0.00    -0.507 OA
ATOM     28  H   UNL     1      -6.229  30.451 -17.262  1.00  0.00     0.293 HD
ENDBRANCH   7  27
TORSDOF 7
ENDMDL
MODEL 6
REMARK VINA RESULT:    -6.919      2.035      3.461
REMARK INTER + INTRA:          -8.663
REMARK INTER:                  -8.405
REMARK INTRA:                  -0.258
REMARK UNBOUND:                -0.126
REMARK SMILES Oc1cc(O)c2cc(O)c(-c3cc(O)c(O)c(O)c3)[o+]c2c1
REMARK SMILES IDX 10 1 20 2 21 3 22 4 2 5 3 6 4 7 6 8 7 9 8 10 11 11 12 12
REMARK SMILES IDX 13 13 19 14 15 15 17 16 14 17 16 19 18 21 9 23 1 25 5 27
REMARK H PARENT 14 18 16 20 18 22 9 24 1 26 5 28
REMARK Flexibility Score: inf
ROOT
ATOM      1  C   UNL     1       8.560  27.071 -12.976  1.00  0.00     0.402 A 
ATOM      2  O   UNL     1       7.995  28.249 -12.730  1.00  0.00    -0.202 OA
ATOM      3  C   UNL     1       8.439  29.394 -13.239  1.00  0.00     0.368 A 
ATOM      4  C   UNL     1       7.779  30.582 -12.918  1.00  0.00     0.162 A 
ATOM      5  C   UNL     1       8.224  31.799 -13.437  1.00  0.00     0.128 A 
ATOM      6  C   UNL     1       9.338  31.830 -14.281  1.00  0.00     0.093 A 
ATOM      7  C   UNL     1      10.018  30.652 -14.617  1.00  0.00     0.136 A 
ATOM      8  C   UNL     1       9.567  29.413 -14.095  1.00  0.00     0.125 A 
ATOM      9  C   UNL     1      10.176  28.183 -14.388  1.00  0.00     0.078 A 
ATOM     10  C   UNL     1       9.671  27.001 -13.839  1.00  0.00     0.223 A 
ENDROOT
BRANCH   1  11
ATOM     11  C   UNL     1       7.979  25.867 -12.341  1.00  0.00     0.091 A 
ATOM     12  C   UNL     1       8.701  25.115 -11.402  1.00  0.00     0.068 A 
ATOM     13  C   UNL     1       8.124  23.992 -10.795  1.00  0.00     0.162 A 
ATOM     14  C   UNL     1       6.659  25.500 -12.638  1.00  0.00     0.068 A 
ATOM     15  C   UNL     1       6.812  23.613 -11.111  1.00  0.00     0.200 A 
ATOM     16  C   UNL     1       6.070  24.379 -12.041  1.00  0.00     0.162 A 
BRANCH  13  17
ATOM     17  O   UNL     1       8.851  23.246  -9.868  1.00  0.00    -0.504 OA
ATOM     18  H   UNL     1       8.416  22.857  -9.041  1.00  0.00     0.293 HD
ENDBRANCH  13  17
BRANCH  15  19
ATOM     19  O   UNL     1       6.288  22.481 -10.483  1.00  0.00    -0.502 OA
ATOM     20  H   UNL     1       5.730  22.507  -9.642  1.00  0.00     0.293 HD
ENDBRANCH  15  19
BRANCH  16  21
ATOM     21  O   UNL     1       4.755  24.069 -12.396  1.00  0.00    -0.504 OA
ATOM     22  H   UNL     1       4.102  24.734 -12.783  1.00  0.00     0.293 HD
ENDBRANCH  16  21
ENDBRANCH   1  11
BRANCH  10  23
ATOM     23  O   UNL     1      10.246  25.773 -14.169  1.00  0.00    -0.500 OA
ATOM     24  H   UNL     1       9.732  24.904 -14.078  1.00  0.00     0.294 HD
ENDBRANCH  10  23
BRANCH   5  25
ATOM     25  O   UNL     1       7.551  32.973 -13.105  1.00  0.00    -0.507 OA
ATOM     26  H   UNL     1       6.741  32.966 -12.496  1.00  0.00     0.293 HD
ENDBRANCH   5  25
BRANCH   7  27
ATOM     27  O   UNL     1      11.125  30.768 -15.465  1.00  0.00    -0.507 OA
ATOM     28  H   UNL     1      11.077  30.732 -16.473  1.00  0.00     0.293 HD
ENDBRANCH   7  27
TORSDOF 7
ENDMDL
MODEL 7
REMARK VINA RESULT:    -6.894      1.631      2.753
REMARK INTER + INTRA:          -8.632
REMARK INTER:                  -8.391
REMARK INTRA:                  -0.241
REMARK UNBOUND:                -0.126
REMARK SMILES Oc1cc(O)c2cc(O)c(-c3cc(O)c(O)c(O)c3)[o+]c2c1
REMARK SMILES IDX 10 1 20 2 21 3 22 4 2 5 3 6 4 7 6 8 7 9 8 10 11 11 12 12
REMARK SMILES IDX 13 13 19 14 15 15 17 16 14 17 16 19 18 21 9 23 1 25 5 27
REMARK H PARENT 14 18 16 20 18 22 9 24 1 26 5 28
REMARK Flexibility Score: inf
ROOT
ATOM      1  C   UNL     1       8.425  28.450 -13.563  1.00  0.00     0.402 A 
ATOM      2  O   UNL     1       7.345  28.922 -14.179  1.00  0.00    -0.202 OA
ATOM      3  C   UNL     1       7.042  30.215 -14.236  1.00  0.00     0.368 A 
ATOM      4  C   UNL     1       5.882  30.613 -14.904  1.00  0.00     0.162 A 
ATOM      5  C   UNL     1       5.538  31.963 -14.978  1.00  0.00     0.128 A 
ATOM      6  C   UNL     1       6.358  32.924 -14.378  1.00  0.00     0.093 A 
ATOM      7  C   UNL     1       7.526  32.551 -13.702  1.00  0.00     0.136 A 
ATOM      8  C   UNL     1       7.881  31.179 -13.628  1.00  0.00     0.125 A 
ATOM      9  C   UNL     1       9.039  30.715 -12.984  1.00  0.00     0.078 A 
ATOM     10  C   UNL     1       9.325  29.347 -12.955  1.00  0.00     0.223 A 
ENDROOT
BRANCH   1  11
ATOM     11  C   UNL     1       8.647  26.987 -13.560  1.00  0.00     0.091 A 
ATOM     12  C   UNL     1       7.782  26.118 -12.878  1.00  0.00     0.068 A 
ATOM     13  C   UNL     1       7.998  24.734 -12.906  1.00  0.00     0.162 A 
ATOM     14  C   UNL     1       9.710  26.448 -14.300  1.00  0.00     0.068 A 
ATOM     15  C   UNL     1       9.075  24.200 -13.626  1.00  0.00     0.200 A 
ATOM     16  C   UNL     1       9.938  25.068 -14.335  1.00  0.00     0.162 A 
BRANCH  13  17
ATOM     17  O   UNL     1       7.137  23.878 -12.219  1.00  0.00    -0.504 OA
ATOM     18  H   UNL     1       7.409  22.933 -11.978  1.00  0.00     0.293 HD
ENDBRANCH  13  17
BRANCH  15  19
ATOM     19  O   UNL     1       9.248  22.814 -13.615  1.00  0.00    -0.502 OA
ATOM     20  H   UNL     1       9.954  22.327 -14.150  1.00  0.00     0.293 HD
ENDBRANCH  15  19
BRANCH  16  21
ATOM     21  O   UNL     1      11.024  24.608 -15.083  1.00  0.00    -0.504 OA
ATOM     22  H   UNL     1      11.229  23.632 -15.241  1.00  0.00     0.293 HD
ENDBRANCH  16  21
ENDBRANCH   1  11
BRANCH  10  23
ATOM     23  O   UNL     1      10.500  28.888 -12.359  1.00  0.00    -0.500 OA
ATOM     24  H   UNL     1      11.404  29.282 -12.595  1.00  0.00     0.294 HD
ENDBRANCH  10  23
BRANCH   5  25
ATOM     25  O   UNL     1       4.376  32.340 -15.649  1.00  0.00    -0.507 OA
ATOM     26  H   UNL     1       3.895  31.703 -16.274  1.00  0.00     0.293 HD
ENDBRANCH   5  25
BRANCH   7  27
ATOM     27  O   UNL     1       8.291  33.571 -13.127  1.00  0.00    -0.507 OA
ATOM     28  H   UNL     1       8.707  33.523 -12.208  1.00  0.00     0.293 HD
ENDBRANCH   7  27
TORSDOF 7
ENDMDL
MODEL 8
REMARK VINA RESULT:    -6.847      1.278      7.322
REMARK INTER + INTRA:          -8.574
REMARK INTER:                  -8.190
REMARK INTRA:                  -0.383
REMARK UNBOUND:                -0.126
REMARK SMILES Oc1cc(O)c2cc(O)c(-c3cc(O)c(O)c(O)c3)[o+]c2c1
REMARK SMILES IDX 10 1 20 2 21 3 22 4 2 5 3 6 4 7 6 8 7 9 8 10 11 11 12 12
REMARK SMILES IDX 13 13 19 14 15 15 17 16 14 17 16 19 18 21 9 23 1 25 5 27
REMARK H PARENT 14 18 16 20 18 22 9 24 1 26 5 28
REMARK Flexibility Score: inf
ROOT
ATOM      1  C   UNL     1       8.276  29.721 -13.230  1.00  0.00     0.402 A 
ATOM      2  O   UNL     1       7.346  28.771 -13.239  1.00  0.00    -0.202 OA
ATOM      3  C   UNL     1       7.618  27.480 -13.076  1.00  0.00     0.368 A 
ATOM      4  C   UNL     1       6.572  26.555 -13.104  1.00  0.00     0.162 A 
ATOM      5  C   UNL     1       6.828  25.194 -12.937  1.00  0.00     0.128 A 
ATOM      6  C   UNL     1       8.141  24.752 -12.743  1.00  0.00     0.093 A 
ATOM      7  C   UNL     1       9.208  25.658 -12.711  1.00  0.00     0.136 A 
ATOM      8  C   UNL     1       8.950  27.044 -12.877  1.00  0.00     0.125 A 
ATOM      9  C   UNL     1       9.954  28.025 -12.846  1.00  0.00     0.078 A 
ATOM     10  C   UNL     1       9.623  29.373 -13.012  1.00  0.00     0.223 A 
ENDROOT
BRANCH   1  11
ATOM     11  C   UNL     1       7.848  31.124 -13.433  1.00  0.00     0.091 A 
ATOM     12  C   UNL     1       7.849  31.711 -14.708  1.00  0.00     0.068 A 
ATOM     13  C   UNL     1       7.419  33.033 -14.882  1.00  0.00     0.162 A 
ATOM     14  C   UNL     1       7.376  31.866 -12.342  1.00  0.00     0.068 A 
ATOM     15  C   UNL     1       6.970  33.781 -13.786  1.00  0.00     0.200 A 
ATOM     16  C   UNL     1       6.944  33.188 -12.501  1.00  0.00     0.162 A 
BRANCH  13  17
ATOM     17  O   UNL     1       7.430  33.610 -16.151  1.00  0.00    -0.504 OA
ATOM     18  H   UNL     1       6.574  33.879 -16.620  1.00  0.00     0.293 HD
ENDBRANCH  13  17
BRANCH  15  19
ATOM     19  O   UNL     1       6.559  35.096 -14.013  1.00  0.00    -0.502 OA
ATOM     20  H   UNL     1       7.191  35.872 -14.151  1.00  0.00     0.293 HD
ENDBRANCH  15  19
BRANCH  16  21
ATOM     21  O   UNL     1       6.500  33.868 -11.365  1.00  0.00    -0.504 OA
ATOM     22  H   UNL     1       6.326  33.426 -10.473  1.00  0.00     0.293 HD
ENDBRANCH  16  21
ENDBRANCH   1  11
BRANCH  10  23
ATOM     23  O   UNL     1      10.612  30.353 -12.932  1.00  0.00    -0.500 OA
ATOM     24  H   UNL     1      10.383  31.329 -12.781  1.00  0.00     0.294 HD
ENDBRANCH  10  23
BRANCH   5  25
ATOM     25  O   UNL     1       5.770  24.288 -12.968  1.00  0.00    -0.507 OA
ATOM     26  H   UNL     1       5.930  23.290 -13.057  1.00  0.00     0.293 HD
ENDBRANCH   5  25
BRANCH   7  27
ATOM     27  O   UNL     1      10.490  25.137 -12.515  1.00  0.00    -0.507 OA
ATOM     28  H   UNL     1      10.861  24.335 -13.004  1.00  0.00     0.293 HD
ENDBRANCH   7  27
TORSDOF 7
ENDMDL
MODEL 9
REMARK VINA RESULT:    -5.203     11.165     13.692
REMARK INTER + INTRA:          -6.545
REMARK INTER:                  -6.428
REMARK INTRA:                  -0.118
REMARK UNBOUND:                -0.126
REMARK SMILES Oc1cc(O)c2cc(O)c(-c3cc(O)c(O)c(O)c3)[o+]c2c1
REMARK SMILES IDX 10 1 20 2 21 3 22 4 2 5 3 6 4 7 6 8 7 9 8 10 11 11 12 12
REMARK SMILES IDX 13 13 19 14 15 15 17 16 14 17 16 19 18 21 9 23 1 25 5 27
REMARK H PARENT 14 18 16 20 18 22 9 24 1 26 5 28
REMARK Flexibility Score: inf
ROOT
ATOM      1  C   UNL     1      -3.739  33.537 -17.820  1.00  0.00     0.402 A 
ATOM      2  O   UNL     1      -2.973  34.565 -17.467  1.00  0.00    -0.202 OA
ATOM      3  C   UNL     1      -1.705  34.695 -17.846  1.00  0.00     0.368 A 
ATOM      4  C   UNL     1      -0.980  35.811 -17.421  1.00  0.00     0.162 A 
ATOM      5  C   UNL     1       0.352  35.973 -17.801  1.00  0.00     0.128 A 
ATOM      6  C   UNL     1       0.967  35.012 -18.611  1.00  0.00     0.093 A 
ATOM      7  C   UNL     1       0.262  33.885 -19.049  1.00  0.00     0.136 A 
ATOM      8  C   UNL     1      -1.095  33.718 -18.668  1.00  0.00     0.125 A 
ATOM      9  C   UNL     1      -1.882  32.628 -19.071  1.00  0.00     0.078 A 
ATOM     10  C   UNL     1      -3.214  32.534 -18.658  1.00  0.00     0.223 A 
ENDROOT
BRANCH   1  11
ATOM     11  C   UNL     1      -5.134  33.499 -17.326  1.00  0.00     0.091 A 
ATOM     12  C   UNL     1      -6.028  34.551 -17.580  1.00  0.00     0.068 A 
ATOM     13  C   UNL     1      -7.350  34.486 -17.121  1.00  0.00     0.162 A 
ATOM     14  C   UNL     1      -5.592  32.367 -16.637  1.00  0.00     0.068 A 
ATOM     15  C   UNL     1      -7.800  33.363 -16.413  1.00  0.00     0.200 A 
ATOM     16  C   UNL     1      -6.910  32.289 -16.172  1.00  0.00     0.162 A 
BRANCH  13  17
ATOM     17  O   UNL     1      -8.230  35.539 -17.373  1.00  0.00    -0.504 OA
ATOM     18  H   UNL     1      -8.200  36.396 -16.834  1.00  0.00     0.293 HD
ENDBRANCH  13  17
BRANCH  15  19
ATOM     19  O   UNL     1      -9.125  33.353 -15.973  1.00  0.00    -0.502 OA
ATOM     20  H   UNL     1      -9.481  33.942 -15.234  1.00  0.00     0.293 HD
ENDBRANCH  15  19
BRANCH  16  21
ATOM     21  O   UNL     1      -7.289  31.135 -15.485  1.00  0.00    -0.504 OA
ATOM     22  H   UNL     1      -6.788  30.757 -14.694  1.00  0.00     0.293 HD
ENDBRANCH  16  21
ENDBRANCH   1  11
BRANCH  10  23
ATOM     23  O   UNL     1      -4.012  31.478 -19.098  1.00  0.00    -0.500 OA
ATOM     24  H   UNL     1      -3.862  30.528 -18.777  1.00  0.00     0.294 HD
ENDBRANCH  10  23
BRANCH   5  25
ATOM     25  O   UNL     1       1.058  37.093 -17.367  1.00  0.00    -0.507 OA
ATOM     26  H   UNL     1       2.012  37.021 -17.030  1.00  0.00     0.293 HD
ENDBRANCH   5  25
BRANCH   7  27
ATOM     27  O   UNL     1       0.948  32.969 -19.854  1.00  0.00    -0.507 OA
ATOM     28  H   UNL     1       0.740  32.797 -20.827  1.00  0.00     0.293 HD
ENDBRANCH   7  27
TORSDOF 7
ENDMDL
