MODEL 1
REMARK VINA RESULT:    -2.988      0.000      0.000
REMARK INTER + INTRA:          -3.621
REMARK INTER:                  -3.599
REMARK INTRA:                  -0.022
REMARK UNBOUND:                -0.022
REMARK SMILES OCC(O)CO
REMARK SMILES IDX 3 1 5 2 6 3 2 5 1 6 4 8
REMARK H PARENT 6 4 1 7 4 9
REMARK Flexibility Score: inf
ROOT
ATOM      1  C   UNL     1      40.451 -12.635   9.890  1.00  0.00     0.165 C 
ENDROOT
BRANCH   1   2
ATOM      2  C   UNL     1      40.954 -11.982   8.596  1.00  0.00     0.190 C 
BRANCH   2   3
ATOM      3  O   UNL     1      40.009 -12.111   7.567  1.00  0.00    -0.394 OA
ATOM      4  H   UNL     1      40.077 -11.290   7.014  1.00  0.00     0.210 HD
ENDBRANCH   2   3
ENDBRANCH   1   2
BRANCH   1   5
ATOM      5  C   UNL     1      41.252 -13.907  10.215  1.00  0.00     0.190 C 
BRANCH   5   6
ATOM      6  O   UNL     1      40.525 -15.052   9.862  1.00  0.00    -0.394 OA
ATOM      7  H   UNL     1      41.045 -15.510   9.151  1.00  0.00     0.210 HD
ENDBRANCH   5   6
ENDBRANCH   1   5
BRANCH   1   8
ATOM      8  O   UNL     1      39.093 -12.955   9.735  1.00  0.00    -0.388 OA
ATOM      9  H   UNL     1      38.978 -13.892  10.041  1.00  0.00     0.211 HD
ENDBRANCH   1   8
TORSDOF 5
ENDMDL
MODEL 2
REMARK VINA RESULT:    -2.957      2.598      2.902
REMARK INTER + INTRA:          -3.584
REMARK INTER:                  -3.370
REMARK INTRA:                  -0.214
REMARK UNBOUND:                -0.022
REMARK SMILES OCC(O)CO
REMARK SMILES IDX 3 1 5 2 6 3 2 5 1 6 4 8
REMARK H PARENT 6 4 1 7 4 9
REMARK Flexibility Score: inf
ROOT
ATOM      1  C   UNL     1      41.753 -11.659  11.025  1.00  0.00     0.165 C 
ENDROOT
BRANCH   1   2
ATOM      2  C   UNL     1      41.340 -12.563   9.855  1.00  0.00     0.190 C 
BRANCH   2   3
ATOM      3  O   UNL     1      41.964 -13.817   9.944  1.00  0.00    -0.394 OA
ATOM      4  H   UNL     1      42.757 -13.700  10.528  1.00  0.00     0.210 HD
ENDBRANCH   2   3
ENDBRANCH   1   2
BRANCH   1   5
ATOM      5  C   UNL     1      42.768 -12.366  11.938  1.00  0.00     0.190 C 
BRANCH   5   6
ATOM      6  O   UNL     1      42.109 -13.136  12.907  1.00  0.00    -0.394 OA
ATOM      7  H   UNL     1      41.470 -13.719  12.418  1.00  0.00     0.210 HD
ENDBRANCH   5   6
ENDBRANCH   1   5
BRANCH   1   8
ATOM      8  O   UNL     1      40.605 -11.322  11.760  1.00  0.00    -0.388 OA
ATOM      9  H   UNL     1      40.801 -10.471  12.230  1.00  0.00     0.211 HD
ENDBRANCH   1   8
TORSDOF 5
ENDMDL
MODEL 3
REMARK VINA RESULT:    -2.928      4.963      5.698
REMARK INTER + INTRA:          -3.549
REMARK INTER:                  -3.325
REMARK INTRA:                  -0.224
REMARK UNBOUND:                -0.022
REMARK SMILES OCC(O)CO
REMARK SMILES IDX 3 1 5 2 6 3 2 5 1 6 4 8
REMARK H PARENT 6 4 1 7 4 9
REMARK Flexibility Score: inf
ROOT
ATOM      1  C   UNL     1      40.319 -14.819  13.856  1.00  0.00     0.165 C 
ENDROOT
BRANCH   1   2
ATOM      2  C   UNL     1      38.907 -14.240  13.689  1.00  0.00     0.190 C 
BRANCH   2   3
ATOM      3  O   UNL     1      38.761 -13.054  14.423  1.00  0.00    -0.394 OA
ATOM      4  H   UNL     1      38.895 -13.290  15.377  1.00  0.00     0.210 HD
ENDBRANCH   2   3
ENDBRANCH   1   2
BRANCH   1   5
ATOM      5  C   UNL     1      40.512 -15.410  15.263  1.00  0.00     0.190 C 
BRANCH   5   6
ATOM      6  O   UNL     1      40.698 -14.389  16.206  1.00  0.00    -0.394 OA
ATOM      7  H   UNL     1      39.845 -13.881  16.245  1.00  0.00     0.210 HD
ENDBRANCH   5   6
ENDBRANCH   1   5
BRANCH   1   8
ATOM      8  O   UNL     1      41.255 -13.795  13.637  1.00  0.00    -0.388 OA
ATOM      9  H   UNL     1      41.988 -13.928  14.292  1.00  0.00     0.211 HD
ENDBRANCH   1   8
TORSDOF 5
ENDMDL
MODEL 4
REMARK VINA RESULT:    -2.897      4.505      5.575
REMARK INTER + INTRA:          -3.512
REMARK INTER:                  -3.288
REMARK INTRA:                  -0.224
REMARK UNBOUND:                -0.022
REMARK SMILES OCC(O)CO
REMARK SMILES IDX 3 1 5 2 6 3 2 5 1 6 4 8
REMARK H PARENT 6 4 1 7 4 9
REMARK Flexibility Score: inf
ROOT
ATOM      1  C   UNL     1      39.395 -14.257  13.799  1.00  0.00     0.165 C 
ENDROOT
BRANCH   1   2
ATOM      2  C   UNL     1      40.119 -15.042  14.902  1.00  0.00     0.190 C 
BRANCH   2   3
ATOM      3  O   UNL     1      40.592 -14.181  15.904  1.00  0.00    -0.394 OA
ATOM      4  H   UNL     1      41.547 -14.006  15.701  1.00  0.00     0.210 HD
ENDBRANCH   2   3
ENDBRANCH   1   2
BRANCH   1   5
ATOM      5  C   UNL     1      40.372 -13.837  12.688  1.00  0.00     0.190 C 
BRANCH   5   6
ATOM      6  O   UNL     1      41.612 -13.473  13.232  1.00  0.00    -0.394 OA
ATOM      7  H   UNL     1      41.492 -12.572  13.631  1.00  0.00     0.210 HD
ENDBRANCH   5   6
ENDBRANCH   1   5
BRANCH   1   8
ATOM      8  O   UNL     1      38.805 -13.118  14.370  1.00  0.00    -0.388 OA
ATOM      9  H   UNL     1      39.514 -12.650  14.883  1.00  0.00     0.211 HD
ENDBRANCH   1   8
TORSDOF 5
ENDMDL
MODEL 5
REMARK VINA RESULT:    -2.891      2.254      3.342
REMARK INTER + INTRA:          -3.505
REMARK INTER:                  -3.487
REMARK INTRA:                  -0.017
REMARK UNBOUND:                -0.022
REMARK SMILES OCC(O)CO
REMARK SMILES IDX 3 1 5 2 6 3 2 5 1 6 4 8
REMARK H PARENT 6 4 1 7 4 9
REMARK Flexibility Score: inf
ROOT
ATOM      1  C   UNL     1      41.612 -13.106  10.782  1.00  0.00     0.165 C 
ENDROOT
BRANCH   1   2
ATOM      2  C   UNL     1      42.311 -12.749  12.101  1.00  0.00     0.190 C 
BRANCH   2   3
ATOM      3  O   UNL     1      41.716 -13.415  13.182  1.00  0.00    -0.394 OA
ATOM      4  H   UNL     1      41.067 -12.782  13.585  1.00  0.00     0.210 HD
ENDBRANCH   2   3
ENDBRANCH   1   2
BRANCH   1   5
ATOM      5  C   UNL     1      40.500 -14.144  11.009  1.00  0.00     0.190 C 
BRANCH   5   6
ATOM      6  O   UNL     1      40.455 -15.059   9.947  1.00  0.00    -0.394 OA
ATOM      7  H   UNL     1      41.319 -14.975   9.464  1.00  0.00     0.210 HD
ENDBRANCH   5   6
ENDBRANCH   1   5
BRANCH   1   8
ATOM      8  O   UNL     1      42.568 -13.619   9.890  1.00  0.00    -0.388 OA
ATOM      9  H   UNL     1      43.238 -14.109  10.434  1.00  0.00     0.211 HD
ENDBRANCH   1   8
TORSDOF 5
ENDMDL
MODEL 6
REMARK VINA RESULT:    -2.872      0.863      2.539
REMARK INTER + INTRA:          -3.482
REMARK INTER:                  -3.259
REMARK INTRA:                  -0.222
REMARK UNBOUND:                -0.022
REMARK SMILES OCC(O)CO
REMARK SMILES IDX 3 1 5 2 6 3 2 5 1 6 4 8
REMARK H PARENT 6 4 1 7 4 9
REMARK Flexibility Score: inf
ROOT
ATOM      1  C   UNL     1      40.472 -12.656   9.885  1.00  0.00     0.165 C 
ENDROOT
BRANCH   1   2
ATOM      2  C   UNL     1      41.304 -13.934  10.051  1.00  0.00     0.190 C 
BRANCH   2   3
ATOM      3  O   UNL     1      40.500 -15.077   9.934  1.00  0.00    -0.394 OA
ATOM      4  H   UNL     1      40.791 -15.706  10.645  1.00  0.00     0.210 HD
ENDBRANCH   2   3
ENDBRANCH   1   2
BRANCH   1   5
ATOM      5  C   UNL     1      39.119 -12.779  10.607  1.00  0.00     0.190 C 
BRANCH   5   6
ATOM      6  O   UNL     1      38.139 -13.275   9.736  1.00  0.00    -0.394 OA
ATOM      7  H   UNL     1      37.261 -13.071  10.153  1.00  0.00     0.210 HD
ENDBRANCH   5   6
ENDBRANCH   1   5
BRANCH   1   8
ATOM      8  O   UNL     1      40.262 -12.429   8.516  1.00  0.00    -0.388 OA
ATOM      9  H   UNL     1      39.459 -12.952   8.255  1.00  0.00     0.211 HD
ENDBRANCH   1   8
TORSDOF 5
ENDMDL
MODEL 7
REMARK VINA RESULT:    -2.871      1.031      2.567
REMARK INTER + INTRA:          -3.480
REMARK INTER:                  -3.257
REMARK INTRA:                  -0.224
REMARK UNBOUND:                -0.022
REMARK SMILES OCC(O)CO
REMARK SMILES IDX 3 1 5 2 6 3 2 5 1 6 4 8
REMARK H PARENT 6 4 1 7 4 9
REMARK Flexibility Score: inf
ROOT
ATOM      1  C   UNL     1      40.704 -13.805  10.402  1.00  0.00     0.165 C 
ENDROOT
BRANCH   1   2
ATOM      2  C   UNL     1      39.337 -13.235  10.803  1.00  0.00     0.190 C 
BRANCH   2   3
ATOM      3  O   UNL     1      38.315 -13.761   9.999  1.00  0.00    -0.394 OA
ATOM      4  H   UNL     1      37.870 -14.470  10.531  1.00  0.00     0.210 HD
ENDBRANCH   2   3
ENDBRANCH   1   2
BRANCH   1   5
ATOM      5  C   UNL     1      41.379 -12.925   9.336  1.00  0.00     0.190 C 
BRANCH   5   6
ATOM      6  O   UNL     1      40.434 -12.455   8.414  1.00  0.00    -0.394 OA
ATOM      7  H   UNL     1      40.904 -12.372   7.544  1.00  0.00     0.210 HD
ENDBRANCH   5   6
ENDBRANCH   1   5
BRANCH   1   8
ATOM      8  O   UNL     1      40.520 -15.104   9.900  1.00  0.00    -0.388 OA
ATOM      9  H   UNL     1      40.510 -15.717  10.681  1.00  0.00     0.211 HD
ENDBRANCH   1   8
TORSDOF 5
ENDMDL
MODEL 8
REMARK VINA RESULT:    -2.870      2.014      3.268
REMARK INTER + INTRA:          -3.479
REMARK INTER:                  -3.257
REMARK INTRA:                  -0.222
REMARK UNBOUND:                -0.022
REMARK SMILES OCC(O)CO
REMARK SMILES IDX 3 1 5 2 6 3 2 5 1 6 4 8
REMARK H PARENT 6 4 1 7 4 9
REMARK Flexibility Score: inf
ROOT
ATOM      1  C   UNL     1      41.297 -13.876  10.329  1.00  0.00     0.165 C 
ENDROOT
BRANCH   1   2
ATOM      2  C   UNL     1      40.750 -13.416  11.687  1.00  0.00     0.190 C 
BRANCH   2   3
ATOM      3  O   UNL     1      41.778 -12.918  12.501  1.00  0.00    -0.394 OA
ATOM      4  H   UNL     1      41.908 -11.967  12.246  1.00  0.00     0.210 HD
ENDBRANCH   2   3
ENDBRANCH   1   2
BRANCH   1   5
ATOM      5  C   UNL     1      41.222 -12.744   9.290  1.00  0.00     0.190 C 
BRANCH   5   6
ATOM      6  O   UNL     1      41.425 -11.499   9.903  1.00  0.00    -0.394 OA
ATOM      7  H   UNL     1      42.367 -11.487  10.215  1.00  0.00     0.210 HD
ENDBRANCH   5   6
ENDBRANCH   1   5
BRANCH   1   8
ATOM      8  O   UNL     1      40.543 -14.976   9.889  1.00  0.00    -0.388 OA
ATOM      9  H   UNL     1      40.704 -15.714  10.533  1.00  0.00     0.211 HD
ENDBRANCH   1   8
TORSDOF 5
ENDMDL
MODEL 9
REMARK VINA RESULT:    -2.857      1.560      2.131
REMARK INTER + INTRA:          -3.463
REMARK INTER:                  -3.461
REMARK INTRA:                  -0.003
REMARK UNBOUND:                -0.022
REMARK SMILES OCC(O)CO
REMARK SMILES IDX 3 1 5 2 6 3 2 5 1 6 4 8
REMARK H PARENT 6 4 1 7 4 9
REMARK Flexibility Score: inf
ROOT
ATOM      1  C   UNL     1      40.631 -12.587   9.869  1.00  0.00     0.165 C 
ENDROOT
BRANCH   1   2
ATOM      2  C   UNL     1      41.384 -11.406  10.495  1.00  0.00     0.190 C 
BRANCH   2   3
ATOM      3  O   UNL     1      40.829 -11.055  11.734  1.00  0.00    -0.394 OA
ATOM      4  H   UNL     1      40.297 -11.835  12.040  1.00  0.00     0.210 HD
ENDBRANCH   2   3
ENDBRANCH   1   2
BRANCH   1   5
ATOM      5  C   UNL     1      41.373 -13.911  10.117  1.00  0.00     0.190 C 
BRANCH   5   6
ATOM      6  O   UNL     1      40.520 -15.003   9.907  1.00  0.00    -0.394 OA
ATOM      7  H   UNL     1      39.708 -14.838  10.455  1.00  0.00     0.210 HD
ENDBRANCH   5   6
ENDBRANCH   1   5
BRANCH   1   8
ATOM      8  O   UNL     1      40.507 -12.362   8.489  1.00  0.00    -0.388 OA
ATOM      9  H   UNL     1      39.873 -13.041   8.139  1.00  0.00     0.211 HD
ENDBRANCH   1   8
TORSDOF 5
ENDMDL
