MODEL 1
REMARK VINA RESULT:    14.240      0.000      0.000
REMARK INTER + INTRA:          20.309
REMARK INTER:                  19.234
REMARK INTRA:                   1.074
REMARK UNBOUND:                 1.074
REMARK SMILES CC[C@H](CC[C@@H](C)[C@H]1CC[C@H]2[C@@H]3CC(=O)C4=CC(=O)CC[C@@]4(C)[C@H]3CC[C@@]12C)C(C)C
REMARK SMILES IDX 4 1 3 2 2 3 1 4 29 5 30 6 31 7 5 8 6 9 7 10 8 11 9 12 27 13
REMARK SMILES IDX 10 14 11 15 26 16 28 17 12 18 25 19 24 20 13 21 22 22 14 23
REMARK SMILES IDX 16 24 21 25 23 26 15 27 17 28 20 29 18 30 19 31
REMARK H PARENT
REMARK Flexibility Score: inf
ROOT
ATOM      1  C   UNL     1      -9.246   0.125   4.471  1.00  0.00     0.004 C 
ENDROOT
BRANCH   1   2
ATOM      2  C   UNL     1     -10.426  -0.613   3.765  1.00  0.00    -0.009 C 
BRANCH   2   3
ATOM      3  C   UNL     1     -10.832   0.071   2.426  1.00  0.00     0.000 C 
ATOM      4  C   UNL     1     -12.341   0.124   2.174  1.00  0.00     0.004 C 
ENDBRANCH   2   3
BRANCH   2   5
ATOM      5  C   UNL     1     -10.127  -2.146   3.607  1.00  0.00    -0.014 C 
ATOM      6  C   UNL     1      -9.880  -2.537   2.136  1.00  0.00     0.007 C 
ATOM      7  C   UNL     1      -8.913  -2.597   4.445  1.00  0.00     0.007 C 
ENDBRANCH   2   5
ENDBRANCH   1   2
BRANCH   1   8
ATOM      8  C   UNL     1      -8.863  -0.490   5.836  1.00  0.00     0.004 C 
BRANCH   8   9
ATOM      9  C   UNL     1      -9.699   0.077   7.022  1.00  0.00    -0.011 C 
ATOM     10  C   UNL     1     -10.988  -0.746   7.178  1.00  0.00     0.008 C 
BRANCH   9  11
ATOM     11  C   UNL     1      -8.832   0.093   8.335  1.00  0.00    -0.002 C 
ATOM     12  C   UNL     1      -9.631  -0.399   9.558  1.00  0.00     0.005 C 
ATOM     13  C   UNL     1      -7.479  -0.705   8.394  1.00  0.00    -0.026 C 
ATOM     14  C   UNL     1      -8.642  -1.051  10.515  1.00  0.00     0.005 C 
ATOM     15  C   UNL     1      -7.250  -0.814   9.927  1.00  0.00    -0.001 C 
ATOM     16  C   UNL     1      -7.588  -2.121   7.713  1.00  0.00     0.007 C 
ATOM     17  C   UNL     1      -6.323   0.124   7.763  1.00  0.00     0.012 C 
ATOM     18  C   UNL     1      -6.201  -1.869  10.422  1.00  0.00     0.004 C 
ATOM     19  C   UNL     1      -7.013  -3.301   8.516  1.00  0.00     0.005 C 
ATOM     20  C   UNL     1      -5.784  -2.895   9.343  1.00  0.00     0.003 C 
ATOM     21  C   UNL     1      -4.932  -1.189  10.974  1.00  0.00     0.085 C 
ATOM     22  C   UNL     1      -4.968  -4.108   9.958  1.00  0.00    -0.000 C 
ATOM     23  C   UNL     1      -3.914  -2.199  11.415  1.00  0.00     0.159 C 
ATOM     24  C   UNL     1      -4.129  -3.646  11.161  1.00  0.00     0.005 C 
ATOM     25  C   UNL     1      -5.904  -5.262  10.436  1.00  0.00     0.020 C 
ATOM     26  C   UNL     1      -3.996  -4.639   8.872  1.00  0.00     0.017 C 
ATOM     27  O   UNL     1      -2.892  -1.804  12.039  1.00  0.00    -0.295 OA
ATOM     28  C   UNL     1      -3.648  -4.540  12.043  1.00  0.00     0.055 C 
ATOM     29  C   UNL     1      -5.137  -6.429  11.082  1.00  0.00     0.081 C 
ATOM     30  C   UNL     1      -4.060  -5.953  12.012  1.00  0.00     0.156 C 
ATOM     31  O   UNL     1      -3.503  -6.776  12.787  1.00  0.00    -0.295 OA
ENDBRANCH   9  11
ENDBRANCH   8   9
ENDBRANCH   1   8
TORSDOF 6
ENDMDL
