MODEL 1
REMARK VINA RESULT:     5.735      0.000      0.000
REMARK INTER + INTRA:           8.034
REMARK INTER:                   8.752
REMARK INTRA:                  -0.718
REMARK UNBOUND:                -0.718
REMARK SMILES OC[C@@H]1O[C@H](O[C@@]2(CO)O[C@@H](CO)[C@@H](O)[C@H]2O)[C@H](O)[C@@H](O)[C@H]1O
REMARK SMILES IDX 6 1 5 2 3 3 22 4 4 5 20 6 18 7 2 8 1 9 23 11 21 13 19 15
REMARK SMILES IDX 7 17 16 18 10 19 14 20 11 21 8 22 9 23 17 25 15 27 12 29
REMARK SMILES IDX 13 30
REMARK H PARENT 1 10 23 12 21 14 19 16 9 24 17 26 15 28 13 31
REMARK Flexibility Score: inf
ROOT
ATOM      1  O   UNL     1      98.605  71.234  83.135  1.00  0.00    -0.313 OA
ENDROOT
BRANCH   1   2
ATOM      2  C   UNL     1      97.874  71.288  84.351  1.00  0.00     0.285 C 
ATOM      3  C   UNL     1      95.807  72.273  85.013  1.00  0.00     0.178 C 
ATOM      4  C   UNL     1      94.929  71.257  84.226  1.00  0.00     0.177 C 
ATOM      5  O   UNL     1      97.054  72.461  84.363  1.00  0.00    -0.341 OA
ATOM      6  C   UNL     1      95.780  70.086  83.667  1.00  0.00     0.179 C 
ATOM      7  C   UNL     1      97.080  69.954  84.466  1.00  0.00     0.202 C 
BRANCH   3   8
ATOM      8  C   UNL     1      95.098  73.629  85.125  1.00  0.00     0.191 C 
BRANCH   8   9
ATOM      9  O   UNL     1      94.020  73.688  84.229  1.00  0.00    -0.394 OA
ATOM     10  H   UNL     1      93.923  74.641  83.965  1.00  0.00     0.210 HD
ENDBRANCH   8   9
ENDBRANCH   3   8
BRANCH   4  11
ATOM     11  O   UNL     1      93.875  70.789  85.035  1.00  0.00    -0.387 OA
ATOM     12  H   UNL     1      93.367  70.116  84.508  1.00  0.00     0.211 HD
ENDBRANCH   4  11
BRANCH   6  13
ATOM     13  O   UNL     1      95.067  68.875  83.702  1.00  0.00    -0.387 OA
ATOM     14  H   UNL     1      94.121  69.095  83.490  1.00  0.00     0.211 HD
ENDBRANCH   6  13
BRANCH   7  15
ATOM     15  O   UNL     1      97.847  68.887  83.961  1.00  0.00    -0.385 OA
ATOM     16  H   UNL     1      97.556  68.721  83.028  1.00  0.00     0.211 HD
ENDBRANCH   7  15
ENDBRANCH   1   2
BRANCH   1  17
ATOM     17  C   UNL     1     100.027  71.330  83.259  1.00  0.00     0.224 C 
ATOM     18  C   UNL     1     100.560  72.276  82.148  1.00  0.00     0.208 C 
ATOM     19  O   UNL     1     100.652  70.066  83.078  1.00  0.00    -0.337 OA
ATOM     20  C   UNL     1     101.201  71.332  81.153  1.00  0.00     0.180 C 
ATOM     21  C   UNL     1     101.644  70.220  82.090  1.00  0.00     0.179 C 
BRANCH  17  22
ATOM     22  C   UNL     1     100.401  71.870  84.667  1.00  0.00     0.225 C 
BRANCH  22  23
ATOM     23  O   UNL     1      99.833  73.129  84.907  1.00  0.00    -0.391 OA
ATOM     24  H   UNL     1     100.217  73.741  84.226  1.00  0.00     0.210 HD
ENDBRANCH  22  23
ENDBRANCH  17  22
BRANCH  18  25
ATOM     25  O   UNL     1      99.583  73.125  81.587  1.00  0.00    -0.385 OA
ATOM     26  H   UNL     1      98.954  72.584  81.043  1.00  0.00     0.211 HD
ENDBRANCH  18  25
BRANCH  20  27
ATOM     27  O   UNL     1     100.261  70.871  80.215  1.00  0.00    -0.387 OA
ATOM     28  H   UNL     1      99.394  70.786  80.692  1.00  0.00     0.211 HD
ENDBRANCH  20  27
BRANCH  21  29
ATOM     29  C   UNL     1     101.931  68.876  81.404  1.00  0.00     0.191 C 
BRANCH  29  30
ATOM     30  O   UNL     1     103.104  68.974  80.637  1.00  0.00    -0.394 OA
ATOM     31  H   UNL     1     103.851  68.667  81.217  1.00  0.00     0.210 HD
ENDBRANCH  29  30
ENDBRANCH  21  29
ENDBRANCH   1  17
TORSDOF 13
ENDMDL
