MODEL 1
REMARK VINA RESULT:    -5.096      0.000      0.000
REMARK INTER + INTRA:          -7.199
REMARK INTER:                  -6.883
REMARK INTRA:                  -0.316
REMARK UNBOUND:                -0.316
REMARK SMILES CCCCCCC=CC(=O)[O-]
REMARK SMILES IDX 5 1 6 2 7 3 8 4 9 5 10 6 11 7 4 8 3 9 2 10 1 11
REMARK H PARENT
REMARK Flexibility Score: inf
ROOT
ATOM      1  C   UNL     1      31.087   4.361 -26.758  1.00  0.00     0.004 C 
ENDROOT
BRANCH   1   2
ATOM      2  C   UNL     1      31.077   5.842 -27.158  1.00  0.00     0.027 C 
BRANCH   2   3
ATOM      3  C   UNL     1      31.754   6.691 -26.120  1.00  0.00    -0.025 C 
ATOM      4  C   UNL     1      31.865   6.287 -24.851  1.00  0.00     0.020 C 
BRANCH   4   5
ATOM      5  C   UNL     1      32.512   7.114 -23.822  1.00  0.00     0.064 C 
ATOM      6  O   UNL     1      32.044   7.131 -22.653  1.00  0.00    -0.545 OA
ATOM      7  O   UNL     1      33.635   7.877 -24.118  1.00  0.00    -0.545 OA
ENDBRANCH   4   5
ENDBRANCH   2   3
ENDBRANCH   1   2
BRANCH   1   8
ATOM      8  C   UNL     1      29.669   3.773 -26.796  1.00  0.00     0.000 C 
BRANCH   8   9
ATOM      9  C   UNL     1      28.875   4.222 -28.032  1.00  0.00    -0.000 C 
BRANCH   9  10
ATOM     10  C   UNL     1      27.577   3.422 -28.224  1.00  0.00    -0.003 C 
ATOM     11  C   UNL     1      26.656   3.571 -27.015  1.00  0.00     0.004 C 
ENDBRANCH   9  10
ENDBRANCH   8   9
ENDBRANCH   1   8
TORSDOF 6
ENDMDL
MODEL 2
REMARK VINA RESULT:    -4.998     14.065     15.863
REMARK INTER + INTRA:          -7.068
REMARK INTER:                  -6.383
REMARK INTRA:                  -0.685
REMARK UNBOUND:                -0.316
REMARK SMILES CCCCCCC=CC(=O)[O-]
REMARK SMILES IDX 5 1 6 2 7 3 8 4 9 5 10 6 11 7 4 8 3 9 2 10 1 11
REMARK H PARENT
REMARK Flexibility Score: inf
ROOT
ATOM      1  C   UNL     1      16.722   0.721 -15.463  1.00  0.00     0.004 C 
ENDROOT
BRANCH   1   2
ATOM      2  C   UNL     1      17.886   0.694 -14.464  1.00  0.00     0.027 C 
BRANCH   2   3
ATOM      3  C   UNL     1      19.210   0.736 -15.171  1.00  0.00    -0.025 C 
ATOM      4  C   UNL     1      19.688   1.869 -15.694  1.00  0.00     0.020 C 
BRANCH   4   5
ATOM      5  C   UNL     1      20.976   1.922 -16.400  1.00  0.00     0.064 C 
ATOM      6  O   UNL     1      21.120   2.706 -17.375  1.00  0.00    -0.545 OA
ATOM      7  O   UNL     1      22.041   1.120 -16.007  1.00  0.00    -0.545 OA
ENDBRANCH   4   5
ENDBRANCH   2   3
ENDBRANCH   1   2
BRANCH   1   8
ATOM      8  C   UNL     1      16.918  -0.332 -16.563  1.00  0.00     0.000 C 
BRANCH   8   9
ATOM      9  C   UNL     1      16.784   0.256 -17.977  1.00  0.00    -0.000 C 
BRANCH   9  10
ATOM     10  C   UNL     1      18.112   0.245 -18.749  1.00  0.00    -0.003 C 
ATOM     11  C   UNL     1      18.375   1.596 -19.409  1.00  0.00     0.004 C 
ENDBRANCH   9  10
ENDBRANCH   8   9
ENDBRANCH   1   8
TORSDOF 6
ENDMDL
MODEL 3
REMARK VINA RESULT:    -4.983      1.176      2.023
REMARK INTER + INTRA:          -7.047
REMARK INTER:                  -6.703
REMARK INTRA:                  -0.344
REMARK UNBOUND:                -0.316
REMARK SMILES CCCCCCC=CC(=O)[O-]
REMARK SMILES IDX 5 1 6 2 7 3 8 4 9 5 10 6 11 7 4 8 3 9 2 10 1 11
REMARK H PARENT
REMARK Flexibility Score: inf
ROOT
ATOM      1  C   UNL     1      28.996   4.477 -27.810  1.00  0.00     0.004 C 
ENDROOT
BRANCH   1   2
ATOM      2  C   UNL     1      30.310   3.851 -27.324  1.00  0.00     0.027 C 
BRANCH   2   3
ATOM      3  C   UNL     1      31.167   4.862 -26.619  1.00  0.00    -0.025 C 
ATOM      4  C   UNL     1      30.981   5.158 -25.329  1.00  0.00     0.020 C 
BRANCH   4   5
ATOM      5  C   UNL     1      31.803   6.156 -24.629  1.00  0.00     0.064 C 
ATOM      6  O   UNL     1      32.084   5.988 -23.413  1.00  0.00    -0.545 OA
ATOM      7  O   UNL     1      32.278   7.282 -25.290  1.00  0.00    -0.545 OA
ENDBRANCH   4   5
ENDBRANCH   2   3
ENDBRANCH   1   2
BRANCH   1   8
ATOM      8  C   UNL     1      27.993   3.391 -28.229  1.00  0.00     0.000 C 
BRANCH   8   9
ATOM      9  C   UNL     1      26.716   3.403 -27.375  1.00  0.00    -0.000 C 
BRANCH   9  10
ATOM     10  C   UNL     1      26.949   3.980 -25.971  1.00  0.00    -0.003 C 
ATOM     11  C   UNL     1      25.672   3.927 -25.136  1.00  0.00     0.004 C 
ENDBRANCH   9  10
ENDBRANCH   8   9
ENDBRANCH   1   8
TORSDOF 6
ENDMDL
MODEL 4
REMARK VINA RESULT:    -4.962     11.815     13.119
REMARK INTER + INTRA:          -7.019
REMARK INTER:                  -6.656
REMARK INTRA:                  -0.363
REMARK UNBOUND:                -0.316
REMARK SMILES CCCCCCC=CC(=O)[O-]
REMARK SMILES IDX 5 1 6 2 7 3 8 4 9 5 10 6 11 7 4 8 3 9 2 10 1 11
REMARK H PARENT
REMARK Flexibility Score: inf
ROOT
ATOM      1  C   UNL     1      29.265  -0.326 -15.026  1.00  0.00     0.004 C 
ENDROOT
BRANCH   1   2
ATOM      2  C   UNL     1      29.084  -1.159 -16.302  1.00  0.00     0.027 C 
BRANCH   2   3
ATOM      3  C   UNL     1      27.648  -1.178 -16.740  1.00  0.00    -0.025 C 
ATOM      4  C   UNL     1      26.659  -0.836 -15.910  1.00  0.00     0.020 C 
BRANCH   4   5
ATOM      5  C   UNL     1      25.248  -0.864 -16.321  1.00  0.00     0.064 C 
ATOM      6  O   UNL     1      24.881  -1.652 -17.233  1.00  0.00    -0.545 OA
ATOM      7  O   UNL     1      24.310  -0.034 -15.719  1.00  0.00    -0.545 OA
ENDBRANCH   4   5
ENDBRANCH   2   3
ENDBRANCH   1   2
BRANCH   1   8
ATOM      8  C   UNL     1      30.741   0.043 -14.817  1.00  0.00     0.000 C 
BRANCH   8   9
ATOM      9  C   UNL     1      31.283   0.964 -15.920  1.00  0.00    -0.000 C 
BRANCH   9  10
ATOM     10  C   UNL     1      32.572   0.425 -16.559  1.00  0.00    -0.003 C 
ATOM     11  C   UNL     1      33.409  -0.347 -15.542  1.00  0.00     0.004 C 
ENDBRANCH   9  10
ENDBRANCH   8   9
ENDBRANCH   1   8
TORSDOF 6
ENDMDL
MODEL 5
REMARK VINA RESULT:    -4.903     15.046     17.923
REMARK INTER + INTRA:          -6.939
REMARK INTER:                  -6.601
REMARK INTRA:                  -0.338
REMARK UNBOUND:                -0.316
REMARK SMILES CCCCCCC=CC(=O)[O-]
REMARK SMILES IDX 5 1 6 2 7 3 8 4 9 5 10 6 11 7 4 8 3 9 2 10 1 11
REMARK H PARENT
REMARK Flexibility Score: inf
ROOT
ATOM      1  C   UNL     1      17.692  -4.372 -25.701  1.00  0.00     0.004 C 
ENDROOT
BRANCH   1   2
ATOM      2  C   UNL     1      17.257  -5.511 -26.634  1.00  0.00     0.027 C 
BRANCH   2   3
ATOM      3  C   UNL     1      16.309  -6.448 -25.943  1.00  0.00    -0.025 C 
ATOM      4  C   UNL     1      16.112  -6.395 -24.622  1.00  0.00     0.020 C 
BRANCH   4   5
ATOM      5  C   UNL     1      15.196  -7.315 -23.932  1.00  0.00     0.064 C 
ATOM      6  O   UNL     1      14.248  -6.851 -23.246  1.00  0.00    -0.545 OA
ATOM      7  O   UNL     1      15.360  -8.693 -24.025  1.00  0.00    -0.545 OA
ENDBRANCH   4   5
ENDBRANCH   2   3
ENDBRANCH   1   2
BRANCH   1   8
ATOM      8  C   UNL     1      18.615  -3.387 -26.432  1.00  0.00     0.000 C 
BRANCH   8   9
ATOM      9  C   UNL     1      19.131  -3.939 -27.770  1.00  0.00    -0.000 C 
BRANCH   9  10
ATOM     10  C   UNL     1      20.499  -3.360 -28.161  1.00  0.00    -0.003 C 
ATOM     11  C   UNL     1      21.478  -3.426 -26.992  1.00  0.00     0.004 C 
ENDBRANCH   9  10
ENDBRANCH   8   9
ENDBRANCH   1   8
TORSDOF 6
ENDMDL
MODEL 6
REMARK VINA RESULT:    -4.898      3.549      5.835
REMARK INTER + INTRA:          -6.932
REMARK INTER:                  -6.570
REMARK INTRA:                  -0.362
REMARK UNBOUND:                -0.316
REMARK SMILES CCCCCCC=CC(=O)[O-]
REMARK SMILES IDX 5 1 6 2 7 3 8 4 9 5 10 6 11 7 4 8 3 9 2 10 1 11
REMARK H PARENT
REMARK Flexibility Score: inf
ROOT
ATOM      1  C   UNL     1      30.041   4.415 -27.084  1.00  0.00     0.004 C 
ENDROOT
BRANCH   1   2
ATOM      2  C   UNL     1      29.014   4.143 -28.191  1.00  0.00     0.027 C 
BRANCH   2   3
ATOM      3  C   UNL     1      27.687   3.740 -27.615  1.00  0.00    -0.025 C 
ATOM      4  C   UNL     1      27.264   4.209 -26.438  1.00  0.00     0.020 C 
BRANCH   4   5
ATOM      5  C   UNL     1      25.974   3.813 -25.856  1.00  0.00     0.064 C 
ATOM      6  O   UNL     1      25.048   3.414 -26.611  1.00  0.00    -0.545 OA
ATOM      7  O   UNL     1      25.759   3.869 -24.484  1.00  0.00    -0.545 OA
ENDBRANCH   4   5
ENDBRANCH   2   3
ENDBRANCH   1   2
BRANCH   1   8
ATOM      8  C   UNL     1      30.943   5.602 -27.452  1.00  0.00     0.000 C 
BRANCH   8   9
ATOM      9  C   UNL     1      31.488   6.337 -26.218  1.00  0.00    -0.000 C 
BRANCH   9  10
ATOM     10  C   UNL     1      31.210   5.581 -24.910  1.00  0.00    -0.003 C 
ATOM     11  C   UNL     1      32.067   6.124 -23.769  1.00  0.00     0.004 C 
ENDBRANCH   9  10
ENDBRANCH   8   9
ENDBRANCH   1   8
TORSDOF 6
ENDMDL
MODEL 7
REMARK VINA RESULT:    -4.880      2.084      3.565
REMARK INTER + INTRA:          -6.907
REMARK INTER:                  -6.586
REMARK INTRA:                  -0.322
REMARK UNBOUND:                -0.316
REMARK SMILES CCCCCCC=CC(=O)[O-]
REMARK SMILES IDX 5 1 6 2 7 3 8 4 9 5 10 6 11 7 4 8 3 9 2 10 1 11
REMARK H PARENT
REMARK Flexibility Score: inf
ROOT
ATOM      1  C   UNL     1      27.018   3.517 -27.824  1.00  0.00     0.004 C 
ENDROOT
BRANCH   1   2
ATOM      2  C   UNL     1      28.512   3.335 -28.124  1.00  0.00     0.027 C 
BRANCH   2   3
ATOM      3  C   UNL     1      29.311   4.511 -27.644  1.00  0.00    -0.025 C 
ATOM      4  C   UNL     1      30.426   4.353 -26.923  1.00  0.00     0.020 C 
BRANCH   4   5
ATOM      5  C   UNL     1      31.210   5.496 -26.435  1.00  0.00     0.064 C 
ATOM      6  O   UNL     1      31.521   5.563 -25.216  1.00  0.00    -0.545 OA
ATOM      7  O   UNL     1      31.616   6.507 -27.299  1.00  0.00    -0.545 OA
ENDBRANCH   4   5
ENDBRANCH   2   3
ENDBRANCH   1   2
BRANCH   1   8
ATOM      8  C   UNL     1      26.789   3.798 -26.331  1.00  0.00     0.000 C 
BRANCH   8   9
ATOM      9  C   UNL     1      25.450   3.241 -25.823  1.00  0.00    -0.000 C 
BRANCH   9  10
ATOM     10  C   UNL     1      24.695   2.445 -26.898  1.00  0.00    -0.003 C 
ATOM     11  C   UNL     1      24.709   0.950 -26.586  1.00  0.00     0.004 C 
ENDBRANCH   9  10
ENDBRANCH   8   9
ENDBRANCH   1   8
TORSDOF 6
ENDMDL
MODEL 8
REMARK VINA RESULT:    -4.825      4.857      7.003
REMARK INTER + INTRA:          -6.834
REMARK INTER:                  -6.451
REMARK INTRA:                  -0.383
REMARK UNBOUND:                -0.316
REMARK SMILES CCCCCCC=CC(=O)[O-]
REMARK SMILES IDX 5 1 6 2 7 3 8 4 9 5 10 6 11 7 4 8 3 9 2 10 1 11
REMARK H PARENT
REMARK Flexibility Score: inf
ROOT
ATOM      1  C   UNL     1      27.952   3.729 -27.925  1.00  0.00     0.004 C 
ENDROOT
BRANCH   1   2
ATOM      2  C   UNL     1      27.346   4.312 -26.642  1.00  0.00     0.027 C 
BRANCH   2   3
ATOM      3  C   UNL     1      26.127   3.545 -26.218  1.00  0.00    -0.025 C 
ATOM      4  C   UNL     1      25.541   2.659 -27.029  1.00  0.00     0.020 C 
BRANCH   4   5
ATOM      5  C   UNL     1      24.340   1.912 -26.631  1.00  0.00     0.064 C 
ATOM      6  O   UNL     1      23.975   0.915 -27.310  1.00  0.00    -0.545 OA
ATOM      7  O   UNL     1      23.598   2.287 -25.517  1.00  0.00    -0.545 OA
ENDBRANCH   4   5
ENDBRANCH   2   3
ENDBRANCH   1   2
BRANCH   1   8
ATOM      8  C   UNL     1      29.397   4.212 -28.119  1.00  0.00     0.000 C 
BRANCH   8   9
ATOM      9  C   UNL     1      30.326   3.773 -26.978  1.00  0.00    -0.000 C 
BRANCH   9  10
ATOM     10  C   UNL     1      31.110   4.946 -26.369  1.00  0.00    -0.003 C 
ATOM     11  C   UNL     1      31.185   6.121 -27.342  1.00  0.00     0.004 C 
ENDBRANCH   9  10
ENDBRANCH   8   9
ENDBRANCH   1   8
TORSDOF 6
ENDMDL
MODEL 9
REMARK VINA RESULT:    -4.817      2.295      3.979
REMARK INTER + INTRA:          -6.823
REMARK INTER:                  -6.233
REMARK INTRA:                  -0.590
REMARK UNBOUND:                -0.316
REMARK SMILES CCCCCCC=CC(=O)[O-]
REMARK SMILES IDX 5 1 6 2 7 3 8 4 9 5 10 6 11 7 4 8 3 9 2 10 1 11
REMARK H PARENT
REMARK Flexibility Score: inf
ROOT
ATOM      1  C   UNL     1      26.760   3.300 -27.445  1.00  0.00     0.004 C 
ENDROOT
BRANCH   1   2
ATOM      2  C   UNL     1      28.120   3.394 -28.150  1.00  0.00     0.027 C 
BRANCH   2   3
ATOM      3  C   UNL     1      28.946   4.517 -27.593  1.00  0.00    -0.025 C 
ATOM      4  C   UNL     1      30.243   4.360 -27.315  1.00  0.00     0.020 C 
BRANCH   4   5
ATOM      5  C   UNL     1      31.060   5.448 -26.756  1.00  0.00     0.064 C 
ATOM      6  O   UNL     1      31.493   6.354 -27.516  1.00  0.00    -0.545 OA
ATOM      7  O   UNL     1      31.361   5.493 -25.400  1.00  0.00    -0.545 OA
ENDBRANCH   4   5
ENDBRANCH   2   3
ENDBRANCH   1   2
BRANCH   1   8
ATOM      8  C   UNL     1      26.740   4.161 -26.174  1.00  0.00     0.000 C 
BRANCH   8   9
ATOM      9  C   UNL     1      26.157   3.417 -24.963  1.00  0.00    -0.000 C 
BRANCH   9  10
ATOM     10  C   UNL     1      26.928   3.705 -23.666  1.00  0.00    -0.003 C 
ATOM     11  C   UNL     1      28.379   4.078 -23.959  1.00  0.00     0.004 C 
ENDBRANCH   9  10
ENDBRANCH   8   9
ENDBRANCH   1   8
TORSDOF 6
ENDMDL
