MODEL 1
REMARK VINA RESULT:    -3.472      0.000      0.000
REMARK INTER + INTRA:          -3.524
REMARK INTER:                  -4.284
REMARK INTRA:                   0.760
REMARK UNBOUND:                 0.760
REMARK SMILES CC1=CC=CC(C)(C)CC1=O
REMARK SMILES IDX 1 1 2 2 3 3 10 4 11 5 9 6 4 8 5 9 6 10 7 11 8 12
REMARK H PARENT
REMARK Flexibility Score: 80.00
ROOT
ATOM      1  C   UNL     1     -13.992  16.235 -31.633  1.00  0.00     0.048 C 
ATOM      2  C   UNL     1     -15.115  15.348 -31.153  1.00  0.00    -0.008 C 
ATOM      3  C   UNL     1     -15.593  15.561 -29.907  1.00  0.00     0.007 C 
ENDROOT
BRANCH   2   4
ATOM      4  C   UNL     1     -15.553  14.258 -32.062  1.00  0.00     0.159 C 
ATOM      5  O   UNL     1     -14.865  14.011 -33.090  1.00  0.00    -0.295 OA
BRANCH   4   6
ATOM      6  C   UNL     1     -16.785  13.438 -31.835  1.00  0.00     0.091 CG0
ATOM      7  G   UNL     1     -16.767  12.669 -30.495  1.00  0.00     0.000 G0
ENDBRANCH   4   6
ENDBRANCH   2   4
BRANCH   3   8
ATOM      8  C   UNL     1     -16.656  14.848 -29.161  1.00  0.00    -0.003 C 
ATOM      9  C   UNL     1     -17.165  13.628 -29.376  1.00  0.00    -0.020 C 
BRANCH   9  10
ATOM     10  C   UNL     1     -16.780  12.677 -30.484  1.00  0.00    -0.010 CG0
ATOM     11  C   UNL     1     -17.847  11.561 -30.557  1.00  0.00     0.016 C 
ATOM     12  C   UNL     1     -15.419  12.017 -30.164  1.00  0.00     0.016 C 
ATOM     13  G   UNL     1     -16.775  13.427 -31.835  1.00  0.00     0.000 G0
ENDBRANCH   9  10
ENDBRANCH   3   8
TORSDOF 0
ENDMDL
MODEL 2
REMARK VINA RESULT:    -3.419      1.786      3.624
REMARK INTER + INTRA:          -3.459
REMARK INTER:                  -4.205
REMARK INTRA:                   0.746
REMARK UNBOUND:                 0.760
REMARK SMILES CC1=CC=CC(C)(C)CC1=O
REMARK SMILES IDX 1 1 2 2 3 3 10 4 11 5 9 6 4 8 5 9 6 10 7 11 8 12
REMARK H PARENT
REMARK Flexibility Score: 80.00
ROOT
ATOM      1  C   UNL     1     -18.031  12.879 -31.768  1.00  0.00     0.048 C 
ATOM      2  C   UNL     1     -16.590  13.228 -31.484  1.00  0.00    -0.008 C 
ATOM      3  C   UNL     1     -16.002  12.642 -30.418  1.00  0.00     0.007 C 
ENDROOT
BRANCH   2   4
ATOM      4  C   UNL     1     -15.956  14.250 -32.356  1.00  0.00     0.159 C 
ATOM      5  O   UNL     1     -16.686  14.915 -33.141  1.00  0.00    -0.295 OA
BRANCH   4   6
ATOM      6  C   UNL     1     -14.486  14.528 -32.368  1.00  0.00     0.091 CG0
ATOM      7  G   UNL     1     -13.939  14.979 -30.995  1.00  0.00     0.000 G0
ENDBRANCH   4   6
ENDBRANCH   2   4
BRANCH   3   8
ATOM      8  C   UNL     1     -14.630  12.803 -29.881  1.00  0.00    -0.003 C 
ATOM      9  C   UNL     1     -13.746  13.784 -30.102  1.00  0.00    -0.020 C 
BRANCH   9  10
ATOM     10  C   UNL     1     -13.940  14.980 -31.004  1.00  0.00    -0.010 CG0
ATOM     11  C   UNL     1     -12.559  15.628 -31.252  1.00  0.00     0.016 C 
ATOM     12  C   UNL     1     -14.840  16.027 -30.307  1.00  0.00     0.016 C 
ATOM     13  G   UNL     1     -14.507  14.518 -32.365  1.00  0.00     0.000 G0
ENDBRANCH   9  10
ENDBRANCH   3   8
TORSDOF 0
ENDMDL
MODEL 3
REMARK VINA RESULT:    -3.392      9.306     10.489
REMARK INTER + INTRA:          -3.425
REMARK INTER:                  -4.168
REMARK INTRA:                   0.742
REMARK UNBOUND:                 0.760
REMARK SMILES CC1=CC=CC(C)(C)CC1=O
REMARK SMILES IDX 1 1 2 2 3 3 10 4 11 5 9 6 4 8 5 9 6 10 7 11 8 12
REMARK H PARENT
REMARK Flexibility Score: 80.00
ROOT
ATOM      1  C   UNL     1     -23.696  15.198 -30.499  1.00  0.00     0.048 C 
ATOM      2  C   UNL     1     -24.766  14.200 -30.125  1.00  0.00    -0.008 C 
ATOM      3  C   UNL     1     -24.367  12.965 -29.751  1.00  0.00     0.007 C 
ENDROOT
BRANCH   2   4
ATOM      4  C   UNL     1     -26.178  14.635 -30.274  1.00  0.00     0.159 C 
ATOM      5  O   UNL     1     -26.420  15.718 -30.873  1.00  0.00    -0.295 OA
BRANCH   4   6
ATOM      6  C   UNL     1     -27.342  13.861 -29.737  1.00  0.00     0.091 CG0
ATOM      7  G   UNL     1     -27.437  12.428 -30.307  1.00  0.00     0.000 G0
ENDBRANCH   4   6
ENDBRANCH   2   4
BRANCH   3   8
ATOM      8  C   UNL     1     -25.171  11.784 -29.359  1.00  0.00    -0.003 C 
ATOM      9  C   UNL     1     -26.466  11.531 -29.587  1.00  0.00    -0.020 C 
BRANCH   9  10
ATOM     10  C   UNL     1     -27.447  12.434 -30.297  1.00  0.00    -0.010 CG0
ATOM     11  C   UNL     1     -28.876  11.927 -30.000  1.00  0.00     0.016 C 
ATOM     12  C   UNL     1     -27.221  12.361 -31.825  1.00  0.00     0.016 C 
ATOM     13  G   UNL     1     -27.321  13.872 -29.745  1.00  0.00     0.000 G0
ENDBRANCH   9  10
ENDBRANCH   3   8
TORSDOF 0
ENDMDL
MODEL 4
REMARK VINA RESULT:    -3.337      1.734      2.582
REMARK INTER + INTRA:          -3.357
REMARK INTER:                  -4.098
REMARK INTRA:                   0.742
REMARK UNBOUND:                 0.760
REMARK SMILES CC1=CC=CC(C)(C)CC1=O
REMARK SMILES IDX 1 1 2 2 3 3 10 4 11 5 9 6 4 8 5 9 6 10 7 11 8 12
REMARK H PARENT
REMARK Flexibility Score: 80.00
ROOT
ATOM      1  C   UNL     1     -14.207  15.879 -31.394  1.00  0.00     0.048 C 
ATOM      2  C   UNL     1     -15.085  14.733 -30.952  1.00  0.00    -0.008 C 
ATOM      3  C   UNL     1     -15.970  14.241 -31.846  1.00  0.00     0.007 C 
ENDROOT
BRANCH   2   4
ATOM      4  C   UNL     1     -14.959  14.288 -29.541  1.00  0.00     0.159 C 
ATOM      5  O   UNL     1     -14.306  15.006 -28.734  1.00  0.00    -0.295 OA
BRANCH   4   6
ATOM      6  C   UNL     1     -15.554  13.018 -29.018  1.00  0.00     0.091 CG0
ATOM      7  G   UNL     1     -17.093  12.966 -29.152  1.00  0.00     0.000 G0
ENDBRANCH   4   6
ENDBRANCH   2   4
BRANCH   3   8
ATOM      8  C   UNL     1     -16.967  13.154 -31.699  1.00  0.00    -0.003 C 
ATOM      9  C   UNL     1     -17.464  12.610 -30.581  1.00  0.00    -0.020 C 
BRANCH   9  10
ATOM     10  C   UNL     1     -17.089  12.972 -29.163  1.00  0.00    -0.010 CG0
ATOM     11  C   UNL     1     -17.604  11.856 -28.226  1.00  0.00     0.016 C 
ATOM     12  C   UNL     1     -17.779  14.294 -28.756  1.00  0.00     0.016 C 
ATOM     13  G   UNL     1     -15.551  13.038 -29.033  1.00  0.00     0.000 G0
ENDBRANCH   9  10
ENDBRANCH   3   8
TORSDOF 0
ENDMDL
MODEL 5
REMARK VINA RESULT:    -3.253      9.430     10.029
REMARK INTER + INTRA:          -3.253
REMARK INTER:                  -4.008
REMARK INTRA:                   0.755
REMARK UNBOUND:                 0.760
REMARK SMILES CC1=CC=CC(C)(C)CC1=O
REMARK SMILES IDX 1 1 2 2 3 3 10 4 11 5 9 6 4 8 5 9 6 10 7 11 8 12
REMARK H PARENT
REMARK Flexibility Score: 80.00
ROOT
ATOM      1  C   UNL     1     -23.662  23.083 -31.047  1.00  0.00     0.048 C 
ATOM      2  C   UNL     1     -23.667  21.658 -31.547  1.00  0.00    -0.008 C 
ATOM      3  C   UNL     1     -24.315  21.403 -32.705  1.00  0.00     0.007 C 
ENDROOT
BRANCH   2   4
ATOM      4  C   UNL     1     -23.025  20.636 -30.684  1.00  0.00     0.159 C 
ATOM      5  O   UNL     1     -22.706  20.950 -29.504  1.00  0.00    -0.295 OA
BRANCH   4   6
ATOM      6  C   UNL     1     -22.718  19.244 -31.141  1.00  0.00     0.091 CG0
ATOM      7  G   UNL     1     -23.974  18.448 -31.561  1.00  0.00     0.000 G0
ENDBRANCH   4   6
ENDBRANCH   2   4
BRANCH   3   8
ATOM      8  C   UNL     1     -24.513  20.122 -33.423  1.00  0.00    -0.003 C 
ATOM      9  C   UNL     1     -24.388  18.870 -32.965  1.00  0.00    -0.020 C 
BRANCH   9  10
ATOM     10  C   UNL     1     -23.975  18.461 -31.570  1.00  0.00    -0.010 CG0
ATOM     11  C   UNL     1     -23.610  16.960 -31.594  1.00  0.00     0.016 C 
ATOM     12  C   UNL     1     -25.158  18.650 -30.593  1.00  0.00     0.016 C 
ATOM     13  G   UNL     1     -22.719  19.256 -31.146  1.00  0.00     0.000 G0
ENDBRANCH   9  10
ENDBRANCH   3   8
TORSDOF 0
ENDMDL
MODEL 6
REMARK VINA RESULT:    -3.196      1.694      2.069
REMARK INTER + INTRA:          -3.183
REMARK INTER:                  -3.939
REMARK INTRA:                   0.756
REMARK UNBOUND:                 0.760
REMARK SMILES CC1=CC=CC(C)(C)CC1=O
REMARK SMILES IDX 1 1 2 2 3 3 10 4 11 5 9 6 4 8 5 9 6 10 7 11 8 12
REMARK H PARENT
REMARK Flexibility Score: 80.00
ROOT
ATOM      1  C   UNL     1     -12.753  15.729 -32.080  1.00  0.00     0.048 C 
ATOM      2  C   UNL     1     -13.593  15.220 -30.934  1.00  0.00    -0.008 C 
ATOM      3  C   UNL     1     -12.975  15.005 -29.752  1.00  0.00     0.007 C 
ENDROOT
BRANCH   2   4
ATOM      4  C   UNL     1     -15.019  14.922 -31.220  1.00  0.00     0.159 C 
ATOM      5  O   UNL     1     -15.408  14.909 -32.421  1.00  0.00    -0.295 OA
BRANCH   4   6
ATOM      6  C   UNL     1     -16.036  14.647 -30.156  1.00  0.00     0.091 CG0
ATOM      7  G   UNL     1     -15.684  13.426 -29.277  1.00  0.00     0.000 G0
ENDBRANCH   4   6
ENDBRANCH   2   4
BRANCH   3   8
ATOM      8  C   UNL     1     -13.520  14.492 -28.473  1.00  0.00    -0.003 C 
ATOM      9  C   UNL     1     -14.653  13.812 -28.250  1.00  0.00    -0.020 C 
BRANCH   9  10
ATOM     10  C   UNL     1     -15.685  13.424 -29.282  1.00  0.00    -0.010 CG0
ATOM     11  C   UNL     1     -16.970  12.990 -28.542  1.00  0.00     0.016 C 
ATOM     12  C   UNL     1     -15.178  12.218 -30.107  1.00  0.00     0.016 C 
ATOM     13  G   UNL     1     -16.025  14.647 -30.163  1.00  0.00     0.000 G0
ENDBRANCH   9  10
ENDBRANCH   3   8
TORSDOF 0
ENDMDL
MODEL 7
REMARK VINA RESULT:    -3.160      1.997      3.828
REMARK INTER + INTRA:          -3.138
REMARK INTER:                  -3.894
REMARK INTRA:                   0.756
REMARK UNBOUND:                 0.760
REMARK SMILES CC1=CC=CC(C)(C)CC1=O
REMARK SMILES IDX 1 1 2 2 3 3 10 4 11 5 9 6 4 8 5 9 6 10 7 11 8 12
REMARK H PARENT
REMARK Flexibility Score: 80.00
ROOT
ATOM      1  C   UNL     1     -17.647  12.425 -28.241  1.00  0.00     0.048 C 
ATOM      2  C   UNL     1     -17.050  13.216 -29.382  1.00  0.00    -0.008 C 
ATOM      3  C   UNL     1     -17.434  12.892 -30.636  1.00  0.00     0.007 C 
ENDROOT
BRANCH   2   4
ATOM      4  C   UNL     1     -16.029  14.236 -29.036  1.00  0.00     0.159 C 
ATOM      5  O   UNL     1     -15.569  14.262 -27.862  1.00  0.00    -0.295 OA
BRANCH   4   6
ATOM      6  C   UNL     1     -15.519  15.256 -30.006  1.00  0.00     0.091 CG0
ATOM      7  G   UNL     1     -14.874  14.633 -31.264  1.00  0.00     0.000 G0
ENDBRANCH   4   6
ENDBRANCH   2   4
BRANCH   3   8
ATOM      8  C   UNL     1     -17.010  13.461 -31.937  1.00  0.00    -0.003 C 
ATOM      9  C   UNL     1     -15.926  14.191 -32.226  1.00  0.00    -0.020 C 
BRANCH   9  10
ATOM     10  C   UNL     1     -14.862  14.642 -31.253  1.00  0.00    -0.010 CG0
ATOM     11  C   UNL     1     -14.019  15.744 -31.934  1.00  0.00     0.016 C 
ATOM     12  C   UNL     1     -13.922  13.462 -30.914  1.00  0.00     0.016 C 
ATOM     13  G   UNL     1     -15.528  15.251 -29.999  1.00  0.00     0.000 G0
ENDBRANCH   9  10
ENDBRANCH   3   8
TORSDOF 0
ENDMDL
MODEL 8
REMARK VINA RESULT:    -3.137      1.756      3.314
REMARK INTER + INTRA:          -3.111
REMARK INTER:                  -3.848
REMARK INTRA:                   0.737
REMARK UNBOUND:                 0.760
REMARK SMILES CC1=CC=CC(C)(C)CC1=O
REMARK SMILES IDX 1 1 2 2 3 3 10 4 11 5 9 6 4 8 5 9 6 10 7 11 8 12
REMARK H PARENT
REMARK Flexibility Score: 80.00
ROOT
ATOM      1  C   UNL     1     -19.803  13.080 -30.415  1.00  0.00     0.048 C 
ATOM      2  C   UNL     1     -18.334  13.071 -30.067  1.00  0.00    -0.008 C 
ATOM      3  C   UNL     1     -17.999  13.070 -28.758  1.00  0.00     0.007 C 
ENDROOT
BRANCH   2   4
ATOM      4  C   UNL     1     -17.371  13.142 -31.196  1.00  0.00     0.159 C 
ATOM      5  O   UNL     1     -17.809  13.392 -32.353  1.00  0.00    -0.295 OA
BRANCH   4   6
ATOM      6  C   UNL     1     -15.899  12.919 -31.041  1.00  0.00     0.091 CG0
ATOM      7  G   UNL     1     -15.231  13.909 -30.061  1.00  0.00     0.000 G0
ENDBRANCH   4   6
ENDBRANCH   2   4
BRANCH   3   8
ATOM      8  C   UNL     1     -16.664  13.088 -28.117  1.00  0.00    -0.003 C 
ATOM      9  C   UNL     1     -15.482  13.441 -28.639  1.00  0.00    -0.020 C 
BRANCH   9  10
ATOM     10  C   UNL     1     -15.225  13.890 -30.058  1.00  0.00    -0.010 CG0
ATOM     11  C   UNL     1     -13.703  13.824 -30.319  1.00  0.00     0.016 C 
ATOM     12  C   UNL     1     -15.677  15.358 -30.237  1.00  0.00     0.016 C 
ATOM     13  G   UNL     1     -15.925  12.927 -31.043  1.00  0.00     0.000 G0
ENDBRANCH   9  10
ENDBRANCH   3   8
TORSDOF 0
ENDMDL
MODEL 9
REMARK VINA RESULT:    -3.128     10.351     11.976
REMARK INTER + INTRA:          -3.100
REMARK INTER:                  -4.137
REMARK INTRA:                   1.037
REMARK UNBOUND:                 0.760
REMARK SMILES CC1=CC=CC(C)(C)CC1=O
REMARK SMILES IDX 1 1 2 2 3 3 10 4 11 5 9 6 4 8 5 9 6 10 7 11 8 12
REMARK H PARENT
REMARK Flexibility Score: 80.00
ROOT
ATOM      1  C   UNL     1     -30.352  11.294 -29.387  1.00  0.00     0.048 C 
ATOM      2  C   UNL     1     -28.927  11.794 -29.411  1.00  0.00    -0.008 C 
ATOM      3  C   UNL     1     -27.961  10.951 -28.984  1.00  0.00     0.007 C 
ENDROOT
BRANCH   2   4
ATOM      4  C   UNL     1     -28.710  13.202 -29.828  1.00  0.00     0.159 C 
ATOM      5  O   UNL     1     -29.645  13.811 -30.418  1.00  0.00    -0.295 OA
BRANCH   4   6
ATOM      6  C   UNL     1     -27.430  13.944 -29.601  1.00  0.00     0.091 CG0
ATOM      7  G   UNL     1     -26.205  13.258 -30.246  1.00  0.00     0.000 G0
ENDBRANCH   4   6
ENDBRANCH   2   4
BRANCH   3   8
ATOM      8  C   UNL     1     -26.499  11.161 -28.867  1.00  0.00    -0.003 C 
ATOM      9  C   UNL     1     -25.743  12.140 -29.381  1.00  0.00    -0.020 C 
BRANCH   9  10
ATOM     10  C   UNL     1     -26.219  13.279 -30.252  1.00  0.00    -0.010 CG0
ATOM     11  C   UNL     1     -26.648  12.698 -31.618  1.00  0.00     0.016 C 
ATOM     12  C   UNL     1     -25.061  14.275 -30.497  1.00  0.00     0.016 C 
ATOM     13  G   UNL     1     -27.452  13.948 -29.604  1.00  0.00     0.000 G0
ENDBRANCH   9  10
ENDBRANCH   3   8
TORSDOF 0
ENDMDL
