MODEL 1
REMARK VINA RESULT:    -3.919      0.000      0.000
REMARK INTER + INTRA:          -4.673
REMARK INTER:                  -4.607
REMARK INTRA:                  -0.067
REMARK UNBOUND:                -0.067
REMARK SMILES O=C([O-])CCC(=O)[O-]
REMARK SMILES IDX 4 1 2 2 1 3 3 4 5 5 6 6 7 7 8 8
REMARK H PARENT
REMARK Flexibility Score: inf
ROOT
ATOM      1  C   UNL     1      14.114 -10.437  21.171  1.00  0.00     0.059 C 
ENDROOT
BRANCH   1   2
ATOM      2  C   UNL     1      14.382  -9.021  21.573  1.00  0.00     0.042 C 
ATOM      3  O   UNL     1      13.538  -8.121  21.324  1.00  0.00    -0.550 OA
ATOM      4  O   UNL     1      15.587  -8.687  22.179  1.00  0.00    -0.550 OA
ENDBRANCH   1   2
BRANCH   1   5
ATOM      5  C   UNL     1      13.471 -11.209  22.325  1.00  0.00     0.059 C 
BRANCH   5   6
ATOM      6  C   UNL     1      14.363 -12.325  22.769  1.00  0.00     0.042 C 
ATOM      7  O   UNL     1      14.363 -12.695  23.973  1.00  0.00    -0.550 OA
ATOM      8  O   UNL     1      15.230 -12.923  21.865  1.00  0.00    -0.550 OA
ENDBRANCH   5   6
ENDBRANCH   1   5
TORSDOF 3
ENDMDL
MODEL 2
REMARK VINA RESULT:    -3.904      0.090      3.920
REMARK INTER + INTRA:          -4.655
REMARK INTER:                  -4.581
REMARK INTRA:                  -0.074
REMARK UNBOUND:                -0.067
REMARK SMILES O=C([O-])CCC(=O)[O-]
REMARK SMILES IDX 4 1 2 2 1 3 3 4 5 5 6 6 7 7 8 8
REMARK H PARENT
REMARK Flexibility Score: inf
ROOT
ATOM      1  C   UNL     1      13.507 -11.219  22.240  1.00  0.00     0.059 C 
ENDROOT
BRANCH   1   2
ATOM      2  C   UNL     1      14.441 -12.274  22.744  1.00  0.00     0.042 C 
ATOM      3  O   UNL     1      15.281 -12.800  21.968  1.00  0.00    -0.550 OA
ATOM      4  O   UNL     1      14.350 -12.711  24.060  1.00  0.00    -0.550 OA
ENDBRANCH   1   2
BRANCH   1   5
ATOM      5  C   UNL     1      14.171 -10.405  21.127  1.00  0.00     0.059 C 
BRANCH   5   6
ATOM      6  C   UNL     1      14.396  -8.995  21.573  1.00  0.00     0.042 C 
ATOM      7  O   UNL     1      13.529  -8.111  21.344  1.00  0.00    -0.550 OA
ATOM      8  O   UNL     1      15.586  -8.646  22.199  1.00  0.00    -0.550 OA
ENDBRANCH   5   6
ENDBRANCH   1   5
TORSDOF 3
ENDMDL
MODEL 3
REMARK VINA RESULT:    -3.845      1.504      2.055
REMARK INTER + INTRA:          -4.586
REMARK INTER:                  -4.396
REMARK INTRA:                  -0.190
REMARK UNBOUND:                -0.067
REMARK SMILES O=C([O-])CCC(=O)[O-]
REMARK SMILES IDX 4 1 2 2 1 3 3 4 5 5 6 6 7 7 8 8
REMARK H PARENT
REMARK Flexibility Score: inf
ROOT
ATOM      1  C   UNL     1      15.483  -9.477  22.090  1.00  0.00     0.059 C 
ENDROOT
BRANCH   1   2
ATOM      2  C   UNL     1      14.058  -9.484  21.634  1.00  0.00     0.042 C 
ATOM      3  O   UNL     1      13.129  -9.282  22.458  1.00  0.00    -0.550 OA
ATOM      4  O   UNL     1      13.755  -9.763  20.307  1.00  0.00    -0.550 OA
ENDBRANCH   1   2
BRANCH   1   5
ATOM      5  C   UNL     1      16.136 -10.835  21.827  1.00  0.00     0.059 C 
BRANCH   5   6
ATOM      6  C   UNL     1      15.491 -11.897  22.661  1.00  0.00     0.042 C 
ATOM      7  O   UNL     1      14.992 -12.916  22.115  1.00  0.00    -0.550 OA
ATOM      8  O   UNL     1      15.395 -11.737  24.037  1.00  0.00    -0.550 OA
ENDBRANCH   5   6
ENDBRANCH   1   5
TORSDOF 3
ENDMDL
MODEL 4
REMARK VINA RESULT:    -3.843      1.509      3.556
REMARK INTER + INTRA:          -4.583
REMARK INTER:                  -4.399
REMARK INTRA:                  -0.184
REMARK UNBOUND:                -0.067
REMARK SMILES O=C([O-])CCC(=O)[O-]
REMARK SMILES IDX 4 1 2 2 1 3 3 4 5 5 6 6 7 7 8 8
REMARK H PARENT
REMARK Flexibility Score: inf
ROOT
ATOM      1  C   UNL     1      16.171 -10.804  21.844  1.00  0.00     0.059 C 
ENDROOT
BRANCH   1   2
ATOM      2  C   UNL     1      15.563 -11.914  22.642  1.00  0.00     0.042 C 
ATOM      3  O   UNL     1      15.178 -12.968  22.071  1.00  0.00    -0.550 OA
ATOM      4  O   UNL     1      15.375 -11.763  24.010  1.00  0.00    -0.550 OA
ENDBRANCH   1   2
BRANCH   1   5
ATOM      5  C   UNL     1      15.475  -9.478  22.153  1.00  0.00     0.059 C 
BRANCH   5   6
ATOM      6  C   UNL     1      14.060  -9.503  21.666  1.00  0.00     0.042 C 
ATOM      7  O   UNL     1      13.110  -9.307  22.468  1.00  0.00    -0.550 OA
ATOM      8  O   UNL     1      13.789  -9.792  20.335  1.00  0.00    -0.550 OA
ENDBRANCH   5   6
ENDBRANCH   1   5
TORSDOF 3
ENDMDL
MODEL 5
REMARK VINA RESULT:    -3.834      1.454      3.902
REMARK INTER + INTRA:          -4.573
REMARK INTER:                  -4.461
REMARK INTRA:                  -0.112
REMARK UNBOUND:                -0.067
REMARK SMILES O=C([O-])CCC(=O)[O-]
REMARK SMILES IDX 4 1 2 2 1 3 3 4 5 5 6 6 7 7 8 8
REMARK H PARENT
REMARK Flexibility Score: inf
ROOT
ATOM      1  C   UNL     1      16.153 -12.013  22.471  1.00  0.00     0.059 C 
ENDROOT
BRANCH   1   2
ATOM      2  C   UNL     1      15.422 -12.490  23.686  1.00  0.00     0.042 C 
ATOM      3  O   UNL     1      14.179 -12.683  23.641  1.00  0.00    -0.550 OA
ATOM      4  O   UNL     1      16.105 -12.673  24.881  1.00  0.00    -0.550 OA
ENDBRANCH   1   2
BRANCH   1   5
ATOM      5  C   UNL     1      15.211 -11.235  21.550  1.00  0.00     0.059 C 
BRANCH   5   6
ATOM      6  C   UNL     1      15.060  -9.825  22.026  1.00  0.00     0.042 C 
ATOM      7  O   UNL     1      16.045  -9.040  22.005  1.00  0.00    -0.550 OA
ATOM      8  O   UNL     1      13.845  -9.391  22.538  1.00  0.00    -0.550 OA
ENDBRANCH   5   6
ENDBRANCH   1   5
TORSDOF 3
ENDMDL
MODEL 6
REMARK VINA RESULT:    -3.824      1.564      2.050
REMARK INTER + INTRA:          -4.561
REMARK INTER:                  -4.452
REMARK INTRA:                  -0.109
REMARK UNBOUND:                -0.067
REMARK SMILES O=C([O-])CCC(=O)[O-]
REMARK SMILES IDX 4 1 2 2 1 3 3 4 5 5 6 6 7 7 8 8
REMARK H PARENT
REMARK Flexibility Score: inf
ROOT
ATOM      1  C   UNL     1      14.388 -10.507  22.426  1.00  0.00     0.059 C 
ENDROOT
BRANCH   1   2
ATOM      2  C   UNL     1      14.644  -9.112  21.949  1.00  0.00     0.042 C 
ATOM      3  O   UNL     1      15.721  -8.530  22.241  1.00  0.00    -0.550 OA
ATOM      4  O   UNL     1      13.671  -8.436  21.224  1.00  0.00    -0.550 OA
ENDBRANCH   1   2
BRANCH   1   5
ATOM      5  C   UNL     1      15.039 -11.522  21.485  1.00  0.00     0.059 C 
BRANCH   5   6
ATOM      6  C   UNL     1      16.393 -11.910  21.989  1.00  0.00     0.042 C 
ATOM      7  O   UNL     1      16.506 -12.598  23.038  1.00  0.00    -0.550 OA
ATOM      8  O   UNL     1      17.533 -11.471  21.328  1.00  0.00    -0.550 OA
ENDBRANCH   5   6
ENDBRANCH   1   5
TORSDOF 3
ENDMDL
MODEL 7
REMARK VINA RESULT:    -3.709      1.573      3.639
REMARK INTER + INTRA:          -4.426
REMARK INTER:                  -4.291
REMARK INTRA:                  -0.135
REMARK UNBOUND:                -0.067
REMARK SMILES O=C([O-])CCC(=O)[O-]
REMARK SMILES IDX 4 1 2 2 1 3 3 4 5 5 6 6 7 7 8 8
REMARK H PARENT
REMARK Flexibility Score: inf
ROOT
ATOM      1  C   UNL     1      14.974 -10.876  22.793  1.00  0.00     0.059 C 
ENDROOT
BRANCH   1   2
ATOM      2  C   UNL     1      15.800 -11.846  22.009  1.00  0.00     0.042 C 
ATOM      3  O   UNL     1      15.431 -13.045  21.895  1.00  0.00    -0.550 OA
ATOM      4  O   UNL     1      17.003 -11.439  21.447  1.00  0.00    -0.550 OA
ENDBRANCH   1   2
BRANCH   1   5
ATOM      5  C   UNL     1      13.543 -10.833  22.253  1.00  0.00     0.059 C 
BRANCH   5   6
ATOM      6  C   UNL     1      13.472  -9.980  21.026  1.00  0.00     0.042 C 
ATOM      7  O   UNL     1      13.372 -10.513  19.889  1.00  0.00    -0.550 OA
ATOM      8  O   UNL     1      13.566  -8.599  21.133  1.00  0.00    -0.550 OA
ENDBRANCH   5   6
ENDBRANCH   1   5
TORSDOF 3
ENDMDL
MODEL 8
REMARK VINA RESULT:    -3.216     14.994     16.276
REMARK INTER + INTRA:          -3.846
REMARK INTER:                  -3.752
REMARK INTRA:                  -0.094
REMARK UNBOUND:                -0.067
REMARK SMILES O=C([O-])CCC(=O)[O-]
REMARK SMILES IDX 4 1 2 2 1 3 3 4 5 5 6 6 7 7 8 8
REMARK H PARENT
REMARK Flexibility Score: inf
ROOT
ATOM      1  C   UNL     1      16.383 -10.317  38.977  1.00  0.00     0.059 C 
ENDROOT
BRANCH   1   2
ATOM      2  C   UNL     1      15.151 -11.151  38.820  1.00  0.00     0.042 C 
ATOM      3  O   UNL     1      14.013 -10.624  38.922  1.00  0.00    -0.550 OA
ATOM      4  O   UNL     1      15.261 -12.520  38.611  1.00  0.00    -0.550 OA
ENDBRANCH   1   2
BRANCH   1   5
ATOM      5  C   UNL     1      16.686  -9.560  37.683  1.00  0.00     0.059 C 
BRANCH   5   6
ATOM      6  C   UNL     1      17.860 -10.168  36.982  1.00  0.00     0.042 C 
ATOM      7  O   UNL     1      17.683 -10.961  36.020  1.00  0.00    -0.550 OA
ATOM      8  O   UNL     1      19.149  -9.899  37.425  1.00  0.00    -0.550 OA
ENDBRANCH   5   6
ENDBRANCH   1   5
TORSDOF 3
ENDMDL
MODEL 9
REMARK VINA RESULT:    -3.171     14.973     16.017
REMARK INTER + INTRA:          -3.794
REMARK INTER:                  -3.674
REMARK INTRA:                  -0.120
REMARK UNBOUND:                -0.067
REMARK SMILES O=C([O-])CCC(=O)[O-]
REMARK SMILES IDX 4 1 2 2 1 3 3 4 5 5 6 6 7 7 8 8
REMARK H PARENT
REMARK Flexibility Score: inf
ROOT
ATOM      1  C   UNL     1      16.800  -9.424  37.687  1.00  0.00     0.059 C 
ENDROOT
BRANCH   1   2
ATOM      2  C   UNL     1      17.928 -10.137  37.011  1.00  0.00     0.042 C 
ATOM      3  O   UNL     1      17.695 -10.954  36.082  1.00  0.00    -0.550 OA
ATOM      4  O   UNL     1      19.234  -9.936  37.440  1.00  0.00    -0.550 OA
ENDBRANCH   1   2
BRANCH   1   5
ATOM      5  C   UNL     1      16.269 -10.252  38.858  1.00  0.00     0.059 C 
BRANCH   5   6
ATOM      6  C   UNL     1      14.918 -10.809  38.536  1.00  0.00     0.042 C 
ATOM      7  O   UNL     1      14.813 -11.872  37.870  1.00  0.00    -0.550 OA
ATOM      8  O   UNL     1      13.773 -10.127  38.929  1.00  0.00    -0.550 OA
ENDBRANCH   5   6
ENDBRANCH   1   5
TORSDOF 3
ENDMDL
