MODEL 1
REMARK VINA RESULT:    -3.631      0.000      0.000
REMARK INTER + INTRA:          -5.214
REMARK INTER:                  -4.904
REMARK INTRA:                  -0.310
REMARK UNBOUND:                -0.310
REMARK SMILES CCCCCCCC(=O)[O-]
REMARK SMILES IDX 5 1 6 2 7 3 8 4 9 5 10 6 4 7 3 8 2 9 1 10
REMARK H PARENT
REMARK Flexibility Score: inf
ROOT
ATOM      1  C   UNL     1      34.020  29.706  22.597  1.00  0.00     0.000 C 
ENDROOT
BRANCH   1   2
ATOM      2  C   UNL     1      32.733  30.010  21.816  1.00  0.00     0.006 C 
BRANCH   2   3
ATOM      3  C   UNL     1      32.378  28.854  20.876  1.00  0.00     0.053 C 
BRANCH   3   4
ATOM      4  C   UNL     1      33.115  28.988  19.580  1.00  0.00     0.041 C 
ATOM      5  O   UNL     1      33.846  28.051  19.167  1.00  0.00    -0.550 OA
ATOM      6  O   UNL     1      32.954  30.130  18.804  1.00  0.00    -0.550 OA
ENDBRANCH   3   4
ENDBRANCH   2   3
ENDBRANCH   1   2
BRANCH   1   7
ATOM      7  C   UNL     1      34.587  30.940  23.323  1.00  0.00     0.000 C 
BRANCH   7   8
ATOM      8  C   UNL     1      33.718  32.207  23.227  1.00  0.00    -0.000 C 
BRANCH   8   9
ATOM      9  C   UNL     1      33.672  33.002  24.540  1.00  0.00    -0.003 C 
ATOM     10  C   UNL     1      34.137  32.147  25.716  1.00  0.00     0.004 C 
ENDBRANCH   8   9
ENDBRANCH   7   8
ENDBRANCH   1   7
TORSDOF 6
ENDMDL
MODEL 2
REMARK VINA RESULT:    -3.628      7.395      9.750
REMARK INTER + INTRA:          -5.210
REMARK INTER:                  -4.885
REMARK INTRA:                  -0.326
REMARK UNBOUND:                -0.310
REMARK SMILES CCCCCCCC(=O)[O-]
REMARK SMILES IDX 5 1 6 2 7 3 8 4 9 5 10 6 4 7 3 8 2 9 1 10
REMARK H PARENT
REMARK Flexibility Score: inf
ROOT
ATOM      1  C   UNL     1      36.233  35.604  27.377  1.00  0.00     0.000 C 
ENDROOT
BRANCH   1   2
ATOM      2  C   UNL     1      35.375  36.214  28.495  1.00  0.00     0.006 C 
BRANCH   2   3
ATOM      3  C   UNL     1      36.218  36.489  29.744  1.00  0.00     0.053 C 
BRANCH   3   4
ATOM      4  C   UNL     1      37.348  37.416  29.419  1.00  0.00     0.041 C 
ATOM      5  O   UNL     1      38.538  37.011  29.479  1.00  0.00    -0.550 OA
ATOM      6  O   UNL     1      37.082  38.715  29.003  1.00  0.00    -0.550 OA
ENDBRANCH   3   4
ENDBRANCH   2   3
ENDBRANCH   1   2
BRANCH   1   7
ATOM      7  C   UNL     1      36.703  34.172  27.692  1.00  0.00     0.000 C 
BRANCH   7   8
ATOM      8  C   UNL     1      36.196  33.093  26.719  1.00  0.00    -0.000 C 
BRANCH   8   9
ATOM      9  C   UNL     1      34.990  33.554  25.888  1.00  0.00    -0.003 C 
ATOM     10  C   UNL     1      34.020  32.403  25.641  1.00  0.00     0.004 C 
ENDBRANCH   8   9
ENDBRANCH   7   8
ENDBRANCH   1   7
TORSDOF 6
ENDMDL
MODEL 3
REMARK VINA RESULT:    -3.579      4.198      6.224
REMARK INTER + INTRA:          -5.145
REMARK INTER:                  -4.874
REMARK INTRA:                  -0.271
REMARK UNBOUND:                -0.310
REMARK SMILES CCCCCCCC(=O)[O-]
REMARK SMILES IDX 5 1 6 2 7 3 8 4 9 5 10 6 4 7 3 8 2 9 1 10
REMARK H PARENT
REMARK Flexibility Score: inf
ROOT
ATOM      1  C   UNL     1      34.216  31.841  24.101  1.00  0.00     0.000 C 
ENDROOT
BRANCH   1   2
ATOM      2  C   UNL     1      34.004  32.403  25.514  1.00  0.00     0.006 C 
BRANCH   2   3
ATOM      3  C   UNL     1      35.266  33.109  26.017  1.00  0.00     0.053 C 
BRANCH   3   4
ATOM      4  C   UNL     1      35.135  34.592  25.857  1.00  0.00     0.041 C 
ATOM      5  O   UNL     1      35.352  35.131  24.741  1.00  0.00    -0.550 OA
ATOM      6  O   UNL     1      34.725  35.373  26.931  1.00  0.00    -0.550 OA
ENDBRANCH   3   4
ENDBRANCH   2   3
ENDBRANCH   1   2
BRANCH   1   7
ATOM      7  C   UNL     1      33.268  32.463  23.059  1.00  0.00     0.000 C 
BRANCH   7   8
ATOM      8  C   UNL     1      32.843  31.518  21.920  1.00  0.00    -0.000 C 
BRANCH   8   9
ATOM      9  C   UNL     1      33.383  30.092  22.093  1.00  0.00    -0.003 C 
ATOM     10  C   UNL     1      32.404  29.062  21.536  1.00  0.00     0.004 C 
ENDBRANCH   8   9
ENDBRANCH   7   8
ENDBRANCH   1   7
TORSDOF 6
ENDMDL
MODEL 4
REMARK VINA RESULT:    -3.513      4.075      5.953
REMARK INTER + INTRA:          -5.055
REMARK INTER:                  -4.782
REMARK INTRA:                  -0.273
REMARK UNBOUND:                -0.310
REMARK SMILES CCCCCCCC(=O)[O-]
REMARK SMILES IDX 5 1 6 2 7 3 8 4 9 5 10 6 4 7 3 8 2 9 1 10
REMARK H PARENT
REMARK Flexibility Score: inf
ROOT
ATOM      1  C   UNL     1      34.799  34.669  26.083  1.00  0.00     0.000 C 
ENDROOT
BRANCH   1   2
ATOM      2  C   UNL     1      35.253  33.204  25.987  1.00  0.00     0.006 C 
BRANCH   2   3
ATOM      3  C   UNL     1      34.077  32.290  25.631  1.00  0.00     0.053 C 
BRANCH   3   4
ATOM      4  C   UNL     1      34.103  31.946  24.175  1.00  0.00     0.041 C 
ATOM      5  O   UNL     1      33.605  32.734  23.329  1.00  0.00    -0.550 OA
ATOM      6  O   UNL     1      34.723  30.777  23.747  1.00  0.00    -0.550 OA
ENDBRANCH   3   4
ENDBRANCH   2   3
ENDBRANCH   1   2
BRANCH   1   7
ATOM      7  C   UNL     1      35.671  35.506  27.037  1.00  0.00     0.000 C 
BRANCH   7   8
ATOM      8  C   UNL     1      36.649  34.695  27.905  1.00  0.00    -0.000 C 
BRANCH   8   9
ATOM      9  C   UNL     1      37.024  35.410  29.211  1.00  0.00    -0.003 C 
ATOM     10  C   UNL     1      35.894  36.320  29.684  1.00  0.00     0.004 C 
ENDBRANCH   8   9
ENDBRANCH   7   8
ENDBRANCH   1   7
TORSDOF 6
ENDMDL
MODEL 5
REMARK VINA RESULT:    -3.512      6.545      8.712
REMARK INTER + INTRA:          -5.054
REMARK INTER:                  -4.844
REMARK INTRA:                  -0.209
REMARK UNBOUND:                -0.310
REMARK SMILES CCCCCCCC(=O)[O-]
REMARK SMILES IDX 5 1 6 2 7 3 8 4 9 5 10 6 4 7 3 8 2 9 1 10
REMARK H PARENT
REMARK Flexibility Score: inf
ROOT
ATOM      1  C   UNL     1      36.253  33.440  26.655  1.00  0.00     0.000 C 
ENDROOT
BRANCH   1   2
ATOM      2  C   UNL     1      36.593  34.241  27.921  1.00  0.00     0.006 C 
BRANCH   2   3
ATOM      3  C   UNL     1      36.192  35.710  27.763  1.00  0.00     0.053 C 
BRANCH   3   4
ATOM      4  C   UNL     1      36.159  36.390  29.096  1.00  0.00     0.041 C 
ATOM      5  O   UNL     1      35.762  35.768  30.115  1.00  0.00    -0.550 OA
ATOM      6  O   UNL     1      36.616  37.697  29.221  1.00  0.00    -0.550 OA
ENDBRANCH   3   4
ENDBRANCH   2   3
ENDBRANCH   1   2
BRANCH   1   7
ATOM      7  C   UNL     1      34.910  33.852  26.025  1.00  0.00     0.000 C 
BRANCH   7   8
ATOM      8  C   UNL     1      33.983  32.683  25.647  1.00  0.00    -0.000 C 
BRANCH   8   9
ATOM      9  C   UNL     1      33.919  32.436  24.133  1.00  0.00    -0.003 C 
ATOM     10  C   UNL     1      34.565  31.103  23.765  1.00  0.00     0.004 C 
ENDBRANCH   8   9
ENDBRANCH   7   8
ENDBRANCH   1   7
TORSDOF 6
ENDMDL
MODEL 6
REMARK VINA RESULT:    -3.447      8.757     10.926
REMARK INTER + INTRA:          -4.966
REMARK INTER:                  -4.759
REMARK INTRA:                  -0.207
REMARK UNBOUND:                -0.310
REMARK SMILES CCCCCCCC(=O)[O-]
REMARK SMILES IDX 5 1 6 2 7 3 8 4 9 5 10 6 4 7 3 8 2 9 1 10
REMARK H PARENT
REMARK Flexibility Score: inf
ROOT
ATOM      1  C   UNL     1      37.040  37.899  29.176  1.00  0.00     0.000 C 
ENDROOT
BRANCH   1   2
ATOM      2  C   UNL     1      36.255  36.679  29.680  1.00  0.00     0.006 C 
BRANCH   2   3
ATOM      3  C   UNL     1      35.314  36.147  28.596  1.00  0.00     0.053 C 
BRANCH   3   4
ATOM      4  C   UNL     1      36.019  35.144  27.737  1.00  0.00     0.041 C 
ATOM      5  O   UNL     1      35.936  35.214  26.483  1.00  0.00    -0.550 OA
ATOM      6  O   UNL     1      36.809  34.161  28.321  1.00  0.00    -0.550 OA
ENDBRANCH   3   4
ENDBRANCH   2   3
ENDBRANCH   1   2
BRANCH   1   7
ATOM      7  C   UNL     1      38.464  37.980  29.756  1.00  0.00     0.000 C 
BRANCH   7   8
ATOM      8  C   UNL     1      38.968  39.405  30.046  1.00  0.00    -0.000 C 
BRANCH   8   9
ATOM      9  C   UNL     1      38.848  39.792  31.528  1.00  0.00    -0.003 C 
ATOM     10  C   UNL     1      38.419  41.248  31.682  1.00  0.00     0.004 C 
ENDBRANCH   8   9
ENDBRANCH   7   8
ENDBRANCH   1   7
TORSDOF 6
ENDMDL
MODEL 7
REMARK VINA RESULT:    -3.436      1.530      2.378
REMARK INTER + INTRA:          -4.952
REMARK INTER:                  -4.525
REMARK INTRA:                  -0.427
REMARK UNBOUND:                -0.310
REMARK SMILES CCCCCCCC(=O)[O-]
REMARK SMILES IDX 5 1 6 2 7 3 8 4 9 5 10 6 4 7 3 8 2 9 1 10
REMARK H PARENT
REMARK Flexibility Score: inf
ROOT
ATOM      1  C   UNL     1      33.271  32.194  22.855  1.00  0.00     0.000 C 
ENDROOT
BRANCH   1   2
ATOM      2  C   UNL     1      34.414  31.239  22.482  1.00  0.00     0.006 C 
BRANCH   2   3
ATOM      3  C   UNL     1      33.982  29.779  22.642  1.00  0.00     0.053 C 
BRANCH   3   4
ATOM      4  C   UNL     1      33.169  29.341  21.464  1.00  0.00     0.041 C 
ATOM      5  O   UNL     1      31.977  28.969  21.620  1.00  0.00    -0.550 OA
ATOM      6  O   UNL     1      33.714  29.391  20.186  1.00  0.00    -0.550 OA
ENDBRANCH   3   4
ENDBRANCH   2   3
ENDBRANCH   1   2
BRANCH   1   7
ATOM      7  C   UNL     1      33.610  33.100  24.052  1.00  0.00     0.000 C 
BRANCH   7   8
ATOM      8  C   UNL     1      34.022  32.355  25.335  1.00  0.00    -0.000 C 
BRANCH   8   9
ATOM      9  C   UNL     1      35.297  32.924  25.974  1.00  0.00    -0.003 C 
ATOM     10  C   UNL     1      36.544  32.259  25.399  1.00  0.00     0.004 C 
ENDBRANCH   8   9
ENDBRANCH   7   8
ENDBRANCH   1   7
TORSDOF 6
ENDMDL
MODEL 8
REMARK VINA RESULT:    -3.419      2.023      3.181
REMARK INTER + INTRA:          -4.929
REMARK INTER:                  -4.685
REMARK INTRA:                  -0.244
REMARK UNBOUND:                -0.310
REMARK SMILES CCCCCCCC(=O)[O-]
REMARK SMILES IDX 5 1 6 2 7 3 8 4 9 5 10 6 4 7 3 8 2 9 1 10
REMARK H PARENT
REMARK Flexibility Score: inf
ROOT
ATOM      1  C   UNL     1      34.298  31.670  24.700  1.00  0.00     0.000 C 
ENDROOT
BRANCH   1   2
ATOM      2  C   UNL     1      34.500  31.566  23.181  1.00  0.00     0.006 C 
BRANCH   2   3
ATOM      3  C   UNL     1      34.405  30.111  22.714  1.00  0.00     0.053 C 
BRANCH   3   4
ATOM      4  C   UNL     1      33.134  29.887  21.955  1.00  0.00     0.041 C 
ATOM      5  O   UNL     1      32.349  30.846  21.736  1.00  0.00    -0.550 OA
ATOM      6  O   UNL     1      32.841  28.627  21.447  1.00  0.00    -0.550 OA
ENDBRANCH   3   4
ENDBRANCH   2   3
ENDBRANCH   1   2
BRANCH   1   7
ATOM      7  C   UNL     1      33.921  33.089  25.161  1.00  0.00     0.000 C 
BRANCH   7   8
ATOM      8  C   UNL     1      34.964  33.778  26.061  1.00  0.00    -0.000 C 
BRANCH   8   9
ATOM      9  C   UNL     1      36.118  32.848  26.460  1.00  0.00    -0.003 C 
ATOM     10  C   UNL     1      37.210  33.614  27.202  1.00  0.00     0.004 C 
ENDBRANCH   8   9
ENDBRANCH   7   8
ENDBRANCH   1   7
TORSDOF 6
ENDMDL
MODEL 9
REMARK VINA RESULT:    -3.378      5.123      7.124
REMARK INTER + INTRA:          -4.873
REMARK INTER:                  -4.611
REMARK INTRA:                  -0.262
REMARK UNBOUND:                -0.310
REMARK SMILES CCCCCCCC(=O)[O-]
REMARK SMILES IDX 5 1 6 2 7 3 8 4 9 5 10 6 4 7 3 8 2 9 1 10
REMARK H PARENT
REMARK Flexibility Score: inf
ROOT
ATOM      1  C   UNL     1      34.173  32.247  25.319  1.00  0.00     0.000 C 
ENDROOT
BRANCH   1   2
ATOM      2  C   UNL     1      35.402  32.849  26.016  1.00  0.00     0.006 C 
BRANCH   2   3
ATOM      3  C   UNL     1      35.300  34.375  26.086  1.00  0.00     0.053 C 
BRANCH   3   4
ATOM      4  C   UNL     1      35.885  34.880  27.368  1.00  0.00     0.041 C 
ATOM      5  O   UNL     1      35.614  36.040  27.775  1.00  0.00    -0.550 OA
ATOM      6  O   UNL     1      36.691  34.051  28.138  1.00  0.00    -0.550 OA
ENDBRANCH   3   4
ENDBRANCH   2   3
ENDBRANCH   1   2
BRANCH   1   7
ATOM      7  C   UNL     1      33.617  33.145  24.199  1.00  0.00     0.000 C 
BRANCH   7   8
ATOM      8  C   UNL     1      33.208  32.402  22.913  1.00  0.00    -0.000 C 
BRANCH   8   9
ATOM      9  C   UNL     1      33.901  31.040  22.763  1.00  0.00    -0.003 C 
ATOM     10  C   UNL     1      33.078  30.099  21.889  1.00  0.00     0.004 C 
ENDBRANCH   8   9
ENDBRANCH   7   8
ENDBRANCH   1   7
TORSDOF 6
ENDMDL
