MODEL 1
REMARK VINA RESULT:    -5.006      0.000      0.000
REMARK INTER + INTRA:         -11.679
REMARK INTER:                  -9.689
REMARK INTRA:                  -1.990
REMARK UNBOUND:                -1.990
REMARK SMILES CCCCCCCCCCCCCCCCCC(=O)[O-]
REMARK SMILES IDX 10 1 11 2 12 3 13 4 14 5 15 6 16 7 17 8 18 9 19 10 20 11
REMARK SMILES IDX 9 12 8 13 7 14 6 15 5 16 4 17 3 18 2 19 1 20
REMARK H PARENT
REMARK Flexibility Score: inf
ROOT
ATOM      1  C   UNL     1     253.480 258.933 247.300  1.00  0.00     0.000 C 
ENDROOT
BRANCH   1   2
ATOM      2  C   UNL     1     253.819 258.599 245.839  1.00  0.00     0.000 C 
BRANCH   2   3
ATOM      3  C   UNL     1     254.560 259.743 245.130  1.00  0.00     0.000 C 
BRANCH   3   4
ATOM      4  C   UNL     1     254.890 260.910 246.078  1.00  0.00     0.000 C 
BRANCH   4   5
ATOM      5  C   UNL     1     256.403 261.137 246.227  1.00  0.00     0.000 C 
BRANCH   5   6
ATOM      6  C   UNL     1     257.118 261.248 244.869  1.00  0.00     0.000 C 
BRANCH   6   7
ATOM      7  C   UNL     1     258.636 261.021 244.978  1.00  0.00     0.006 C 
BRANCH   7   8
ATOM      8  C   UNL     1     259.202 261.207 246.395  1.00  0.00     0.053 C 
BRANCH   8   9
ATOM      9  C   UNL     1     259.710 262.597 246.620  1.00  0.00     0.041 C 
ATOM     10  O   UNL     1     260.933 262.857 246.474  1.00  0.00    -0.550 OA
ATOM     11  O   UNL     1     258.826 263.616 246.955  1.00  0.00    -0.550 OA
ENDBRANCH   8   9
ENDBRANCH   7   8
ENDBRANCH   6   7
ENDBRANCH   5   6
ENDBRANCH   4   5
ENDBRANCH   3   4
ENDBRANCH   2   3
ENDBRANCH   1   2
BRANCH   1  12
ATOM     12  C   UNL     1     253.668 257.707 248.202  1.00  0.00     0.000 C 
BRANCH  12  13
ATOM     13  C   UNL     1     255.152 257.463 248.496  1.00  0.00    -0.000 C 
BRANCH  13  14
ATOM     14  C   UNL     1     255.839 258.753 248.969  1.00  0.00    -0.000 C 
BRANCH  14  15
ATOM     15  C   UNL     1     255.113 259.416 250.153  1.00  0.00    -0.000 C 
BRANCH  15  16
ATOM     16  C   UNL     1     255.076 260.958 250.113  1.00  0.00    -0.000 C 
BRANCH  16  17
ATOM     17  C   UNL     1     255.412 261.657 251.445  1.00  0.00    -0.000 C 
BRANCH  17  18
ATOM     18  C   UNL     1     256.770 262.381 251.474  1.00  0.00    -0.000 C 
BRANCH  18  19
ATOM     19  C   UNL     1     257.567 262.201 250.173  1.00  0.00    -0.003 C 
ATOM     20  C   UNL     1     259.021 262.627 250.357  1.00  0.00     0.004 C 
ENDBRANCH  18  19
ENDBRANCH  17  18
ENDBRANCH  16  17
ENDBRANCH  15  16
ENDBRANCH  14  15
ENDBRANCH  13  14
ENDBRANCH  12  13
ENDBRANCH   1  12
TORSDOF 16
ENDMDL
MODEL 2
REMARK VINA RESULT:    -4.974      4.484      6.831
REMARK INTER + INTRA:         -11.617
REMARK INTER:                  -9.371
REMARK INTRA:                  -2.246
REMARK UNBOUND:                -1.990
REMARK SMILES CCCCCCCCCCCCCCCCCC(=O)[O-]
REMARK SMILES IDX 10 1 11 2 12 3 13 4 14 5 15 6 16 7 17 8 18 9 19 10 20 11
REMARK SMILES IDX 9 12 8 13 7 14 6 15 5 16 4 17 3 18 2 19 1 20
REMARK H PARENT
REMARK Flexibility Score: inf
ROOT
ATOM      1  C   UNL     1     251.696 258.557 247.010  1.00  0.00     0.000 C 
ENDROOT
BRANCH   1   2
ATOM      2  C   UNL     1     250.317 259.215 247.162  1.00  0.00     0.000 C 
BRANCH   2   3
ATOM      3  C   UNL     1     249.164 258.242 246.870  1.00  0.00     0.000 C 
BRANCH   3   4
ATOM      4  C   UNL     1     249.608 256.769 246.916  1.00  0.00     0.000 C 
BRANCH   4   5
ATOM      5  C   UNL     1     249.536 256.090 245.538  1.00  0.00     0.000 C 
BRANCH   5   6
ATOM      6  C   UNL     1     250.776 255.230 245.240  1.00  0.00     0.000 C 
BRANCH   6   7
ATOM      7  C   UNL     1     251.622 254.952 246.496  1.00  0.00     0.006 C 
BRANCH   7   8
ATOM      8  C   UNL     1     253.138 255.073 246.274  1.00  0.00     0.053 C 
BRANCH   8   9
ATOM      9  C   UNL     1     253.887 253.925 246.877  1.00  0.00     0.041 C 
ATOM     10  O   UNL     1     255.082 254.070 247.243  1.00  0.00    -0.550 OA
ATOM     11  O   UNL     1     253.253 252.703 247.068  1.00  0.00    -0.550 OA
ENDBRANCH   8   9
ENDBRANCH   7   8
ENDBRANCH   6   7
ENDBRANCH   5   6
ENDBRANCH   4   5
ENDBRANCH   3   4
ENDBRANCH   2   3
ENDBRANCH   1   2
BRANCH   1  12
ATOM     12  C   UNL     1     252.747 259.579 246.560  1.00  0.00     0.000 C 
BRANCH  12  13
ATOM     13  C   UNL     1     253.829 258.914 245.701  1.00  0.00    -0.000 C 
BRANCH  13  14
ATOM     14  C   UNL     1     254.844 259.950 245.195  1.00  0.00    -0.000 C 
BRANCH  14  15
ATOM     15  C   UNL     1     255.070 261.101 246.193  1.00  0.00    -0.000 C 
BRANCH  15  16
ATOM     16  C   UNL     1     255.991 260.760 247.383  1.00  0.00    -0.000 C 
BRANCH  16  17
ATOM     17  C   UNL     1     255.311 260.783 248.766  1.00  0.00    -0.000 C 
BRANCH  17  18
ATOM     18  C   UNL     1     255.650 259.588 249.675  1.00  0.00    -0.000 C 
BRANCH  18  19
ATOM     19  C   UNL     1     254.627 258.448 249.563  1.00  0.00    -0.003 C 
ATOM     20  C   UNL     1     255.154 257.322 248.680  1.00  0.00     0.004 C 
ENDBRANCH  18  19
ENDBRANCH  17  18
ENDBRANCH  16  17
ENDBRANCH  15  16
ENDBRANCH  14  15
ENDBRANCH  13  14
ENDBRANCH  12  13
ENDBRANCH   1  12
TORSDOF 16
ENDMDL
MODEL 3
REMARK VINA RESULT:    -4.973      3.253      5.888
REMARK INTER + INTRA:         -11.615
REMARK INTER:                  -9.328
REMARK INTRA:                  -2.287
REMARK UNBOUND:                -1.990
REMARK SMILES CCCCCCCCCCCCCCCCCC(=O)[O-]
REMARK SMILES IDX 10 1 11 2 12 3 13 4 14 5 15 6 16 7 17 8 18 9 19 10 20 11
REMARK SMILES IDX 9 12 8 13 7 14 6 15 5 16 4 17 3 18 2 19 1 20
REMARK H PARENT
REMARK Flexibility Score: inf
ROOT
ATOM      1  C   UNL     1     256.456 260.815 244.666  1.00  0.00     0.000 C 
ENDROOT
BRANCH   1   2
ATOM      2  C   UNL     1     255.936 260.917 246.108  1.00  0.00     0.000 C 
BRANCH   2   3
ATOM      3  C   UNL     1     254.404 261.008 246.177  1.00  0.00     0.000 C 
BRANCH   3   4
ATOM      4  C   UNL     1     253.836 260.435 247.488  1.00  0.00     0.000 C 
BRANCH   4   5
ATOM      5  C   UNL     1     254.926 260.194 248.545  1.00  0.00     0.000 C 
BRANCH   5   6
ATOM      6  C   UNL     1     254.861 261.209 249.699  1.00  0.00     0.000 C 
BRANCH   6   7
ATOM      7  C   UNL     1     255.803 260.848 250.861  1.00  0.00     0.006 C 
BRANCH   7   8
ATOM      8  C   UNL     1     255.742 261.822 252.049  1.00  0.00     0.053 C 
BRANCH   8   9
ATOM      9  C   UNL     1     255.099 261.203 253.251  1.00  0.00     0.041 C 
ATOM     10  O   UNL     1     253.847 261.092 253.313  1.00  0.00    -0.550 OA
ATOM     11  O   UNL     1     255.885 260.716 254.288  1.00  0.00    -0.550 OA
ENDBRANCH   8   9
ENDBRANCH   7   8
ENDBRANCH   6   7
ENDBRANCH   5   6
ENDBRANCH   4   5
ENDBRANCH   3   4
ENDBRANCH   2   3
ENDBRANCH   1   2
BRANCH   1  12
ATOM     12  C   UNL     1     257.857 261.426 244.543  1.00  0.00     0.000 C 
BRANCH  12  13
ATOM     13  C   UNL     1     257.901 262.831 245.155  1.00  0.00    -0.000 C 
BRANCH  13  14
ATOM     14  C   UNL     1     259.348 263.266 245.430  1.00  0.00    -0.000 C 
BRANCH  14  15
ATOM     15  C   UNL     1     259.825 262.894 246.845  1.00  0.00    -0.000 C 
BRANCH  15  16
ATOM     16  C   UNL     1     258.698 262.660 247.872  1.00  0.00    -0.000 C 
BRANCH  16  17
ATOM     17  C   UNL     1     258.831 261.372 248.709  1.00  0.00    -0.000 C 
BRANCH  17  18
ATOM     18  C   UNL     1     258.832 260.066 247.895  1.00  0.00    -0.000 C 
BRANCH  18  19
ATOM     19  C   UNL     1     260.237 259.468 247.733  1.00  0.00    -0.003 C 
ATOM     20  C   UNL     1     260.608 259.327 246.260  1.00  0.00     0.004 C 
ENDBRANCH  18  19
ENDBRANCH  17  18
ENDBRANCH  16  17
ENDBRANCH  15  16
ENDBRANCH  14  15
ENDBRANCH  13  14
ENDBRANCH  12  13
ENDBRANCH   1  12
TORSDOF 16
ENDMDL
MODEL 4
REMARK VINA RESULT:    -4.941      3.577      6.176
REMARK INTER + INTRA:         -11.552
REMARK INTER:                  -9.480
REMARK INTRA:                  -2.072
REMARK UNBOUND:                -1.990
REMARK SMILES CCCCCCCCCCCCCCCCCC(=O)[O-]
REMARK SMILES IDX 10 1 11 2 12 3 13 4 14 5 15 6 16 7 17 8 18 9 19 10 20 11
REMARK SMILES IDX 9 12 8 13 7 14 6 15 5 16 4 17 3 18 2 19 1 20
REMARK H PARENT
REMARK Flexibility Score: inf
ROOT
ATOM      1  C   UNL     1     255.181 257.853 248.564  1.00  0.00     0.000 C 
ENDROOT
BRANCH   1   2
ATOM      2  C   UNL     1     254.867 257.537 250.035  1.00  0.00     0.000 C 
BRANCH   2   3
ATOM      3  C   UNL     1     254.875 258.792 250.921  1.00  0.00     0.000 C 
BRANCH   3   4
ATOM      4  C   UNL     1     255.879 259.852 250.435  1.00  0.00     0.000 C 
BRANCH   4   5
ATOM      5  C   UNL     1     255.245 261.248 250.311  1.00  0.00     0.000 C 
BRANCH   5   6
ATOM      6  C   UNL     1     255.524 262.132 251.539  1.00  0.00     0.000 C 
BRANCH   6   7
ATOM      7  C   UNL     1     254.320 262.219 252.493  1.00  0.00     0.006 C 
BRANCH   7   8
ATOM      8  C   UNL     1     254.666 261.965 253.970  1.00  0.00     0.053 C 
BRANCH   8   9
ATOM      9  C   UNL     1     254.110 260.665 254.461  1.00  0.00     0.041 C 
ATOM     10  O   UNL     1     252.986 260.263 254.060  1.00  0.00    -0.550 OA
ATOM     11  O   UNL     1     254.850 259.877 255.335  1.00  0.00    -0.550 OA
ENDBRANCH   8   9
ENDBRANCH   7   8
ENDBRANCH   6   7
ENDBRANCH   5   6
ENDBRANCH   4   5
ENDBRANCH   3   4
ENDBRANCH   2   3
ENDBRANCH   1   2
BRANCH   1  12
ATOM     12  C   UNL     1     254.124 257.246 247.634  1.00  0.00     0.000 C 
BRANCH  12  13
ATOM     13  C   UNL     1     253.556 258.306 246.682  1.00  0.00    -0.000 C 
BRANCH  13  14
ATOM     14  C   UNL     1     253.382 259.653 247.400  1.00  0.00    -0.000 C 
BRANCH  14  15
ATOM     15  C   UNL     1     253.870 260.846 246.557  1.00  0.00    -0.000 C 
BRANCH  15  16
ATOM     16  C   UNL     1     254.933 260.500 245.494  1.00  0.00    -0.000 C 
BRANCH  16  17
ATOM     17  C   UNL     1     256.259 261.276 245.617  1.00  0.00    -0.000 C 
BRANCH  17  18
ATOM     18  C   UNL     1     256.975 261.127 246.971  1.00  0.00    -0.000 C 
BRANCH  18  19
ATOM     19  C   UNL     1     258.505 261.126 246.838  1.00  0.00    -0.003 C 
ATOM     20  C   UNL     1     259.145 260.189 247.859  1.00  0.00     0.004 C 
ENDBRANCH  18  19
ENDBRANCH  17  18
ENDBRANCH  16  17
ENDBRANCH  15  16
ENDBRANCH  14  15
ENDBRANCH  13  14
ENDBRANCH  12  13
ENDBRANCH   1  12
TORSDOF 16
ENDMDL
MODEL 5
REMARK VINA RESULT:    -4.915      2.816      5.115
REMARK INTER + INTRA:         -11.502
REMARK INTER:                  -9.160
REMARK INTRA:                  -2.343
REMARK UNBOUND:                -1.990
REMARK SMILES CCCCCCCCCCCCCCCCCC(=O)[O-]
REMARK SMILES IDX 10 1 11 2 12 3 13 4 14 5 15 6 16 7 17 8 18 9 19 10 20 11
REMARK SMILES IDX 9 12 8 13 7 14 6 15 5 16 4 17 3 18 2 19 1 20
REMARK H PARENT
REMARK Flexibility Score: inf
ROOT
ATOM      1  C   UNL     1     252.884 258.612 246.940  1.00  0.00     0.000 C 
ENDROOT
BRANCH   1   2
ATOM      2  C   UNL     1     254.066 257.633 246.890  1.00  0.00     0.000 C 
BRANCH   2   3
ATOM      3  C   UNL     1     254.449 257.100 248.279  1.00  0.00     0.000 C 
BRANCH   3   4
ATOM      4  C   UNL     1     254.468 258.204 249.351  1.00  0.00     0.000 C 
BRANCH   4   5
ATOM      5  C   UNL     1     255.693 259.125 249.225  1.00  0.00     0.000 C 
BRANCH   5   6
ATOM      6  C   UNL     1     255.322 260.614 249.318  1.00  0.00     0.000 C 
BRANCH   6   7
ATOM      7  C   UNL     1     255.887 261.290 250.581  1.00  0.00     0.006 C 
BRANCH   7   8
ATOM      8  C   UNL     1     255.205 260.854 251.888  1.00  0.00     0.053 C 
BRANCH   8   9
ATOM      9  C   UNL     1     254.634 262.018 252.638  1.00  0.00     0.041 C 
ATOM     10  O   UNL     1     255.019 262.266 253.811  1.00  0.00    -0.550 OA
ATOM     11  O   UNL     1     253.703 262.850 252.029  1.00  0.00    -0.550 OA
ENDBRANCH   8   9
ENDBRANCH   7   8
ENDBRANCH   6   7
ENDBRANCH   5   6
ENDBRANCH   4   5
ENDBRANCH   3   4
ENDBRANCH   2   3
ENDBRANCH   1   2
BRANCH   1  12
ATOM     12  C   UNL     1     253.253 259.954 246.296  1.00  0.00     0.000 C 
BRANCH  12  13
ATOM     13  C   UNL     1     254.501 259.817 245.416  1.00  0.00    -0.000 C 
BRANCH  13  14
ATOM     14  C   UNL     1     255.527 260.914 245.740  1.00  0.00    -0.000 C 
BRANCH  14  15
ATOM     15  C   UNL     1     256.707 260.938 244.752  1.00  0.00    -0.000 C 
BRANCH  15  16
ATOM     16  C   UNL     1     258.081 261.239 245.386  1.00  0.00    -0.000 C 
BRANCH  16  17
ATOM     17  C   UNL     1     258.037 261.706 246.855  1.00  0.00    -0.000 C 
BRANCH  17  18
ATOM     18  C   UNL     1     258.784 260.797 247.847  1.00  0.00    -0.000 C 
BRANCH  18  19
ATOM     19  C   UNL     1     259.324 261.562 249.063  1.00  0.00    -0.003 C 
ATOM     20  C   UNL     1     258.730 262.965 249.138  1.00  0.00     0.004 C 
ENDBRANCH  18  19
ENDBRANCH  17  18
ENDBRANCH  16  17
ENDBRANCH  15  16
ENDBRANCH  14  15
ENDBRANCH  13  14
ENDBRANCH  12  13
ENDBRANCH   1  12
TORSDOF 16
ENDMDL
MODEL 6
REMARK VINA RESULT:    -4.903      3.933      7.062
REMARK INTER + INTRA:         -11.480
REMARK INTER:                  -9.177
REMARK INTRA:                  -2.303
REMARK UNBOUND:                -1.990
REMARK SMILES CCCCCCCCCCCCCCCCCC(=O)[O-]
REMARK SMILES IDX 10 1 11 2 12 3 13 4 14 5 15 6 16 7 17 8 18 9 19 10 20 11
REMARK SMILES IDX 9 12 8 13 7 14 6 15 5 16 4 17 3 18 2 19 1 20
REMARK H PARENT
REMARK Flexibility Score: inf
ROOT
ATOM      1  C   UNL     1     253.566 258.816 245.960  1.00  0.00     0.000 C 
ENDROOT
BRANCH   1   2
ATOM      2  C   UNL     1     254.719 259.776 245.627  1.00  0.00     0.000 C 
BRANCH   2   3
ATOM      3  C   UNL     1     254.840 260.925 246.639  1.00  0.00     0.000 C 
BRANCH   3   4
ATOM      4  C   UNL     1     255.797 260.594 247.798  1.00  0.00     0.000 C 
BRANCH   4   5
ATOM      5  C   UNL     1     255.074 260.511 249.152  1.00  0.00     0.000 C 
BRANCH   5   6
ATOM      6  C   UNL     1     255.414 259.224 249.923  1.00  0.00     0.000 C 
BRANCH   6   7
ATOM      7  C   UNL     1     254.580 258.016 249.458  1.00  0.00     0.006 C 
BRANCH   7   8
ATOM      8  C   UNL     1     255.357 257.008 248.595  1.00  0.00     0.053 C 
BRANCH   8   9
ATOM      9  C   UNL     1     255.922 255.887 249.410  1.00  0.00     0.041 C 
ATOM     10  O   UNL     1     255.206 255.302 250.266  1.00  0.00    -0.550 OA
ATOM     11  O   UNL     1     257.228 255.463 249.201  1.00  0.00    -0.550 OA
ENDBRANCH   8   9
ENDBRANCH   7   8
ENDBRANCH   6   7
ENDBRANCH   5   6
ENDBRANCH   4   5
ENDBRANCH   3   4
ENDBRANCH   2   3
ENDBRANCH   1   2
BRANCH   1  12
ATOM     12  C   UNL     1     252.484 259.522 246.786  1.00  0.00     0.000 C 
BRANCH  12  13
ATOM     13  C   UNL     1     251.508 258.509 247.394  1.00  0.00    -0.000 C 
BRANCH  13  14
ATOM     14  C   UNL     1     250.052 258.916 247.123  1.00  0.00    -0.000 C 
BRANCH  14  15
ATOM     15  C   UNL     1     249.063 257.749 247.298  1.00  0.00    -0.000 C 
BRANCH  15  16
ATOM     16  C   UNL     1     249.641 256.354 246.983  1.00  0.00    -0.000 C 
BRANCH  16  17
ATOM     17  C   UNL     1     249.657 255.973 245.490  1.00  0.00    -0.000 C 
BRANCH  17  18
ATOM     18  C   UNL     1     250.786 255.010 245.078  1.00  0.00    -0.000 C 
BRANCH  18  19
ATOM     19  C   UNL     1     252.171 255.488 245.536  1.00  0.00    -0.003 C 
ATOM     20  C   UNL     1     252.790 254.507 246.528  1.00  0.00     0.004 C 
ENDBRANCH  18  19
ENDBRANCH  17  18
ENDBRANCH  16  17
ENDBRANCH  15  16
ENDBRANCH  14  15
ENDBRANCH  13  14
ENDBRANCH  12  13
ENDBRANCH   1  12
TORSDOF 16
ENDMDL
MODEL 7
REMARK VINA RESULT:    -4.882      3.498      5.741
REMARK INTER + INTRA:         -11.439
REMARK INTER:                  -9.034
REMARK INTRA:                  -2.404
REMARK UNBOUND:                -1.990
REMARK SMILES CCCCCCCCCCCCCCCCCC(=O)[O-]
REMARK SMILES IDX 10 1 11 2 12 3 13 4 14 5 15 6 16 7 17 8 18 9 19 10 20 11
REMARK SMILES IDX 9 12 8 13 7 14 6 15 5 16 4 17 3 18 2 19 1 20
REMARK H PARENT
REMARK Flexibility Score: inf
ROOT
ATOM      1  C   UNL     1     254.141 258.972 245.700  1.00  0.00     0.000 C 
ENDROOT
BRANCH   1   2
ATOM      2  C   UNL     1     254.575 260.365 246.182  1.00  0.00     0.000 C 
BRANCH   2   3
ATOM      3  C   UNL     1     253.602 260.965 247.207  1.00  0.00     0.000 C 
BRANCH   3   4
ATOM      4  C   UNL     1     254.201 261.031 248.623  1.00  0.00     0.000 C 
BRANCH   4   5
ATOM      5  C   UNL     1     255.720 260.789 248.631  1.00  0.00     0.000 C 
BRANCH   5   6
ATOM      6  C   UNL     1     256.288 260.661 250.054  1.00  0.00     0.000 C 
BRANCH   6   7
ATOM      7  C   UNL     1     255.237 260.950 251.141  1.00  0.00     0.006 C 
BRANCH   7   8
ATOM      8  C   UNL     1     255.562 262.164 252.026  1.00  0.00     0.053 C 
BRANCH   8   9
ATOM      9  C   UNL     1     255.470 261.839 253.484  1.00  0.00     0.041 C 
ATOM     10  O   UNL     1     256.396 262.174 254.268  1.00  0.00    -0.550 OA
ATOM     11  O   UNL     1     254.344 261.196 253.984  1.00  0.00    -0.550 OA
ENDBRANCH   8   9
ENDBRANCH   7   8
ENDBRANCH   6   7
ENDBRANCH   5   6
ENDBRANCH   4   5
ENDBRANCH   3   4
ENDBRANCH   2   3
ENDBRANCH   1   2
BRANCH   1  12
ATOM     12  C   UNL     1     252.967 258.443 246.534  1.00  0.00     0.000 C 
BRANCH  12  13
ATOM     13  C   UNL     1     253.022 256.916 246.654  1.00  0.00    -0.000 C 
BRANCH  13  14
ATOM     14  C   UNL     1     252.900 256.475 248.121  1.00  0.00    -0.000 C 
BRANCH  14  15
ATOM     15  C   UNL     1     253.541 257.475 249.100  1.00  0.00    -0.000 C 
BRANCH  15  16
ATOM     16  C   UNL     1     254.870 257.009 249.729  1.00  0.00    -0.000 C 
BRANCH  16  17
ATOM     17  C   UNL     1     256.095 257.073 248.795  1.00  0.00    -0.000 C 
BRANCH  17  18
ATOM     18  C   UNL     1     256.910 255.770 248.703  1.00  0.00    -0.000 C 
BRANCH  18  19
ATOM     19  C   UNL     1     256.053 254.561 248.302  1.00  0.00    -0.003 C 
ATOM     20  C   UNL     1     255.924 253.572 249.457  1.00  0.00     0.004 C 
ENDBRANCH  18  19
ENDBRANCH  17  18
ENDBRANCH  16  17
ENDBRANCH  15  16
ENDBRANCH  14  15
ENDBRANCH  13  14
ENDBRANCH  12  13
ENDBRANCH   1  12
TORSDOF 16
ENDMDL
MODEL 8
REMARK VINA RESULT:    -4.850      1.429      4.387
REMARK INTER + INTRA:         -11.377
REMARK INTER:                  -9.180
REMARK INTRA:                  -2.196
REMARK UNBOUND:                -1.990
REMARK SMILES CCCCCCCCCCCCCCCCCC(=O)[O-]
REMARK SMILES IDX 10 1 11 2 12 3 13 4 14 5 15 6 16 7 17 8 18 9 19 10 20 11
REMARK SMILES IDX 9 12 8 13 7 14 6 15 5 16 4 17 3 18 2 19 1 20
REMARK H PARENT
REMARK Flexibility Score: inf
ROOT
ATOM      1  C   UNL     1     255.010 257.261 248.692  1.00  0.00     0.000 C 
ENDROOT
BRANCH   1   2
ATOM      2  C   UNL     1     255.725 258.605 248.898  1.00  0.00     0.000 C 
BRANCH   2   3
ATOM      3  C   UNL     1     255.175 259.386 250.102  1.00  0.00     0.000 C 
BRANCH   3   4
ATOM      4  C   UNL     1     255.341 260.908 249.944  1.00  0.00     0.000 C 
BRANCH   4   5
ATOM      5  C   UNL     1     255.710 261.600 251.266  1.00  0.00     0.000 C 
BRANCH   5   6
ATOM      6  C   UNL     1     256.974 262.468 251.143  1.00  0.00     0.000 C 
BRANCH   6   7
ATOM      7  C   UNL     1     257.878 262.038 249.974  1.00  0.00     0.006 C 
BRANCH   7   8
ATOM      8  C   UNL     1     258.657 263.192 249.322  1.00  0.00     0.053 C 
BRANCH   8   9
ATOM      9  C   UNL     1     260.088 263.222 249.760  1.00  0.00     0.041 C 
ATOM     10  O   UNL     1     260.781 264.260 249.592  1.00  0.00    -0.550 OA
ATOM     11  O   UNL     1     260.649 262.116 250.387  1.00  0.00    -0.550 OA
ENDBRANCH   8   9
ENDBRANCH   7   8
ENDBRANCH   6   7
ENDBRANCH   5   6
ENDBRANCH   4   5
ENDBRANCH   3   4
ENDBRANCH   2   3
ENDBRANCH   1   2
BRANCH   1  12
ATOM     12  C   UNL     1     253.522 257.471 248.386  1.00  0.00     0.000 C 
BRANCH  12  13
ATOM     13  C   UNL     1     253.316 257.912 246.932  1.00  0.00    -0.000 C 
BRANCH  13  14
ATOM     14  C   UNL     1     252.567 259.252 246.865  1.00  0.00    -0.000 C 
BRANCH  14  15
ATOM     15  C   UNL     1     253.515 260.461 246.767  1.00  0.00    -0.000 C 
BRANCH  15  16
ATOM     16  C   UNL     1     254.135 260.691 245.373  1.00  0.00    -0.000 C 
BRANCH  16  17
ATOM     17  C   UNL     1     255.665 260.522 245.300  1.00  0.00    -0.000 C 
BRANCH  17  18
ATOM     18  C   UNL     1     256.449 261.216 246.429  1.00  0.00    -0.000 C 
BRANCH  18  19
ATOM     19  C   UNL     1     257.946 261.353 246.116  1.00  0.00    -0.003 C 
ATOM     20  C   UNL     1     258.195 261.341 244.611  1.00  0.00     0.004 C 
ENDBRANCH  18  19
ENDBRANCH  17  18
ENDBRANCH  16  17
ENDBRANCH  15  16
ENDBRANCH  14  15
ENDBRANCH  13  14
ENDBRANCH  12  13
ENDBRANCH   1  12
TORSDOF 16
ENDMDL
MODEL 9
REMARK VINA RESULT:    -4.827      3.399      5.862
REMARK INTER + INTRA:         -11.332
REMARK INTER:                  -8.956
REMARK INTRA:                  -2.376
REMARK UNBOUND:                -1.990
REMARK SMILES CCCCCCCCCCCCCCCCCC(=O)[O-]
REMARK SMILES IDX 10 1 11 2 12 3 13 4 14 5 15 6 16 7 17 8 18 9 19 10 20 11
REMARK SMILES IDX 9 12 8 13 7 14 6 15 5 16 4 17 3 18 2 19 1 20
REMARK H PARENT
REMARK Flexibility Score: inf
ROOT
ATOM      1  C   UNL     1     254.687 260.496 249.178  1.00  0.00     0.000 C 
ENDROOT
BRANCH   1   2
ATOM      2  C   UNL     1     254.462 260.937 247.724  1.00  0.00     0.000 C 
BRANCH   2   3
ATOM      3  C   UNL     1     253.052 260.601 247.218  1.00  0.00     0.000 C 
BRANCH   3   4
ATOM      4  C   UNL     1     252.971 259.203 246.579  1.00  0.00     0.000 C 
BRANCH   4   5
ATOM      5  C   UNL     1     252.138 258.221 247.419  1.00  0.00     0.000 C 
BRANCH   5   6
ATOM      6  C   UNL     1     253.014 257.289 248.273  1.00  0.00     0.000 C 
BRANCH   6   7
ATOM      7  C   UNL     1     254.414 257.074 247.673  1.00  0.00     0.006 C 
BRANCH   7   8
ATOM      8  C   UNL     1     255.514 256.811 248.715  1.00  0.00     0.053 C 
BRANCH   8   9
ATOM      9  C   UNL     1     255.899 255.365 248.773  1.00  0.00     0.041 C 
ATOM     10  O   UNL     1     256.276 254.853 249.860  1.00  0.00    -0.550 OA
ATOM     11  O   UNL     1     255.807 254.574 247.635  1.00  0.00    -0.550 OA
ENDBRANCH   8   9
ENDBRANCH   7   8
ENDBRANCH   6   7
ENDBRANCH   5   6
ENDBRANCH   4   5
ENDBRANCH   3   4
ENDBRANCH   2   3
ENDBRANCH   1   2
BRANCH   1  12
ATOM     12  C   UNL     1     256.181 260.486 249.526  1.00  0.00     0.000 C 
BRANCH  12  13
ATOM     13  C   UNL     1     257.034 260.222 248.280  1.00  0.00    -0.000 C 
BRANCH  13  14
ATOM     14  C   UNL     1     258.382 260.953 248.371  1.00  0.00    -0.000 C 
BRANCH  14  15
ATOM     15  C   UNL     1     258.227 262.461 248.640  1.00  0.00    -0.000 C 
BRANCH  15  16
ATOM     16  C   UNL     1     258.944 263.379 247.630  1.00  0.00    -0.000 C 
BRANCH  16  17
ATOM     17  C   UNL     1     259.490 262.672 246.374  1.00  0.00    -0.000 C 
BRANCH  17  18
ATOM     18  C   UNL     1     258.560 262.718 245.148  1.00  0.00    -0.000 C 
BRANCH  18  19
ATOM     19  C   UNL     1     258.242 261.322 244.591  1.00  0.00    -0.003 C 
ATOM     20  C   UNL     1     256.768 260.978 244.781  1.00  0.00     0.004 C 
ENDBRANCH  18  19
ENDBRANCH  17  18
ENDBRANCH  16  17
ENDBRANCH  15  16
ENDBRANCH  14  15
ENDBRANCH  13  14
ENDBRANCH  12  13
ENDBRANCH   1  12
TORSDOF 16
ENDMDL
