MODEL 1
REMARK VINA RESULT:    -3.372      0.000      0.000
REMARK INTER + INTRA:          -5.518
REMARK INTER:                  -4.950
REMARK INTRA:                  -0.568
REMARK UNBOUND:                -0.568
REMARK SMILES O=C([O-])CCCCCCCC(=O)[O-]
REMARK SMILES IDX 7 1 6 2 5 3 4 4 2 5 1 6 3 7 8 8 9 9 10 10 11 11 12 12 13 13
REMARK H PARENT
REMARK Flexibility Score: inf
ROOT
ATOM      1  C   UNL     1      57.724  28.969  51.469  1.00  0.00     0.000 C 
ENDROOT
BRANCH   1   2
ATOM      2  C   UNL     1      58.343  29.557  50.188  1.00  0.00     0.000 C 
BRANCH   2   3
ATOM      3  C   UNL     1      59.262  28.559  49.466  1.00  0.00     0.006 C 
BRANCH   3   4
ATOM      4  C   UNL     1      59.038  27.112  49.925  1.00  0.00     0.053 C 
BRANCH   4   5
ATOM      5  C   UNL     1      60.344  26.465  50.263  1.00  0.00     0.041 C 
ATOM      6  O   UNL     1      61.348  27.172  50.541  1.00  0.00    -0.550 OA
ATOM      7  O   UNL     1      60.441  25.080  50.316  1.00  0.00    -0.550 OA
ENDBRANCH   4   5
ENDBRANCH   3   4
ENDBRANCH   2   3
ENDBRANCH   1   2
BRANCH   1   8
ATOM      8  C   UNL     1      56.310  29.507  51.740  1.00  0.00     0.000 C 
BRANCH   8   9
ATOM      9  C   UNL     1      55.278  29.000  50.723  1.00  0.00     0.006 C 
BRANCH   9  10
ATOM     10  C   UNL     1      55.334  27.476  50.597  1.00  0.00     0.053 C 
BRANCH  10  11
ATOM     11  C   UNL     1      54.048  26.946  50.046  1.00  0.00     0.041 C 
ATOM     12  O   UNL     1      53.029  27.684  49.994  1.00  0.00    -0.550 OA
ATOM     13  O   UNL     1      53.987  25.653  49.542  1.00  0.00    -0.550 OA
ENDBRANCH  10  11
ENDBRANCH   9  10
ENDBRANCH   8   9
ENDBRANCH   1   8
TORSDOF 8
ENDMDL
MODEL 2
REMARK VINA RESULT:    -3.358      1.017      5.398
REMARK INTER + INTRA:          -5.497
REMARK INTER:                  -4.954
REMARK INTRA:                  -0.543
REMARK UNBOUND:                -0.568
REMARK SMILES O=C([O-])CCCCCCCC(=O)[O-]
REMARK SMILES IDX 7 1 6 2 5 3 4 4 2 5 1 6 3 7 8 8 9 9 10 10 11 11 12 12 13 13
REMARK H PARENT
REMARK Flexibility Score: inf
ROOT
ATOM      1  C   UNL     1      57.017  28.599  50.922  1.00  0.00     0.000 C 
ENDROOT
BRANCH   1   2
ATOM      2  C   UNL     1      55.608  29.198  50.768  1.00  0.00     0.000 C 
BRANCH   2   3
ATOM      3  C   UNL     1      54.559  28.147  50.371  1.00  0.00     0.006 C 
BRANCH   3   4
ATOM      4  C   UNL     1      55.149  26.734  50.275  1.00  0.00     0.053 C 
BRANCH   4   5
ATOM      5  C   UNL     1      54.164  25.724  50.774  1.00  0.00     0.041 C 
ATOM      6  O   UNL     1      54.076  25.481  52.006  1.00  0.00    -0.550 OA
ATOM      7  O   UNL     1      53.311  25.084  49.883  1.00  0.00    -0.550 OA
ENDBRANCH   4   5
ENDBRANCH   3   4
ENDBRANCH   2   3
ENDBRANCH   1   2
BRANCH   1   8
ATOM      8  C   UNL     1      58.098  29.446  50.233  1.00  0.00     0.000 C 
BRANCH   8   9
ATOM      9  C   UNL     1      59.137  28.591  49.493  1.00  0.00     0.006 C 
BRANCH   9  10
ATOM     10  C   UNL     1      58.993  27.112  49.859  1.00  0.00     0.053 C 
BRANCH  10  11
ATOM     11  C   UNL     1      60.239  26.611  50.520  1.00  0.00     0.041 C 
ATOM     12  O   UNL     1      60.894  27.363  51.288  1.00  0.00    -0.550 OA
ATOM     13  O   UNL     1      60.648  25.298  50.328  1.00  0.00    -0.550 OA
ENDBRANCH  10  11
ENDBRANCH   9  10
ENDBRANCH   8   9
ENDBRANCH   1   8
TORSDOF 8
ENDMDL
MODEL 3
REMARK VINA RESULT:    -3.264      1.112      5.033
REMARK INTER + INTRA:          -5.358
REMARK INTER:                  -4.848
REMARK INTRA:                  -0.510
REMARK UNBOUND:                -0.568
REMARK SMILES O=C([O-])CCCCCCCC(=O)[O-]
REMARK SMILES IDX 7 1 6 2 5 3 4 4 2 5 1 6 3 7 8 8 9 9 10 10 11 11 12 12 13 13
REMARK H PARENT
REMARK Flexibility Score: inf
ROOT
ATOM      1  C   UNL     1      57.102  29.464  51.735  1.00  0.00     0.000 C 
ENDROOT
BRANCH   1   2
ATOM      2  C   UNL     1      55.592  29.240  51.934  1.00  0.00     0.000 C 
BRANCH   2   3
ATOM      3  C   UNL     1      54.856  28.971  50.612  1.00  0.00     0.006 C 
BRANCH   3   4
ATOM      4  C   UNL     1      53.885  27.787  50.710  1.00  0.00     0.053 C 
BRANCH   4   5
ATOM      5  C   UNL     1      54.494  26.563  50.100  1.00  0.00     0.041 C 
ATOM      6  O   UNL     1      55.701  26.281  50.318  1.00  0.00    -0.550 OA
ATOM      7  O   UNL     1      53.715  25.708  49.330  1.00  0.00    -0.550 OA
ENDBRANCH   4   5
ENDBRANCH   3   4
ENDBRANCH   2   3
ENDBRANCH   1   2
BRANCH   1   8
ATOM      8  C   UNL     1      57.547  29.227  50.284  1.00  0.00     0.000 C 
BRANCH   8   9
ATOM      9  C   UNL     1      59.042  29.508  50.070  1.00  0.00     0.006 C 
BRANCH   9  10
ATOM     10  C   UNL     1      59.757  28.277  49.509  1.00  0.00     0.053 C 
BRANCH  10  11
ATOM     11  C   UNL     1      59.760  27.168  50.514  1.00  0.00     0.041 C 
ATOM     12  O   UNL     1      60.362  27.309  51.610  1.00  0.00    -0.550 OA
ATOM     13  O   UNL     1      59.055  25.999  50.261  1.00  0.00    -0.550 OA
ENDBRANCH  10  11
ENDBRANCH   9  10
ENDBRANCH   8   9
ENDBRANCH   1   8
TORSDOF 8
ENDMDL
MODEL 4
REMARK VINA RESULT:    -3.251      0.983      1.498
REMARK INTER + INTRA:          -5.340
REMARK INTER:                  -4.898
REMARK INTRA:                  -0.442
REMARK UNBOUND:                -0.568
REMARK SMILES O=C([O-])CCCCCCCC(=O)[O-]
REMARK SMILES IDX 7 1 6 2 5 3 4 4 2 5 1 6 3 7 8 8 9 9 10 10 11 11 12 12 13 13
REMARK H PARENT
REMARK Flexibility Score: inf
ROOT
ATOM      1  C   UNL     1      58.650  29.291  49.715  1.00  0.00     0.000 C 
ENDROOT
BRANCH   1   2
ATOM      2  C   UNL     1      59.842  28.327  49.574  1.00  0.00     0.000 C 
BRANCH   2   3
ATOM      3  C   UNL     1      59.459  26.867  49.864  1.00  0.00     0.006 C 
BRANCH   3   4
ATOM      4  C   UNL     1      60.266  26.265  51.022  1.00  0.00     0.053 C 
BRANCH   4   5
ATOM      5  C   UNL     1      61.081  25.106  50.540  1.00  0.00     0.041 C 
ATOM      6  O   UNL     1      62.338  25.160  50.571  1.00  0.00    -0.550 OA
ATOM      7  O   UNL     1      60.452  23.947  50.102  1.00  0.00    -0.550 OA
ENDBRANCH   4   5
ENDBRANCH   3   4
ENDBRANCH   2   3
ENDBRANCH   1   2
BRANCH   1   8
ATOM      8  C   UNL     1      57.806  29.006  50.968  1.00  0.00     0.000 C 
BRANCH   8   9
ATOM      9  C   UNL     1      56.319  28.803  50.645  1.00  0.00     0.006 C 
BRANCH   9  10
ATOM     10  C   UNL     1      55.940  27.322  50.711  1.00  0.00     0.053 C 
BRANCH  10  11
ATOM     11  C   UNL     1      54.560  27.108  50.175  1.00  0.00     0.041 C 
ATOM     12  O   UNL     1      53.721  28.046  50.192  1.00  0.00    -0.550 OA
ATOM     13  O   UNL     1      54.215  25.887  49.608  1.00  0.00    -0.550 OA
ENDBRANCH  10  11
ENDBRANCH   9  10
ENDBRANCH   8   9
ENDBRANCH   1   8
TORSDOF 8
ENDMDL
MODEL 5
REMARK VINA RESULT:    -3.215      1.523      2.036
REMARK INTER + INTRA:          -5.287
REMARK INTER:                  -4.934
REMARK INTRA:                  -0.353
REMARK UNBOUND:                -0.568
REMARK SMILES O=C([O-])CCCCCCCC(=O)[O-]
REMARK SMILES IDX 7 1 6 2 5 3 4 4 2 5 1 6 3 7 8 8 9 9 10 10 11 11 12 12 13 13
REMARK H PARENT
REMARK Flexibility Score: inf
ROOT
ATOM      1  C   UNL     1      55.575  29.419  51.468  1.00  0.00     0.000 C 
ENDROOT
BRANCH   1   2
ATOM      2  C   UNL     1      56.642  29.054  50.421  1.00  0.00     0.000 C 
BRANCH   2   3
ATOM      3  C   UNL     1      58.070  29.361  50.901  1.00  0.00     0.006 C 
BRANCH   3   4
ATOM      4  C   UNL     1      59.069  29.472  49.742  1.00  0.00     0.053 C 
BRANCH   4   5
ATOM      5  C   UNL     1      59.908  28.235  49.657  1.00  0.00     0.041 C 
ATOM      6  O   UNL     1      61.163  28.323  49.628  1.00  0.00    -0.550 OA
ATOM      7  O   UNL     1      59.304  26.984  49.658  1.00  0.00    -0.550 OA
ENDBRANCH   4   5
ENDBRANCH   3   4
ENDBRANCH   2   3
ENDBRANCH   1   2
BRANCH   1   8
ATOM      8  C   UNL     1      54.155  29.438  50.881  1.00  0.00     0.000 C 
BRANCH   8   9
ATOM      9  C   UNL     1      53.350  28.180  51.238  1.00  0.00     0.006 C 
BRANCH   9  10
ATOM     10  C   UNL     1      53.073  27.334  49.993  1.00  0.00     0.053 C 
BRANCH  10  11
ATOM     11  C   UNL     1      53.837  26.049  50.051  1.00  0.00     0.041 C 
ATOM     12  O   UNL     1      55.091  26.061  50.157  1.00  0.00    -0.550 OA
ATOM     13  O   UNL     1      53.159  24.836  50.039  1.00  0.00    -0.550 OA
ENDBRANCH  10  11
ENDBRANCH   9  10
ENDBRANCH   8   9
ENDBRANCH   1   8
TORSDOF 8
ENDMDL
MODEL 6
REMARK VINA RESULT:    -3.113     15.721     17.262
REMARK INTER + INTRA:          -5.137
REMARK INTER:                  -4.566
REMARK INTRA:                  -0.571
REMARK UNBOUND:                -0.568
REMARK SMILES O=C([O-])CCCCCCCC(=O)[O-]
REMARK SMILES IDX 7 1 6 2 5 3 4 4 2 5 1 6 3 7 8 8 9 9 10 10 11 11 12 12 13 13
REMARK H PARENT
REMARK Flexibility Score: inf
ROOT
ATOM      1  C   UNL     1      72.327  29.574  60.233  1.00  0.00     0.000 C 
ENDROOT
BRANCH   1   2
ATOM      2  C   UNL     1      72.738  30.640  61.264  1.00  0.00     0.000 C 
BRANCH   2   3
ATOM      3  C   UNL     1      71.969  31.958  61.089  1.00  0.00     0.006 C 
BRANCH   3   4
ATOM      4  C   UNL     1      71.291  32.066  59.717  1.00  0.00     0.053 C 
BRANCH   4   5
ATOM      5  C   UNL     1      70.388  33.260  59.674  1.00  0.00     0.041 C 
ATOM      6  O   UNL     1      70.389  34.088  60.623  1.00  0.00    -0.550 OA
ATOM      7  O   UNL     1      69.581  33.483  58.566  1.00  0.00    -0.550 OA
ENDBRANCH   4   5
ENDBRANCH   3   4
ENDBRANCH   2   3
ENDBRANCH   1   2
BRANCH   1   8
ATOM      8  C   UNL     1      71.455  28.466  60.846  1.00  0.00     0.000 C 
BRANCH   8   9
ATOM      9  C   UNL     1      69.954  28.700  60.617  1.00  0.00     0.006 C 
BRANCH   9  10
ATOM     10  C   UNL     1      69.280  29.220  61.889  1.00  0.00     0.053 C 
BRANCH  10  11
ATOM     11  C   UNL     1      67.905  28.645  62.027  1.00  0.00     0.041 C 
ATOM     12  O   UNL     1      67.617  27.924  63.017  1.00  0.00    -0.550 OA
ATOM     13  O   UNL     1      66.927  28.949  61.089  1.00  0.00    -0.550 OA
ENDBRANCH  10  11
ENDBRANCH   9  10
ENDBRANCH   8   9
ENDBRANCH   1   8
TORSDOF 8
ENDMDL
MODEL 7
REMARK VINA RESULT:    -3.102      1.271      5.198
REMARK INTER + INTRA:          -5.121
REMARK INTER:                  -4.600
REMARK INTRA:                  -0.521
REMARK UNBOUND:                -0.568
REMARK SMILES O=C([O-])CCCCCCCC(=O)[O-]
REMARK SMILES IDX 7 1 6 2 5 3 4 4 2 5 1 6 3 7 8 8 9 9 10 10 11 11 12 12 13 13
REMARK H PARENT
REMARK Flexibility Score: inf
ROOT
ATOM      1  C   UNL     1      58.845  29.636  49.933  1.00  0.00     0.000 C 
ENDROOT
BRANCH   1   2
ATOM      2  C   UNL     1      57.947  29.233  51.115  1.00  0.00     0.000 C 
BRANCH   2   3
ATOM      3  C   UNL     1      56.494  28.969  50.690  1.00  0.00     0.006 C 
BRANCH   3   4
ATOM      4  C   UNL     1      56.102  27.491  50.817  1.00  0.00     0.053 C 
BRANCH   4   5
ATOM      5  C   UNL     1      54.733  27.265  50.255  1.00  0.00     0.041 C 
ATOM      6  O   UNL     1      53.893  28.202  50.238  1.00  0.00    -0.550 OA
ATOM      7  O   UNL     1      54.401  26.032  49.706  1.00  0.00    -0.550 OA
ENDBRANCH   4   5
ENDBRANCH   3   4
ENDBRANCH   2   3
ENDBRANCH   1   2
BRANCH   1   8
ATOM      8  C   UNL     1      59.841  28.531  49.545  1.00  0.00     0.000 C 
BRANCH   8   9
ATOM      9  C   UNL     1      59.891  27.391  50.573  1.00  0.00     0.006 C 
BRANCH   9  10
ATOM     10  C   UNL     1      59.419  26.073  49.953  1.00  0.00     0.053 C 
BRANCH  10  11
ATOM     11  C   UNL     1      59.847  24.913  50.796  1.00  0.00     0.041 C 
ATOM     12  O   UNL     1      59.534  24.867  52.014  1.00  0.00    -0.550 OA
ATOM     13  O   UNL     1      60.547  23.859  50.225  1.00  0.00    -0.550 OA
ENDBRANCH  10  11
ENDBRANCH   9  10
ENDBRANCH   8   9
ENDBRANCH   1   8
TORSDOF 8
ENDMDL
MODEL 8
REMARK VINA RESULT:    -3.092      1.488      2.240
REMARK INTER + INTRA:          -5.106
REMARK INTER:                  -4.642
REMARK INTRA:                  -0.464
REMARK UNBOUND:                -0.568
REMARK SMILES O=C([O-])CCCCCCCC(=O)[O-]
REMARK SMILES IDX 7 1 6 2 5 3 4 4 2 5 1 6 3 7 8 8 9 9 10 10 11 11 12 12 13 13
REMARK H PARENT
REMARK Flexibility Score: inf
ROOT
ATOM      1  C   UNL     1      59.051  28.779  49.519  1.00  0.00     0.000 C 
ENDROOT
BRANCH   1   2
ATOM      2  C   UNL     1      59.060  27.268  49.809  1.00  0.00     0.000 C 
BRANCH   2   3
ATOM      3  C   UNL     1      60.431  26.766  50.288  1.00  0.00     0.006 C 
BRANCH   3   4
ATOM      4  C   UNL     1      61.412  27.912  50.571  1.00  0.00     0.053 C 
BRANCH   4   5
ATOM      5  C   UNL     1      62.729  27.645  49.912  1.00  0.00     0.041 C 
ATOM      6  O   UNL     1      63.145  28.405  48.998  1.00  0.00    -0.550 OA
ATOM      7  O   UNL     1      63.518  26.585  50.339  1.00  0.00    -0.550 OA
ENDBRANCH   4   5
ENDBRANCH   3   4
ENDBRANCH   2   3
ENDBRANCH   1   2
BRANCH   1   8
ATOM      8  C   UNL     1      57.975  29.528  50.321  1.00  0.00     0.000 C 
BRANCH   8   9
ATOM      9  C   UNL     1      57.031  28.579  51.074  1.00  0.00     0.006 C 
BRANCH   9  10
ATOM     10  C   UNL     1      55.576  28.809  50.659  1.00  0.00     0.053 C 
BRANCH  10  11
ATOM     11  C   UNL     1      54.832  27.512  50.611  1.00  0.00     0.041 C 
ATOM     12  O   UNL     1      53.680  27.424  51.111  1.00  0.00    -0.550 OA
ATOM     13  O   UNL     1      55.389  26.414  49.969  1.00  0.00    -0.550 OA
ENDBRANCH  10  11
ENDBRANCH   9  10
ENDBRANCH   8   9
ENDBRANCH   1   8
TORSDOF 8
ENDMDL
MODEL 9
REMARK VINA RESULT:    -3.046      2.350      5.492
REMARK INTER + INTRA:          -5.038
REMARK INTER:                  -4.457
REMARK INTRA:                  -0.581
REMARK UNBOUND:                -0.568
REMARK SMILES O=C([O-])CCCCCCCC(=O)[O-]
REMARK SMILES IDX 7 1 6 2 5 3 4 4 2 5 1 6 3 7 8 8 9 9 10 10 11 11 12 12 13 13
REMARK H PARENT
REMARK Flexibility Score: inf
ROOT
ATOM      1  C   UNL     1      57.920  25.987  51.566  1.00  0.00     0.000 C 
ENDROOT
BRANCH   1   2
ATOM      2  C   UNL     1      56.387  26.109  51.524  1.00  0.00     0.000 C 
BRANCH   2   3
ATOM      3  C   UNL     1      55.892  26.916  50.313  1.00  0.00     0.006 C 
BRANCH   3   4
ATOM      4  C   UNL     1      54.515  27.550  50.551  1.00  0.00     0.053 C 
BRANCH   4   5
ATOM      5  C   UNL     1      54.650  29.029  50.741  1.00  0.00     0.041 C 
ATOM      6  O   UNL     1      53.707  29.797  50.416  1.00  0.00    -0.550 OA
ATOM      7  O   UNL     1      55.797  29.554  51.322  1.00  0.00    -0.550 OA
ENDBRANCH   4   5
ENDBRANCH   3   4
ENDBRANCH   2   3
ENDBRANCH   1   2
BRANCH   1   8
ATOM      8  C   UNL     1      58.582  26.395  50.240  1.00  0.00     0.000 C 
BRANCH   8   9
ATOM      9  C   UNL     1      59.987  26.983  50.436  1.00  0.00     0.006 C 
BRANCH   9  10
ATOM     10  C   UNL     1      60.173  28.250  49.598  1.00  0.00     0.053 C 
BRANCH  10  11
ATOM     11  C   UNL     1      59.242  29.327  50.061  1.00  0.00     0.041 C 
ATOM     12  O   UNL     1      58.494  29.914  49.236  1.00  0.00    -0.550 OA
ATOM     13  O   UNL     1      59.163  29.646  51.410  1.00  0.00    -0.550 OA
ENDBRANCH  10  11
ENDBRANCH   9  10
ENDBRANCH   8   9
ENDBRANCH   1   8
TORSDOF 8
ENDMDL
