MODEL 1
REMARK VINA RESULT:    -0.895      0.000      0.000
REMARK INTER + INTRA:          -1.653
REMARK INTER:                  -1.366
REMARK INTRA:                  -0.286
REMARK UNBOUND:                -0.286
REMARK SMILES CC1=CCC[C@@H](C)C(=O)C[C@H](C(C)C)C(=O)C1
REMARK SMILES IDX 8 1 9 2 6 3 7 4 5 5 4 6 3 7 2 8 1 9 10 11 11 12 15 13 16 14
REMARK SMILES IDX 17 15 12 17 13 18 14 19
REMARK H PARENT
REMARK Flexibility Score: 70.00
ROOT
ATOM      1  C   UNL     1      90.532  27.139  13.745  1.00  0.00     0.136 C 
ATOM      2  O   UNL     1      90.907  26.074  14.218  1.00  0.00    -0.299 OA
ENDROOT
BRANCH   1   3
ATOM      3  C   UNL     1      90.244  27.230  12.241  1.00  0.00     0.053 C 
ATOM      4  C   UNL     1      89.181  26.191  11.836  1.00  0.00     0.016 C 
BRANCH   3   5
ATOM      5  C   UNL     1      91.506  27.046  11.349  1.00  0.00     0.015 C 
BRANCH   5   6
ATOM      6  C   UNL     1      92.333  28.341  11.177  1.00  0.00     0.028 C 
BRANCH   6   7
ATOM      7  C   UNL     1      91.451  29.566  11.081  1.00  0.00    -0.028 C 
ATOM      8  C   UNL     1      91.445  30.617  11.936  1.00  0.00    -0.070 CG0
ATOM      9  C   UNL     1      90.516  31.766  11.633  1.00  0.00     0.039 C 
ATOM     10  G   UNL     1      92.341  30.726  13.158  1.00  0.00     0.000 G0
ENDBRANCH   6   7
ENDBRANCH   5   6
ENDBRANCH   3   5
ENDBRANCH   1   3
BRANCH   1  11
ATOM     11  C   UNL     1      90.361  28.299  14.697  1.00  0.00     0.087 C 
BRANCH  11  12
ATOM     12  C   UNL     1      91.639  29.090  15.132  1.00  0.00     0.066 C 
BRANCH  12  13
ATOM     13  C   UNL     1      91.604  30.456  14.451  1.00  0.00     0.140 C 
ATOM     14  O   UNL     1      91.008  31.370  15.002  1.00  0.00    -0.299 OA
BRANCH  13  15
ATOM     15  C   UNL     1      92.339  30.752  13.161  1.00  0.00     0.106 CG0
ATOM     16  G   UNL     1      91.435  30.595  11.951  1.00  0.00     0.000 G0
ENDBRANCH  13  15
ENDBRANCH  12  13
BRANCH  12  17
ATOM     17  C   UNL     1      91.994  29.182  16.661  1.00  0.00    -0.006 C 
ATOM     18  C   UNL     1      91.932  27.809  17.370  1.00  0.00     0.008 C 
ATOM     19  C   UNL     1      93.414  29.755  16.870  1.00  0.00     0.008 C 
ENDBRANCH  12  17
ENDBRANCH  11  12
ENDBRANCH   1  11
TORSDOF 1
ENDMDL
MODEL 2
REMARK VINA RESULT:    -0.751      1.977      3.829
REMARK INTER + INTRA:          -1.433
REMARK INTER:                  -1.208
REMARK INTRA:                  -0.225
REMARK UNBOUND:                -0.286
REMARK SMILES CC1=CCC[C@@H](C)C(=O)C[C@H](C(C)C)C(=O)C1
REMARK SMILES IDX 8 1 9 2 6 3 7 4 5 5 4 6 3 7 2 8 1 9 10 11 11 12 15 13 16 14
REMARK SMILES IDX 17 15 12 17 13 18 14 19
REMARK H PARENT
REMARK Flexibility Score: 70.00
ROOT
ATOM      1  C   UNL     1      91.550  27.630  11.744  1.00  0.00     0.136 C 
ATOM      2  O   UNL     1      91.786  26.621  12.395  1.00  0.00    -0.299 OA
ENDROOT
BRANCH   1   3
ATOM      3  C   UNL     1      90.125  27.873  11.230  1.00  0.00     0.053 C 
ATOM      4  C   UNL     1      90.146  28.187   9.722  1.00  0.00     0.016 C 
BRANCH   3   5
ATOM      5  C   UNL     1      89.373  29.010  11.980  1.00  0.00     0.015 C 
BRANCH   5   6
ATOM      6  C   UNL     1      89.336  28.818  13.514  1.00  0.00     0.028 C 
BRANCH   6   7
ATOM      7  C   UNL     1      89.641  30.103  14.252  1.00  0.00    -0.028 C 
ATOM      8  C   UNL     1      90.849  30.478  14.739  1.00  0.00    -0.070 CG0
ATOM      9  C   UNL     1      90.950  31.827  15.406  1.00  0.00     0.039 C 
ATOM     10  G   UNL     1      92.111  29.641  14.624  1.00  0.00     0.000 G0
ENDBRANCH   6   7
ENDBRANCH   5   6
ENDBRANCH   3   5
ENDBRANCH   1   3
BRANCH   1  11
ATOM     11  C   UNL     1      92.694  28.587  11.507  1.00  0.00     0.087 C 
BRANCH  11  12
ATOM     12  C   UNL     1      92.557  30.048  12.051  1.00  0.00     0.066 C 
BRANCH  12  13
ATOM     13  C   UNL     1      93.009  30.055  13.508  1.00  0.00     0.140 C 
ATOM     14  O   UNL     1      94.125  30.479  13.774  1.00  0.00    -0.299 OA
BRANCH  13  15
ATOM     15  C   UNL     1      92.111  29.633  14.651  1.00  0.00     0.106 CG0
ATOM     16  G   UNL     1      90.854  30.481  14.719  1.00  0.00     0.000 G0
ENDBRANCH  13  15
ENDBRANCH  12  13
BRANCH  12  17
ATOM     17  C   UNL     1      93.173  31.231  11.216  1.00  0.00    -0.006 C 
ATOM     18  C   UNL     1      92.897  31.097   9.700  1.00  0.00     0.008 C 
ATOM     19  C   UNL     1      92.607  32.593  11.680  1.00  0.00     0.008 C 
ENDBRANCH  12  17
ENDBRANCH  11  12
ENDBRANCH   1  11
TORSDOF 1
ENDMDL
MODEL 3
REMARK VINA RESULT:    -0.619      2.291      4.180
REMARK INTER + INTRA:          -1.231
REMARK INTER:                  -1.131
REMARK INTRA:                  -0.101
REMARK UNBOUND:                -0.286
REMARK SMILES CC1=CCC[C@@H](C)C(=O)C[C@H](C(C)C)C(=O)C1
REMARK SMILES IDX 8 1 9 2 6 3 7 4 5 5 4 6 3 7 2 8 1 9 10 11 11 12 15 13 16 14
REMARK SMILES IDX 17 15 12 17 13 18 14 19
REMARK H PARENT
REMARK Flexibility Score: 70.00
ROOT
ATOM      1  C   UNL     1      91.070  30.056  12.702  1.00  0.00     0.136 C 
ATOM      2  O   UNL     1      90.327  30.812  12.090  1.00  0.00    -0.299 OA
ENDROOT
BRANCH   1   3
ATOM      3  C   UNL     1      90.986  28.548  12.438  1.00  0.00     0.053 C 
ATOM      4  C   UNL     1      91.439  28.230  11.001  1.00  0.00     0.016 C 
BRANCH   3   5
ATOM      5  C   UNL     1      89.570  27.947  12.674  1.00  0.00     0.015 C 
BRANCH   5   6
ATOM      6  C   UNL     1      89.171  27.880  14.166  1.00  0.00     0.028 C 
BRANCH   6   7
ATOM      7  C   UNL     1      90.142  27.046  14.973  1.00  0.00    -0.028 C 
ATOM      8  C   UNL     1      90.862  27.468  16.041  1.00  0.00    -0.070 CG0
ATOM      9  C   UNL     1      91.742  26.460  16.738  1.00  0.00     0.039 C 
ATOM     10  G   UNL     1      90.811  28.879  16.600  1.00  0.00     0.000 G0
ENDBRANCH   6   7
ENDBRANCH   5   6
ENDBRANCH   3   5
ENDBRANCH   1   3
BRANCH   1  11
ATOM     11  C   UNL     1      92.043  30.679  13.675  1.00  0.00     0.087 C 
BRANCH  11  12
ATOM     12  C   UNL     1      91.548  30.966  15.131  1.00  0.00     0.066 C 
BRANCH  12  13
ATOM     13  C   UNL     1      91.885  29.753  15.993  1.00  0.00     0.140 C 
ATOM     14  O   UNL     1      93.057  29.528  16.255  1.00  0.00    -0.299 OA
BRANCH  13  15
ATOM     15  C   UNL     1      90.828  28.858  16.605  1.00  0.00     0.106 CG0
ATOM     16  G   UNL     1      90.874  27.457  16.022  1.00  0.00     0.000 G0
ENDBRANCH  13  15
ENDBRANCH  12  13
BRANCH  12  17
ATOM     17  C   UNL     1      91.941  32.327  15.815  1.00  0.00    -0.006 C 
ATOM     18  C   UNL     1      93.317  32.854  15.345  1.00  0.00     0.008 C 
ATOM     19  C   UNL     1      90.892  33.423  15.518  1.00  0.00     0.008 C 
ENDBRANCH  12  17
ENDBRANCH  11  12
ENDBRANCH   1  11
TORSDOF 1
ENDMDL
MODEL 4
REMARK VINA RESULT:    -0.609      2.786      4.238
REMARK INTER + INTRA:          -1.216
REMARK INTER:                  -0.964
REMARK INTRA:                  -0.251
REMARK UNBOUND:                -0.286
REMARK SMILES CC1=CCC[C@@H](C)C(=O)C[C@H](C(C)C)C(=O)C1
REMARK SMILES IDX 8 1 9 2 6 3 7 4 5 5 4 6 3 7 2 8 1 9 10 11 11 12 15 13 16 14
REMARK SMILES IDX 17 15 12 17 13 18 14 19
REMARK H PARENT
REMARK Flexibility Score: 70.00
ROOT
ATOM      1  C   UNL     1      92.341  28.258  17.522  1.00  0.00     0.136 C 
ATOM      2  O   UNL     1      93.413  28.136  18.102  1.00  0.00    -0.299 OA
ENDROOT
BRANCH   1   3
ATOM      3  C   UNL     1      91.469  27.018  17.293  1.00  0.00     0.053 C 
ATOM      4  C   UNL     1      91.802  26.373  15.935  1.00  0.00     0.016 C 
BRANCH   3   5
ATOM      5  C   UNL     1      89.941  27.305  17.362  1.00  0.00     0.015 C 
BRANCH   5   6
ATOM      6  C   UNL     1      89.214  27.098  16.013  1.00  0.00     0.028 C 
BRANCH   6   7
ATOM      7  C   UNL     1      88.158  28.155  15.772  1.00  0.00    -0.028 C 
ATOM      8  C   UNL     1      88.308  29.282  15.034  1.00  0.00    -0.070 CG0
ATOM      9  C   UNL     1      87.111  30.187  14.881  1.00  0.00     0.039 C 
ATOM     10  G   UNL     1      89.593  29.671  14.325  1.00  0.00     0.000 G0
ENDBRANCH   6   7
ENDBRANCH   5   6
ENDBRANCH   3   5
ENDBRANCH   1   3
BRANCH   1  11
ATOM     11  C   UNL     1      91.944  29.649  17.087  1.00  0.00     0.087 C 
BRANCH  11  12
ATOM     12  C   UNL     1      91.927  29.964  15.555  1.00  0.00     0.066 C 
BRANCH  12  13
ATOM     13  C   UNL     1      90.530  30.460  15.190  1.00  0.00     0.140 C 
ATOM     14  O   UNL     1      90.181  31.565  15.577  1.00  0.00    -0.299 OA
BRANCH  13  15
ATOM     15  C   UNL     1      89.584  29.678  14.304  1.00  0.00     0.106 CG0
ATOM     16  G   UNL     1      88.316  29.290  15.042  1.00  0.00     0.000 G0
ENDBRANCH  13  15
ENDBRANCH  12  13
BRANCH  12  17
ATOM     17  C   UNL     1      93.069  30.861  14.950  1.00  0.00    -0.006 C 
ATOM     18  C   UNL     1      94.470  30.482  15.484  1.00  0.00     0.008 C 
ATOM     19  C   UNL     1      93.106  30.750  13.408  1.00  0.00     0.008 C 
ENDBRANCH  12  17
ENDBRANCH  11  12
ENDBRANCH   1  11
TORSDOF 1
ENDMDL
MODEL 5
REMARK VINA RESULT:    -0.551      2.092      2.948
REMARK INTER + INTRA:          -1.128
REMARK INTER:                  -0.873
REMARK INTRA:                  -0.255
REMARK UNBOUND:                -0.286
REMARK SMILES CC1=CCC[C@@H](C)C(=O)C[C@H](C(C)C)C(=O)C1
REMARK SMILES IDX 8 1 9 2 6 3 7 4 5 5 4 6 3 7 2 8 1 9 10 11 11 12 15 13 16 14
REMARK SMILES IDX 17 15 12 17 13 18 14 19
REMARK H PARENT
REMARK Flexibility Score: 70.00
ROOT
ATOM      1  C   UNL     1      89.385  28.099  11.812  1.00  0.00     0.136 C 
ATOM      2  O   UNL     1      88.293  27.831  12.294  1.00  0.00    -0.299 OA
ENDROOT
BRANCH   1   3
ATOM      3  C   UNL     1      90.275  26.961  11.296  1.00  0.00     0.053 C 
ATOM      4  C   UNL     1      91.512  26.798  12.198  1.00  0.00     0.016 C 
BRANCH   3   5
ATOM      5  C   UNL     1      90.738  27.146   9.821  1.00  0.00     0.015 C 
BRANCH   5   6
ATOM      6  C   UNL     1      92.153  27.756   9.692  1.00  0.00     0.028 C 
BRANCH   6   7
ATOM      7  C   UNL     1      92.150  29.017   8.856  1.00  0.00    -0.028 C 
ATOM      8  C   UNL     1      92.499  30.257   9.278  1.00  0.00    -0.070 CG0
ATOM      9  C   UNL     1      92.471  31.377   8.269  1.00  0.00     0.039 C 
ATOM     10  G   UNL     1      92.949  30.580  10.692  1.00  0.00     0.000 G0
ENDBRANCH   6   7
ENDBRANCH   5   6
ENDBRANCH   3   5
ENDBRANCH   1   3
BRANCH   1  11
ATOM     11  C   UNL     1      89.773  29.557  11.742  1.00  0.00     0.087 C 
BRANCH  11  12
ATOM     12  C   UNL     1      91.069  30.011  12.492  1.00  0.00     0.066 C 
BRANCH  12  13
ATOM     13  C   UNL     1      91.815  30.994  11.593  1.00  0.00     0.140 C 
ATOM     14  O   UNL     1      91.517  32.178  11.646  1.00  0.00    -0.299 OA
BRANCH  13  15
ATOM     15  C   UNL     1      92.961  30.581  10.696  1.00  0.00     0.106 CG0
ATOM     16  G   UNL     1      92.488  30.269   9.288  1.00  0.00     0.000 G0
ENDBRANCH  13  15
ENDBRANCH  12  13
BRANCH  12  17
ATOM     17  C   UNL     1      90.951  30.513  13.978  1.00  0.00    -0.006 C 
ATOM     18  C   UNL     1      89.521  30.977  14.339  1.00  0.00     0.008 C 
ATOM     19  C   UNL     1      91.351  29.401  14.974  1.00  0.00     0.008 C 
ENDBRANCH  12  17
ENDBRANCH  11  12
ENDBRANCH   1  11
TORSDOF 1
ENDMDL
MODEL 6
REMARK VINA RESULT:    -0.500      2.312      5.375
REMARK INTER + INTRA:          -1.050
REMARK INTER:                  -0.866
REMARK INTRA:                  -0.184
REMARK UNBOUND:                -0.286
REMARK SMILES CC1=CCC[C@@H](C)C(=O)C[C@H](C(C)C)C(=O)C1
REMARK SMILES IDX 8 1 9 2 6 3 7 4 5 5 4 6 3 7 2 8 1 9 10 11 11 12 15 13 16 14
REMARK SMILES IDX 17 15 12 17 13 18 14 19
REMARK H PARENT
REMARK Flexibility Score: 70.00
ROOT
ATOM      1  C   UNL     1      91.330  31.891  10.412  1.00  0.00     0.136 C 
ATOM      2  O   UNL     1      91.319  32.578   9.400  1.00  0.00    -0.299 OA
ENDROOT
BRANCH   1   3
ATOM      3  C   UNL     1      92.188  32.329  11.605  1.00  0.00     0.053 C 
ATOM      4  C   UNL     1      92.494  33.837  11.519  1.00  0.00     0.016 C 
BRANCH   3   5
ATOM      5  C   UNL     1      93.524  31.543  11.740  1.00  0.00     0.015 C 
BRANCH   5   6
ATOM      6  C   UNL     1      93.727  30.909  13.136  1.00  0.00     0.028 C 
BRANCH   6   7
ATOM      7  C   UNL     1      92.465  30.961  13.969  1.00  0.00    -0.028 C 
ATOM      8  C   UNL     1      91.508  30.003  14.032  1.00  0.00    -0.070 CG0
ATOM      9  C   UNL     1      90.345  30.231  14.965  1.00  0.00     0.039 C 
ATOM     10  G   UNL     1      91.553  28.702  13.251  1.00  0.00     0.000 G0
ENDBRANCH   6   7
ENDBRANCH   5   6
ENDBRANCH   3   5
ENDBRANCH   1   3
BRANCH   1  11
ATOM     11  C   UNL     1      90.467  30.651  10.418  1.00  0.00     0.087 C 
BRANCH  11  12
ATOM     12  C   UNL     1      91.161  29.272  10.671  1.00  0.00     0.066 C 
BRANCH  12  13
ATOM     13  C   UNL     1      90.673  28.736  12.014  1.00  0.00     0.140 C 
ATOM     14  O   UNL     1      89.547  28.266  12.083  1.00  0.00    -0.299 OA
BRANCH  13  15
ATOM     15  C   UNL     1      91.547  28.688  13.249  1.00  0.00     0.106 CG0
ATOM     16  G   UNL     1      91.513  30.000  14.011  1.00  0.00     0.000 G0
ENDBRANCH  13  15
ENDBRANCH  12  13
BRANCH  12  17
ATOM     17  C   UNL     1      91.130  28.185   9.534  1.00  0.00    -0.006 C 
ATOM     18  C   UNL     1      91.864  28.643   8.252  1.00  0.00     0.008 C 
ATOM     19  C   UNL     1      91.786  26.867  10.006  1.00  0.00     0.008 C 
ENDBRANCH  12  17
ENDBRANCH  11  12
ENDBRANCH   1  11
TORSDOF 1
ENDMDL
MODEL 7
REMARK VINA RESULT:    -0.489      3.162      5.145
REMARK INTER + INTRA:          -1.033
REMARK INTER:                  -0.799
REMARK INTRA:                  -0.234
REMARK UNBOUND:                -0.286
REMARK SMILES CC1=CCC[C@@H](C)C(=O)C[C@H](C(C)C)C(=O)C1
REMARK SMILES IDX 8 1 9 2 6 3 7 4 5 5 4 6 3 7 2 8 1 9 10 11 11 12 15 13 16 14
REMARK SMILES IDX 17 15 12 17 13 18 14 19
REMARK H PARENT
REMARK Flexibility Score: 70.00
ROOT
ATOM      1  C   UNL     1      89.585  28.511  11.395  1.00  0.00     0.136 C 
ATOM      2  O   UNL     1      88.692  28.879  12.146  1.00  0.00    -0.299 OA
ENDROOT
BRANCH   1   3
ATOM      3  C   UNL     1      90.462  27.320  11.802  1.00  0.00     0.053 C 
ATOM      4  C   UNL     1      91.652  27.797  12.655  1.00  0.00     0.016 C 
BRANCH   3   5
ATOM      5  C   UNL     1      90.995  26.493  10.596  1.00  0.00     0.015 C 
BRANCH   5   6
ATOM      6  C   UNL     1      92.505  26.696  10.330  1.00  0.00     0.028 C 
BRANCH   6   7
ATOM      7  C   UNL     1      92.813  26.767   8.851  1.00  0.00    -0.028 C 
ATOM      8  C   UNL     1      93.078  27.893   8.143  1.00  0.00    -0.070 CG0
ATOM      9  C   UNL     1      93.408  27.741   6.679  1.00  0.00     0.039 C 
ATOM     10  G   UNL     1      93.099  29.289   8.739  1.00  0.00     0.000 G0
ENDBRANCH   6   7
ENDBRANCH   5   6
ENDBRANCH   3   5
ENDBRANCH   1   3
BRANCH   1  11
ATOM     11  C   UNL     1      89.748  29.258  10.093  1.00  0.00     0.087 C 
BRANCH  11  12
ATOM     12  C   UNL     1      90.930  30.275   9.969  1.00  0.00     0.066 C 
BRANCH  12  13
ATOM     13  C   UNL     1      91.719  29.933   8.709  1.00  0.00     0.140 C 
ATOM     14  O   UNL     1      91.254  30.250   7.623  1.00  0.00    -0.299 OA
BRANCH  13  15
ATOM     15  C   UNL     1      93.088  29.289   8.743  1.00  0.00     0.106 CG0
ATOM     16  G   UNL     1      93.070  27.898   8.135  1.00  0.00     0.000 G0
ENDBRANCH  13  15
ENDBRANCH  12  13
BRANCH  12  17
ATOM     17  C   UNL     1      90.626  31.813  10.100  1.00  0.00    -0.006 C 
ATOM     18  C   UNL     1      89.630  32.130  11.239  1.00  0.00     0.008 C 
ATOM     19  C   UNL     1      91.920  32.615  10.370  1.00  0.00     0.008 C 
ENDBRANCH  12  17
ENDBRANCH  11  12
ENDBRANCH   1  11
TORSDOF 1
ENDMDL
MODEL 8
REMARK VINA RESULT:    -0.474      2.195      4.231
REMARK INTER + INTRA:          -1.010
REMARK INTER:                  -0.729
REMARK INTRA:                  -0.281
REMARK UNBOUND:                -0.286
REMARK SMILES CC1=CCC[C@@H](C)C(=O)C[C@H](C(C)C)C(=O)C1
REMARK SMILES IDX 8 1 9 2 6 3 7 4 5 5 4 6 3 7 2 8 1 9 10 11 11 12 15 13 16 14
REMARK SMILES IDX 17 15 12 17 13 18 14 19
REMARK H PARENT
REMARK Flexibility Score: 70.00
ROOT
ATOM      1  C   UNL     1      90.404  32.391  12.854  1.00  0.00     0.136 C 
ATOM      2  O   UNL     1      90.743  33.472  13.315  1.00  0.00    -0.299 OA
ENDROOT
BRANCH   1   3
ATOM      3  C   UNL     1      88.927  32.151  12.515  1.00  0.00     0.053 C 
ATOM      4  C   UNL     1      88.180  31.593  13.741  1.00  0.00     0.016 C 
BRANCH   3   5
ATOM      5  C   UNL     1      88.708  31.197  11.305  1.00  0.00     0.015 C 
BRANCH   5   6
ATOM      6  C   UNL     1      88.184  29.800  11.709  1.00  0.00     0.028 C 
BRANCH   6   7
ATOM      7  C   UNL     1      88.849  28.696  10.917  1.00  0.00    -0.028 C 
ATOM      8  C   UNL     1      89.828  27.870  11.363  1.00  0.00    -0.070 CG0
ATOM      9  C   UNL     1      90.326  26.800  10.424  1.00  0.00     0.039 C 
ATOM     10  G   UNL     1      90.426  27.934  12.756  1.00  0.00     0.000 G0
ENDBRANCH   6   7
ENDBRANCH   5   6
ENDBRANCH   3   5
ENDBRANCH   1   3
BRANCH   1  11
ATOM     11  C   UNL     1      91.487  31.362  12.630  1.00  0.00     0.087 C 
BRANCH  11  12
ATOM     12  C   UNL     1      91.588  30.168  13.636  1.00  0.00     0.066 C 
BRANCH  12  13
ATOM     13  C   UNL     1      91.609  28.872  12.831  1.00  0.00     0.140 C 
ATOM     14  O   UNL     1      92.646  28.548  12.271  1.00  0.00    -0.299 OA
BRANCH  13  15
ATOM     15  C   UNL     1      90.428  27.928  12.757  1.00  0.00     0.106 CG0
ATOM     16  G   UNL     1      89.837  27.877  11.360  1.00  0.00     0.000 G0
ENDBRANCH  13  15
ENDBRANCH  12  13
BRANCH  12  17
ATOM     17  C   UNL     1      92.691  30.208  14.757  1.00  0.00    -0.006 C 
ATOM     18  C   UNL     1      93.918  31.059  14.354  1.00  0.00     0.008 C 
ATOM     19  C   UNL     1      92.127  30.788  16.074  1.00  0.00     0.008 C 
ENDBRANCH  12  17
ENDBRANCH  11  12
ENDBRANCH   1  11
TORSDOF 1
ENDMDL
MODEL 9
REMARK VINA RESULT:    -0.467      2.778      4.097
REMARK INTER + INTRA:          -0.999
REMARK INTER:                  -0.713
REMARK INTRA:                  -0.285
REMARK UNBOUND:                -0.286
REMARK SMILES CC1=CCC[C@@H](C)C(=O)C[C@H](C(C)C)C(=O)C1
REMARK SMILES IDX 8 1 9 2 6 3 7 4 5 5 4 6 3 7 2 8 1 9 10 11 11 12 15 13 16 14
REMARK SMILES IDX 17 15 12 17 13 18 14 19
REMARK H PARENT
REMARK Flexibility Score: 70.00
ROOT
ATOM      1  C   UNL     1      89.188  31.184  12.004  1.00  0.00     0.136 C 
ATOM      2  O   UNL     1      88.599  31.699  12.946  1.00  0.00    -0.299 OA
ENDROOT
BRANCH   1   3
ATOM      3  C   UNL     1      88.469  30.123  11.161  1.00  0.00     0.053 C 
ATOM      4  C   UNL     1      87.121  30.668  10.651  1.00  0.00     0.016 C 
BRANCH   3   5
ATOM      5  C   UNL     1      88.228  28.783  11.913  1.00  0.00     0.015 C 
BRANCH   5   6
ATOM      6  C   UNL     1      89.532  28.026  12.258  1.00  0.00     0.028 C 
BRANCH   6   7
ATOM      7  C   UNL     1      90.427  27.865  11.049  1.00  0.00    -0.028 C 
ATOM      8  C   UNL     1      91.742  28.184  10.979  1.00  0.00    -0.070 CG0
ATOM      9  C   UNL     1      92.468  27.900   9.687  1.00  0.00     0.039 C 
ATOM     10  G   UNL     1      92.537  28.776  12.129  1.00  0.00     0.000 G0
ENDBRANCH   6   7
ENDBRANCH   5   6
ENDBRANCH   3   5
ENDBRANCH   1   3
BRANCH   1  11
ATOM     11  C   UNL     1      90.595  31.655  11.726  1.00  0.00     0.087 C 
BRANCH  11  12
ATOM     12  C   UNL     1      91.721  31.250  12.735  1.00  0.00     0.066 C 
BRANCH  12  13
ATOM     13  C   UNL     1      92.665  30.284  12.026  1.00  0.00     0.140 C 
ATOM     14  O   UNL     1      93.606  30.742  11.394  1.00  0.00    -0.299 OA
BRANCH  13  15
ATOM     15  C   UNL     1      92.538  28.779  12.133  1.00  0.00     0.106 CG0
ATOM     16  G   UNL     1      91.742  28.200  10.978  1.00  0.00     0.000 G0
ENDBRANCH  13  15
ENDBRANCH  12  13
BRANCH  12  17
ATOM     17  C   UNL     1      92.482  32.381  13.520  1.00  0.00    -0.006 C 
ATOM     18  C   UNL     1      92.347  33.767  12.848  1.00  0.00     0.008 C 
ATOM     19  C   UNL     1      91.954  32.506  14.967  1.00  0.00     0.008 C 
ENDBRANCH  12  17
ENDBRANCH  11  12
ENDBRANCH   1  11
TORSDOF 1
ENDMDL
