MODEL 1
REMARK VINA RESULT:    -6.958      0.000      0.000
REMARK INTER + INTRA:          -9.481
REMARK INTER:                  -9.195
REMARK INTRA:                  -0.286
REMARK UNBOUND:                -0.286
REMARK SMILES CC(C)=CCC[C@H](C(=O)[O-])[C@H]1CC[C@@]2(C)C3=C(CC[C@@]12C)[C@]1(C)CC[C@@H](O)C(C)(C)[C@H]1CC3
REMARK SMILES IDX 6 1 7 2 8 3 9 4 10 5 11 6 12 7 20 8 13 9 14 10 19 11 21 12
REMARK SMILES IDX 15 13 16 14 18 15 17 16 33 17 22 18 32 19 31 20 24 21 23 22
REMARK SMILES IDX 28 23 25 24 26 25 29 26 30 27 27 28 5 30 4 31 2 32 1 33 3 34
REMARK H PARENT 27 29
REMARK Flexibility Score: inf
ROOT
ATOM      1  C   UNL     1      16.115  -5.046  16.184  1.00  0.00     0.014 C 
ENDROOT
BRANCH   1   2
ATOM      2  C   UNL     1      15.536  -5.235  17.622  1.00  0.00     0.039 C 
BRANCH   2   3
ATOM      3  C   UNL     1      14.151  -5.833  17.591  1.00  0.00     0.045 C 
ATOM      4  O   UNL     1      13.697  -6.298  16.513  1.00  0.00    -0.550 OA
ATOM      5  O   UNL     1      13.375  -5.914  18.743  1.00  0.00    -0.550 OA
ENDBRANCH   2   3
BRANCH   2   6
ATOM      6  C   UNL     1      15.626  -4.025  18.625  1.00  0.00     0.004 C 
ATOM      7  C   UNL     1      16.007  -4.443  20.047  1.00  0.00     0.006 C 
ATOM      8  C   UNL     1      16.404  -2.701  18.295  1.00  0.00    -0.020 C 
ATOM      9  C   UNL     1      16.511  -3.202  20.763  1.00  0.00     0.012 C 
ATOM     10  C   UNL     1      16.650  -2.042  19.731  1.00  0.00    -0.006 C 
ATOM     11  C   UNL     1      17.745  -2.921  17.543  1.00  0.00     0.012 C 
ATOM     12  C   UNL     1      15.545  -1.808  17.345  1.00  0.00     0.012 C 
ATOM     13  C   UNL     1      15.545  -0.993  20.076  1.00  0.00     0.017 C 
ATOM     14  C   UNL     1      18.079  -1.446  19.897  1.00  0.00    -0.064 C 
ATOM     15  C   UNL     1      18.893  -3.299  18.466  1.00  0.00     0.032 C 
ATOM     16  C   UNL     1      19.159  -2.169  19.441  1.00  0.00    -0.064 C 
ATOM     17  C   UNL     1      18.259  -0.147  20.704  1.00  0.00     0.032 C 
ATOM     18  C   UNL     1      20.602  -1.682  19.687  1.00  0.00    -0.008 C 
ATOM     19  C   UNL     1      19.704   0.273  21.040  1.00  0.00     0.009 C 
ATOM     20  C   UNL     1      20.605  -0.966  21.091  1.00  0.00     0.007 C 
ATOM     21  C   UNL     1      21.676  -2.832  19.699  1.00  0.00     0.014 C 
ATOM     22  C   UNL     1      20.914  -0.744  18.486  1.00  0.00     0.016 C 
ATOM     23  C   UNL     1      22.011  -0.818  21.787  1.00  0.00    -0.006 C 
ATOM     24  C   UNL     1      22.003  -3.352  21.098  1.00  0.00     0.033 C 
ATOM     25  C   UNL     1      22.632  -2.259  21.998  1.00  0.00     0.120 C 
ATOM     26  C   UNL     1      22.965   0.099  20.979  1.00  0.00     0.014 C 
ATOM     27  C   UNL     1      21.852  -0.171  23.188  1.00  0.00     0.014 C 
BRANCH  25  28
ATOM     28  O   UNL     1      24.027  -2.238  21.820  1.00  0.00    -0.393 OA
ATOM     29  H   UNL     1      24.199  -2.069  20.854  1.00  0.00     0.210 HD
ENDBRANCH  25  28
ENDBRANCH   2   6
ENDBRANCH   1   2
BRANCH   1  30
ATOM     30  C   UNL     1      17.219  -6.070  15.885  1.00  0.00     0.028 C 
BRANCH  30  31
ATOM     31  C   UNL     1      16.693  -7.207  15.043  1.00  0.00    -0.028 C 
ATOM     32  C   UNL     1      17.452  -8.210  14.549  1.00  0.00    -0.080 C 
ATOM     33  C   UNL     1      18.944  -8.271  14.773  1.00  0.00     0.039 C 
ATOM     34  C   UNL     1      16.780  -9.278  13.725  1.00  0.00     0.039 C 
ENDBRANCH  30  31
ENDBRANCH   1  30
TORSDOF 6
ENDMDL
MODEL 2
REMARK VINA RESULT:    -6.504     12.212     15.455
REMARK INTER + INTRA:          -8.882
REMARK INTER:                  -8.578
REMARK INTRA:                  -0.303
REMARK UNBOUND:                -0.286
REMARK SMILES CC(C)=CCC[C@H](C(=O)[O-])[C@H]1CC[C@@]2(C)C3=C(CC[C@@]12C)[C@]1(C)CC[C@@H](O)C(C)(C)[C@H]1CC3
REMARK SMILES IDX 6 1 7 2 8 3 9 4 10 5 11 6 12 7 20 8 13 9 14 10 19 11 21 12
REMARK SMILES IDX 15 13 16 14 18 15 17 16 33 17 22 18 32 19 31 20 24 21 23 22
REMARK SMILES IDX 28 23 25 24 26 25 29 26 30 27 27 28 5 30 4 31 2 32 1 33 3 34
REMARK H PARENT 27 29
REMARK Flexibility Score: inf
ROOT
ATOM      1  C   UNL     1      16.589 -16.163  11.383  1.00  0.00     0.014 C 
ENDROOT
BRANCH   1   2
ATOM      2  C   UNL     1      16.717 -17.346  12.394  1.00  0.00     0.039 C 
BRANCH   2   3
ATOM      3  C   UNL     1      17.565 -18.464  11.841  1.00  0.00     0.045 C 
ATOM      4  O   UNL     1      18.434 -19.006  12.573  1.00  0.00    -0.550 OA
ATOM      5  O   UNL     1      17.383 -18.934  10.544  1.00  0.00    -0.550 OA
ENDBRANCH   2   3
BRANCH   2   6
ATOM      6  C   UNL     1      15.402 -17.891  13.069  1.00  0.00     0.004 C 
ATOM      7  C   UNL     1      15.508 -18.011  14.591  1.00  0.00     0.006 C 
ATOM      8  C   UNL     1      13.975 -17.326  12.735  1.00  0.00    -0.020 C 
ATOM      9  C   UNL     1      14.092 -18.078  15.137  1.00  0.00     0.012 C 
ATOM     10  C   UNL     1      13.088 -17.788  13.982  1.00  0.00    -0.006 C 
ATOM     11  C   UNL     1      13.927 -15.784  12.553  1.00  0.00     0.012 C 
ATOM     12  C   UNL     1      13.482 -17.913  11.375  1.00  0.00     0.012 C 
ATOM     13  C   UNL     1      12.337 -19.125  13.687  1.00  0.00     0.017 C 
ATOM     14  C   UNL     1      12.114 -16.681  14.486  1.00  0.00    -0.064 C 
ATOM     15  C   UNL     1      13.856 -15.030  13.871  1.00  0.00     0.032 C 
ATOM     16  C   UNL     1      12.575 -15.389  14.598  1.00  0.00    -0.064 C 
ATOM     17  C   UNL     1      10.717 -17.088  14.992  1.00  0.00     0.032 C 
ATOM     18  C   UNL     1      11.691 -14.280  15.204  1.00  0.00    -0.008 C 
ATOM     19  C   UNL     1       9.884 -15.998  15.695  1.00  0.00     0.009 C 
ATOM     20  C   UNL     1      10.818 -14.959  16.327  1.00  0.00     0.007 C 
ATOM     21  C   UNL     1      12.498 -13.087  15.837  1.00  0.00     0.014 C 
ATOM     22  C   UNL     1      10.874 -13.724  14.003  1.00  0.00     0.016 C 
ATOM     23  C   UNL     1      10.206 -13.988  17.407  1.00  0.00    -0.006 C 
ATOM     24  C   UNL     1      12.719 -13.226  17.344  1.00  0.00     0.033 C 
ATOM     25  C   UNL     1      11.385 -13.223  18.134  1.00  0.00     0.120 C 
ATOM     26  C   UNL     1       9.185 -13.001  16.787  1.00  0.00     0.014 C 
ATOM     27  C   UNL     1       9.443 -14.799  18.488  1.00  0.00     0.014 C 
BRANCH  25  28
ATOM     28  O   UNL     1      11.015 -11.901  18.440  1.00  0.00    -0.393 OA
ATOM     29  H   UNL     1      10.021 -11.865  18.443  1.00  0.00     0.210 HD
ENDBRANCH  25  28
ENDBRANCH   2   6
ENDBRANCH   1   2
BRANCH   1  30
ATOM     30  C   UNL     1      17.959 -15.549  11.062  1.00  0.00     0.028 C 
BRANCH  30  31
ATOM     31  C   UNL     1      17.811 -14.252  10.303  1.00  0.00    -0.028 C 
ATOM     32  C   UNL     1      17.995 -14.119   8.971  1.00  0.00    -0.080 C 
ATOM     33  C   UNL     1      18.407 -15.281   8.098  1.00  0.00     0.039 C 
ATOM     34  C   UNL     1      17.809 -12.756   8.356  1.00  0.00     0.039 C 
ENDBRANCH  30  31
ENDBRANCH   1  30
TORSDOF 6
ENDMDL
MODEL 3
REMARK VINA RESULT:    -6.336     12.142     15.886
REMARK INTER + INTRA:          -8.659
REMARK INTER:                  -7.354
REMARK INTRA:                  -1.306
REMARK UNBOUND:                -0.286
REMARK SMILES CC(C)=CCC[C@H](C(=O)[O-])[C@H]1CC[C@@]2(C)C3=C(CC[C@@]12C)[C@]1(C)CC[C@@H](O)C(C)(C)[C@H]1CC3
REMARK SMILES IDX 6 1 7 2 8 3 9 4 10 5 11 6 12 7 20 8 13 9 14 10 19 11 21 12
REMARK SMILES IDX 15 13 16 14 18 15 17 16 33 17 22 18 32 19 31 20 24 21 23 22
REMARK SMILES IDX 28 23 25 24 26 25 29 26 30 27 27 28 5 30 4 31 2 32 1 33 3 34
REMARK H PARENT 27 29
REMARK Flexibility Score: inf
ROOT
ATOM      1  C   UNL     1      10.801 -13.159  18.491  1.00  0.00     0.014 C 
ENDROOT
BRANCH   1   2
ATOM      2  C   UNL     1       9.459 -13.955  18.549  1.00  0.00     0.039 C 
BRANCH   2   3
ATOM      3  C   UNL     1       9.188 -14.492  19.932  1.00  0.00     0.045 C 
ATOM      4  O   UNL     1      10.153 -14.783  20.687  1.00  0.00    -0.550 OA
ATOM      5  O   UNL     1       7.889 -14.641  20.407  1.00  0.00    -0.550 OA
ENDBRANCH   2   3
BRANCH   2   6
ATOM      6  C   UNL     1       9.190 -15.040  17.439  1.00  0.00     0.004 C 
ATOM      7  C   UNL     1       9.176 -14.465  16.021  1.00  0.00     0.006 C 
ATOM      8  C   UNL     1       9.950 -16.413  17.388  1.00  0.00    -0.020 C 
ATOM      9  C   UNL     1       9.383 -15.625  15.062  1.00  0.00     0.012 C 
ATOM     10  C   UNL     1       9.740 -16.903  15.881  1.00  0.00    -0.006 C 
ATOM     11  C   UNL     1      11.460 -16.319  17.741  1.00  0.00     0.012 C 
ATOM     12  C   UNL     1       9.344 -17.390  18.445  1.00  0.00     0.012 C 
ATOM     13  C   UNL     1       8.523 -17.874  15.758  1.00  0.00     0.017 C 
ATOM     14  C   UNL     1      11.026 -17.511  15.247  1.00  0.00    -0.064 C 
ATOM     15  C   UNL     1      12.319 -15.864  16.573  1.00  0.00     0.032 C 
ATOM     16  C   UNL     1      12.231 -16.876  15.448  1.00  0.00    -0.064 C 
ATOM     17  C   UNL     1      10.893 -18.710  14.290  1.00  0.00     0.032 C 
ATOM     18  C   UNL     1      13.514 -17.368  14.746  1.00  0.00    -0.008 C 
ATOM     19  C   UNL     1      12.156 -19.125  13.509  1.00  0.00     0.009 C 
ATOM     20  C   UNL     1      13.077 -17.912  13.332  1.00  0.00     0.007 C 
ATOM     21  C   UNL     1      14.607 -16.253  14.548  1.00  0.00     0.014 C 
ATOM     22  C   UNL     1      14.097 -18.450  15.699  1.00  0.00     0.016 C 
ATOM     23  C   UNL     1      14.218 -18.012  12.250  1.00  0.00    -0.006 C 
ATOM     24  C   UNL     1      14.555 -15.578  13.177  1.00  0.00     0.033 C 
ATOM     25  C   UNL     1      14.837 -16.574  12.024  1.00  0.00     0.120 C 
ATOM     26  C   UNL     1      15.305 -19.043  12.646  1.00  0.00     0.014 C 
ATOM     27  C   UNL     1      13.631 -18.483  10.893  1.00  0.00     0.014 C 
BRANCH  25  28
ATOM     28  O   UNL     1      16.222 -16.652  11.789  1.00  0.00    -0.393 OA
ATOM     29  H   UNL     1      16.610 -17.228  12.501  1.00  0.00     0.210 HD
ENDBRANCH  25  28
ENDBRANCH   2   6
ENDBRANCH   1   2
BRANCH   1  30
ATOM     30  C   UNL     1      10.809 -12.159  17.325  1.00  0.00     0.028 C 
BRANCH  30  31
ATOM     31  C   UNL     1      12.035 -12.340  16.462  1.00  0.00    -0.028 C 
ATOM     32  C   UNL     1      12.075 -12.110  15.131  1.00  0.00    -0.080 C 
ATOM     33  C   UNL     1      10.856 -11.668  14.356  1.00  0.00     0.039 C 
ATOM     34  C   UNL     1      13.376 -12.334  14.405  1.00  0.00     0.039 C 
ENDBRANCH  30  31
ENDBRANCH   1  30
TORSDOF 6
ENDMDL
MODEL 4
REMARK VINA RESULT:    -6.311      1.946      3.396
REMARK INTER + INTRA:          -8.626
REMARK INTER:                  -8.647
REMARK INTRA:                   0.021
REMARK UNBOUND:                -0.286
REMARK SMILES CC(C)=CCC[C@H](C(=O)[O-])[C@H]1CC[C@@]2(C)C3=C(CC[C@@]12C)[C@]1(C)CC[C@@H](O)C(C)(C)[C@H]1CC3
REMARK SMILES IDX 6 1 7 2 8 3 9 4 10 5 11 6 12 7 20 8 13 9 14 10 19 11 21 12
REMARK SMILES IDX 15 13 16 14 18 15 17 16 33 17 22 18 32 19 31 20 24 21 23 22
REMARK SMILES IDX 28 23 25 24 26 25 29 26 30 27 27 28 5 30 4 31 2 32 1 33 3 34
REMARK H PARENT 27 29
REMARK Flexibility Score: inf
ROOT
ATOM      1  C   UNL     1      15.962  -5.961  15.725  1.00  0.00     0.014 C 
ENDROOT
BRANCH   1   2
ATOM      2  C   UNL     1      16.485  -5.327  17.052  1.00  0.00     0.039 C 
BRANCH   2   3
ATOM      3  C   UNL     1      15.438  -4.461  17.708  1.00  0.00     0.045 C 
ATOM      4  O   UNL     1      15.374  -3.237  17.421  1.00  0.00    -0.550 OA
ATOM      5  O   UNL     1      14.516  -4.997  18.601  1.00  0.00    -0.550 OA
ENDBRANCH   2   3
BRANCH   2   6
ATOM      6  C   UNL     1      17.895  -4.625  17.035  1.00  0.00     0.004 C 
ATOM      7  C   UNL     1      17.816  -3.114  16.810  1.00  0.00     0.006 C 
ATOM      8  C   UNL     1      18.991  -4.886  18.129  1.00  0.00    -0.020 C 
ATOM      9  C   UNL     1      19.134  -2.518  17.277  1.00  0.00     0.012 C 
ATOM     10  C   UNL     1      19.964  -3.625  17.993  1.00  0.00    -0.006 C 
ATOM     11  C   UNL     1      18.431  -5.009  19.573  1.00  0.00     0.012 C 
ATOM     12  C   UNL     1      19.701  -6.248  17.850  1.00  0.00     0.012 C 
ATOM     13  C   UNL     1      21.186  -3.942  17.074  1.00  0.00     0.017 C 
ATOM     14  C   UNL     1      20.414  -3.045  19.367  1.00  0.00    -0.064 C 
ATOM     15  C   UNL     1      18.175  -3.662  20.231  1.00  0.00     0.032 C 
ATOM     16  C   UNL     1      19.479  -2.903  20.368  1.00  0.00    -0.064 C 
ATOM     17  C   UNL     1      21.848  -2.504  19.518  1.00  0.00     0.032 C 
ATOM     18  C   UNL     1      19.844  -2.224  21.704  1.00  0.00    -0.008 C 
ATOM     19  C   UNL     1      22.172  -1.731  20.811  1.00  0.00     0.009 C 
ATOM     20  C   UNL     1      20.893  -1.096  21.369  1.00  0.00     0.007 C 
ATOM     21  C   UNL     1      18.621  -1.577  22.453  1.00  0.00     0.014 C 
ATOM     22  C   UNL     1      20.399  -3.374  22.594  1.00  0.00     0.016 C 
ATOM     23  C   UNL     1      21.052   0.040  22.449  1.00  0.00    -0.006 C 
ATOM     24  C   UNL     1      18.444  -0.086  22.166  1.00  0.00     0.033 C 
ATOM     25  C   UNL     1      19.653   0.751  22.654  1.00  0.00     0.120 C 
ATOM     26  C   UNL     1      21.614  -0.505  23.787  1.00  0.00     0.014 C 
ATOM     27  C   UNL     1      22.052   1.118  21.952  1.00  0.00     0.014 C 
BRANCH  25  28
ATOM     28  O   UNL     1      19.467   1.120  23.999  1.00  0.00    -0.393 OA
ATOM     29  H   UNL     1      19.504   2.113  24.041  1.00  0.00     0.210 HD
ENDBRANCH  25  28
ENDBRANCH   2   6
ENDBRANCH   1   2
BRANCH   1  30
ATOM     30  C   UNL     1      17.035  -6.834  15.059  1.00  0.00     0.028 C 
BRANCH  30  31
ATOM     31  C   UNL     1      16.414  -8.014  14.350  1.00  0.00    -0.028 C 
ATOM     32  C   UNL     1      17.100  -9.094  13.916  1.00  0.00    -0.080 C 
ATOM     33  C   UNL     1      18.597  -9.212  14.077  1.00  0.00     0.039 C 
ATOM     34  C   UNL     1      16.338 -10.195  13.225  1.00  0.00     0.039 C 
ENDBRANCH  30  31
ENDBRANCH   1  30
TORSDOF 6
ENDMDL
MODEL 5
REMARK VINA RESULT:    -6.149     13.550     15.976
REMARK INTER + INTRA:          -8.413
REMARK INTER:                  -8.124
REMARK INTRA:                  -0.288
REMARK UNBOUND:                -0.286
REMARK SMILES CC(C)=CCC[C@H](C(=O)[O-])[C@H]1CC[C@@]2(C)C3=C(CC[C@@]12C)[C@]1(C)CC[C@@H](O)C(C)(C)[C@H]1CC3
REMARK SMILES IDX 6 1 7 2 8 3 9 4 10 5 11 6 12 7 20 8 13 9 14 10 19 11 21 12
REMARK SMILES IDX 15 13 16 14 18 15 17 16 33 17 22 18 32 19 31 20 24 21 23 22
REMARK SMILES IDX 28 23 25 24 26 25 29 26 30 27 27 28 5 30 4 31 2 32 1 33 3 34
REMARK H PARENT 27 29
REMARK Flexibility Score: inf
ROOT
ATOM      1  C   UNL     1      16.781 -15.791  11.536  1.00  0.00     0.014 C 
ENDROOT
BRANCH   1   2
ATOM      2  C   UNL     1      16.870 -17.226  12.145  1.00  0.00     0.039 C 
BRANCH   2   3
ATOM      3  C   UNL     1      17.772 -18.122  11.333  1.00  0.00     0.045 C 
ATOM      4  O   UNL     1      18.711 -18.740  11.901  1.00  0.00    -0.550 OA
ATOM      5  O   UNL     1      17.565 -18.308   9.970  1.00  0.00    -0.550 OA
ENDBRANCH   2   3
BRANCH   2   6
ATOM      6  C   UNL     1      15.529 -17.951  12.538  1.00  0.00     0.004 C 
ATOM      7  C   UNL     1      15.659 -18.835  13.780  1.00  0.00     0.006 C 
ATOM      8  C   UNL     1      14.151 -17.203  12.630  1.00  0.00    -0.020 C 
ATOM      9  C   UNL     1      14.257 -19.078  14.311  1.00  0.00     0.012 C 
ATOM     10  C   UNL     1      13.255 -18.175  13.530  1.00  0.00    -0.006 C 
ATOM     11  C   UNL     1      14.238 -15.783  13.256  1.00  0.00     0.012 C 
ATOM     12  C   UNL     1      13.575 -16.982  11.196  1.00  0.00     0.012 C 
ATOM     13  C   UNL     1      12.380 -19.124  12.650  1.00  0.00     0.017 C 
ATOM     14  C   UNL     1      12.397 -17.418  14.586  1.00  0.00    -0.064 C 
ATOM     15  C   UNL     1      14.266 -15.801  14.775  1.00  0.00     0.032 C 
ATOM     16  C   UNL     1      12.976 -16.396  15.305  1.00  0.00    -0.064 C 
ATOM     17  C   UNL     1      10.982 -17.933  14.909  1.00  0.00     0.032 C 
ATOM     18  C   UNL     1      12.210 -15.694  16.445  1.00  0.00    -0.008 C 
ATOM     19  C   UNL     1      10.268 -17.300  16.120  1.00  0.00     0.009 C 
ATOM     20  C   UNL     1      11.306 -16.791  17.126  1.00  0.00     0.007 C 
ATOM     21  C   UNL     1      13.137 -15.045  17.539  1.00  0.00     0.014 C 
ATOM     22  C   UNL     1      11.419 -14.552  15.746  1.00  0.00     0.016 C 
ATOM     23  C   UNL     1      10.810 -16.466  18.587  1.00  0.00    -0.006 C 
ATOM     24  C   UNL     1      13.379 -15.945  18.751  1.00  0.00     0.033 C 
ATOM     25  C   UNL     1      12.071 -16.257  19.520  1.00  0.00     0.120 C 
ATOM     26  C   UNL     1       9.868 -15.237  18.619  1.00  0.00     0.014 C 
ATOM     27  C   UNL     1      10.003 -17.662  19.158  1.00  0.00     0.014 C 
BRANCH  25  28
ATOM     28  O   UNL     1      11.829 -15.253  20.476  1.00  0.00    -0.393 OA
ATOM     29  H   UNL     1      11.230 -15.643  21.168  1.00  0.00     0.210 HD
ENDBRANCH  25  28
ENDBRANCH   2   6
ENDBRANCH   1   2
BRANCH   1  30
ATOM     30  C   UNL     1      18.150 -15.306  11.040  1.00  0.00     0.028 C 
BRANCH  30  31
ATOM     31  C   UNL     1      18.006 -14.128  10.107  1.00  0.00    -0.028 C 
ATOM     32  C   UNL     1      18.110 -14.198   8.762  1.00  0.00    -0.080 C 
ATOM     33  C   UNL     1      18.419 -15.492   8.048  1.00  0.00     0.039 C 
ATOM     34  C   UNL     1      17.939 -12.931   7.963  1.00  0.00     0.039 C 
ENDBRANCH  30  31
ENDBRANCH   1  30
TORSDOF 6
ENDMDL
MODEL 6
REMARK VINA RESULT:    -5.467      9.932     15.341
REMARK INTER + INTRA:          -7.511
REMARK INTER:                  -6.944
REMARK INTRA:                  -0.567
REMARK UNBOUND:                -0.286
REMARK SMILES CC(C)=CCC[C@H](C(=O)[O-])[C@H]1CC[C@@]2(C)C3=C(CC[C@@]12C)[C@]1(C)CC[C@@H](O)C(C)(C)[C@H]1CC3
REMARK SMILES IDX 6 1 7 2 8 3 9 4 10 5 11 6 12 7 20 8 13 9 14 10 19 11 21 12
REMARK SMILES IDX 15 13 16 14 18 15 17 16 33 17 22 18 32 19 31 20 24 21 23 22
REMARK SMILES IDX 28 23 25 24 26 25 29 26 30 27 27 28 5 30 4 31 2 32 1 33 3 34
REMARK H PARENT 27 29
REMARK Flexibility Score: inf
ROOT
ATOM      1  C   UNL     1      19.118 -13.932  11.838  1.00  0.00     0.014 C 
ENDROOT
BRANCH   1   2
ATOM      2  C   UNL     1      17.979 -14.604  11.007  1.00  0.00     0.039 C 
BRANCH   2   3
ATOM      3  C   UNL     1      18.006 -16.107  11.137  1.00  0.00     0.045 C 
ATOM      4  O   UNL     1      19.098 -16.693  11.358  1.00  0.00    -0.550 OA
ATOM      5  O   UNL     1      16.839 -16.859  11.053  1.00  0.00    -0.550 OA
ENDBRANCH   2   3
BRANCH   2   6
ATOM      6  C   UNL     1      17.785 -14.152   9.511  1.00  0.00     0.004 C 
ATOM      7  C   UNL     1      17.555 -12.647   9.358  1.00  0.00     0.006 C 
ATOM      8  C   UNL     1      18.741 -14.607   8.352  1.00  0.00    -0.020 C 
ATOM      9  C   UNL     1      17.854 -12.290   7.912  1.00  0.00     0.012 C 
ATOM     10  C   UNL     1      18.476 -13.529   7.201  1.00  0.00    -0.006 C 
ATOM     11  C   UNL     1      20.244 -14.648   8.745  1.00  0.00     0.012 C 
ATOM     12  C   UNL     1      18.392 -16.067   7.923  1.00  0.00     0.012 C 
ATOM     13  C   UNL     1      17.419 -14.039   6.171  1.00  0.00     0.017 C 
ATOM     14  C   UNL     1      19.780 -13.049   6.497  1.00  0.00    -0.064 C 
ATOM     15  C   UNL     1      20.914 -13.285   8.688  1.00  0.00     0.032 C 
ATOM     16  C   UNL     1      20.884 -12.760   7.267  1.00  0.00    -0.064 C 
ATOM     17  C   UNL     1      19.750 -12.761   4.984  1.00  0.00     0.032 C 
ATOM     18  C   UNL     1      22.160 -12.167   6.633  1.00  0.00    -0.008 C 
ATOM     19  C   UNL     1      20.988 -12.068   4.380  1.00  0.00     0.009 C 
ATOM     20  C   UNL     1      21.689 -11.230   5.456  1.00  0.00     0.007 C 
ATOM     21  C   UNL     1      23.044 -11.329   7.630  1.00  0.00     0.014 C 
ATOM     22  C   UNL     1      22.988 -13.403   6.179  1.00  0.00     0.016 C 
ATOM     23  C   UNL     1      22.731 -10.149   4.977  1.00  0.00    -0.006 C 
ATOM     24  C   UNL     1      22.765  -9.827   7.583  1.00  0.00     0.033 C 
ATOM     25  C   UNL     1      23.095  -9.212   6.199  1.00  0.00     0.120 C 
ATOM     26  C   UNL     1      23.996 -10.796   4.358  1.00  0.00     0.014 C 
ATOM     27  C   UNL     1      22.105  -9.252   3.876  1.00  0.00     0.014 C 
BRANCH  25  28
ATOM     28  O   UNL     1      24.449  -8.832   6.156  1.00  0.00    -0.393 OA
ATOM     29  H   UNL     1      24.671  -8.636   5.206  1.00  0.00     0.210 HD
ENDBRANCH  25  28
ENDBRANCH   2   6
ENDBRANCH   1   2
BRANCH   1  30
ATOM     30  C   UNL     1      18.724 -12.518  12.287  1.00  0.00     0.028 C 
BRANCH  30  31
ATOM     31  C   UNL     1      19.944 -11.656  12.503  1.00  0.00    -0.028 C 
ATOM     32  C   UNL     1      19.949 -10.494  13.193  1.00  0.00    -0.080 C 
ATOM     33  C   UNL     1      18.693  -9.918  13.804  1.00  0.00     0.039 C 
ATOM     34  C   UNL     1      21.250  -9.745  13.325  1.00  0.00     0.039 C 
ENDBRANCH  30  31
ENDBRANCH   1  30
TORSDOF 6
ENDMDL
MODEL 7
REMARK VINA RESULT:    -5.455     13.146     16.223
REMARK INTER + INTRA:          -7.495
REMARK INTER:                  -6.827
REMARK INTRA:                  -0.668
REMARK UNBOUND:                -0.286
REMARK SMILES CC(C)=CCC[C@H](C(=O)[O-])[C@H]1CC[C@@]2(C)C3=C(CC[C@@]12C)[C@]1(C)CC[C@@H](O)C(C)(C)[C@H]1CC3
REMARK SMILES IDX 6 1 7 2 8 3 9 4 10 5 11 6 12 7 20 8 13 9 14 10 19 11 21 12
REMARK SMILES IDX 15 13 16 14 18 15 17 16 33 17 22 18 32 19 31 20 24 21 23 22
REMARK SMILES IDX 28 23 25 24 26 25 29 26 30 27 27 28 5 30 4 31 2 32 1 33 3 34
REMARK H PARENT 27 29
REMARK Flexibility Score: inf
ROOT
ATOM      1  C   UNL     1      20.318 -13.173   8.412  1.00  0.00     0.014 C 
ENDROOT
BRANCH   1   2
ATOM      2  C   UNL     1      19.109 -13.569   9.318  1.00  0.00     0.039 C 
BRANCH   2   3
ATOM      3  C   UNL     1      18.691 -12.434  10.219  1.00  0.00     0.045 C 
ATOM      4  O   UNL     1      17.609 -11.830  10.000  1.00  0.00    -0.550 OA
ATOM      5  O   UNL     1      19.464 -12.062  11.315  1.00  0.00    -0.550 OA
ENDBRANCH   2   3
BRANCH   2   6
ATOM      6  C   UNL     1      19.181 -14.936  10.097  1.00  0.00     0.004 C 
ATOM      7  C   UNL     1      19.450 -14.767  11.593  1.00  0.00     0.006 C 
ATOM      8  C   UNL     1      18.105 -16.069   9.933  1.00  0.00    -0.020 C 
ATOM      9  C   UNL     1      19.033 -16.058  12.276  1.00  0.00     0.012 C 
ATOM     10  C   UNL     1      18.302 -16.966  11.241  1.00  0.00    -0.006 C 
ATOM     11  C   UNL     1      16.645 -15.549   9.825  1.00  0.00     0.012 C 
ATOM     12  C   UNL     1      18.359 -16.848   8.605  1.00  0.00     0.012 C 
ATOM     13  C   UNL     1      19.240 -18.184  10.964  1.00  0.00     0.017 C 
ATOM     14  C   UNL     1      16.957 -17.412  11.889  1.00  0.00    -0.064 C 
ATOM     15  C   UNL     1      16.023 -15.230  11.175  1.00  0.00     0.032 C 
ATOM     16  C   UNL     1      15.940 -16.492  12.010  1.00  0.00    -0.064 C 
ATOM     17  C   UNL     1      16.857 -18.816  12.514  1.00  0.00     0.032 C 
ATOM     18  C   UNL     1      14.634 -16.847  12.751  1.00  0.00    -0.008 C 
ATOM     19  C   UNL     1      15.596 -19.123  13.345  1.00  0.00     0.009 C 
ATOM     20  C   UNL     1      15.028 -17.823  13.925  1.00  0.00     0.007 C 
ATOM     21  C   UNL     1      13.877 -15.605  13.352  1.00  0.00     0.014 C 
ATOM     22  C   UNL     1      13.723 -17.485  11.663  1.00  0.00     0.016 C 
ATOM     23  C   UNL     1      13.987 -17.940  15.102  1.00  0.00    -0.006 C 
ATOM     24  C   UNL     1      14.205 -15.338  14.821  1.00  0.00     0.033 C 
ATOM     25  C   UNL     1      13.772 -16.508  15.740  1.00  0.00     0.120 C 
ATOM     26  C   UNL     1      12.647 -18.561  14.632  1.00  0.00     0.014 C 
ATOM     27  C   UNL     1      14.541 -18.866  16.217  1.00  0.00     0.014 C 
BRANCH  25  28
ATOM     28  O   UNL     1      12.435 -16.330  16.140  1.00  0.00    -0.393 OA
ATOM     29  H   UNL     1      11.860 -16.739  15.439  1.00  0.00     0.210 HD
ENDBRANCH  25  28
ENDBRANCH   2   6
ENDBRANCH   1   2
BRANCH   1  30
ATOM     30  C   UNL     1      19.881 -12.963   6.956  1.00  0.00     0.028 C 
BRANCH  30  31
ATOM     31  C   UNL     1      19.289 -14.225   6.376  1.00  0.00    -0.028 C 
ATOM     32  C   UNL     1      19.834 -14.931   5.361  1.00  0.00    -0.080 C 
ATOM     33  C   UNL     1      21.105 -14.495   4.672  1.00  0.00     0.039 C 
ATOM     34  C   UNL     1      19.124 -16.175   4.893  1.00  0.00     0.039 C 
ENDBRANCH  30  31
ENDBRANCH   1  30
TORSDOF 6
ENDMDL
MODEL 8
REMARK VINA RESULT:    -5.411     12.974     15.680
REMARK INTER + INTRA:          -7.437
REMARK INTER:                  -8.441
REMARK INTRA:                   1.004
REMARK UNBOUND:                -0.286
REMARK SMILES CC(C)=CCC[C@H](C(=O)[O-])[C@H]1CC[C@@]2(C)C3=C(CC[C@@]12C)[C@]1(C)CC[C@@H](O)C(C)(C)[C@H]1CC3
REMARK SMILES IDX 6 1 7 2 8 3 9 4 10 5 11 6 12 7 20 8 13 9 14 10 19 11 21 12
REMARK SMILES IDX 15 13 16 14 18 15 17 16 33 17 22 18 32 19 31 20 24 21 23 22
REMARK SMILES IDX 28 23 25 24 26 25 29 26 30 27 27 28 5 30 4 31 2 32 1 33 3 34
REMARK H PARENT 27 29
REMARK Flexibility Score: inf
ROOT
ATOM      1  C   UNL     1      20.224 -13.897   6.878  1.00  0.00     0.014 C 
ENDROOT
BRANCH   1   2
ATOM      2  C   UNL     1      20.115 -12.556   6.086  1.00  0.00     0.039 C 
BRANCH   2   3
ATOM      3  C   UNL     1      18.903 -12.535   5.188  1.00  0.00     0.045 C 
ATOM      4  O   UNL     1      19.006 -12.097   4.012  1.00  0.00    -0.550 OA
ATOM      5  O   UNL     1      17.675 -13.024   5.623  1.00  0.00    -0.550 OA
ENDBRANCH   2   3
BRANCH   2   6
ATOM      6  C   UNL     1      21.399 -12.025   5.344  1.00  0.00     0.004 C 
ATOM      7  C   UNL     1      21.270 -10.575   4.873  1.00  0.00     0.006 C 
ATOM      8  C   UNL     1      22.851 -12.212   5.913  1.00  0.00    -0.020 C 
ATOM      9  C   UNL     1      22.675 -10.055   4.621  1.00  0.00     0.012 C 
ATOM     10  C   UNL     1      23.704 -11.107   5.135  1.00  0.00    -0.006 C 
ATOM     11  C   UNL     1      22.961 -12.025   7.451  1.00  0.00     0.012 C 
ATOM     12  C   UNL     1      23.337 -13.671   5.643  1.00  0.00     0.012 C 
ATOM     13  C   UNL     1      24.406 -11.707   3.875  1.00  0.00     0.017 C 
ATOM     14  C   UNL     1      24.714 -10.353   6.051  1.00  0.00    -0.064 C 
ATOM     15  C   UNL     1      23.045 -10.567   7.871  1.00  0.00     0.032 C 
ATOM     16  C   UNL     1      24.302  -9.941   7.298  1.00  0.00    -0.064 C 
ATOM     17  C   UNL     1      26.088  -9.954   5.480  1.00  0.00     0.032 C 
ATOM     18  C   UNL     1      25.221  -9.088   8.196  1.00  0.00    -0.008 C 
ATOM     19  C   UNL     1      26.954  -9.011   6.338  1.00  0.00     0.009 C 
ATOM     20  C   UNL     1      26.054  -8.155   7.236  1.00  0.00     0.007 C 
ATOM     21  C   UNL     1      24.453  -8.194   9.238  1.00  0.00     0.014 C 
ATOM     22  C   UNL     1      26.074 -10.122   8.986  1.00  0.00     0.016 C 
ATOM     23  C   UNL     1      26.690  -6.875   7.901  1.00  0.00    -0.006 C 
ATOM     24  C   UNL     1      24.210  -6.763   8.757  1.00  0.00     0.033 C 
ATOM     25  C   UNL     1      25.532  -5.991   8.520  1.00  0.00     0.120 C 
ATOM     26  C   UNL     1      27.756  -7.242   8.964  1.00  0.00     0.014 C 
ATOM     27  C   UNL     1      27.407  -6.014   6.828  1.00  0.00     0.014 C 
BRANCH  25  28
ATOM     28  O   UNL     1      25.950  -5.380   9.717  1.00  0.00    -0.393 OA
ATOM     29  H   UNL     1      26.047  -4.407   9.534  1.00  0.00     0.210 HD
ENDBRANCH  25  28
ENDBRANCH   2   6
ENDBRANCH   1   2
BRANCH   1  30
ATOM     30  C   UNL     1      19.007 -14.798   6.625  1.00  0.00     0.028 C 
BRANCH  30  31
ATOM     31  C   UNL     1      19.423 -16.115   6.016  1.00  0.00    -0.028 C 
ATOM     32  C   UNL     1      19.075 -16.531   4.778  1.00  0.00    -0.080 C 
ATOM     33  C   UNL     1      18.188 -15.706   3.875  1.00  0.00     0.039 C 
ATOM     34  C   UNL     1      19.570 -17.874   4.308  1.00  0.00     0.039 C 
ENDBRANCH  30  31
ENDBRANCH   1  30
TORSDOF 6
ENDMDL
