MODEL 1
REMARK VINA RESULT:    -2.426      0.000      0.000
REMARK INTER + INTRA:          -2.426
REMARK INTER:                  -2.426
REMARK INTRA:                   0.000
REMARK UNBOUND:                 0.000
REMARK SMILES CC(=O)[O-]
REMARK SMILES IDX 1 1 2 2 3 3 4 4
REMARK H PARENT
REMARK Flexibility Score: inf
ROOT
ATOM      1  C   UNL     1      20.224  23.742  34.122  1.00  0.00     0.063 C 
ATOM      2  C   UNL     1      19.100  24.689  33.867  1.00  0.00     0.038 C 
ATOM      3  O   UNL     1      18.789  24.997  32.687  1.00  0.00    -0.550 OA
ATOM      4  O   UNL     1      18.359  25.192  34.929  1.00  0.00    -0.550 OA
ENDROOT
TORSDOF 0
ENDMDL
MODEL 2
REMARK VINA RESULT:    -2.383      1.551      1.916
REMARK INTER + INTRA:          -2.383
REMARK INTER:                  -2.383
REMARK INTRA:                   0.000
REMARK UNBOUND:                 0.000
REMARK SMILES CC(=O)[O-]
REMARK SMILES IDX 1 1 2 2 3 3 4 4
REMARK H PARENT
REMARK Flexibility Score: inf
ROOT
ATOM      1  C   UNL     1      19.833  25.183  35.183  1.00  0.00     0.063 C 
ATOM      2  C   UNL     1      19.571  24.313  34.001  1.00  0.00     0.038 C 
ATOM      3  O   UNL     1      19.992  23.127  33.983  1.00  0.00    -0.550 OA
ATOM      4  O   UNL     1      18.815  24.792  32.938  1.00  0.00    -0.550 OA
ENDROOT
TORSDOF 0
ENDMDL
MODEL 3
REMARK VINA RESULT:    -2.381      1.667      2.259
REMARK INTER + INTRA:          -2.381
REMARK INTER:                  -2.381
REMARK INTRA:                   0.000
REMARK UNBOUND:                 0.000
REMARK SMILES CC(=O)[O-]
REMARK SMILES IDX 1 1 2 2 3 3 4 4
REMARK H PARENT
REMARK Flexibility Score: inf
ROOT
ATOM      1  C   UNL     1      18.683  24.942  33.084  1.00  0.00     0.063 C 
ATOM      2  C   UNL     1      19.619  24.404  34.112  1.00  0.00     0.038 C 
ATOM      3  O   UNL     1      20.013  25.140  35.055  1.00  0.00    -0.550 OA
ATOM      4  O   UNL     1      20.018  23.074  34.064  1.00  0.00    -0.550 OA
ENDROOT
TORSDOF 0
ENDMDL
MODEL 4
REMARK VINA RESULT:    -2.378      1.585      1.743
REMARK INTER + INTRA:          -2.378
REMARK INTER:                  -2.378
REMARK INTRA:                   0.000
REMARK UNBOUND:                 0.000
REMARK SMILES CC(=O)[O-]
REMARK SMILES IDX 1 1 2 2 3 3 4 4
REMARK H PARENT
REMARK Flexibility Score: inf
ROOT
ATOM      1  C   UNL     1      19.747  25.274  35.160  1.00  0.00     0.063 C 
ATOM      2  C   UNL     1      19.487  24.340  34.028  1.00  0.00     0.038 C 
ATOM      3  O   UNL     1      18.848  24.735  33.017  1.00  0.00    -0.550 OA
ATOM      4  O   UNL     1      19.994  23.047  34.061  1.00  0.00    -0.550 OA
ENDROOT
TORSDOF 0
ENDMDL
MODEL 5
REMARK VINA RESULT:    -2.377      1.700      1.957
REMARK INTER + INTRA:          -2.377
REMARK INTER:                  -2.377
REMARK INTRA:                   0.000
REMARK UNBOUND:                 0.000
REMARK SMILES CC(=O)[O-]
REMARK SMILES IDX 1 1 2 2 3 3 4 4
REMARK H PARENT
REMARK Flexibility Score: inf
ROOT
ATOM      1  C   UNL     1      18.760  24.903  33.131  1.00  0.00     0.063 C 
ATOM      2  C   UNL     1      19.677  24.313  34.148  1.00  0.00     0.038 C 
ATOM      3  O   UNL     1      20.051  23.116  34.043  1.00  0.00    -0.550 OA
ATOM      4  O   UNL     1      20.163  25.098  35.185  1.00  0.00    -0.550 OA
ENDROOT
TORSDOF 0
ENDMDL
MODEL 6
REMARK VINA RESULT:    -2.217      2.009      3.097
REMARK INTER + INTRA:          -2.217
REMARK INTER:                  -2.217
REMARK INTRA:                   0.000
REMARK UNBOUND:                 0.000
REMARK SMILES CC(=O)[O-]
REMARK SMILES IDX 1 1 2 2 3 3 4 4
REMARK H PARENT
REMARK Flexibility Score: inf
ROOT
ATOM      1  C   UNL     1      16.780  27.041  33.247  1.00  0.00     0.063 C 
ATOM      2  C   UNL     1      17.699  25.992  33.774  1.00  0.00     0.038 C 
ATOM      3  O   UNL     1      17.769  25.779  35.013  1.00  0.00    -0.550 OA
ATOM      4  O   UNL     1      18.440  25.211  32.897  1.00  0.00    -0.550 OA
ENDROOT
TORSDOF 0
ENDMDL
MODEL 7
REMARK VINA RESULT:    -2.117      2.475      2.952
REMARK INTER + INTRA:          -2.117
REMARK INTER:                  -2.117
REMARK INTRA:                   0.000
REMARK UNBOUND:                 0.000
REMARK SMILES CC(=O)[O-]
REMARK SMILES IDX 1 1 2 2 3 3 4 4
REMARK H PARENT
REMARK Flexibility Score: inf
ROOT
ATOM      1  C   UNL     1      18.962  24.980  34.750  1.00  0.00     0.063 C 
ATOM      2  C   UNL     1      18.792  24.136  35.967  1.00  0.00     0.038 C 
ATOM      3  O   UNL     1      18.607  24.675  37.090  1.00  0.00    -0.550 OA
ATOM      4  O   UNL     1      18.785  22.751  35.859  1.00  0.00    -0.550 OA
ENDROOT
TORSDOF 0
ENDMDL
MODEL 8
REMARK VINA RESULT:    -2.080      2.199      2.395
REMARK INTER + INTRA:          -2.080
REMARK INTER:                  -2.080
REMARK INTRA:                   0.000
REMARK UNBOUND:                 0.000
REMARK SMILES CC(=O)[O-]
REMARK SMILES IDX 1 1 2 2 3 3 4 4
REMARK H PARENT
REMARK Flexibility Score: inf
ROOT
ATOM      1  C   UNL     1      18.426  25.209  33.309  1.00  0.00     0.063 C 
ATOM      2  C   UNL     1      17.601  26.224  34.024  1.00  0.00     0.038 C 
ATOM      3  O   UNL     1      16.367  26.313  33.791  1.00  0.00    -0.550 OA
ATOM      4  O   UNL     1      18.181  27.040  34.987  1.00  0.00    -0.550 OA
ENDROOT
TORSDOF 0
ENDMDL
MODEL 9
REMARK VINA RESULT:    -2.058      2.103      2.516
REMARK INTER + INTRA:          -2.058
REMARK INTER:                  -2.058
REMARK INTRA:                   0.000
REMARK UNBOUND:                 0.000
REMARK SMILES CC(=O)[O-]
REMARK SMILES IDX 1 1 2 2 3 3 4 4
REMARK H PARENT
REMARK Flexibility Score: inf
ROOT
ATOM      1  C   UNL     1      19.169  23.016  35.613  1.00  0.00     0.063 C 
ATOM      2  C   UNL     1      20.060  24.200  35.449  1.00  0.00     0.038 C 
ATOM      3  O   UNL     1      21.282  24.117  35.742  1.00  0.00    -0.550 OA
ATOM      4  O   UNL     1      19.557  25.382  34.922  1.00  0.00    -0.550 OA
ENDROOT
TORSDOF 0
ENDMDL
