MODEL 1
REMARK VINA RESULT:    -4.566      0.000      0.000
REMARK INTER + INTRA:          -6.012
REMARK INTER:                  -5.633
REMARK INTRA:                  -0.378
REMARK UNBOUND:                -0.378
REMARK SMILES Oc1cc(O)c2cc(O)c(-c3cc(O)c(O)c(O)c3)[o+]c2c1
REMARK SMILES IDX 10 1 20 2 21 3 22 4 2 5 3 6 4 7 6 8 7 9 8 10 11 11 12 12
REMARK SMILES IDX 13 13 19 14 15 15 17 16 14 17 16 19 18 21 9 23 1 25 5 27
REMARK H PARENT 14 18 16 20 18 22 9 24 1 26 5 28
REMARK Flexibility Score: inf
ROOT
ATOM      1  C   UNL     1      -2.019   9.966   7.078  1.00  0.00     0.402 A 
ATOM      2  O   UNL     1      -1.557  10.348   5.890  1.00  0.00    -0.202 OA
ATOM      3  C   UNL     1      -0.342  10.852   5.708  1.00  0.00     0.368 A 
ATOM      4  C   UNL     1       0.055  11.222   4.420  1.00  0.00     0.162 A 
ATOM      5  C   UNL     1       1.329  11.753   4.199  1.00  0.00     0.128 A 
ATOM      6  C   UNL     1       2.211  11.915   5.271  1.00  0.00     0.093 A 
ATOM      7  C   UNL     1       1.838  11.552   6.571  1.00  0.00     0.136 A 
ATOM      8  C   UNL     1       0.544  11.015   6.801  1.00  0.00     0.125 A 
ATOM      9  C   UNL     1       0.080  10.636   8.071  1.00  0.00     0.078 A 
ATOM     10  C   UNL     1      -1.210  10.118   8.220  1.00  0.00     0.223 A 
ENDROOT
BRANCH   1  11
ATOM     11  C   UNL     1      -3.388   9.408   7.151  1.00  0.00     0.091 A 
ATOM     12  C   UNL     1      -4.487  10.277   7.154  1.00  0.00     0.068 A 
ATOM     13  C   UNL     1      -5.794   9.775   7.205  1.00  0.00     0.162 A 
ATOM     14  C   UNL     1      -3.615   8.022   7.159  1.00  0.00     0.068 A 
ATOM     15  C   UNL     1      -6.019   8.391   7.235  1.00  0.00     0.200 A 
ATOM     16  C   UNL     1      -4.915   7.505   7.205  1.00  0.00     0.162 A 
BRANCH  13  17
ATOM     17  O   UNL     1      -6.880  10.649   7.224  1.00  0.00    -0.504 OA
ATOM     18  H   UNL     1      -7.323  10.926   8.091  1.00  0.00     0.293 HD
ENDBRANCH  13  17
BRANCH  15  19
ATOM     19  O   UNL     1      -7.340   7.942   7.292  1.00  0.00    -0.502 OA
ATOM     20  H   UNL     1      -7.662   7.076   6.885  1.00  0.00     0.293 HD
ENDBRANCH  15  19
BRANCH  16  21
ATOM     21  O   UNL     1      -5.062   6.117   7.212  1.00  0.00    -0.504 OA
ATOM     22  H   UNL     1      -4.638   5.500   6.535  1.00  0.00     0.293 HD
ENDBRANCH  16  21
ENDBRANCH   1  11
BRANCH  10  23
ATOM     23  O   UNL     1      -1.690   9.789   9.488  1.00  0.00    -0.500 OA
ATOM     24  H   UNL     1      -1.148   9.970  10.325  1.00  0.00     0.294 HD
ENDBRANCH  10  23
BRANCH   5  25
ATOM     25  O   UNL     1       1.731  12.124   2.918  1.00  0.00    -0.507 OA
ATOM     26  H   UNL     1       1.176  11.896   2.101  1.00  0.00     0.293 HD
ENDBRANCH   5  25
BRANCH   7  27
ATOM     27  O   UNL     1       2.779  11.741   7.587  1.00  0.00    -0.507 OA
ATOM     28  H   UNL     1       3.051  11.032   8.252  1.00  0.00     0.293 HD
ENDBRANCH   7  27
TORSDOF 7
ENDMDL
MODEL 2
REMARK VINA RESULT:    -4.531      1.687      2.894
REMARK INTER + INTRA:          -5.968
REMARK INTER:                  -5.616
REMARK INTRA:                  -0.353
REMARK UNBOUND:                -0.378
REMARK SMILES Oc1cc(O)c2cc(O)c(-c3cc(O)c(O)c(O)c3)[o+]c2c1
REMARK SMILES IDX 10 1 20 2 21 3 22 4 2 5 3 6 4 7 6 8 7 9 8 10 11 11 12 12
REMARK SMILES IDX 13 13 19 14 15 15 17 16 14 17 16 19 18 21 9 23 1 25 5 27
REMARK H PARENT 14 18 16 20 18 22 9 24 1 26 5 28
REMARK Flexibility Score: inf
ROOT
ATOM      1  C   UNL     1      -2.447   9.488   7.553  1.00  0.00     0.402 A 
ATOM      2  O   UNL     1      -1.400   9.351   8.363  1.00  0.00    -0.202 OA
ATOM      3  C   UNL     1      -0.222   9.921   8.134  1.00  0.00     0.368 A 
ATOM      4  C   UNL     1       0.818   9.721   9.046  1.00  0.00     0.162 A 
ATOM      5  C   UNL     1       2.068  10.311   8.830  1.00  0.00     0.128 A 
ATOM      6  C   UNL     1       2.278  11.102   7.699  1.00  0.00     0.093 A 
ATOM      7  C   UNL     1       1.253  11.317   6.770  1.00  0.00     0.136 A 
ATOM      8  C   UNL     1      -0.017  10.719   6.983  1.00  0.00     0.125 A 
ATOM      9  C   UNL     1      -1.098  10.869   6.099  1.00  0.00     0.078 A 
ATOM     10  C   UNL     1      -2.319  10.246   6.373  1.00  0.00     0.223 A 
ENDROOT
BRANCH   1  11
ATOM     11  C   UNL     1      -3.711   8.813   7.923  1.00  0.00     0.091 A 
ATOM     12  C   UNL     1      -4.588   9.434   8.822  1.00  0.00     0.068 A 
ATOM     13  C   UNL     1      -5.799   8.825   9.175  1.00  0.00     0.162 A 
ATOM     14  C   UNL     1      -4.082   7.586   7.347  1.00  0.00     0.068 A 
ATOM     15  C   UNL     1      -6.158   7.590   8.616  1.00  0.00     0.200 A 
ATOM     16  C   UNL     1      -5.291   6.968   7.686  1.00  0.00     0.162 A 
BRANCH  13  17
ATOM     17  O   UNL     1      -6.656   9.444  10.083  1.00  0.00    -0.504 OA
ATOM     18  H   UNL     1      -7.578   9.764   9.810  1.00  0.00     0.293 HD
ENDBRANCH  13  17
BRANCH  15  19
ATOM     19  O   UNL     1      -7.372   7.021   9.006  1.00  0.00    -0.502 OA
ATOM     20  H   UNL     1      -8.277   7.378   8.735  1.00  0.00     0.293 HD
ENDBRANCH  15  19
BRANCH  16  21
ATOM     21  O   UNL     1      -5.591   5.749   7.074  1.00  0.00    -0.504 OA
ATOM     22  H   UNL     1      -6.433   5.573   6.547  1.00  0.00     0.293 HD
ENDBRANCH  16  21
ENDBRANCH   1  11
BRANCH  10  23
ATOM     23  O   UNL     1      -3.378  10.352   5.471  1.00  0.00    -0.500 OA
ATOM     24  H   UNL     1      -4.063   9.613   5.366  1.00  0.00     0.294 HD
ENDBRANCH  10  23
BRANCH   5  25
ATOM     25  O   UNL     1       3.110  10.116   9.735  1.00  0.00    -0.507 OA
ATOM     26  H   UNL     1       3.925   9.565   9.494  1.00  0.00     0.293 HD
ENDBRANCH   5  25
BRANCH   7  27
ATOM     27  O   UNL     1       1.542  12.125   5.667  1.00  0.00    -0.507 OA
ATOM     28  H   UNL     1       1.853  13.084   5.727  1.00  0.00     0.293 HD
ENDBRANCH   7  27
TORSDOF 7
ENDMDL
MODEL 3
REMARK VINA RESULT:    -4.406      0.240      1.811
REMARK INTER + INTRA:          -5.815
REMARK INTER:                  -5.444
REMARK INTRA:                  -0.372
REMARK UNBOUND:                -0.378
REMARK SMILES Oc1cc(O)c2cc(O)c(-c3cc(O)c(O)c(O)c3)[o+]c2c1
REMARK SMILES IDX 10 1 20 2 21 3 22 4 2 5 3 6 4 7 6 8 7 9 8 10 11 11 12 12
REMARK SMILES IDX 13 13 19 14 15 15 17 16 14 17 16 19 18 21 9 23 1 25 5 27
REMARK H PARENT 14 18 16 20 18 22 9 24 1 26 5 28
REMARK Flexibility Score: inf
ROOT
ATOM      1  C   UNL     1      -2.014   9.988   7.199  1.00  0.00     0.402 A 
ATOM      2  O   UNL     1      -1.514  10.391   6.034  1.00  0.00    -0.202 OA
ATOM      3  C   UNL     1      -0.270  10.834   5.888  1.00  0.00     0.368 A 
ATOM      4  C   UNL     1       0.166  11.233   4.621  1.00  0.00     0.162 A 
ATOM      5  C   UNL     1       1.471  11.700   4.439  1.00  0.00     0.128 A 
ATOM      6  C   UNL     1       2.343  11.770   5.528  1.00  0.00     0.093 A 
ATOM      7  C   UNL     1       1.931  11.377   6.807  1.00  0.00     0.136 A 
ATOM      8  C   UNL     1       0.606  10.903   6.998  1.00  0.00     0.125 A 
ATOM      9  C   UNL     1       0.103  10.501   8.246  1.00  0.00     0.078 A 
ATOM     10  C   UNL     1      -1.215  10.050   8.357  1.00  0.00     0.223 A 
ENDROOT
BRANCH   1  11
ATOM     11  C   UNL     1      -3.412   9.505   7.232  1.00  0.00     0.091 A 
ATOM     12  C   UNL     1      -3.668   8.128   7.176  1.00  0.00     0.068 A 
ATOM     13  C   UNL     1      -4.981   7.644   7.223  1.00  0.00     0.162 A 
ATOM     14  C   UNL     1      -4.491  10.393   7.376  1.00  0.00     0.068 A 
ATOM     15  C   UNL     1      -6.059   8.532   7.345  1.00  0.00     0.200 A 
ATOM     16  C   UNL     1      -5.809   9.923   7.430  1.00  0.00     0.162 A 
BRANCH  13  17
ATOM     17  O   UNL     1      -5.225   6.273   7.151  1.00  0.00    -0.504 OA
ATOM     18  H   UNL     1      -4.487   5.594   7.292  1.00  0.00     0.293 HD
ENDBRANCH  13  17
BRANCH  15  19
ATOM     19  O   UNL     1      -7.349   7.999   7.381  1.00  0.00    -0.502 OA
ATOM     20  H   UNL     1      -7.958   8.042   8.185  1.00  0.00     0.293 HD
ENDBRANCH  15  19
BRANCH  16  21
ATOM     21  O   UNL     1      -6.829  10.865   7.572  1.00  0.00    -0.504 OA
ATOM     22  H   UNL     1      -7.337  11.271   6.800  1.00  0.00     0.293 HD
ENDBRANCH  16  21
ENDBRANCH   1  11
BRANCH  10  23
ATOM     23  O   UNL     1      -1.732   9.697   9.604  1.00  0.00    -0.500 OA
ATOM     24  H   UNL     1      -1.524  10.236  10.437  1.00  0.00     0.294 HD
ENDBRANCH  10  23
BRANCH   5  25
ATOM     25  O   UNL     1       1.912  12.099   3.179  1.00  0.00    -0.507 OA
ATOM     26  H   UNL     1       1.328  11.998   2.357  1.00  0.00     0.293 HD
ENDBRANCH   5  25
BRANCH   7  27
ATOM     27  O   UNL     1       2.865  11.473   7.842  1.00  0.00    -0.507 OA
ATOM     28  H   UNL     1       3.534  10.754   8.076  1.00  0.00     0.293 HD
ENDBRANCH   7  27
TORSDOF 7
ENDMDL
MODEL 4
REMARK VINA RESULT:    -4.305      1.406      7.007
REMARK INTER + INTRA:          -5.690
REMARK INTER:                  -5.520
REMARK INTRA:                  -0.170
REMARK UNBOUND:                -0.378
REMARK SMILES Oc1cc(O)c2cc(O)c(-c3cc(O)c(O)c(O)c3)[o+]c2c1
REMARK SMILES IDX 10 1 20 2 21 3 22 4 2 5 3 6 4 7 6 8 7 9 8 10 11 11 12 12
REMARK SMILES IDX 13 13 19 14 15 15 17 16 14 17 16 19 18 21 9 23 1 25 5 27
REMARK H PARENT 14 18 16 20 18 22 9 24 1 26 5 28
REMARK Flexibility Score: inf
ROOT
ATOM      1  C   UNL     1      -2.264  10.240   7.020  1.00  0.00     0.402 A 
ATOM      2  O   UNL     1      -2.876   9.131   6.612  1.00  0.00    -0.202 OA
ATOM      3  C   UNL     1      -4.019   8.696   7.131  1.00  0.00     0.368 A 
ATOM      4  C   UNL     1      -4.587   7.520   6.634  1.00  0.00     0.162 A 
ATOM      5  C   UNL     1      -5.791   7.041   7.160  1.00  0.00     0.128 A 
ATOM      6  C   UNL     1      -6.428   7.739   8.188  1.00  0.00     0.093 A 
ATOM      7  C   UNL     1      -5.878   8.919   8.705  1.00  0.00     0.136 A 
ATOM      8  C   UNL     1      -4.656   9.409   8.175  1.00  0.00     0.125 A 
ATOM      9  C   UNL     1      -4.026  10.575   8.640  1.00  0.00     0.078 A 
ATOM     10  C   UNL     1      -2.819  10.993   8.072  1.00  0.00     0.223 A 
ENDROOT
BRANCH   1  11
ATOM     11  C   UNL     1      -1.000  10.627   6.355  1.00  0.00     0.091 A 
ATOM     12  C   UNL     1      -1.007  10.941   4.989  1.00  0.00     0.068 A 
ATOM     13  C   UNL     1       0.172  11.328   4.340  1.00  0.00     0.162 A 
ATOM     14  C   UNL     1       0.200  10.745   7.075  1.00  0.00     0.068 A 
ATOM     15  C   UNL     1       1.375  11.423   5.054  1.00  0.00     0.200 A 
ATOM     16  C   UNL     1       1.386  11.135   6.440  1.00  0.00     0.162 A 
BRANCH  13  17
ATOM     17  O   UNL     1       0.157  11.622   2.977  1.00  0.00    -0.504 OA
ATOM     18  H   UNL     1       0.841  11.230   2.341  1.00  0.00     0.293 HD
ENDBRANCH  13  17
BRANCH  15  19
ATOM     19  O   UNL     1       2.523  11.806   4.359  1.00  0.00    -0.502 OA
ATOM     20  H   UNL     1       3.327  11.211   4.221  1.00  0.00     0.293 HD
ENDBRANCH  15  19
BRANCH  16  21
ATOM     21  O   UNL     1       2.540  11.228   7.221  1.00  0.00    -0.504 OA
ATOM     22  H   UNL     1       3.173  12.013   7.202  1.00  0.00     0.293 HD
ENDBRANCH  16  21
ENDBRANCH   1  11
BRANCH  10  23
ATOM     23  O   UNL     1      -2.167  12.124   8.566  1.00  0.00    -0.500 OA
ATOM     24  H   UNL     1      -1.723  12.794   7.949  1.00  0.00     0.294 HD
ENDBRANCH  10  23
BRANCH   5  25
ATOM     25  O   UNL     1      -6.364   5.869   6.668  1.00  0.00    -0.507 OA
ATOM     26  H   UNL     1      -6.474   5.710   5.674  1.00  0.00     0.293 HD
ENDBRANCH   5  25
BRANCH   7  27
ATOM     27  O   UNL     1      -6.579   9.561   9.730  1.00  0.00    -0.507 OA
ATOM     28  H   UNL     1      -7.363  10.180   9.585  1.00  0.00     0.293 HD
ENDBRANCH   7  27
TORSDOF 7
ENDMDL
MODEL 5
REMARK VINA RESULT:    -4.184      1.421      7.066
REMARK INTER + INTRA:          -5.541
REMARK INTER:                  -5.344
REMARK INTRA:                  -0.197
REMARK UNBOUND:                -0.378
REMARK SMILES Oc1cc(O)c2cc(O)c(-c3cc(O)c(O)c(O)c3)[o+]c2c1
REMARK SMILES IDX 10 1 20 2 21 3 22 4 2 5 3 6 4 7 6 8 7 9 8 10 11 11 12 12
REMARK SMILES IDX 13 13 19 14 15 15 17 16 14 17 16 19 18 21 9 23 1 25 5 27
REMARK H PARENT 14 18 16 20 18 22 9 24 1 26 5 28
REMARK Flexibility Score: inf
ROOT
ATOM      1  C   UNL     1      -2.267  10.264   6.994  1.00  0.00     0.402 A 
ATOM      2  O   UNL     1      -2.838   9.142   6.567  1.00  0.00    -0.202 OA
ATOM      3  C   UNL     1      -3.966   8.657   7.077  1.00  0.00     0.368 A 
ATOM      4  C   UNL     1      -4.492   7.471   6.559  1.00  0.00     0.162 A 
ATOM      5  C   UNL     1      -5.678   6.941   7.076  1.00  0.00     0.128 A 
ATOM      6  C   UNL     1      -6.341   7.599   8.114  1.00  0.00     0.093 A 
ATOM      7  C   UNL     1      -5.834   8.789   8.651  1.00  0.00     0.136 A 
ATOM      8  C   UNL     1      -4.629   9.331   8.132  1.00  0.00     0.125 A 
ATOM      9  C   UNL     1      -4.042  10.510   8.617  1.00  0.00     0.078 A 
ATOM     10  C   UNL     1      -2.850  10.981   8.057  1.00  0.00     0.223 A 
ENDROOT
BRANCH   1  11
ATOM     11  C   UNL     1      -1.016  10.707   6.338  1.00  0.00     0.091 A 
ATOM     12  C   UNL     1       0.174  10.745   7.077  1.00  0.00     0.068 A 
ATOM     13  C   UNL     1       1.374  11.143   6.474  1.00  0.00     0.162 A 
ATOM     14  C   UNL     1      -0.983  11.036   4.973  1.00  0.00     0.068 A 
ATOM     15  C   UNL     1       1.403  11.493   5.117  1.00  0.00     0.200 A 
ATOM     16  C   UNL     1       0.211  11.432   4.357  1.00  0.00     0.162 A 
BRANCH  13  17
ATOM     17  O   UNL     1       2.550  11.192   7.223  1.00  0.00    -0.504 OA
ATOM     18  H   UNL     1       3.223  11.941   7.106  1.00  0.00     0.293 HD
ENDBRANCH  13  17
BRANCH  15  19
ATOM     19  O   UNL     1       2.624  11.890   4.567  1.00  0.00    -0.502 OA
ATOM     20  H   UNL     1       2.959  11.596   3.661  1.00  0.00     0.293 HD
ENDBRANCH  15  19
BRANCH  16  21
ATOM     21  O   UNL     1       0.166  11.746   2.997  1.00  0.00    -0.504 OA
ATOM     22  H   UNL     1      -0.378  12.502   2.608  1.00  0.00     0.293 HD
ENDBRANCH  16  21
ENDBRANCH   1  11
BRANCH  10  23
ATOM     23  O   UNL     1      -2.238  12.125   8.571  1.00  0.00    -0.500 OA
ATOM     24  H   UNL     1      -2.217  12.995   8.053  1.00  0.00     0.294 HD
ENDBRANCH  10  23
BRANCH   5  25
ATOM     25  O   UNL     1      -6.208   5.757   6.564  1.00  0.00    -0.507 OA
ATOM     26  H   UNL     1      -5.878   4.851   6.874  1.00  0.00     0.293 HD
ENDBRANCH   5  25
BRANCH   7  27
ATOM     27  O   UNL     1      -6.559   9.388   9.685  1.00  0.00    -0.507 OA
ATOM     28  H   UNL     1      -6.246  10.192  10.210  1.00  0.00     0.293 HD
ENDBRANCH   7  27
TORSDOF 7
ENDMDL
MODEL 6
REMARK VINA RESULT:    -4.080      1.880      7.287
REMARK INTER + INTRA:          -5.413
REMARK INTER:                  -5.029
REMARK INTRA:                  -0.384
REMARK UNBOUND:                -0.378
REMARK SMILES Oc1cc(O)c2cc(O)c(-c3cc(O)c(O)c(O)c3)[o+]c2c1
REMARK SMILES IDX 10 1 20 2 21 3 22 4 2 5 3 6 4 7 6 8 7 9 8 10 11 11 12 12
REMARK SMILES IDX 13 13 19 14 15 15 17 16 14 17 16 19 18 21 9 23 1 25 5 27
REMARK H PARENT 14 18 16 20 18 22 9 24 1 26 5 28
REMARK Flexibility Score: inf
ROOT
ATOM      1  C   UNL     1      -1.796   9.844   8.505  1.00  0.00     0.402 A 
ATOM      2  O   UNL     1      -2.288   8.771   7.893  1.00  0.00    -0.202 OA
ATOM      3  C   UNL     1      -3.569   8.418   7.954  1.00  0.00     0.368 A 
ATOM      4  C   UNL     1      -3.992   7.274   7.272  1.00  0.00     0.162 A 
ATOM      5  C   UNL     1      -5.333   6.883   7.317  1.00  0.00     0.128 A 
ATOM      6  C   UNL     1      -6.255   7.638   8.046  1.00  0.00     0.093 A 
ATOM      7  C   UNL     1      -5.856   8.788   8.738  1.00  0.00     0.136 A 
ATOM      8  C   UNL     1      -4.494   9.189   8.697  1.00  0.00     0.125 A 
ATOM      9  C   UNL     1      -4.003  10.319   9.370  1.00  0.00     0.078 A 
ATOM     10  C   UNL     1      -2.647  10.649   9.287  1.00  0.00     0.223 A 
ENDROOT
BRANCH   1  11
ATOM     11  C   UNL     1      -0.354  10.138   8.353  1.00  0.00     0.091 A 
ATOM     12  C   UNL     1       0.566   9.553   9.234  1.00  0.00     0.068 A 
ATOM     13  C   UNL     1       1.938   9.800   9.100  1.00  0.00     0.162 A 
ATOM     14  C   UNL     1       0.122  10.945   7.308  1.00  0.00     0.068 A 
ATOM     15  C   UNL     1       2.411  10.624   8.070  1.00  0.00     0.200 A 
ATOM     16  C   UNL     1       1.492  11.198   7.159  1.00  0.00     0.162 A 
BRANCH  13  17
ATOM     17  O   UNL     1       2.843   9.226   9.992  1.00  0.00    -0.504 OA
ATOM     18  H   UNL     1       2.846   8.230  10.178  1.00  0.00     0.293 HD
ENDBRANCH  13  17
BRANCH  15  19
ATOM     19  O   UNL     1       3.787  10.845   7.985  1.00  0.00    -0.502 OA
ATOM     20  H   UNL     1       4.317  10.797   7.126  1.00  0.00     0.293 HD
ENDBRANCH  15  19
BRANCH  16  21
ATOM     21  O   UNL     1       1.890  12.012   6.097  1.00  0.00    -0.504 OA
ATOM     22  H   UNL     1       2.231  11.663   5.213  1.00  0.00     0.293 HD
ENDBRANCH  16  21
ENDBRANCH   1  11
BRANCH  10  23
ATOM     23  O   UNL     1      -2.148  11.743   9.995  1.00  0.00    -0.500 OA
ATOM     24  H   UNL     1      -1.155  11.944  10.032  1.00  0.00     0.294 HD
ENDBRANCH  10  23
BRANCH   5  25
ATOM     25  O   UNL     1      -5.763   5.742   6.640  1.00  0.00    -0.507 OA
ATOM     26  H   UNL     1      -6.490   5.145   7.016  1.00  0.00     0.293 HD
ENDBRANCH   5  25
BRANCH   7  27
ATOM     27  O   UNL     1      -6.839   9.490   9.440  1.00  0.00    -0.507 OA
ATOM     28  H   UNL     1      -7.813   9.226   9.477  1.00  0.00     0.293 HD
ENDBRANCH   7  27
TORSDOF 7
ENDMDL
MODEL 7
REMARK VINA RESULT:    -3.878      1.347      1.572
REMARK INTER + INTRA:          -5.163
REMARK INTER:                  -4.935
REMARK INTRA:                  -0.228
REMARK UNBOUND:                -0.378
REMARK SMILES Oc1cc(O)c2cc(O)c(-c3cc(O)c(O)c(O)c3)[o+]c2c1
REMARK SMILES IDX 10 1 20 2 21 3 22 4 2 5 3 6 4 7 6 8 7 9 8 10 11 11 12 12
REMARK SMILES IDX 13 13 19 14 15 15 17 16 14 17 16 19 18 21 9 23 1 25 5 27
REMARK H PARENT 14 18 16 20 18 22 9 24 1 26 5 28
REMARK Flexibility Score: inf
ROOT
ATOM      1  C   UNL     1      -0.863  10.297   7.490  1.00  0.00     0.402 A 
ATOM      2  O   UNL     1      -0.145  10.438   6.379  1.00  0.00    -0.202 OA
ATOM      3  C   UNL     1       1.106  10.884   6.370  1.00  0.00     0.368 A 
ATOM      4  C   UNL     1       1.780  10.994   5.151  1.00  0.00     0.162 A 
ATOM      5  C   UNL     1       3.099  11.458   5.114  1.00  0.00     0.128 A 
ATOM      6  C   UNL     1       3.745  11.814   6.299  1.00  0.00     0.093 A 
ATOM      7  C   UNL     1       3.092  11.713   7.534  1.00  0.00     0.136 A 
ATOM      8  C   UNL     1       1.752  11.245   7.577  1.00  0.00     0.125 A 
ATOM      9  C   UNL     1       1.016  11.124   8.766  1.00  0.00     0.078 A 
ATOM     10  C   UNL     1      -0.302  10.658   8.730  1.00  0.00     0.223 A 
ENDROOT
BRANCH   1  11
ATOM     11  C   UNL     1      -2.244   9.780   7.371  1.00  0.00     0.091 A 
ATOM     12  C   UNL     1      -3.173  10.469   6.580  1.00  0.00     0.068 A 
ATOM     13  C   UNL     1      -4.482   9.990   6.436  1.00  0.00     0.162 A 
ATOM     14  C   UNL     1      -2.632   8.579   7.988  1.00  0.00     0.068 A 
ATOM     15  C   UNL     1      -4.874   8.803   7.070  1.00  0.00     0.200 A 
ATOM     16  C   UNL     1      -3.935   8.086   7.850  1.00  0.00     0.162 A 
BRANCH  13  17
ATOM     17  O   UNL     1      -5.403  10.692   5.660  1.00  0.00    -0.504 OA
ATOM     18  H   UNL     1      -5.654  11.650   5.870  1.00  0.00     0.293 HD
ENDBRANCH  13  17
BRANCH  15  19
ATOM     19  O   UNL     1      -6.192   8.372   6.901  1.00  0.00    -0.502 OA
ATOM     20  H   UNL     1      -6.788   8.061   7.655  1.00  0.00     0.293 HD
ENDBRANCH  15  19
BRANCH  16  21
ATOM     21  O   UNL     1      -4.247   6.886   8.493  1.00  0.00    -0.504 OA
ATOM     22  H   UNL     1      -4.250   6.767   9.496  1.00  0.00     0.293 HD
ENDBRANCH  16  21
ENDBRANCH   1  11
BRANCH  10  23
ATOM     23  O   UNL     1      -1.052  10.586   9.905  1.00  0.00    -0.500 OA
ATOM     24  H   UNL     1      -1.746   9.861  10.048  1.00  0.00     0.294 HD
ENDBRANCH  10  23
BRANCH   5  25
ATOM     25  O   UNL     1       3.777  11.570   3.901  1.00  0.00    -0.507 OA
ATOM     26  H   UNL     1       4.264  12.421   3.643  1.00  0.00     0.293 HD
ENDBRANCH   5  25
BRANCH   7  27
ATOM     27  O   UNL     1       3.809  12.085   8.674  1.00  0.00    -0.507 OA
ATOM     28  H   UNL     1       4.191  11.435   9.345  1.00  0.00     0.293 HD
ENDBRANCH   7  27
TORSDOF 7
ENDMDL
MODEL 8
REMARK VINA RESULT:    -3.594      2.307      8.009
REMARK INTER + INTRA:          -4.812
REMARK INTER:                  -4.727
REMARK INTRA:                  -0.085
REMARK UNBOUND:                -0.378
REMARK SMILES Oc1cc(O)c2cc(O)c(-c3cc(O)c(O)c(O)c3)[o+]c2c1
REMARK SMILES IDX 10 1 20 2 21 3 22 4 2 5 3 6 4 7 6 8 7 9 8 10 11 11 12 12
REMARK SMILES IDX 13 13 19 14 15 15 17 16 14 17 16 19 18 21 9 23 1 25 5 27
REMARK H PARENT 14 18 16 20 18 22 9 24 1 26 5 28
REMARK Flexibility Score: inf
ROOT
ATOM      1  C   UNL     1       1.395  11.054   5.819  1.00  0.00     0.402 A 
ATOM      2  O   UNL     1       0.719  10.561   6.853  1.00  0.00    -0.202 OA
ATOM      3  C   UNL     1      -0.606  10.467   6.881  1.00  0.00     0.368 A 
ATOM      4  C   UNL     1      -1.226   9.931   8.013  1.00  0.00     0.162 A 
ATOM      5  C   UNL     1      -2.618   9.817   8.068  1.00  0.00     0.128 A 
ATOM      6  C   UNL     1      -3.394  10.242   6.986  1.00  0.00     0.093 A 
ATOM      7  C   UNL     1      -2.797  10.782   5.841  1.00  0.00     0.136 A 
ATOM      8  C   UNL     1      -1.384  10.902   5.781  1.00  0.00     0.125 A 
ATOM      9  C   UNL     1      -0.701  11.443   4.680  1.00  0.00     0.078 A 
ATOM     10  C   UNL     1       0.694  11.532   4.695  1.00  0.00     0.223 A 
ENDROOT
BRANCH   1  11
ATOM     11  C   UNL     1       2.872  11.096   5.903  1.00  0.00     0.091 A 
ATOM     12  C   UNL     1       3.483  11.584   7.067  1.00  0.00     0.068 A 
ATOM     13  C   UNL     1       4.878  11.618   7.179  1.00  0.00     0.162 A 
ATOM     14  C   UNL     1       3.679  10.605   4.864  1.00  0.00     0.068 A 
ATOM     15  C   UNL     1       5.684  11.148   6.132  1.00  0.00     0.200 A 
ATOM     16  C   UNL     1       5.076  10.629   4.964  1.00  0.00     0.162 A 
BRANCH  13  17
ATOM     17  O   UNL     1       5.476  12.119   8.335  1.00  0.00    -0.504 OA
ATOM     18  H   UNL     1       4.936  12.316   9.169  1.00  0.00     0.293 HD
ENDBRANCH  13  17
BRANCH  15  19
ATOM     19  O   UNL     1       7.070  11.211   6.291  1.00  0.00    -0.502 OA
ATOM     20  H   UNL     1       7.596  12.071   6.345  1.00  0.00     0.293 HD
ENDBRANCH  15  19
BRANCH  16  21
ATOM     21  O   UNL     1       5.812  10.125   3.890  1.00  0.00    -0.504 OA
ATOM     22  H   UNL     1       5.499  10.143   2.931  1.00  0.00     0.293 HD
ENDBRANCH  16  21
ENDBRANCH   1  11
BRANCH  10  23
ATOM     23  O   UNL     1       1.371  12.116   3.623  1.00  0.00    -0.500 OA
ATOM     24  H   UNL     1       2.378  12.051   3.532  1.00  0.00     0.294 HD
ENDBRANCH  10  23
BRANCH   5  25
ATOM     25  O   UNL     1      -3.243   9.284   9.194  1.00  0.00    -0.507 OA
ATOM     26  H   UNL     1      -4.218   9.006   9.177  1.00  0.00     0.293 HD
ENDBRANCH   5  25
BRANCH   7  27
ATOM     27  O   UNL     1      -3.642  11.179   4.801  1.00  0.00    -0.507 OA
ATOM     28  H   UNL     1      -3.785  12.137   4.515  1.00  0.00     0.293 HD
ENDBRANCH   7  27
TORSDOF 7
ENDMDL
MODEL 9
REMARK VINA RESULT:    -3.558      1.591      7.442
REMARK INTER + INTRA:          -4.769
REMARK INTER:                  -4.684
REMARK INTRA:                  -0.085
REMARK UNBOUND:                -0.378
REMARK SMILES Oc1cc(O)c2cc(O)c(-c3cc(O)c(O)c(O)c3)[o+]c2c1
REMARK SMILES IDX 10 1 20 2 21 3 22 4 2 5 3 6 4 7 6 8 7 9 8 10 11 11 12 12
REMARK SMILES IDX 13 13 19 14 15 15 17 16 14 17 16 19 18 21 9 23 1 25 5 27
REMARK H PARENT 14 18 16 20 18 22 9 24 1 26 5 28
REMARK Flexibility Score: inf
ROOT
ATOM      1  C   UNL     1      -0.778  10.592   6.652  1.00  0.00     0.402 A 
ATOM      2  O   UNL     1      -1.108   9.695   7.577  1.00  0.00    -0.202 OA
ATOM      3  C   UNL     1      -2.348   9.249   7.752  1.00  0.00     0.368 A 
ATOM      4  C   UNL     1      -2.595   8.302   8.749  1.00  0.00     0.162 A 
ATOM      5  C   UNL     1      -3.889   7.813   8.953  1.00  0.00     0.128 A 
ATOM      6  C   UNL     1      -4.940   8.274   8.156  1.00  0.00     0.093 A 
ATOM      7  C   UNL     1      -4.718   9.223   7.150  1.00  0.00     0.136 A 
ATOM      8  C   UNL     1      -3.406   9.724   6.941  1.00  0.00     0.125 A 
ATOM      9  C   UNL     1      -3.094  10.684   5.966  1.00  0.00     0.078 A 
ATOM     10  C   UNL     1      -1.778  11.133   5.821  1.00  0.00     0.223 A 
ENDROOT
BRANCH   1  11
ATOM     11  C   UNL     1       0.640  11.003   6.548  1.00  0.00     0.091 A 
ATOM     12  C   UNL     1       1.351  11.328   7.712  1.00  0.00     0.068 A 
ATOM     13  C   UNL     1       2.699  11.702   7.642  1.00  0.00     0.162 A 
ATOM     14  C   UNL     1       1.309  11.018   5.314  1.00  0.00     0.068 A 
ATOM     15  C   UNL     1       3.360  11.739   6.407  1.00  0.00     0.200 A 
ATOM     16  C   UNL     1       2.657  11.386   5.230  1.00  0.00     0.162 A 
BRANCH  13  17
ATOM     17  O   UNL     1       3.392  12.039   8.804  1.00  0.00    -0.504 OA
ATOM     18  H   UNL     1       3.945  11.357   9.309  1.00  0.00     0.293 HD
ENDBRANCH  13  17
BRANCH  15  19
ATOM     19  O   UNL     1       4.702  12.125   6.392  1.00  0.00    -0.502 OA
ATOM     20  H   UNL     1       5.478  11.478   6.383  1.00  0.00     0.293 HD
ENDBRANCH  15  19
BRANCH  16  21
ATOM     21  O   UNL     1       3.255  11.379   3.968  1.00  0.00    -0.504 OA
ATOM     22  H   UNL     1       2.844  11.795   3.145  1.00  0.00     0.293 HD
ENDBRANCH  16  21
ENDBRANCH   1  11
BRANCH  10  23
ATOM     23  O   UNL     1      -1.475  12.125   4.887  1.00  0.00    -0.500 OA
ATOM     24  H   UNL     1      -1.930  13.030   4.907  1.00  0.00     0.294 HD
ENDBRANCH  10  23
BRANCH   5  25
ATOM     25  O   UNL     1      -4.144   6.869   9.945  1.00  0.00    -0.507 OA
ATOM     26  H   UNL     1      -3.437   6.204  10.237  1.00  0.00     0.293 HD
ENDBRANCH   5  25
BRANCH   7  27
ATOM     27  O   UNL     1      -5.821   9.629   6.394  1.00  0.00    -0.507 OA
ATOM     28  H   UNL     1      -5.775  10.266   5.612  1.00  0.00     0.293 HD
ENDBRANCH   7  27
TORSDOF 7
ENDMDL
