MODEL 1
REMARK VINA RESULT:    -6.213      0.000      0.000
REMARK INTER + INTRA:          -7.114
REMARK INTER:                  -6.758
REMARK INTRA:                  -0.356
REMARK UNBOUND:                -0.356
REMARK SMILES CC1=C[C@@H]2[C@@H](C(C)C)CC[C@@](C)(O)[C@H]2CC1
REMARK SMILES IDX 1 1 2 2 3 3 4 4 5 5 9 6 10 7 11 8 14 9 15 10 16 11 12 12
REMARK SMILES IDX 6 13 7 14 8 15 13 16
REMARK H PARENT 13 17
REMARK Flexibility Score: inf
ROOT
ATOM      1  C   UNL     1      -2.823  23.056  51.463  1.00  0.00     0.039 C 
ATOM      2  C   UNL     1      -2.322  22.478  50.167  1.00  0.00    -0.077 C 
ATOM      3  C   UNL     1      -2.309  21.137  50.010  1.00  0.00    -0.024 C 
ATOM      4  C   UNL     1      -1.864  20.440  48.726  1.00  0.00     0.021 C 
ATOM      5  C   UNL     1      -1.245  19.025  49.032  1.00  0.00    -0.001 C 
ATOM      6  C   UNL     1      -0.083  18.665  48.065  1.00  0.00     0.007 C 
ATOM      7  C   UNL     1      -0.312  19.190  46.641  1.00  0.00     0.035 C 
ATOM      8  C   UNL     1      -0.408  20.741  46.581  1.00  0.00     0.065 C 
ATOM      9  C   UNL     1      -0.872  21.355  47.953  1.00  0.00     0.028 C 
ATOM     10  C   UNL     1      -1.499  22.755  47.786  1.00  0.00     0.011 C 
ATOM     11  C   UNL     1      -1.712  23.414  49.148  1.00  0.00     0.031 C 
ATOM     12  C   UNL     1       0.979  21.309  46.213  1.00  0.00     0.042 C 
ENDROOT
BRANCH   5  13
ATOM     13  C   UNL     1      -2.276  17.840  49.150  1.00  0.00    -0.014 C 
ATOM     14  C   UNL     1      -1.660  16.434  49.048  1.00  0.00     0.007 C 
ATOM     15  C   UNL     1      -3.459  17.961  48.182  1.00  0.00     0.007 C 
ENDBRANCH   5  13
BRANCH   8  16
ATOM     16  O   UNL     1      -1.294  21.104  45.544  1.00  0.00    -0.390 OA
ATOM     17  H   UNL     1      -1.801  20.293  45.276  1.00  0.00     0.211 HD
ENDBRANCH   8  16
TORSDOF 2
ENDMDL
MODEL 2
REMARK VINA RESULT:    -5.558      3.435      5.280
REMARK INTER + INTRA:          -6.401
REMARK INTER:                  -6.094
REMARK INTRA:                  -0.308
REMARK UNBOUND:                -0.356
REMARK SMILES CC1=C[C@@H]2[C@@H](C(C)C)CC[C@@](C)(O)[C@H]2CC1
REMARK SMILES IDX 1 1 2 2 3 3 4 4 5 5 9 6 10 7 11 8 14 9 15 10 16 11 12 12
REMARK SMILES IDX 6 13 7 14 8 15 13 16
REMARK H PARENT 13 17
REMARK Flexibility Score: inf
ROOT
ATOM      1  C   UNL     1      -2.463  25.931  54.116  1.00  0.00     0.039 C 
ATOM      2  C   UNL     1      -2.162  24.809  53.160  1.00  0.00    -0.077 C 
ATOM      3  C   UNL     1      -0.949  24.214  53.210  1.00  0.00    -0.024 C 
ATOM      4  C   UNL     1      -0.547  23.039  52.321  1.00  0.00     0.021 C 
ATOM      5  C   UNL     1       1.002  23.046  52.036  1.00  0.00    -0.001 C 
ATOM      6  C   UNL     1       1.345  22.532  50.610  1.00  0.00     0.007 C 
ATOM      7  C   UNL     1       0.412  21.406  50.145  1.00  0.00     0.035 C 
ATOM      8  C   UNL     1      -1.075  21.855  50.056  1.00  0.00     0.065 C 
ATOM      9  C   UNL     1      -1.380  23.069  51.008  1.00  0.00     0.028 C 
ATOM     10  C   UNL     1      -2.879  23.173  51.362  1.00  0.00     0.011 C 
ATOM     11  C   UNL     1      -3.171  24.490  52.080  1.00  0.00     0.031 C 
ATOM     12  C   UNL     1      -1.381  22.261  48.599  1.00  0.00     0.042 C 
ENDROOT
BRANCH   5  13
ATOM     13  C   UNL     1       1.899  22.346  53.125  1.00  0.00    -0.014 C 
ATOM     14  C   UNL     1       1.133  21.463  54.125  1.00  0.00     0.007 C 
ATOM     15  C   UNL     1       2.810  23.319  53.884  1.00  0.00     0.007 C 
ENDBRANCH   5  13
BRANCH   8  16
ATOM     16  O   UNL     1      -1.903  20.755  50.363  1.00  0.00    -0.390 OA
ATOM     17  H   UNL     1      -1.780  20.536  51.324  1.00  0.00     0.211 HD
ENDBRANCH   8  16
TORSDOF 2
ENDMDL
MODEL 3
REMARK VINA RESULT:    -5.550      2.267      3.973
REMARK INTER + INTRA:          -6.392
REMARK INTER:                  -6.221
REMARK INTRA:                  -0.172
REMARK UNBOUND:                -0.356
REMARK SMILES CC1=C[C@@H]2[C@@H](C(C)C)CC[C@@](C)(O)[C@H]2CC1
REMARK SMILES IDX 1 1 2 2 3 3 4 4 5 5 9 6 10 7 11 8 14 9 15 10 16 11 12 12
REMARK SMILES IDX 6 13 7 14 8 15 13 16
REMARK H PARENT 13 17
REMARK Flexibility Score: inf
ROOT
ATOM      1  C   UNL     1       0.481  22.720  49.000  1.00  0.00     0.039 C 
ATOM      2  C   UNL     1      -0.255  21.410  48.924  1.00  0.00    -0.077 C 
ATOM      3  C   UNL     1       0.341  20.358  48.322  1.00  0.00    -0.024 C 
ATOM      4  C   UNL     1      -0.289  18.970  48.224  1.00  0.00     0.021 C 
ATOM      5  C   UNL     1       0.190  18.218  46.926  1.00  0.00    -0.001 C 
ATOM      6  C   UNL     1      -0.922  17.318  46.318  1.00  0.00     0.007 C 
ATOM      7  C   UNL     1      -1.807  16.664  47.387  1.00  0.00     0.035 C 
ATOM      8  C   UNL     1      -2.573  17.705  48.253  1.00  0.00     0.065 C 
ATOM      9  C   UNL     1      -1.839  19.096  48.285  1.00  0.00     0.028 C 
ATOM     10  C   UNL     1      -2.230  19.937  49.519  1.00  0.00     0.011 C 
ATOM     11  C   UNL     1      -1.693  21.361  49.390  1.00  0.00     0.031 C 
ATOM     12  C   UNL     1      -3.988  17.890  47.666  1.00  0.00     0.042 C 
ENDROOT
BRANCH   5  13
ATOM     13  C   UNL     1       1.550  17.435  47.055  1.00  0.00    -0.014 C 
ATOM     14  C   UNL     1       2.811  18.315  47.009  1.00  0.00     0.007 C 
ATOM     15  C   UNL     1       1.687  16.279  46.056  1.00  0.00     0.007 C 
ENDBRANCH   5  13
BRANCH   8  16
ATOM     16  O   UNL     1      -2.727  17.190  49.557  1.00  0.00    -0.390 OA
ATOM     17  H   UNL     1      -2.957  16.226  49.481  1.00  0.00     0.211 HD
ENDBRANCH   8  16
TORSDOF 2
ENDMDL
MODEL 4
REMARK VINA RESULT:    -5.467      2.144      4.133
REMARK INTER + INTRA:          -6.303
REMARK INTER:                  -5.948
REMARK INTRA:                  -0.354
REMARK UNBOUND:                -0.356
REMARK SMILES CC1=C[C@@H]2[C@@H](C(C)C)CC[C@@](C)(O)[C@H]2CC1
REMARK SMILES IDX 1 1 2 2 3 3 4 4 5 5 9 6 10 7 11 8 14 9 15 10 16 11 12 12
REMARK SMILES IDX 6 13 7 14 8 15 13 16
REMARK H PARENT 13 17
REMARK Flexibility Score: inf
ROOT
ATOM      1  C   UNL     1       3.462  18.845  46.626  1.00  0.00     0.039 C 
ATOM      2  C   UNL     1       2.327  19.400  47.443  1.00  0.00    -0.077 C 
ATOM      3  C   UNL     1       1.193  18.676  47.567  1.00  0.00    -0.024 C 
ATOM      4  C   UNL     1      -0.005  19.116  48.405  1.00  0.00     0.021 C 
ATOM      5  C   UNL     1      -1.352  18.556  47.811  1.00  0.00    -0.001 C 
ATOM      6  C   UNL     1      -2.537  19.545  47.994  1.00  0.00     0.007 C 
ATOM      7  C   UNL     1      -2.463  20.322  49.315  1.00  0.00     0.035 C 
ATOM      8  C   UNL     1      -1.189  21.210  49.420  1.00  0.00     0.065 C 
ATOM      9  C   UNL     1      -0.020  20.668  48.518  1.00  0.00     0.028 C 
ATOM     10  C   UNL     1       1.364  21.153  49.000  1.00  0.00     0.011 C 
ATOM     11  C   UNL     1       2.440  20.813  47.971  1.00  0.00     0.031 C 
ATOM     12  C   UNL     1      -1.549  22.644  48.979  1.00  0.00     0.042 C 
ENDROOT
BRANCH   5  13
ATOM     13  C   UNL     1      -1.747  17.102  48.269  1.00  0.00    -0.014 C 
ATOM     14  C   UNL     1      -1.294  16.726  49.690  1.00  0.00     0.007 C 
ATOM     15  C   UNL     1      -1.315  16.012  47.280  1.00  0.00     0.007 C 
ENDBRANCH   5  13
BRANCH   8  16
ATOM     16  O   UNL     1      -0.790  21.278  50.772  1.00  0.00    -0.390 OA
ATOM     17  H   UNL     1      -1.067  22.163  51.129  1.00  0.00     0.211 HD
ENDBRANCH   8  16
TORSDOF 2
ENDMDL
MODEL 5
REMARK VINA RESULT:    -5.426      2.077      4.925
REMARK INTER + INTRA:          -6.257
REMARK INTER:                  -5.894
REMARK INTRA:                  -0.363
REMARK UNBOUND:                -0.356
REMARK SMILES CC1=C[C@@H]2[C@@H](C(C)C)CC[C@@](C)(O)[C@H]2CC1
REMARK SMILES IDX 1 1 2 2 3 3 4 4 5 5 9 6 10 7 11 8 14 9 15 10 16 11 12 12
REMARK SMILES IDX 6 13 7 14 8 15 13 16
REMARK H PARENT 13 17
REMARK Flexibility Score: inf
ROOT
ATOM      1  C   UNL     1       4.180  19.812  47.769  1.00  0.00     0.039 C 
ATOM      2  C   UNL     1       2.801  19.237  47.587  1.00  0.00    -0.077 C 
ATOM      3  C   UNL     1       1.740  19.910  48.085  1.00  0.00    -0.024 C 
ATOM      4  C   UNL     1       0.294  19.447  47.923  1.00  0.00     0.021 C 
ATOM      5  C   UNL     1      -0.592  19.915  49.138  1.00  0.00    -0.001 C 
ATOM      6  C   UNL     1      -1.691  18.878  49.505  1.00  0.00     0.007 C 
ATOM      7  C   UNL     1      -2.266  18.163  48.275  1.00  0.00     0.035 C 
ATOM      8  C   UNL     1      -1.193  17.344  47.500  1.00  0.00     0.065 C 
ATOM      9  C   UNL     1       0.258  17.903  47.737  1.00  0.00     0.028 C 
ATOM     10  C   UNL     1       1.230  17.507  46.605  1.00  0.00     0.011 C 
ATOM     11  C   UNL     1       2.668  17.856  46.987  1.00  0.00     0.031 C 
ATOM     12  C   UNL     1      -1.257  15.876  47.972  1.00  0.00     0.042 C 
ENDROOT
BRANCH   5  13
ATOM     13  C   UNL     1      -1.193  21.366  49.026  1.00  0.00    -0.014 C 
ATOM     14  C   UNL     1      -2.398  21.640  49.942  1.00  0.00     0.007 C 
ATOM     15  C   UNL     1      -1.529  21.779  47.588  1.00  0.00     0.007 C 
ENDBRANCH   5  13
BRANCH   8  16
ATOM     16  O   UNL     1      -1.517  17.353  46.126  1.00  0.00    -0.390 OA
ATOM     17  H   UNL     1      -1.500  16.414  45.801  1.00  0.00     0.211 HD
ENDBRANCH   8  16
TORSDOF 2
ENDMDL
MODEL 6
REMARK VINA RESULT:    -5.278      7.652     10.708
REMARK INTER + INTRA:          -6.096
REMARK INTER:                  -5.765
REMARK INTRA:                  -0.332
REMARK UNBOUND:                -0.356
REMARK SMILES CC1=C[C@@H]2[C@@H](C(C)C)CC[C@@](C)(O)[C@H]2CC1
REMARK SMILES IDX 1 1 2 2 3 3 4 4 5 5 9 6 10 7 11 8 14 9 15 10 16 11 12 12
REMARK SMILES IDX 6 13 7 14 8 15 13 16
REMARK H PARENT 13 17
REMARK Flexibility Score: inf
ROOT
ATOM      1  C   UNL     1       4.449  21.818  39.205  1.00  0.00     0.039 C 
ATOM      2  C   UNL     1       3.519  22.997  39.124  1.00  0.00    -0.077 C 
ATOM      3  C   UNL     1       2.755  23.304  40.195  1.00  0.00    -0.024 C 
ATOM      4  C   UNL     1       1.808  24.501  40.244  1.00  0.00     0.021 C 
ATOM      5  C   UNL     1       0.577  24.215  41.184  1.00  0.00    -0.001 C 
ATOM      6  C   UNL     1      -0.729  24.882  40.669  1.00  0.00     0.007 C 
ATOM      7  C   UNL     1      -0.479  26.243  40.006  1.00  0.00     0.035 C 
ATOM      8  C   UNL     1       0.433  26.142  38.750  1.00  0.00     0.065 C 
ATOM      9  C   UNL     1       1.364  24.875  38.801  1.00  0.00     0.028 C 
ATOM     10  C   UNL     1       2.616  25.032  37.911  1.00  0.00     0.011 C 
ATOM     11  C   UNL     1       3.362  23.704  37.796  1.00  0.00     0.031 C 
ATOM     12  C   UNL     1      -0.461  26.065  37.495  1.00  0.00     0.042 C 
ENDROOT
BRANCH   5  13
ATOM     13  C   UNL     1       0.804  24.512  42.714  1.00  0.00    -0.014 C 
ATOM     14  C   UNL     1      -0.472  24.485  43.574  1.00  0.00     0.007 C 
ATOM     15  C   UNL     1       1.581  25.807  42.977  1.00  0.00     0.007 C 
ENDBRANCH   5  13
BRANCH   8  16
ATOM     16  O   UNL     1       1.198  27.323  38.644  1.00  0.00    -0.390 OA
ATOM     17  H   UNL     1       2.052  27.097  38.189  1.00  0.00     0.211 HD
ENDBRANCH   8  16
TORSDOF 2
ENDMDL
MODEL 7
REMARK VINA RESULT:    -5.171      8.294     11.050
REMARK INTER + INTRA:          -5.981
REMARK INTER:                  -5.661
REMARK INTRA:                  -0.320
REMARK UNBOUND:                -0.356
REMARK SMILES CC1=C[C@@H]2[C@@H](C(C)C)CC[C@@](C)(O)[C@H]2CC1
REMARK SMILES IDX 1 1 2 2 3 3 4 4 5 5 9 6 10 7 11 8 14 9 15 10 16 11 12 12
REMARK SMILES IDX 6 13 7 14 8 15 13 16
REMARK H PARENT 13 17
REMARK Flexibility Score: inf
ROOT
ATOM      1  C   UNL     1       4.396  21.724  40.523  1.00  0.00     0.039 C 
ATOM      2  C   UNL     1       5.644  20.937  40.821  1.00  0.00    -0.077 C 
ATOM      3  C   UNL     1       5.714  20.229  41.969  1.00  0.00    -0.024 C 
ATOM      4  C   UNL     1       6.909  19.361  42.356  1.00  0.00     0.021 C 
ATOM      5  C   UNL     1       7.077  19.289  43.920  1.00  0.00    -0.001 C 
ATOM      6  C   UNL     1       8.568  19.220  44.354  1.00  0.00     0.007 C 
ATOM      7  C   UNL     1       9.432  18.408  43.379  1.00  0.00     0.035 C 
ATOM      8  C   UNL     1       9.465  19.022  41.950  1.00  0.00     0.065 C 
ATOM      9  C   UNL     1       8.191  19.897  41.657  1.00  0.00     0.028 C 
ATOM     10  C   UNL     1       7.919  20.046  40.145  1.00  0.00     0.011 C 
ATOM     11  C   UNL     1       6.831  21.090  39.896  1.00  0.00     0.031 C 
ATOM     12  C   UNL     1      10.727  19.901  41.819  1.00  0.00     0.042 C 
ENDROOT
BRANCH   5  13
ATOM     13  C   UNL     1       6.221  18.186  44.648  1.00  0.00    -0.014 C 
ATOM     14  C   UNL     1       6.089  16.858  43.882  1.00  0.00     0.007 C 
ATOM     15  C   UNL     1       4.833  18.676  45.081  1.00  0.00     0.007 C 
ENDBRANCH   5  13
BRANCH   8  16
ATOM     16  O   UNL     1       9.586  17.979  41.008  1.00  0.00    -0.390 OA
ATOM     17  H   UNL     1       8.832  17.347  41.150  1.00  0.00     0.211 HD
ENDBRANCH   8  16
TORSDOF 2
ENDMDL
MODEL 8
REMARK VINA RESULT:    -5.131      1.986      4.275
REMARK INTER + INTRA:          -5.936
REMARK INTER:                  -5.712
REMARK INTRA:                  -0.224
REMARK UNBOUND:                -0.356
REMARK SMILES CC1=C[C@@H]2[C@@H](C(C)C)CC[C@@](C)(O)[C@H]2CC1
REMARK SMILES IDX 1 1 2 2 3 3 4 4 5 5 9 6 10 7 11 8 14 9 15 10 16 11 12 12
REMARK SMILES IDX 6 13 7 14 8 15 13 16
REMARK H PARENT 13 17
REMARK Flexibility Score: inf
ROOT
ATOM      1  C   UNL     1       3.692  21.811  49.563  1.00  0.00     0.039 C 
ATOM      2  C   UNL     1       2.540  21.124  48.881  1.00  0.00    -0.077 C 
ATOM      3  C   UNL     1       1.279  21.444  49.244  1.00  0.00    -0.024 C 
ATOM      4  C   UNL     1       0.034  20.846  48.593  1.00  0.00     0.021 C 
ATOM      5  C   UNL     1      -1.164  20.776  49.613  1.00  0.00    -0.001 C 
ATOM      6  C   UNL     1      -2.061  19.526  49.391  1.00  0.00     0.007 C 
ATOM      7  C   UNL     1      -2.199  19.152  47.909  1.00  0.00     0.035 C 
ATOM      8  C   UNL     1      -0.837  18.782  47.253  1.00  0.00     0.065 C 
ATOM      9  C   UNL     1       0.375  19.448  48.001  1.00  0.00     0.028 C 
ATOM     10  C   UNL     1       1.622  19.572  47.100  1.00  0.00     0.011 C 
ATOM     11  C   UNL     1       2.839  19.993  47.922  1.00  0.00     0.031 C 
ATOM     12  C   UNL     1      -0.674  17.248  47.285  1.00  0.00     0.042 C 
ENDROOT
BRANCH   5  13
ATOM     13  C   UNL     1      -2.031  22.085  49.737  1.00  0.00    -0.014 C 
ATOM     14  C   UNL     1      -1.634  23.219  48.776  1.00  0.00     0.007 C 
ATOM     15  C   UNL     1      -2.121  22.626  51.170  1.00  0.00     0.007 C 
ENDBRANCH   5  13
BRANCH   8  16
ATOM     16  O   UNL     1      -0.865  19.168  45.896  1.00  0.00    -0.390 OA
ATOM     17  H   UNL     1       0.016  19.569  45.673  1.00  0.00     0.211 HD
ENDBRANCH   8  16
TORSDOF 2
ENDMDL
