MODEL 1
REMARK VINA RESULT:    -3.747      0.000      0.000
REMARK INTER + INTRA:          -9.536
REMARK INTER:                  -6.813
REMARK INTRA:                  -2.723
REMARK UNBOUND:                -2.723
REMARK SMILES CCCCCCCCCCCCCCCC(=O)[O-]
REMARK SMILES IDX 9 1 10 2 11 3 12 4 13 5 14 6 15 7 16 8 17 9 18 10 8 11 7 12
REMARK SMILES IDX 6 13 5 14 4 15 3 16 2 17 1 18
REMARK H PARENT
REMARK Flexibility Score: inf
ROOT
ATOM      1  C   UNL     1     -22.362 120.580  -0.599  1.00  0.00     0.000 C 
ENDROOT
BRANCH   1   2
ATOM      2  C   UNL     1     -20.895 121.048  -0.630  1.00  0.00     0.000 C 
BRANCH   2   3
ATOM      3  C   UNL     1     -20.041 120.427  -1.749  1.00  0.00     0.000 C 
BRANCH   3   4
ATOM      4  C   UNL     1     -19.942 118.895  -1.646  1.00  0.00     0.000 C 
BRANCH   4   5
ATOM      5  C   UNL     1     -20.617 118.179  -2.827  1.00  0.00     0.000 C 
BRANCH   5   6
ATOM      6  C   UNL     1     -20.213 116.701  -2.930  1.00  0.00     0.006 C 
BRANCH   6   7
ATOM      7  C   UNL     1     -19.102 116.369  -1.930  1.00  0.00     0.053 C 
BRANCH   7   8
ATOM      8  C   UNL     1     -19.454 115.147  -1.140  1.00  0.00     0.041 C 
ATOM      9  O   UNL     1     -20.425 114.424  -1.489  1.00  0.00    -0.550 OA
ATOM     10  O   UNL     1     -18.683 114.782  -0.043  1.00  0.00    -0.550 OA
ENDBRANCH   7   8
ENDBRANCH   6   7
ENDBRANCH   5   6
ENDBRANCH   4   5
ENDBRANCH   3   4
ENDBRANCH   2   3
ENDBRANCH   1   2
BRANCH   1  11
ATOM     11  C   UNL     1     -23.198 120.977  -1.832  1.00  0.00     0.000 C 
BRANCH  11  12
ATOM     12  C   UNL     1     -23.926 119.789  -2.496  1.00  0.00    -0.000 C 
BRANCH  12  13
ATOM     13  C   UNL     1     -24.301 118.693  -1.488  1.00  0.00    -0.000 C 
BRANCH  13  14
ATOM     14  C   UNL     1     -24.036 117.298  -2.066  1.00  0.00    -0.000 C 
BRANCH  14  15
ATOM     15  C   UNL     1     -23.418 116.372  -1.010  1.00  0.00    -0.000 C 
BRANCH  15  16
ATOM     16  C   UNL     1     -23.267 117.045   0.364  1.00  0.00    -0.000 C 
BRANCH  16  17
ATOM     17  C   UNL     1     -21.812 117.078   0.879  1.00  0.00    -0.003 C 
ATOM     18  C   UNL     1     -21.627 118.061   2.034  1.00  0.00     0.004 C 
ENDBRANCH  16  17
ENDBRANCH  15  16
ENDBRANCH  14  15
ENDBRANCH  13  14
ENDBRANCH  12  13
ENDBRANCH  11  12
ENDBRANCH   1  11
TORSDOF 14
ENDMDL
MODEL 2
REMARK VINA RESULT:    -3.723      0.998      1.779
REMARK INTER + INTRA:          -9.493
REMARK INTER:                  -6.930
REMARK INTRA:                  -2.563
REMARK UNBOUND:                -2.723
REMARK SMILES CCCCCCCCCCCCCCCC(=O)[O-]
REMARK SMILES IDX 9 1 10 2 11 3 12 4 13 5 14 6 15 7 16 8 17 9 18 10 8 11 7 12
REMARK SMILES IDX 6 13 5 14 4 15 3 16 2 17 1 18
REMARK H PARENT
REMARK Flexibility Score: inf
ROOT
ATOM      1  C   UNL     1     -20.759 120.627  -2.011  1.00  0.00     0.000 C 
ENDROOT
BRANCH   1   2
ATOM      2  C   UNL     1     -19.603 119.731  -1.528  1.00  0.00     0.000 C 
BRANCH   2   3
ATOM      3  C   UNL     1     -19.869 118.219  -1.633  1.00  0.00     0.000 C 
BRANCH   3   4
ATOM      4  C   UNL     1     -20.698 117.843  -2.874  1.00  0.00     0.000 C 
BRANCH   4   5
ATOM      5  C   UNL     1     -20.411 116.415  -3.365  1.00  0.00     0.000 C 
BRANCH   5   6
ATOM      6  C   UNL     1     -21.170 115.350  -2.559  1.00  0.00     0.006 C 
BRANCH   6   7
ATOM      7  C   UNL     1     -20.285 114.126  -2.305  1.00  0.00     0.053 C 
BRANCH   7   8
ATOM      8  C   UNL     1     -19.097 114.500  -1.475  1.00  0.00     0.041 C 
ATOM      9  O   UNL     1     -17.937 114.432  -1.962  1.00  0.00    -0.550 OA
ATOM     10  O   UNL     1     -19.273 114.964  -0.178  1.00  0.00    -0.550 OA
ENDBRANCH   7   8
ENDBRANCH   6   7
ENDBRANCH   5   6
ENDBRANCH   4   5
ENDBRANCH   3   4
ENDBRANCH   2   3
ENDBRANCH   1   2
BRANCH   1  11
ATOM     11  C   UNL     1     -21.540 121.343  -0.893  1.00  0.00     0.000 C 
BRANCH  11  12
ATOM     12  C   UNL     1     -22.984 120.828  -0.716  1.00  0.00    -0.000 C 
BRANCH  12  13
ATOM     13  C   UNL     1     -23.547 120.207  -2.003  1.00  0.00    -0.000 C 
BRANCH  13  14
ATOM     14  C   UNL     1     -23.983 118.755  -1.770  1.00  0.00    -0.000 C 
BRANCH  14  15
ATOM     15  C   UNL     1     -23.871 118.377  -0.287  1.00  0.00    -0.000 C 
BRANCH  15  16
ATOM     16  C   UNL     1     -23.467 116.910  -0.071  1.00  0.00    -0.000 C 
BRANCH  16  17
ATOM     17  C   UNL     1     -22.148 116.741   0.713  1.00  0.00    -0.003 C 
ATOM     18  C   UNL     1     -21.813 117.971   1.557  1.00  0.00     0.004 C 
ENDBRANCH  16  17
ENDBRANCH  15  16
ENDBRANCH  14  15
ENDBRANCH  13  14
ENDBRANCH  12  13
ENDBRANCH  11  12
ENDBRANCH   1  11
TORSDOF 14
ENDMDL
MODEL 3
REMARK VINA RESULT:    -3.706      1.531      3.921
REMARK INTER + INTRA:          -9.463
REMARK INTER:                  -7.069
REMARK INTRA:                  -2.395
REMARK UNBOUND:                -2.723
REMARK SMILES CCCCCCCCCCCCCCCC(=O)[O-]
REMARK SMILES IDX 9 1 10 2 11 3 12 4 13 5 14 6 15 7 16 8 17 9 18 10 8 11 7 12
REMARK SMILES IDX 6 13 5 14 4 15 3 16 2 17 1 18
REMARK H PARENT
REMARK Flexibility Score: inf
ROOT
ATOM      1  C   UNL     1     -24.080 117.640  -1.089  1.00  0.00     0.000 C 
ENDROOT
BRANCH   1   2
ATOM      2  C   UNL     1     -23.243 116.364  -0.880  1.00  0.00     0.000 C 
BRANCH   2   3
ATOM      3  C   UNL     1     -22.351 116.374   0.374  1.00  0.00     0.000 C 
BRANCH   3   4
ATOM      4  C   UNL     1     -20.959 115.768   0.123  1.00  0.00     0.000 C 
BRANCH   4   5
ATOM      5  C   UNL     1     -20.963 114.729  -1.009  1.00  0.00     0.000 C 
BRANCH   5   6
ATOM      6  C   UNL     1     -19.592 114.061  -1.201  1.00  0.00     0.006 C 
BRANCH   6   7
ATOM      7  C   UNL     1     -18.551 114.674  -0.261  1.00  0.00     0.053 C 
BRANCH   7   8
ATOM      8  C   UNL     1     -17.287 114.977  -1.003  1.00  0.00     0.041 C 
ATOM      9  O   UNL     1     -16.210 114.410  -0.679  1.00  0.00    -0.550 OA
ATOM     10  O   UNL     1     -17.306 115.855  -2.079  1.00  0.00    -0.550 OA
ENDBRANCH   7   8
ENDBRANCH   6   7
ENDBRANCH   5   6
ENDBRANCH   4   5
ENDBRANCH   3   4
ENDBRANCH   2   3
ENDBRANCH   1   2
BRANCH   1  11
ATOM     11  C   UNL     1     -23.621 118.862  -0.269  1.00  0.00     0.000 C 
BRANCH  11  12
ATOM     12  C   UNL     1     -23.499 120.156  -1.101  1.00  0.00    -0.000 C 
BRANCH  12  13
ATOM     13  C   UNL     1     -22.303 121.019  -0.671  1.00  0.00    -0.000 C 
BRANCH  13  14
ATOM     14  C   UNL     1     -21.113 120.145  -0.259  1.00  0.00    -0.000 C 
BRANCH  14  15
ATOM     15  C   UNL     1     -20.143 119.945  -1.430  1.00  0.00    -0.000 C 
BRANCH  15  16
ATOM     16  C   UNL     1     -19.970 118.468  -1.821  1.00  0.00    -0.000 C 
BRANCH  16  17
ATOM     17  C   UNL     1     -20.852 118.037  -3.012  1.00  0.00    -0.003 C 
ATOM     18  C   UNL     1     -20.231 116.891  -3.810  1.00  0.00     0.004 C 
ENDBRANCH  16  17
ENDBRANCH  15  16
ENDBRANCH  14  15
ENDBRANCH  13  14
ENDBRANCH  12  13
ENDBRANCH  11  12
ENDBRANCH   1  11
TORSDOF 14
ENDMDL
MODEL 4
REMARK VINA RESULT:    -3.683      2.869      6.233
REMARK INTER + INTRA:          -9.420
REMARK INTER:                  -7.392
REMARK INTRA:                  -2.028
REMARK UNBOUND:                -2.723
REMARK SMILES CCCCCCCCCCCCCCCC(=O)[O-]
REMARK SMILES IDX 9 1 10 2 11 3 12 4 13 5 14 6 15 7 16 8 17 9 18 10 8 11 7 12
REMARK SMILES IDX 6 13 5 14 4 15 3 16 2 17 1 18
REMARK H PARENT
REMARK Flexibility Score: inf
ROOT
ATOM      1  C   UNL     1     -19.406 114.968  -0.266  1.00  0.00     0.000 C 
ENDROOT
BRANCH   1   2
ATOM      2  C   UNL     1     -20.635 114.430  -1.024  1.00  0.00     0.000 C 
BRANCH   2   3
ATOM      3  C   UNL     1     -21.798 115.428  -1.161  1.00  0.00     0.000 C 
BRANCH   3   4
ATOM      4  C   UNL     1     -22.077 116.204   0.138  1.00  0.00     0.000 C 
BRANCH   4   5
ATOM      5  C   UNL     1     -21.835 117.714  -0.012  1.00  0.00     0.000 C 
BRANCH   5   6
ATOM      6  C   UNL     1     -21.402 118.104  -1.434  1.00  0.00     0.006 C 
BRANCH   6   7
ATOM      7  C   UNL     1     -19.986 118.688  -1.432  1.00  0.00     0.053 C 
BRANCH   7   8
ATOM      8  C   UNL     1     -20.033 120.179  -1.312  1.00  0.00     0.041 C 
ATOM      9  O   UNL     1     -20.380 120.717  -0.227  1.00  0.00    -0.550 OA
ATOM     10  O   UNL     1     -19.653 120.975  -2.385  1.00  0.00    -0.550 OA
ENDBRANCH   7   8
ENDBRANCH   6   7
ENDBRANCH   5   6
ENDBRANCH   4   5
ENDBRANCH   3   4
ENDBRANCH   2   3
ENDBRANCH   1   2
BRANCH   1  11
ATOM     11  C   UNL     1     -18.108 114.165  -0.477  1.00  0.00     0.000 C 
BRANCH  11  12
ATOM     12  C   UNL     1     -16.927 115.017  -0.989  1.00  0.00    -0.000 C 
BRANCH  12  13
ATOM     13  C   UNL     1     -17.097 115.431  -2.459  1.00  0.00    -0.000 C 
BRANCH  13  14
ATOM     14  C   UNL     1     -17.292 114.204  -3.358  1.00  0.00    -0.000 C 
BRANCH  14  15
ATOM     15  C   UNL     1     -18.529 114.366  -4.252  1.00  0.00    -0.000 C 
BRANCH  15  16
ATOM     16  C   UNL     1     -19.181 115.752  -4.128  1.00  0.00    -0.000 C 
BRANCH  16  17
ATOM     17  C   UNL     1     -20.125 116.097  -5.299  1.00  0.00    -0.003 C 
ATOM     18  C   UNL     1     -20.941 117.363  -5.034  1.00  0.00     0.004 C 
ENDBRANCH  16  17
ENDBRANCH  15  16
ENDBRANCH  14  15
ENDBRANCH  13  14
ENDBRANCH  12  13
ENDBRANCH  11  12
ENDBRANCH   1  11
TORSDOF 14
ENDMDL
MODEL 5
REMARK VINA RESULT:    -3.636      1.511      2.709
REMARK INTER + INTRA:          -9.336
REMARK INTER:                  -6.983
REMARK INTRA:                  -2.353
REMARK UNBOUND:                -2.723
REMARK SMILES CCCCCCCCCCCCCCCC(=O)[O-]
REMARK SMILES IDX 9 1 10 2 11 3 12 4 13 5 14 6 15 7 16 8 17 9 18 10 8 11 7 12
REMARK SMILES IDX 6 13 5 14 4 15 3 16 2 17 1 18
REMARK H PARENT
REMARK Flexibility Score: inf
ROOT
ATOM      1  C   UNL     1     -20.350 120.613  -2.464  1.00  0.00     0.000 C 
ENDROOT
BRANCH   1   2
ATOM      2  C   UNL     1     -21.480 120.083  -3.367  1.00  0.00     0.000 C 
BRANCH   2   3
ATOM      3  C   UNL     1     -21.213 118.703  -3.993  1.00  0.00     0.000 C 
BRANCH   3   4
ATOM      4  C   UNL     1     -22.032 117.579  -3.335  1.00  0.00     0.000 C 
BRANCH   4   5
ATOM      5  C   UNL     1     -21.184 116.335  -3.023  1.00  0.00     0.000 C 
BRANCH   5   6
ATOM      6  C   UNL     1     -19.676 116.603  -3.146  1.00  0.00     0.006 C 
BRANCH   6   7
ATOM      7  C   UNL     1     -19.021 116.676  -1.764  1.00  0.00     0.053 C 
BRANCH   7   8
ATOM      8  C   UNL     1     -17.959 115.630  -1.630  1.00  0.00     0.041 C 
ATOM      9  O   UNL     1     -17.926 114.888  -0.613  1.00  0.00    -0.550 OA
ATOM     10  O   UNL     1     -17.032 115.445  -2.648  1.00  0.00    -0.550 OA
ENDBRANCH   7   8
ENDBRANCH   6   7
ENDBRANCH   5   6
ENDBRANCH   4   5
ENDBRANCH   3   4
ENDBRANCH   2   3
ENDBRANCH   1   2
BRANCH   1  11
ATOM     11  C   UNL     1     -20.632 120.528  -0.951  1.00  0.00     0.000 C 
BRANCH  11  12
ATOM     12  C   UNL     1     -22.130 120.623  -0.593  1.00  0.00    -0.000 C 
BRANCH  12  13
ATOM     13  C   UNL     1     -22.675 119.317   0.006  1.00  0.00    -0.000 C 
BRANCH  13  14
ATOM     14  C   UNL     1     -21.538 118.332   0.304  1.00  0.00    -0.000 C 
BRANCH  14  15
ATOM     15  C   UNL     1     -22.046 117.133   1.115  1.00  0.00    -0.000 C 
BRANCH  15  16
ATOM     16  C   UNL     1     -22.490 115.956   0.232  1.00  0.00    -0.000 C 
BRANCH  16  17
ATOM     17  C   UNL     1     -24.023 115.793   0.144  1.00  0.00    -0.003 C 
ATOM     18  C   UNL     1     -24.537 115.909  -1.291  1.00  0.00     0.004 C 
ENDBRANCH  16  17
ENDBRANCH  15  16
ENDBRANCH  14  15
ENDBRANCH  13  14
ENDBRANCH  12  13
ENDBRANCH  11  12
ENDBRANCH   1  11
TORSDOF 14
ENDMDL
MODEL 6
REMARK VINA RESULT:    -3.615      1.501      3.478
REMARK INTER + INTRA:          -9.297
REMARK INTER:                  -6.859
REMARK INTRA:                  -2.438
REMARK UNBOUND:                -2.723
REMARK SMILES CCCCCCCCCCCCCCCC(=O)[O-]
REMARK SMILES IDX 9 1 10 2 11 3 12 4 13 5 14 6 15 7 16 8 17 9 18 10 8 11 7 12
REMARK SMILES IDX 6 13 5 14 4 15 3 16 2 17 1 18
REMARK H PARENT
REMARK Flexibility Score: inf
ROOT
ATOM      1  C   UNL     1     -21.456 117.106  -0.021  1.00  0.00     0.000 C 
ENDROOT
BRANCH   1   2
ATOM      2  C   UNL     1     -21.328 115.586  -0.234  1.00  0.00     0.000 C 
BRANCH   2   3
ATOM      3  C   UNL     1     -21.191 115.148  -1.703  1.00  0.00     0.000 C 
BRANCH   3   4
ATOM      4  C   UNL     1     -20.987 116.333  -2.664  1.00  0.00     0.000 C 
BRANCH   4   5
ATOM      5  C   UNL     1     -19.519 116.502  -3.090  1.00  0.00     0.000 C 
BRANCH   5   6
ATOM      6  C   UNL     1     -18.652 115.292  -2.710  1.00  0.00     0.006 C 
BRANCH   6   7
ATOM      7  C   UNL     1     -17.430 115.730  -1.897  1.00  0.00     0.053 C 
BRANCH   7   8
ATOM      8  C   UNL     1     -17.112 114.719  -0.840  1.00  0.00     0.041 C 
ATOM      9  O   UNL     1     -18.034 114.219  -0.143  1.00  0.00    -0.550 OA
ATOM     10  O   UNL     1     -15.802 114.297  -0.654  1.00  0.00    -0.550 OA
ENDBRANCH   7   8
ENDBRANCH   6   7
ENDBRANCH   5   6
ENDBRANCH   4   5
ENDBRANCH   3   4
ENDBRANCH   2   3
ENDBRANCH   1   2
BRANCH   1  11
ATOM     11  C   UNL     1     -22.711 117.551   0.755  1.00  0.00     0.000 C 
BRANCH  11  12
ATOM     12  C   UNL     1     -23.631 118.498  -0.044  1.00  0.00    -0.000 C 
BRANCH  12  13
ATOM     13  C   UNL     1     -24.110 117.875  -1.364  1.00  0.00    -0.000 C 
BRANCH  13  14
ATOM     14  C   UNL     1     -23.751 118.768  -2.557  1.00  0.00    -0.000 C 
BRANCH  14  15
ATOM     15  C   UNL     1     -22.900 119.965  -2.114  1.00  0.00    -0.000 C 
BRANCH  15  16
ATOM     16  C   UNL     1     -21.599 120.108  -2.921  1.00  0.00    -0.000 C 
BRANCH  16  17
ATOM     17  C   UNL     1     -20.324 120.020  -2.056  1.00  0.00    -0.003 C 
ATOM     18  C   UNL     1     -20.481 120.735  -0.714  1.00  0.00     0.004 C 
ENDBRANCH  16  17
ENDBRANCH  15  16
ENDBRANCH  14  15
ENDBRANCH  13  14
ENDBRANCH  12  13
ENDBRANCH  11  12
ENDBRANCH   1  11
TORSDOF 14
ENDMDL
MODEL 7
REMARK VINA RESULT:    -3.601      2.568      5.492
REMARK INTER + INTRA:          -9.272
REMARK INTER:                  -7.197
REMARK INTRA:                  -2.074
REMARK UNBOUND:                -2.723
REMARK SMILES CCCCCCCCCCCCCCCC(=O)[O-]
REMARK SMILES IDX 9 1 10 2 11 3 12 4 13 5 14 6 15 7 16 8 17 9 18 10 8 11 7 12
REMARK SMILES IDX 6 13 5 14 4 15 3 16 2 17 1 18
REMARK H PARENT
REMARK Flexibility Score: inf
ROOT
ATOM      1  C   UNL     1     -20.123 116.372  -2.631  1.00  0.00     0.000 C 
ENDROOT
BRANCH   1   2
ATOM      2  C   UNL     1     -20.055 115.975  -1.144  1.00  0.00     0.000 C 
BRANCH   2   3
ATOM      3  C   UNL     1     -21.117 114.955  -0.698  1.00  0.00     0.000 C 
BRANCH   3   4
ATOM      4  C   UNL     1     -22.273 115.599   0.087  1.00  0.00     0.000 C 
BRANCH   4   5
ATOM      5  C   UNL     1     -21.857 116.902   0.790  1.00  0.00     0.000 C 
BRANCH   5   6
ATOM      6  C   UNL     1     -22.963 117.967   0.762  1.00  0.00     0.006 C 
BRANCH   6   7
ATOM      7  C   UNL     1     -23.896 117.753  -0.433  1.00  0.00     0.053 C 
BRANCH   7   8
ATOM      8  C   UNL     1     -25.328 117.819  -0.001  1.00  0.00     0.041 C 
ATOM      9  O   UNL     1     -25.648 117.520   1.180  1.00  0.00    -0.550 OA
ATOM     10  O   UNL     1     -26.303 118.253  -0.890  1.00  0.00    -0.550 OA
ENDBRANCH   7   8
ENDBRANCH   6   7
ENDBRANCH   5   6
ENDBRANCH   4   5
ENDBRANCH   3   4
ENDBRANCH   2   3
ENDBRANCH   1   2
BRANCH   1  11
ATOM     11  C   UNL     1     -20.463 117.852  -2.895  1.00  0.00     0.000 C 
BRANCH  11  12
ATOM     12  C   UNL     1     -20.007 118.804  -1.768  1.00  0.00    -0.000 C 
BRANCH  12  13
ATOM     13  C   UNL     1     -20.269 120.280  -2.105  1.00  0.00    -0.000 C 
BRANCH  13  14
ATOM     14  C   UNL     1     -20.803 121.037  -0.883  1.00  0.00    -0.000 C 
BRANCH  14  15
ATOM     15  C   UNL     1     -22.336 121.101  -0.901  1.00  0.00    -0.000 C 
BRANCH  15  16
ATOM     16  C   UNL     1     -22.931 120.852  -2.296  1.00  0.00    -0.000 C 
BRANCH  16  17
ATOM     17  C   UNL     1     -24.470 120.960  -2.339  1.00  0.00    -0.003 C 
ATOM     18  C   UNL     1     -24.968 121.668  -3.599  1.00  0.00     0.004 C 
ENDBRANCH  16  17
ENDBRANCH  15  16
ENDBRANCH  14  15
ENDBRANCH  13  14
ENDBRANCH  12  13
ENDBRANCH  11  12
ENDBRANCH   1  11
TORSDOF 14
ENDMDL
MODEL 8
REMARK VINA RESULT:    -3.588      2.838      5.852
REMARK INTER + INTRA:          -9.248
REMARK INTER:                  -7.154
REMARK INTRA:                  -2.094
REMARK UNBOUND:                -2.723
REMARK SMILES CCCCCCCCCCCCCCCC(=O)[O-]
REMARK SMILES IDX 9 1 10 2 11 3 12 4 13 5 14 6 15 7 16 8 17 9 18 10 8 11 7 12
REMARK SMILES IDX 6 13 5 14 4 15 3 16 2 17 1 18
REMARK H PARENT
REMARK Flexibility Score: inf
ROOT
ATOM      1  C   UNL     1     -21.814 116.770  -0.853  1.00  0.00     0.000 C 
ENDROOT
BRANCH   1   2
ATOM      2  C   UNL     1     -21.529 116.922  -2.359  1.00  0.00     0.000 C 
BRANCH   2   3
ATOM      3  C   UNL     1     -20.429 117.939  -2.710  1.00  0.00     0.000 C 
BRANCH   3   4
ATOM      4  C   UNL     1     -19.909 118.706  -1.481  1.00  0.00     0.000 C 
BRANCH   4   5
ATOM      5  C   UNL     1     -19.822 120.221  -1.724  1.00  0.00     0.000 C 
BRANCH   5   6
ATOM      6  C   UNL     1     -20.912 121.002  -0.972  1.00  0.00     0.006 C 
BRANCH   6   7
ATOM      7  C   UNL     1     -22.238 120.961  -1.737  1.00  0.00     0.053 C 
BRANCH   7   8
ATOM      8  C   UNL     1     -23.348 120.512  -0.839  1.00  0.00     0.041 C 
ATOM      9  O   UNL     1     -23.137 119.635   0.040  1.00  0.00    -0.550 OA
ATOM     10  O   UNL     1     -24.605 121.094  -0.944  1.00  0.00    -0.550 OA
ENDBRANCH   7   8
ENDBRANCH   6   7
ENDBRANCH   5   6
ENDBRANCH   4   5
ENDBRANCH   3   4
ENDBRANCH   2   3
ENDBRANCH   1   2
BRANCH   1  11
ATOM     11  C   UNL     1     -21.522 115.373  -0.272  1.00  0.00     0.000 C 
BRANCH  11  12
ATOM     12  C   UNL     1     -20.712 114.464  -1.221  1.00  0.00    -0.000 C 
BRANCH  12  13
ATOM     13  C   UNL     1     -19.292 114.192  -0.702  1.00  0.00    -0.000 C 
BRANCH  13  14
ATOM     14  C   UNL     1     -18.337 115.328  -1.090  1.00  0.00    -0.000 C 
BRANCH  14  15
ATOM     15  C   UNL     1     -17.212 114.816  -1.999  1.00  0.00    -0.000 C 
BRANCH  15  16
ATOM     16  C   UNL     1     -17.734 114.144  -3.279  1.00  0.00    -0.000 C 
BRANCH  16  17
ATOM     17  C   UNL     1     -18.498 115.105  -4.214  1.00  0.00    -0.003 C 
ATOM     18  C   UNL     1     -19.793 114.491  -4.747  1.00  0.00     0.004 C 
ENDBRANCH  16  17
ENDBRANCH  15  16
ENDBRANCH  14  15
ENDBRANCH  13  14
ENDBRANCH  12  13
ENDBRANCH  11  12
ENDBRANCH   1  11
TORSDOF 14
ENDMDL
MODEL 9
REMARK VINA RESULT:    -3.544      1.661      2.928
REMARK INTER + INTRA:          -9.168
REMARK INTER:                  -6.998
REMARK INTRA:                  -2.170
REMARK UNBOUND:                -2.723
REMARK SMILES CCCCCCCCCCCCCCCC(=O)[O-]
REMARK SMILES IDX 9 1 10 2 11 3 12 4 13 5 14 6 15 7 16 8 17 9 18 10 8 11 7 12
REMARK SMILES IDX 6 13 5 14 4 15 3 16 2 17 1 18
REMARK H PARENT
REMARK Flexibility Score: inf
ROOT
ATOM      1  C   UNL     1     -19.625 119.707  -1.413  1.00  0.00     0.000 C 
ENDROOT
BRANCH   1   2
ATOM      2  C   UNL     1     -19.968 118.205  -1.382  1.00  0.00     0.000 C 
BRANCH   2   3
ATOM      3  C   UNL     1     -20.414 117.615  -2.731  1.00  0.00     0.000 C 
BRANCH   3   4
ATOM      4  C   UNL     1     -20.994 116.196  -2.601  1.00  0.00     0.000 C 
BRANCH   4   5
ATOM      5  C   UNL     1     -20.754 115.585  -1.211  1.00  0.00     0.000 C 
BRANCH   5   6
ATOM      6  C   UNL     1     -19.774 114.403  -1.248  1.00  0.00     0.006 C 
BRANCH   6   7
ATOM      7  C   UNL     1     -18.615 114.625  -0.271  1.00  0.00     0.053 C 
BRANCH   7   8
ATOM      8  C   UNL     1     -17.356 114.945  -1.014  1.00  0.00     0.041 C 
ATOM      9  O   UNL     1     -16.259 114.449  -0.645  1.00  0.00    -0.550 OA
ATOM     10  O   UNL     1     -17.400 115.757  -2.140  1.00  0.00    -0.550 OA
ENDBRANCH   7   8
ENDBRANCH   6   7
ENDBRANCH   5   6
ENDBRANCH   4   5
ENDBRANCH   3   4
ENDBRANCH   2   3
ENDBRANCH   1   2
BRANCH   1  11
ATOM     11  C   UNL     1     -20.707 120.609  -2.036  1.00  0.00     0.000 C 
BRANCH  11  12
ATOM     12  C   UNL     1     -21.561 121.364  -0.995  1.00  0.00    -0.000 C 
BRANCH  12  13
ATOM     13  C   UNL     1     -23.011 120.860  -0.948  1.00  0.00    -0.000 C 
BRANCH  13  14
ATOM     14  C   UNL     1     -23.379 120.120  -2.240  1.00  0.00    -0.000 C 
BRANCH  14  15
ATOM     15  C   UNL     1     -23.830 118.684  -1.944  1.00  0.00    -0.000 C 
BRANCH  15  16
ATOM     16  C   UNL     1     -23.497 118.233  -0.513  1.00  0.00    -0.000 C 
BRANCH  16  17
ATOM     17  C   UNL     1     -24.583 117.338   0.121  1.00  0.00    -0.003 C 
ATOM     18  C   UNL     1     -24.235 115.852   0.034  1.00  0.00     0.004 C 
ENDBRANCH  16  17
ENDBRANCH  15  16
ENDBRANCH  14  15
ENDBRANCH  13  14
ENDBRANCH  12  13
ENDBRANCH  11  12
ENDBRANCH   1  11
TORSDOF 14
ENDMDL
