MODEL 1
REMARK VINA RESULT:    11.960      0.000      0.000
REMARK INTER + INTRA:          13.756
REMARK INTER:                  13.009
REMARK INTRA:                   0.747
REMARK UNBOUND:                 0.747
REMARK SMILES C[C@H]1[C@H](C)CC[C@@]2(C(=O)[O-])CC[C@@]3(C)C(=CC[C@@H]4[C@]5(C)CC[C@H](O)C(C)(C)[C@H]5CC[C@@]43C)[C@H]12
REMARK SMILES IDX 7 1 6 2 11 3 33 4 5 5 12 6 15 7 2 8 3 9 13 10 16 11 1 12
REMARK SMILES IDX 4 13 14 14 31 15 17 16 18 17 30 18 32 19 19 20 29 21 28 22
REMARK SMILES IDX 21 23 20 24 25 25 22 26 23 27 26 28 27 29 8 30 9 31 10 32
REMARK SMILES IDX 24 33
REMARK H PARENT 24 34
REMARK Flexibility Score: inf
ROOT
ATOM      1  C   UNL     1      -7.441  24.408  40.127  1.00  0.00     0.017 C 
ATOM      2  C   UNL     1      -7.130  23.239  41.101  1.00  0.00     0.014 C 
ATOM      3  C   UNL     1      -8.331  25.440  40.874  1.00  0.00     0.014 C 
ATOM      4  C   UNL     1      -6.077  25.078  39.743  1.00  0.00     0.030 C 
ATOM      5  C   UNL     1      -6.196  22.203  40.465  1.00  0.00     0.004 C 
ATOM      6  C   UNL     1      -8.456  26.812  40.164  1.00  0.00     0.013 C 
ATOM      7  C   UNL     1      -6.339  26.402  38.995  1.00  0.00    -0.063 C 
ATOM      8  C   UNL     1      -5.061  24.066  39.108  1.00  0.00    -0.003 C 
ATOM      9  C   UNL     1      -4.855  22.834  40.047  1.00  0.00    -0.011 C 
ATOM     10  C   UNL     1      -7.095  27.493  39.766  1.00  0.00    -0.006 C 
ATOM     11  C   UNL     1      -6.244  26.433  37.657  1.00  0.00    -0.027 C 
ATOM     12  C   UNL     1      -3.697  24.753  38.858  1.00  0.00     0.008 C 
ATOM     13  C   UNL     1      -3.974  21.752  39.397  1.00  0.00     0.008 C 
ATOM     14  C   UNL     1      -6.290  27.822  41.070  1.00  0.00     0.017 C 
ATOM     15  C   UNL     1      -7.332  28.865  38.918  1.00  0.00    -0.020 C 
ATOM     16  C   UNL     1      -6.679  27.549  36.785  1.00  0.00     0.032 C 
ATOM     17  C   UNL     1      -7.683  28.565  37.396  1.00  0.00     0.006 C 
ATOM     18  C   UNL     1      -6.061  29.779  38.927  1.00  0.00     0.008 C 
ATOM     19  C   UNL     1      -8.492  29.651  39.623  1.00  0.00     0.012 C 
ATOM     20  C   UNL     1      -7.812  29.867  36.450  1.00  0.00    -0.025 C 
ATOM     21  C   UNL     1      -6.169  31.057  38.067  1.00  0.00     0.005 C 
ATOM     22  C   UNL     1      -6.508  30.750  36.591  1.00  0.00     0.003 C 
ATOM     23  C   UNL     1      -7.942  29.458  34.940  1.00  0.00     0.010 C 
ATOM     24  C   UNL     1      -9.125  30.635  36.818  1.00  0.00     0.012 C 
ATOM     25  C   UNL     1      -6.394  31.984  35.602  1.00  0.00    -0.006 C 
ATOM     26  C   UNL     1      -7.895  30.640  33.951  1.00  0.00     0.033 C 
ATOM     27  C   UNL     1      -6.643  31.519  34.121  1.00  0.00     0.120 C 
ATOM     28  C   UNL     1      -4.965  32.592  35.677  1.00  0.00     0.014 C 
ATOM     29  C   UNL     1      -7.373  33.138  35.942  1.00  0.00     0.014 C 
ENDROOT
BRANCH   1  30
ATOM     30  C   UNL     1      -8.235  23.870  38.932  1.00  0.00     0.048 C 
ATOM     31  O   UNL     1      -8.218  22.637  38.667  1.00  0.00    -0.550 OA
ATOM     32  O   UNL     1      -9.063  24.686  38.177  1.00  0.00    -0.550 OA
ENDBRANCH   1  30
BRANCH  27  33
ATOM     33  O   UNL     1      -5.520  30.883  33.554  1.00  0.00    -0.393 OA
ATOM     34  H   UNL     1      -4.740  31.486  33.641  1.00  0.00     0.210 HD
ENDBRANCH  27  33
TORSDOF 2
ENDMDL
MODEL 2
REMARK VINA RESULT:    12.711      2.284      3.946
REMARK INTER + INTRA:          14.572
REMARK INTER:                  13.731
REMARK INTRA:                   0.842
REMARK UNBOUND:                 0.747
REMARK SMILES C[C@H]1[C@H](C)CC[C@@]2(C(=O)[O-])CC[C@@]3(C)C(=CC[C@@H]4[C@]5(C)CC[C@H](O)C(C)(C)[C@H]5CC[C@@]43C)[C@H]12
REMARK SMILES IDX 7 1 6 2 11 3 33 4 5 5 12 6 15 7 2 8 3 9 13 10 16 11 1 12
REMARK SMILES IDX 4 13 14 14 31 15 17 16 18 17 30 18 32 19 19 20 29 21 28 22
REMARK SMILES IDX 21 23 20 24 25 25 22 26 23 27 26 28 27 29 8 30 9 31 10 32
REMARK SMILES IDX 24 33
REMARK H PARENT 24 34
REMARK Flexibility Score: inf
ROOT
ATOM      1  C   UNL     1      -5.514  21.502  37.588  1.00  0.00     0.017 C 
ATOM      2  C   UNL     1      -5.282  20.031  38.028  1.00  0.00     0.014 C 
ATOM      3  C   UNL     1      -6.856  21.569  36.805  1.00  0.00     0.014 C 
ATOM      4  C   UNL     1      -5.624  22.372  38.886  1.00  0.00     0.030 C 
ATOM      5  C   UNL     1      -4.009  19.885  38.869  1.00  0.00     0.004 C 
ATOM      6  C   UNL     1      -7.398  23.004  36.584  1.00  0.00     0.013 C 
ATOM      7  C   UNL     1      -6.118  23.789  38.524  1.00  0.00    -0.063 C 
ATOM      8  C   UNL     1      -4.362  22.250  39.808  1.00  0.00    -0.003 C 
ATOM      9  C   UNL     1      -4.069  20.751  40.140  1.00  0.00    -0.011 C 
ATOM     10  C   UNL     1      -7.507  23.892  37.878  1.00  0.00    -0.006 C 
ATOM     11  C   UNL     1      -5.233  24.793  38.438  1.00  0.00    -0.027 C 
ATOM     12  C   UNL     1      -4.574  23.034  41.125  1.00  0.00     0.008 C 
ATOM     13  C   UNL     1      -2.757  20.579  40.927  1.00  0.00     0.008 C 
ATOM     14  C   UNL     1      -8.552  23.247  38.852  1.00  0.00     0.017 C 
ATOM     15  C   UNL     1      -7.966  25.416  37.527  1.00  0.00    -0.020 C 
ATOM     16  C   UNL     1      -5.506  26.141  37.888  1.00  0.00     0.032 C 
ATOM     17  C   UNL     1      -6.755  26.286  36.975  1.00  0.00     0.006 C 
ATOM     18  C   UNL     1      -8.529  26.156  38.787  1.00  0.00     0.008 C 
ATOM     19  C   UNL     1      -9.123  25.320  36.473  1.00  0.00     0.012 C 
ATOM     20  C   UNL     1      -7.088  27.845  36.717  1.00  0.00    -0.025 C 
ATOM     21  C   UNL     1      -8.899  27.639  38.563  1.00  0.00     0.005 C 
ATOM     22  C   UNL     1      -7.713  28.471  38.028  1.00  0.00     0.003 C 
ATOM     23  C   UNL     1      -5.784  28.653  36.385  1.00  0.00     0.010 C 
ATOM     24  C   UNL     1      -8.018  27.966  35.466  1.00  0.00     0.012 C 
ATOM     25  C   UNL     1      -7.944  30.040  38.006  1.00  0.00    -0.006 C 
ATOM     26  C   UNL     1      -5.983  30.180  36.297  1.00  0.00     0.033 C 
ATOM     27  C   UNL     1      -6.630  30.777  37.559  1.00  0.00     0.120 C 
ATOM     28  C   UNL     1      -8.311  30.541  39.431  1.00  0.00     0.014 C 
ATOM     29  C   UNL     1      -9.110  30.477  37.081  1.00  0.00     0.014 C 
ENDROOT
BRANCH   1  30
ATOM     30  C   UNL     1      -4.388  21.928  36.639  1.00  0.00     0.048 C 
ATOM     31  O   UNL     1      -3.550  21.077  36.234  1.00  0.00    -0.550 OA
ATOM     32  O   UNL     1      -4.311  23.212  36.125  1.00  0.00    -0.550 OA
ENDBRANCH   1  30
BRANCH  27  33
ATOM     33  O   UNL     1      -5.679  30.871  38.596  1.00  0.00    -0.393 OA
ATOM     34  H   UNL     1      -5.844  31.707  39.100  1.00  0.00     0.210 HD
ENDBRANCH  27  33
TORSDOF 2
ENDMDL
MODEL 3
REMARK VINA RESULT:    14.252      2.190      7.996
REMARK INTER + INTRA:          16.249
REMARK INTER:                  15.482
REMARK INTRA:                   0.767
REMARK UNBOUND:                 0.747
REMARK SMILES C[C@H]1[C@H](C)CC[C@@]2(C(=O)[O-])CC[C@@]3(C)C(=CC[C@@H]4[C@]5(C)CC[C@H](O)C(C)(C)[C@H]5CC[C@@]43C)[C@H]12
REMARK SMILES IDX 7 1 6 2 11 3 33 4 5 5 12 6 15 7 2 8 3 9 13 10 16 11 1 12
REMARK SMILES IDX 4 13 14 14 31 15 17 16 18 17 30 18 32 19 19 20 29 21 28 22
REMARK SMILES IDX 21 23 20 24 25 25 22 26 23 27 26 28 27 29 8 30 9 31 10 32
REMARK SMILES IDX 24 33
REMARK H PARENT 24 34
REMARK Flexibility Score: inf
ROOT
ATOM      1  C   UNL     1      -7.892  28.949  36.920  1.00  0.00     0.017 C 
ATOM      2  C   UNL     1      -8.395  30.099  36.005  1.00  0.00     0.014 C 
ATOM      3  C   UNL     1      -9.124  28.320  37.630  1.00  0.00     0.014 C 
ATOM      4  C   UNL     1      -7.215  27.876  36.001  1.00  0.00     0.030 C 
ATOM      5  C   UNL     1      -7.249  30.734  35.210  1.00  0.00     0.004 C 
ATOM      6  C   UNL     1      -8.840  26.959  38.316  1.00  0.00     0.013 C 
ATOM      7  C   UNL     1      -6.935  26.595  36.815  1.00  0.00    -0.063 C 
ATOM      8  C   UNL     1      -6.046  28.466  35.138  1.00  0.00    -0.003 C 
ATOM      9  C   UNL     1      -6.540  29.700  34.317  1.00  0.00    -0.011 C 
ATOM     10  C   UNL     1      -8.153  25.873  37.408  1.00  0.00    -0.006 C 
ATOM     11  C   UNL     1      -5.696  26.364  37.274  1.00  0.00    -0.027 C 
ATOM     12  C   UNL     1      -5.494  27.394  34.168  1.00  0.00     0.008 C 
ATOM     13  C   UNL     1      -5.389  30.393  33.565  1.00  0.00     0.008 C 
ATOM     14  C   UNL     1      -9.125  25.502  36.235  1.00  0.00     0.017 C 
ATOM     15  C   UNL     1      -7.785  24.527  38.250  1.00  0.00    -0.020 C 
ATOM     16  C   UNL     1      -5.318  25.314  38.249  1.00  0.00     0.032 C 
ATOM     17  C   UNL     1      -6.461  24.713  39.111  1.00  0.00     0.006 C 
ATOM     18  C   UNL     1      -7.553  23.299  37.306  1.00  0.00     0.008 C 
ATOM     19  C   UNL     1      -9.016  24.202  39.165  1.00  0.00     0.012 C 
ATOM     20  C   UNL     1      -5.950  23.389  39.882  1.00  0.00    -0.025 C 
ATOM     21  C   UNL     1      -7.106  22.003  38.018  1.00  0.00     0.005 C 
ATOM     22  C   UNL     1      -5.819  22.199  38.850  1.00  0.00     0.003 C 
ATOM     23  C   UNL     1      -4.534  23.618  40.519  1.00  0.00     0.010 C 
ATOM     24  C   UNL     1      -6.926  23.081  41.065  1.00  0.00     0.012 C 
ATOM     25  C   UNL     1      -5.166  20.865  39.406  1.00  0.00    -0.006 C 
ATOM     26  C   UNL     1      -3.893  22.353  41.124  1.00  0.00     0.033 C 
ATOM     27  C   UNL     1      -3.806  21.185  40.126  1.00  0.00     0.120 C 
ATOM     28  C   UNL     1      -4.867  19.891  38.232  1.00  0.00     0.014 C 
ATOM     29  C   UNL     1      -6.088  20.092  40.385  1.00  0.00     0.014 C 
ENDROOT
BRANCH   1  30
ATOM     30  C   UNL     1      -6.968  29.530  37.995  1.00  0.00     0.048 C 
ATOM     31  O   UNL     1      -6.518  30.702  37.874  1.00  0.00    -0.550 OA
ATOM     32  O   UNL     1      -6.680  28.840  39.162  1.00  0.00    -0.550 OA
ENDBRANCH   1  30
BRANCH  27  33
ATOM     33  O   UNL     1      -2.747  21.396  39.219  1.00  0.00    -0.393 OA
ATOM     34  H   UNL     1      -2.085  20.670  39.334  1.00  0.00     0.210 HD
ENDBRANCH  27  33
TORSDOF 2
ENDMDL
MODEL 4
REMARK VINA RESULT:    14.595      2.164      8.171
REMARK INTER + INTRA:          16.621
REMARK INTER:                  15.908
REMARK INTRA:                   0.713
REMARK UNBOUND:                 0.747
REMARK SMILES C[C@H]1[C@H](C)CC[C@@]2(C(=O)[O-])CC[C@@]3(C)C(=CC[C@@H]4[C@]5(C)CC[C@H](O)C(C)(C)[C@H]5CC[C@@]43C)[C@H]12
REMARK SMILES IDX 7 1 6 2 11 3 33 4 5 5 12 6 15 7 2 8 3 9 13 10 16 11 1 12
REMARK SMILES IDX 4 13 14 14 31 15 17 16 18 17 30 18 32 19 19 20 29 21 28 22
REMARK SMILES IDX 21 23 20 24 25 25 22 26 23 27 26 28 27 29 8 30 9 31 10 32
REMARK SMILES IDX 24 33
REMARK H PARENT 24 34
REMARK Flexibility Score: inf
ROOT
ATOM      1  C   UNL     1      -6.855  28.668  35.101  1.00  0.00     0.017 C 
ATOM      2  C   UNL     1      -6.619  30.167  34.774  1.00  0.00     0.014 C 
ATOM      3  C   UNL     1      -5.696  27.845  34.473  1.00  0.00     0.014 C 
ATOM      4  C   UNL     1      -6.819  28.513  36.660  1.00  0.00     0.030 C 
ATOM      5  C   UNL     1      -7.684  31.063  35.416  1.00  0.00     0.004 C 
ATOM      6  C   UNL     1      -5.599  26.384  34.981  1.00  0.00     0.013 C 
ATOM      7  C   UNL     1      -6.781  27.016  37.035  1.00  0.00    -0.063 C 
ATOM      8  C   UNL     1      -7.870  29.423  37.385  1.00  0.00    -0.003 C 
ATOM      9  C   UNL     1      -7.698  30.914  36.948  1.00  0.00    -0.011 C 
ATOM     10  C   UNL     1      -5.569  26.212  36.544  1.00  0.00    -0.006 C 
ATOM     11  C   UNL     1      -7.910  26.407  37.426  1.00  0.00    -0.027 C 
ATOM     12  C   UNL     1      -7.711  29.318  38.920  1.00  0.00     0.008 C 
ATOM     13  C   UNL     1      -8.800  31.818  37.530  1.00  0.00     0.008 C 
ATOM     14  C   UNL     1      -4.271  26.887  37.106  1.00  0.00     0.017 C 
ATOM     15  C   UNL     1      -5.593  24.641  36.980  1.00  0.00    -0.020 C 
ATOM     16  C   UNL     1      -8.089  24.946  37.599  1.00  0.00     0.032 C 
ATOM     17  C   UNL     1      -7.056  24.025  36.892  1.00  0.00     0.006 C 
ATOM     18  C   UNL     1      -5.095  24.441  38.451  1.00  0.00     0.008 C 
ATOM     19  C   UNL     1      -4.600  23.883  36.031  1.00  0.00     0.012 C 
ATOM     20  C   UNL     1      -7.197  22.507  37.424  1.00  0.00    -0.025 C 
ATOM     21  C   UNL     1      -5.175  22.990  38.975  1.00  0.00     0.005 C 
ATOM     22  C   UNL     1      -6.602  22.406  38.885  1.00  0.00     0.003 C 
ATOM     23  C   UNL     1      -8.703  22.072  37.497  1.00  0.00     0.010 C 
ATOM     24  C   UNL     1      -6.505  21.545  36.403  1.00  0.00     0.012 C 
ATOM     25  C   UNL     1      -6.812  21.020  39.626  1.00  0.00    -0.006 C 
ATOM     26  C   UNL     1      -8.942  20.700  38.159  1.00  0.00     0.033 C 
ATOM     27  C   UNL     1      -8.324  20.594  39.565  1.00  0.00     0.120 C 
ATOM     28  C   UNL     1      -6.414  21.154  41.123  1.00  0.00     0.014 C 
ATOM     29  C   UNL     1      -5.940  19.875  39.047  1.00  0.00     0.014 C 
ENDROOT
BRANCH   1  30
ATOM     30  C   UNL     1      -8.167  28.212  34.454  1.00  0.00     0.048 C 
ATOM     31  O   UNL     1      -8.466  28.601  33.292  1.00  0.00    -0.550 OA
ATOM     32  O   UNL     1      -9.007  27.297  35.069  1.00  0.00    -0.550 OA
ENDBRANCH   1  30
BRANCH  27  33
ATOM     33  O   UNL     1      -9.121  21.284  40.501  1.00  0.00    -0.393 OA
ATOM     34  H   UNL     1      -8.572  21.991  40.922  1.00  0.00     0.210 HD
ENDBRANCH  27  33
TORSDOF 2
ENDMDL
