MODEL 1
REMARK VINA RESULT:     2.171      0.000      0.000
REMARK INTER + INTRA:           3.277
REMARK INTER:                   2.996
REMARK INTRA:                   0.280
REMARK UNBOUND:                 0.280
REMARK SMILES C[C@@H]1OC(=O)[C@H](C)[C@H]1C[C@H](O)[C@](C)(O)[C@@H]1CC[C@@]2(O)C3=CC(=O)[C@H]4C[C@H](O)[C@H](O)C[C@]4(C)[C@H]3CC[C@@]12C
REMARK SMILES IDX 12 1 13 2 10 3 9 4 8 5 7 6 6 7 4 8 2 9 3 10 5 11 1 12 11 13
REMARK SMILES IDX 15 15 16 16 36 17 17 18 18 19 35 20 37 21 20 22 34 23 33 24
REMARK SMILES IDX 21 25 31 26 22 27 24 28 30 29 32 30 23 31 25 32 28 33 26 34
REMARK SMILES IDX 19 35 29 37 27 39 14 41
REMARK H PARENT 11 14 19 36 29 38 27 40 14 42
REMARK Flexibility Score: inf
ROOT
ATOM      1  C   UNL     1      20.621  34.279  26.204  1.00  0.00     0.091 C 
ATOM      2  C   UNL     1      22.106  34.222  25.719  1.00  0.00     0.045 C 
ENDROOT
BRANCH   1   3
ATOM      3  C   UNL     1      19.716  34.986  25.125  1.00  0.00     0.146 C 
BRANCH   3   4
ATOM      4  C   UNL     1      20.455  35.330  23.801  1.00  0.00     0.043 C 
BRANCH   4   5
ATOM      5  C   UNL     1      19.850  34.598  22.580  1.00  0.00     0.046 C 
ATOM      6  C   UNL     1      20.703  32.397  21.576  1.00  0.00     0.020 C 
ATOM      7  C   UNL     1      20.945  33.904  21.717  1.00  0.00     0.103 C 
ATOM      8  C   UNL     1      20.810  34.585  20.409  1.00  0.00     0.309 C 
ATOM      9  C   UNL     1      19.123  35.598  21.627  1.00  0.00     0.177 C 
ATOM     10  O   UNL     1      19.798  35.516  20.384  1.00  0.00    -0.462 OA
ATOM     11  O   UNL     1      21.554  34.362  19.417  1.00  0.00    -0.252 OA
ATOM     12  C   UNL     1      17.649  35.239  21.431  1.00  0.00     0.053 C 
ENDBRANCH   4   5
ENDBRANCH   3   4
BRANCH   3  13
ATOM     13  O   UNL     1      19.067  36.124  25.640  1.00  0.00    -0.390 OA
ATOM     14  H   UNL     1      19.712  36.635  26.194  1.00  0.00     0.211 HD
ENDBRANCH   3  13
ENDBRANCH   1   3
BRANCH   1  15
ATOM     15  C   UNL     1      20.469  35.019  27.604  1.00  0.00     0.032 C 
ATOM     16  C   UNL     1      21.764  35.700  28.105  1.00  0.00     0.010 C 
ATOM     17  C   UNL     1      19.871  34.255  28.868  1.00  0.00     0.006 C 
ATOM     18  C   UNL     1      21.829  35.495  29.605  1.00  0.00     0.041 C 
ATOM     19  C   UNL     1      21.046  34.210  29.893  1.00  0.00     0.092 C 
ATOM     20  C   UNL     1      18.732  35.136  29.462  1.00  0.00     0.011 C 
ATOM     21  C   UNL     1      19.284  32.838  28.589  1.00  0.00     0.015 C 
ATOM     22  C   UNL     1      20.622  34.186  31.370  1.00  0.00    -0.031 C 
ATOM     23  C   UNL     1      18.123  34.583  30.750  1.00  0.00     0.009 C 
ATOM     24  C   UNL     1      19.150  34.045  31.793  1.00  0.00     0.025 C 
ATOM     25  C   UNL     1      21.599  34.149  32.302  1.00  0.00     0.050 C 
ATOM     26  C   UNL     1      18.894  34.578  33.257  1.00  0.00    -0.013 C 
ATOM     27  C   UNL     1      21.311  34.072  33.740  1.00  0.00     0.159 C 
ATOM     28  C   UNL     1      19.898  33.832  34.194  1.00  0.00     0.070 C 
ATOM     29  C   UNL     1      17.452  34.217  33.733  1.00  0.00     0.042 C 
ATOM     30  C   UNL     1      19.104  36.124  33.302  1.00  0.00     0.013 C 
ATOM     31  O   UNL     1      22.259  34.137  34.568  1.00  0.00    -0.295 OA
ATOM     32  C   UNL     1      19.679  34.139  35.693  1.00  0.00     0.047 C 
ATOM     33  C   UNL     1      17.210  34.522  35.223  1.00  0.00     0.143 C 
ATOM     34  C   UNL     1      18.241  33.811  36.125  1.00  0.00     0.143 C 
BRANCH  19  35
ATOM     35  O   UNL     1      21.900  33.121  29.619  1.00  0.00    -0.385 OA
ATOM     36  H   UNL     1      21.375  32.281  29.695  1.00  0.00     0.211 HD
ENDBRANCH  19  35
BRANCH  33  37
ATOM     37  O   UNL     1      15.910  34.116  35.564  1.00  0.00    -0.390 OA
ATOM     38  H   UNL     1      15.577  34.755  36.247  1.00  0.00     0.211 HD
ENDBRANCH  33  37
BRANCH  34  39
ATOM     39  O   UNL     1      18.051  32.418  36.088  1.00  0.00    -0.390 OA
ATOM     40  H   UNL     1      17.080  32.260  35.941  1.00  0.00     0.211 HD
ENDBRANCH  34  39
ENDBRANCH   1  15
BRANCH   1  41
ATOM     41  O   UNL     1      20.100  32.977  26.368  1.00  0.00    -0.387 OA
ATOM     42  H   UNL     1      20.509  32.539  27.156  1.00  0.00     0.211 HD
ENDBRANCH   1  41
TORSDOF 9
ENDMDL
MODEL 2
REMARK VINA RESULT:     2.832      1.144      1.403
REMARK INTER + INTRA:           4.188
REMARK INTER:                   4.016
REMARK INTRA:                   0.172
REMARK UNBOUND:                 0.280
REMARK SMILES C[C@@H]1OC(=O)[C@H](C)[C@H]1C[C@H](O)[C@](C)(O)[C@@H]1CC[C@@]2(O)C3=CC(=O)[C@H]4C[C@H](O)[C@H](O)C[C@]4(C)[C@H]3CC[C@@]12C
REMARK SMILES IDX 12 1 13 2 10 3 9 4 8 5 7 6 6 7 4 8 2 9 3 10 5 11 1 12 11 13
REMARK SMILES IDX 15 15 16 16 36 17 17 18 18 19 35 20 37 21 20 22 34 23 33 24
REMARK SMILES IDX 21 25 31 26 22 27 24 28 30 29 32 30 23 31 25 32 28 33 26 34
REMARK SMILES IDX 19 35 29 37 27 39 14 41
REMARK H PARENT 11 14 19 36 29 38 27 40 14 42
REMARK Flexibility Score: inf
ROOT
ATOM      1  C   UNL     1      19.512  35.162  26.035  1.00  0.00     0.091 C 
ATOM      2  C   UNL     1      18.960  33.703  25.931  1.00  0.00     0.045 C 
ENDROOT
BRANCH   1   3
ATOM      3  C   UNL     1      20.712  35.371  25.035  1.00  0.00     0.146 C 
BRANCH   3   4
ATOM      4  C   UNL     1      20.330  36.125  23.731  1.00  0.00     0.043 C 
BRANCH   4   5
ATOM      5  C   UNL     1      19.570  35.223  22.728  1.00  0.00     0.046 C 
ATOM      6  C   UNL     1      20.506  33.124  21.591  1.00  0.00     0.020 C 
ATOM      7  C   UNL     1      20.513  34.656  21.627  1.00  0.00     0.103 C 
ATOM      8  C   UNL     1      19.937  35.216  20.383  1.00  0.00     0.309 C 
ATOM      9  C   UNL     1      18.465  36.028  21.973  1.00  0.00     0.177 C 
ATOM     10  O   UNL     1      18.807  35.969  20.600  1.00  0.00    -0.462 OA
ATOM     11  O   UNL     1      20.432  35.047  19.237  1.00  0.00    -0.252 OA
ATOM     12  C   UNL     1      17.074  35.426  22.178  1.00  0.00     0.053 C 
ENDBRANCH   4   5
ENDBRANCH   3   4
BRANCH   3  13
ATOM     13  O   UNL     1      21.367  34.162  24.733  1.00  0.00    -0.390 OA
ATOM     14  H   UNL     1      21.789  33.813  25.561  1.00  0.00     0.211 HD
ENDBRANCH   3  13
ENDBRANCH   1   3
BRANCH   1  15
ATOM     15  C   UNL     1      19.971  35.532  27.513  1.00  0.00     0.032 C 
ATOM     16  C   UNL     1      21.474  35.294  27.787  1.00  0.00     0.010 C 
ATOM     17  C   UNL     1      19.205  34.936  28.777  1.00  0.00     0.006 C 
ATOM     18  C   UNL     1      21.593  34.754  29.198  1.00  0.00     0.041 C 
ATOM     19  C   UNL     1      20.266  34.049  29.497  1.00  0.00     0.092 C 
ATOM     20  C   UNL     1      18.839  36.125  29.714  1.00  0.00     0.011 C 
ATOM     21  C   UNL     1      17.896  34.149  28.467  1.00  0.00     0.015 C 
ATOM     22  C   UNL     1      20.083  33.919  31.017  1.00  0.00    -0.031 C 
ATOM     23  C   UNL     1      18.184  35.702  31.030  1.00  0.00     0.009 C 
ATOM     24  C   UNL     1      18.849  34.485  31.741  1.00  0.00     0.025 C 
ATOM     25  C   UNL     1      20.976  33.164  31.693  1.00  0.00     0.050 C 
ATOM     26  C   UNL     1      19.116  34.725  33.279  1.00  0.00    -0.013 C 
ATOM     27  C   UNL     1      20.870  32.928  33.139  1.00  0.00     0.159 C 
ATOM     28  C   UNL     1      19.633  33.374  33.868  1.00  0.00     0.070 C 
ATOM     29  C   UNL     1      17.790  35.083  34.020  1.00  0.00     0.042 C 
ATOM     30  C   UNL     1      20.160  35.871  33.462  1.00  0.00     0.013 C 
ATOM     31  O   UNL     1      21.783  32.294  33.734  1.00  0.00    -0.295 OA
ATOM     32  C   UNL     1      19.806  33.402  35.404  1.00  0.00     0.047 C 
ATOM     33  C   UNL     1      17.942  35.125  35.552  1.00  0.00     0.143 C 
ATOM     34  C   UNL     1      18.497  33.794  36.105  1.00  0.00     0.143 C 
BRANCH  19  35
ATOM     35  O   UNL     1      20.322  32.768  28.908  1.00  0.00    -0.385 OA
ATOM     36  H   UNL     1      19.408  32.515  28.613  1.00  0.00     0.211 HD
ENDBRANCH  19  35
BRANCH  33  37
ATOM     37  O   UNL     1      16.690  35.401  36.125  1.00  0.00    -0.390 OA
ATOM     38  H   UNL     1      16.675  34.958  37.014  1.00  0.00     0.211 HD
ENDBRANCH  33  37
BRANCH  34  39
ATOM     39  O   UNL     1      17.555  32.762  35.944  1.00  0.00    -0.390 OA
ATOM     40  H   UNL     1      17.785  32.287  35.101  1.00  0.00     0.211 HD
ENDBRANCH  34  39
ENDBRANCH   1  15
BRANCH   1  41
ATOM     41  O   UNL     1      18.521  36.097  25.666  1.00  0.00    -0.387 OA
ATOM     42  H   UNL     1      18.033  35.783  24.863  1.00  0.00     0.211 HD
ENDBRANCH   1  41
TORSDOF 9
ENDMDL
MODEL 3
REMARK VINA RESULT:     3.130      2.170      2.924
REMARK INTER + INTRA:           4.599
REMARK INTER:                   4.417
REMARK INTRA:                   0.182
REMARK UNBOUND:                 0.280
REMARK SMILES C[C@@H]1OC(=O)[C@H](C)[C@H]1C[C@H](O)[C@](C)(O)[C@@H]1CC[C@@]2(O)C3=CC(=O)[C@H]4C[C@H](O)[C@H](O)C[C@]4(C)[C@H]3CC[C@@]12C
REMARK SMILES IDX 12 1 13 2 10 3 9 4 8 5 7 6 6 7 4 8 2 9 3 10 5 11 1 12 11 13
REMARK SMILES IDX 15 15 16 16 36 17 17 18 18 19 35 20 37 21 20 22 34 23 33 24
REMARK SMILES IDX 21 25 31 26 22 27 24 28 30 29 32 30 23 31 25 32 28 33 26 34
REMARK SMILES IDX 19 35 29 37 27 39 14 41
REMARK H PARENT 11 14 19 36 29 38 27 40 14 42
REMARK Flexibility Score: inf
ROOT
ATOM      1  C   UNL     1      21.105  34.653  25.859  1.00  0.00     0.091 C 
ATOM      2  C   UNL     1      21.839  35.934  26.373  1.00  0.00     0.045 C 
ENDROOT
BRANCH   1   3
ATOM      3  C   UNL     1      20.824  34.762  24.312  1.00  0.00     0.146 C 
BRANCH   3   4
ATOM      4  C   UNL     1      21.830  33.977  23.425  1.00  0.00     0.043 C 
BRANCH   4   5
ATOM      5  C   UNL     1      21.175  33.424  22.137  1.00  0.00     0.046 C 
ATOM      6  C   UNL     1      21.977  31.387  20.801  1.00  0.00     0.020 C 
ATOM      7  C   UNL     1      22.232  32.859  21.144  1.00  0.00     0.103 C 
ATOM      8  C   UNL     1      22.052  33.717  19.951  1.00  0.00     0.309 C 
ATOM      9  C   UNL     1      20.418  34.549  21.363  1.00  0.00     0.177 C 
ATOM     10  O   UNL     1      21.044  34.642  20.096  1.00  0.00    -0.462 OA
ATOM     11  O   UNL     1      22.756  33.636  18.909  1.00  0.00    -0.252 OA
ATOM     12  C   UNL     1      18.936  34.221  21.176  1.00  0.00     0.053 C 
ENDBRANCH   4   5
ENDBRANCH   3   4
BRANCH   3  13
ATOM     13  O   UNL     1      20.726  36.099  23.885  1.00  0.00    -0.390 OA
ATOM     14  H   UNL     1      21.363  36.649  24.410  1.00  0.00     0.211 HD
ENDBRANCH   3  13
ENDBRANCH   1   3
BRANCH   1  15
ATOM     15  C   UNL     1      19.745  34.380  26.637  1.00  0.00     0.032 C 
ATOM     16  C   UNL     1      18.757  35.569  26.619  1.00  0.00     0.010 C 
ATOM     17  C   UNL     1      19.758  33.857  28.142  1.00  0.00     0.006 C 
ATOM     18  C   UNL     1      18.099  35.628  27.984  1.00  0.00     0.041 C 
ATOM     19  C   UNL     1      19.099  35.007  28.965  1.00  0.00     0.092 C 
ATOM     20  C   UNL     1      18.835  32.605  28.219  1.00  0.00     0.011 C 
ATOM     21  C   UNL     1      21.154  33.458  28.709  1.00  0.00     0.015 C 
ATOM     22  C   UNL     1      18.363  34.559  30.236  1.00  0.00    -0.031 C 
ATOM     23  C   UNL     1      18.662  32.044  29.631  1.00  0.00     0.009 C 
ATOM     24  C   UNL     1      18.420  33.109  30.744  1.00  0.00     0.025 C 
ATOM     25  C   UNL     1      17.770  35.514  30.986  1.00  0.00     0.050 C 
ATOM     26  C   UNL     1      17.208  32.758  31.694  1.00  0.00    -0.013 C 
ATOM     27  C   UNL     1      17.082  35.209  32.248  1.00  0.00     0.159 C 
ATOM     28  C   UNL     1      17.198  33.829  32.832  1.00  0.00     0.070 C 
ATOM     29  C   UNL     1      17.415  31.364  32.362  1.00  0.00     0.042 C 
ATOM     30  C   UNL     1      15.876  32.771  30.878  1.00  0.00     0.013 C 
ATOM     31  O   UNL     1      16.466  36.124  32.857  1.00  0.00    -0.295 OA
ATOM     32  C   UNL     1      16.151  33.542  33.932  1.00  0.00     0.047 C 
ATOM     33  C   UNL     1      16.376  31.054  33.457  1.00  0.00     0.143 C 
ATOM     34  C   UNL     1      16.354  32.148  34.546  1.00  0.00     0.143 C 
BRANCH  19  35
ATOM     35  O   UNL     1      20.053  35.997  29.283  1.00  0.00    -0.385 OA
ATOM     36  H   UNL     1      19.573  36.818  29.571  1.00  0.00     0.211 HD
ENDBRANCH  19  35
BRANCH  33  37
ATOM     37  O   UNL     1      16.679  29.809  34.030  1.00  0.00    -0.390 OA
ATOM     38  H   UNL     1      17.469  29.945  34.616  1.00  0.00     0.211 HD
ENDBRANCH  33  37
BRANCH  34  39
ATOM     39  O   UNL     1      17.552  32.135  35.282  1.00  0.00    -0.390 OA
ATOM     40  H   UNL     1      17.327  32.409  36.211  1.00  0.00     0.211 HD
ENDBRANCH  34  39
ENDBRANCH   1  15
BRANCH   1  41
ATOM     41  O   UNL     1      21.916  33.510  26.035  1.00  0.00    -0.387 OA
ATOM     42  H   UNL     1      21.390  32.773  26.438  1.00  0.00     0.211 HD
ENDBRANCH   1  41
TORSDOF 9
ENDMDL
MODEL 4
REMARK VINA RESULT:     3.639      1.769      2.399
REMARK INTER + INTRA:           5.301
REMARK INTER:                   4.832
REMARK INTRA:                   0.469
REMARK UNBOUND:                 0.280
REMARK SMILES C[C@@H]1OC(=O)[C@H](C)[C@H]1C[C@H](O)[C@](C)(O)[C@@H]1CC[C@@]2(O)C3=CC(=O)[C@H]4C[C@H](O)[C@H](O)C[C@]4(C)[C@H]3CC[C@@]12C
REMARK SMILES IDX 12 1 13 2 10 3 9 4 8 5 7 6 6 7 4 8 2 9 3 10 5 11 1 12 11 13
REMARK SMILES IDX 15 15 16 16 36 17 17 18 18 19 35 20 37 21 20 22 34 23 33 24
REMARK SMILES IDX 21 25 31 26 22 27 24 28 30 29 32 30 23 31 25 32 28 33 26 34
REMARK SMILES IDX 19 35 29 37 27 39 14 41
REMARK H PARENT 11 14 19 36 29 38 27 40 14 42
REMARK Flexibility Score: inf
ROOT
ATOM      1  C   UNL     1      20.547  34.912  25.955  1.00  0.00     0.091 C 
ATOM      2  C   UNL     1      21.530  36.125  26.034  1.00  0.00     0.045 C 
ENDROOT
BRANCH   1   3
ATOM      3  C   UNL     1      19.486  35.136  24.812  1.00  0.00     0.146 C 
BRANCH   3   4
ATOM      4  C   UNL     1      20.084  35.686  23.487  1.00  0.00     0.043 C 
BRANCH   4   5
ATOM      5  C   UNL     1      19.705  34.819  22.263  1.00  0.00     0.046 C 
ATOM      6  C   UNL     1      20.672  32.511  21.701  1.00  0.00     0.020 C 
ATOM      7  C   UNL     1      20.925  34.022  21.714  1.00  0.00     0.103 C 
ATOM      8  C   UNL     1      21.064  34.546  20.336  1.00  0.00     0.309 C 
ATOM      9  C   UNL     1      19.204  35.705  21.079  1.00  0.00     0.177 C 
ATOM     10  O   UNL     1      20.102  35.473  20.009  1.00  0.00    -0.462 OA
ATOM     11  O   UNL     1      21.978  34.203  19.539  1.00  0.00    -0.252 OA
ATOM     12  C   UNL     1      17.786  35.334  20.643  1.00  0.00     0.053 C 
ENDBRANCH   4   5
ENDBRANCH   3   4
BRANCH   3  13
ATOM     13  O   UNL     1      18.409  35.936  25.238  1.00  0.00    -0.390 OA
ATOM     14  H   UNL     1      17.597  35.369  25.301  1.00  0.00     0.211 HD
ENDBRANCH   3  13
ENDBRANCH   1   3
BRANCH   1  15
ATOM     15  C   UNL     1      19.804  34.643  27.336  1.00  0.00     0.032 C 
ATOM     16  C   UNL     1      19.041  35.866  27.893  1.00  0.00     0.010 C 
ATOM     17  C   UNL     1      20.591  34.028  28.577  1.00  0.00     0.006 C 
ATOM     18  C   UNL     1      19.226  35.866  29.397  1.00  0.00     0.041 C 
ATOM     19  C   UNL     1      20.554  35.148  29.662  1.00  0.00     0.092 C 
ATOM     20  C   UNL     1      19.775  32.808  29.101  1.00  0.00     0.011 C 
ATOM     21  C   UNL     1      22.043  33.542  28.287  1.00  0.00     0.015 C 
ATOM     22  C   UNL     1      20.589  34.650  31.115  1.00  0.00    -0.031 C 
ATOM     23  C   UNL     1      20.352  32.168  30.363  1.00  0.00     0.009 C 
ATOM     24  C   UNL     1      20.816  33.170  31.464  1.00  0.00     0.025 C 
ATOM     25  C   UNL     1      20.557  35.578  32.096  1.00  0.00     0.050 C 
ATOM     26  C   UNL     1      20.285  32.807  32.906  1.00  0.00    -0.013 C 
ATOM     27  C   UNL     1      20.637  35.221  33.518  1.00  0.00     0.159 C 
ATOM     28  C   UNL     1      20.958  33.804  33.903  1.00  0.00     0.070 C 
ATOM     29  C   UNL     1      20.728  31.367  33.312  1.00  0.00     0.042 C 
ATOM     30  C   UNL     1      18.728  32.920  32.941  1.00  0.00     0.013 C 
ATOM     31  O   UNL     1      20.506  36.120  34.393  1.00  0.00    -0.295 OA
ATOM     32  C   UNL     1      20.651  33.489  35.385  1.00  0.00     0.047 C 
ATOM     33  C   UNL     1      20.423  31.029  34.784  1.00  0.00     0.143 C 
ATOM     34  C   UNL     1      21.062  32.054  35.746  1.00  0.00     0.143 C 
BRANCH  19  35
ATOM     35  O   UNL     1      21.591  36.080  29.446  1.00  0.00    -0.385 OA
ATOM     36  H   UNL     1      21.971  36.340  30.326  1.00  0.00     0.211 HD
ENDBRANCH  19  35
BRANCH  33  37
ATOM     37  O   UNL     1      20.905  29.741  35.063  1.00  0.00    -0.390 OA
ATOM     38  H   UNL     1      20.389  29.401  35.841  1.00  0.00     0.211 HD
ENDBRANCH  33  37
BRANCH  34  39
ATOM     39  O   UNL     1      22.464  31.950  35.718  1.00  0.00    -0.390 OA
ATOM     40  H   UNL     1      22.793  32.624  35.066  1.00  0.00     0.211 HD
ENDBRANCH  34  39
ENDBRANCH   1  15
BRANCH   1  41
ATOM     41  O   UNL     1      21.242  33.728  25.625  1.00  0.00    -0.387 OA
ATOM     42  H   UNL     1      21.245  33.593  24.643  1.00  0.00     0.211 HD
ENDBRANCH   1  41
TORSDOF 9
ENDMDL
MODEL 5
REMARK VINA RESULT:     4.118      1.595      3.032
REMARK INTER + INTRA:           5.963
REMARK INTER:                   5.675
REMARK INTRA:                   0.288
REMARK UNBOUND:                 0.280
REMARK SMILES C[C@@H]1OC(=O)[C@H](C)[C@H]1C[C@H](O)[C@](C)(O)[C@@H]1CC[C@@]2(O)C3=CC(=O)[C@H]4C[C@H](O)[C@H](O)C[C@]4(C)[C@H]3CC[C@@]12C
REMARK SMILES IDX 12 1 13 2 10 3 9 4 8 5 7 6 6 7 4 8 2 9 3 10 5 11 1 12 11 13
REMARK SMILES IDX 15 15 16 16 36 17 17 18 18 19 35 20 37 21 20 22 34 23 33 24
REMARK SMILES IDX 21 25 31 26 22 27 24 28 30 29 32 30 23 31 25 32 28 33 26 34
REMARK SMILES IDX 19 35 29 37 27 39 14 41
REMARK H PARENT 11 14 19 36 29 38 27 40 14 42
REMARK Flexibility Score: inf
ROOT
ATOM      1  C   UNL     1      20.555  35.290  25.827  1.00  0.00     0.091 C 
ATOM      2  C   UNL     1      19.275  36.125  25.494  1.00  0.00     0.045 C 
ENDROOT
BRANCH   1   3
ATOM      3  C   UNL     1      21.131  34.620  24.521  1.00  0.00     0.146 C 
BRANCH   3   4
ATOM      4  C   UNL     1      20.845  35.416  23.218  1.00  0.00     0.043 C 
BRANCH   4   5
ATOM      5  C   UNL     1      20.099  34.569  22.160  1.00  0.00     0.046 C 
ATOM      6  C   UNL     1      20.994  32.443  21.038  1.00  0.00     0.020 C 
ATOM      7  C   UNL     1      21.073  33.972  21.101  1.00  0.00     0.103 C 
ATOM      8  C   UNL     1      20.595  34.578  19.838  1.00  0.00     0.309 C 
ATOM      9  C   UNL     1      19.078  35.438  21.360  1.00  0.00     0.177 C 
ATOM     10  O   UNL     1      19.492  35.383  20.007  1.00  0.00    -0.462 OA
ATOM     11  O   UNL     1      21.143  34.402  18.718  1.00  0.00    -0.252 OA
ATOM     12  C   UNL     1      17.650  34.903  21.478  1.00  0.00     0.053 C 
ENDBRANCH   4   5
ENDBRANCH   3   4
BRANCH   3  13
ATOM     13  O   UNL     1      20.716  33.282  24.386  1.00  0.00    -0.390 OA
ATOM     14  H   UNL     1      19.858  33.263  23.887  1.00  0.00     0.211 HD
ENDBRANCH   3  13
ENDBRANCH   1   3
BRANCH   1  15
ATOM     15  C   UNL     1      20.282  34.177  26.930  1.00  0.00     0.032 C 
ATOM     16  C   UNL     1      18.874  33.543  26.855  1.00  0.00     0.010 C 
ATOM     17  C   UNL     1      20.533  34.482  28.473  1.00  0.00     0.006 C 
ATOM     18  C   UNL     1      18.402  33.327  28.279  1.00  0.00     0.041 C 
ATOM     19  C   UNL     1      19.122  34.379  29.130  1.00  0.00     0.092 C 
ATOM     20  C   UNL     1      21.426  33.341  29.045  1.00  0.00     0.011 C 
ATOM     21  C   UNL     1      21.229  35.840  28.792  1.00  0.00     0.015 C 
ATOM     22  C   UNL     1      19.118  33.940  30.602  1.00  0.00    -0.031 C 
ATOM     23  C   UNL     1      21.673  33.437  30.550  1.00  0.00     0.009 C 
ATOM     24  C   UNL     1      20.418  33.781  31.408  1.00  0.00     0.025 C 
ATOM     25  C   UNL     1      17.922  33.831  31.220  1.00  0.00     0.050 C 
ATOM     26  C   UNL     1      20.235  32.835  32.659  1.00  0.00    -0.013 C 
ATOM     27  C   UNL     1      17.801  33.469  32.639  1.00  0.00     0.159 C 
ATOM     28  C   UNL     1      19.039  33.403  33.488  1.00  0.00     0.070 C 
ATOM     29  C   UNL     1      21.500  32.874  33.572  1.00  0.00     0.042 C 
ATOM     30  C   UNL     1      19.962  31.373  32.181  1.00  0.00     0.013 C 
ATOM     31  O   UNL     1      16.658  33.289  33.139  1.00  0.00    -0.295 OA
ATOM     32  C   UNL     1      18.820  32.667  34.830  1.00  0.00     0.047 C 
ATOM     33  C   UNL     1      21.306  32.139  34.912  1.00  0.00     0.143 C 
ATOM     34  C   UNL     1      20.092  32.688  35.692  1.00  0.00     0.143 C 
BRANCH  19  35
ATOM     35  O   UNL     1      18.420  35.595  28.987  1.00  0.00    -0.385 OA
ATOM     36  H   UNL     1      18.479  36.095  29.843  1.00  0.00     0.211 HD
ENDBRANCH  19  35
BRANCH  33  37
ATOM     37  O   UNL     1      22.473  32.277  35.678  1.00  0.00    -0.390 OA
ATOM     38  H   UNL     1      22.484  31.525  36.328  1.00  0.00     0.211 HD
ENDBRANCH  33  37
BRANCH  34  39
ATOM     39  O   UNL     1      20.338  34.003  36.125  1.00  0.00    -0.390 OA
ATOM     40  H   UNL     1      20.960  33.944  36.898  1.00  0.00     0.211 HD
ENDBRANCH  34  39
ENDBRANCH   1  15
BRANCH   1  41
ATOM     41  O   UNL     1      21.577  36.125  26.328  1.00  0.00    -0.387 OA
ATOM     42  H   UNL     1      22.199  36.383  25.602  1.00  0.00     0.211 HD
ENDBRANCH   1  41
TORSDOF 9
ENDMDL
