MODEL 1
REMARK VINA RESULT:    -4.032      0.000      0.000
REMARK INTER + INTRA:          -4.666
REMARK INTER:                  -4.621
REMARK INTRA:                  -0.046
REMARK UNBOUND:                -0.046
REMARK SMILES O=C([O-])c1cc(O)c(O)c(O)c1
REMARK SMILES IDX 4 1 5 2 12 3 6 4 10 5 8 6 2 7 1 8 3 9 7 10 11 12 9 14
REMARK H PARENT 7 11 11 13 9 15
REMARK Flexibility Score: inf
ROOT
ATOM      1  C   UNL     1     -11.867 -18.235  18.723  1.00  0.00     0.005 A 
ATOM      2  C   UNL     1     -11.239 -17.321  19.585  1.00  0.00     0.060 A 
ATOM      3  C   UNL     1     -12.921 -19.023  19.215  1.00  0.00     0.060 A 
ATOM      4  C   UNL     1     -11.654 -17.194  20.918  1.00  0.00     0.162 A 
ATOM      5  C   UNL     1     -13.342 -18.903  20.544  1.00  0.00     0.162 A 
ATOM      6  C   UNL     1     -12.709 -17.987  21.401  1.00  0.00     0.200 A 
ENDROOT
BRANCH   1   7
ATOM      7  C   UNL     1     -11.429 -18.369  17.315  1.00  0.00     0.072 C 
ATOM      8  O   UNL     1     -10.875 -19.428  16.914  1.00  0.00    -0.545 OA
ATOM      9  O   UNL     1     -11.623 -17.328  16.414  1.00  0.00    -0.545 OA
ENDBRANCH   1   7
BRANCH   4  10
ATOM     10  O   UNL     1     -11.022 -16.283  21.763  1.00  0.00    -0.504 OA
ATOM     11  H   UNL     1     -11.371 -15.339  21.882  1.00  0.00     0.293 HD
ENDBRANCH   4  10
BRANCH   5  12
ATOM     12  O   UNL     1     -14.391 -19.703  20.994  1.00  0.00    -0.504 OA
ATOM     13  H   UNL     1     -14.728 -19.665  21.949  1.00  0.00     0.293 HD
ENDBRANCH   5  12
BRANCH   6  14
ATOM     14  O   UNL     1     -13.136 -17.874  22.725  1.00  0.00    -0.502 OA
ATOM     15  H   UNL     1     -12.486 -17.752  23.494  1.00  0.00     0.293 HD
ENDBRANCH   6  14
TORSDOF 4
ENDMDL
MODEL 2
REMARK VINA RESULT:    -4.003      0.042      2.430
REMARK INTER + INTRA:          -4.633
REMARK INTER:                  -4.588
REMARK INTRA:                  -0.046
REMARK UNBOUND:                -0.046
REMARK SMILES O=C([O-])c1cc(O)c(O)c(O)c1
REMARK SMILES IDX 4 1 5 2 12 3 6 4 10 5 8 6 2 7 1 8 3 9 7 10 11 12 9 14
REMARK H PARENT 7 11 11 13 9 15
REMARK Flexibility Score: inf
ROOT
ATOM      1  C   UNL     1     -11.879 -18.262  18.718  1.00  0.00     0.005 A 
ATOM      2  C   UNL     1     -12.930 -19.060  19.201  1.00  0.00     0.060 A 
ATOM      3  C   UNL     1     -11.256 -17.355  19.591  1.00  0.00     0.060 A 
ATOM      4  C   UNL     1     -13.355 -18.954  20.532  1.00  0.00     0.162 A 
ATOM      5  C   UNL     1     -11.673 -17.243  20.922  1.00  0.00     0.162 A 
ATOM      6  C   UNL     1     -12.725 -18.043  21.398  1.00  0.00     0.200 A 
ENDROOT
BRANCH   1   7
ATOM      7  C   UNL     1     -11.430 -18.374  17.312  1.00  0.00     0.072 C 
ATOM      8  O   UNL     1     -10.875 -19.426  16.898  1.00  0.00    -0.545 OA
ATOM      9  O   UNL     1     -11.616 -17.317  16.427  1.00  0.00    -0.545 OA
ENDBRANCH   1   7
BRANCH   4  10
ATOM     10  O   UNL     1     -14.399 -19.751  20.998  1.00  0.00    -0.504 OA
ATOM     11  H   UNL     1     -15.028 -20.227  20.363  1.00  0.00     0.293 HD
ENDBRANCH   4  10
BRANCH   5  12
ATOM     12  O   UNL     1     -11.028 -16.330  21.756  1.00  0.00    -0.504 OA
ATOM     13  H   UNL     1     -11.540 -15.679  22.341  1.00  0.00     0.293 HD
ENDBRANCH   5  12
BRANCH   6  14
ATOM     14  O   UNL     1     -13.134 -17.924  22.727  1.00  0.00    -0.502 OA
ATOM     15  H   UNL     1     -12.883 -17.128  23.301  1.00  0.00     0.293 HD
ENDBRANCH   6  14
TORSDOF 4
ENDMDL
MODEL 3
REMARK VINA RESULT:    -3.668      7.069      9.024
REMARK INTER + INTRA:          -4.250
REMARK INTER:                  -4.197
REMARK INTRA:                  -0.053
REMARK UNBOUND:                -0.046
REMARK SMILES O=C([O-])c1cc(O)c(O)c(O)c1
REMARK SMILES IDX 4 1 5 2 12 3 6 4 10 5 8 6 2 7 1 8 3 9 7 10 11 12 9 14
REMARK H PARENT 7 11 11 13 9 15
REMARK Flexibility Score: inf
ROOT
ATOM      1  C   UNL     1     -16.222 -22.968  24.330  1.00  0.00     0.005 A 
ATOM      2  C   UNL     1     -16.877 -22.323  25.393  1.00  0.00     0.060 A 
ATOM      3  C   UNL     1     -16.802 -24.117  23.768  1.00  0.00     0.060 A 
ATOM      4  C   UNL     1     -18.091 -22.818  25.890  1.00  0.00     0.162 A 
ATOM      5  C   UNL     1     -18.014 -24.617  24.257  1.00  0.00     0.162 A 
ATOM      6  C   UNL     1     -18.663 -23.969  25.321  1.00  0.00     0.200 A 
ENDROOT
BRANCH   1   7
ATOM      7  C   UNL     1     -14.940 -22.446  23.805  1.00  0.00     0.072 C 
ATOM      8  O   UNL     1     -14.456 -22.895  22.732  1.00  0.00    -0.545 OA
ATOM      9  O   UNL     1     -14.251 -21.451  24.490  1.00  0.00    -0.545 OA
ENDBRANCH   1   7
BRANCH   4  10
ATOM     10  O   UNL     1     -18.730 -22.170  26.945  1.00  0.00    -0.504 OA
ATOM     11  H   UNL     1     -19.467 -21.494  26.785  1.00  0.00     0.293 HD
ENDBRANCH   4  10
BRANCH   5  12
ATOM     12  O   UNL     1     -18.556 -25.761  23.672  1.00  0.00    -0.504 OA
ATOM     13  H   UNL     1     -18.868 -25.778  22.708  1.00  0.00     0.293 HD
ENDBRANCH   5  12
BRANCH   6  14
ATOM     14  O   UNL     1     -19.871 -24.475  25.803  1.00  0.00    -0.502 OA
ATOM     15  H   UNL     1     -20.294 -25.314  25.425  1.00  0.00     0.293 HD
ENDBRANCH   6  14
TORSDOF 4
ENDMDL
MODEL 4
REMARK VINA RESULT:    -3.647      7.059      9.208
REMARK INTER + INTRA:          -4.225
REMARK INTER:                  -4.173
REMARK INTRA:                  -0.052
REMARK UNBOUND:                -0.046
REMARK SMILES O=C([O-])c1cc(O)c(O)c(O)c1
REMARK SMILES IDX 4 1 5 2 12 3 6 4 10 5 8 6 2 7 1 8 3 9 7 10 11 12 9 14
REMARK H PARENT 7 11 11 13 9 15
REMARK Flexibility Score: inf
ROOT
ATOM      1  C   UNL     1     -16.196 -22.937  24.358  1.00  0.00     0.005 A 
ATOM      2  C   UNL     1     -16.758 -24.094  23.792  1.00  0.00     0.060 A 
ATOM      3  C   UNL     1     -16.863 -22.305  25.420  1.00  0.00     0.060 A 
ATOM      4  C   UNL     1     -17.967 -24.612  24.276  1.00  0.00     0.162 A 
ATOM      5  C   UNL     1     -18.071 -22.814  25.909  1.00  0.00     0.162 A 
ATOM      6  C   UNL     1     -18.628 -23.970  25.339  1.00  0.00     0.200 A 
ENDROOT
BRANCH   1   7
ATOM      7  C   UNL     1     -14.918 -22.390  23.847  1.00  0.00     0.072 C 
ATOM      8  O   UNL     1     -14.436 -22.800  22.758  1.00  0.00    -0.545 OA
ATOM      9  O   UNL     1     -14.233 -21.415  24.563  1.00  0.00    -0.545 OA
ENDBRANCH   1   7
BRANCH   4  10
ATOM     10  O   UNL     1     -18.514 -25.759  23.706  1.00  0.00    -0.504 OA
ATOM     11  H   UNL     1     -18.359 -25.995  22.733  1.00  0.00     0.293 HD
ENDBRANCH   4  10
BRANCH   5  12
ATOM     12  O   UNL     1     -18.702 -22.156  26.964  1.00  0.00    -0.504 OA
ATOM     13  H   UNL     1     -19.688 -22.278  27.163  1.00  0.00     0.293 HD
ENDBRANCH   5  12
BRANCH   6  14
ATOM     14  O   UNL     1     -19.833 -24.472  25.834  1.00  0.00    -0.502 OA
ATOM     15  H   UNL     1     -20.475 -23.903  26.372  1.00  0.00     0.293 HD
ENDBRANCH   6  14
TORSDOF 4
ENDMDL
MODEL 5
REMARK VINA RESULT:    -3.478      1.923      3.140
REMARK INTER + INTRA:          -4.032
REMARK INTER:                  -3.987
REMARK INTRA:                  -0.045
REMARK UNBOUND:                -0.046
REMARK SMILES O=C([O-])c1cc(O)c(O)c(O)c1
REMARK SMILES IDX 4 1 5 2 12 3 6 4 10 5 8 6 2 7 1 8 3 9 7 10 11 12 9 14
REMARK H PARENT 7 11 11 13 9 15
REMARK Flexibility Score: inf
ROOT
ATOM      1  C   UNL     1     -11.990 -18.834  18.619  1.00  0.00     0.005 A 
ATOM      2  C   UNL     1     -11.245 -20.021  18.515  1.00  0.00     0.060 A 
ATOM      3  C   UNL     1     -13.121 -18.810  19.452  1.00  0.00     0.060 A 
ATOM      4  C   UNL     1     -11.623 -21.167  19.228  1.00  0.00     0.162 A 
ATOM      5  C   UNL     1     -13.504 -19.949  20.169  1.00  0.00     0.162 A 
ATOM      6  C   UNL     1     -12.756 -21.132  20.059  1.00  0.00     0.200 A 
ENDROOT
BRANCH   1   7
ATOM      7  C   UNL     1     -11.592 -17.623  17.866  1.00  0.00     0.072 C 
ATOM      8  O   UNL     1     -10.986 -16.681  18.441  1.00  0.00    -0.545 OA
ATOM      9  O   UNL     1     -11.882 -17.510  16.510  1.00  0.00    -0.545 OA
ENDBRANCH   1   7
BRANCH   4  10
ATOM     10  O   UNL     1     -10.876 -22.338  19.115  1.00  0.00    -0.504 OA
ATOM     11  H   UNL     1     -10.135 -22.561  19.770  1.00  0.00     0.293 HD
ENDBRANCH   4  10
BRANCH   5  12
ATOM     12  O   UNL     1     -14.634 -19.884  20.985  1.00  0.00    -0.504 OA
ATOM     13  H   UNL     1     -15.554 -19.671  20.617  1.00  0.00     0.293 HD
ENDBRANCH   5  12
BRANCH   6  14
ATOM     14  O   UNL     1     -13.146 -22.264  20.777  1.00  0.00    -0.502 OA
ATOM     15  H   UNL     1     -14.072 -22.666  20.692  1.00  0.00     0.293 HD
ENDBRANCH   6  14
TORSDOF 4
ENDMDL
MODEL 6
REMARK VINA RESULT:    -3.471      4.133      7.050
REMARK INTER + INTRA:          -4.023
REMARK INTER:                  -3.972
REMARK INTRA:                  -0.051
REMARK UNBOUND:                -0.046
REMARK SMILES O=C([O-])c1cc(O)c(O)c(O)c1
REMARK SMILES IDX 4 1 5 2 12 3 6 4 10 5 8 6 2 7 1 8 3 9 7 10 11 12 9 14
REMARK H PARENT 7 11 11 13 9 15
REMARK Flexibility Score: inf
ROOT
ATOM      1  C   UNL     1     -11.484 -16.032  15.530  1.00  0.00     0.005 A 
ATOM      2  C   UNL     1     -11.748 -14.664  15.352  1.00  0.00     0.060 A 
ATOM      3  C   UNL     1     -11.412 -16.865  14.402  1.00  0.00     0.060 A 
ATOM      4  C   UNL     1     -11.937 -14.134  14.068  1.00  0.00     0.162 A 
ATOM      5  C   UNL     1     -11.600 -16.345  13.117  1.00  0.00     0.162 A 
ATOM      6  C   UNL     1     -11.863 -14.976  12.945  1.00  0.00     0.200 A 
ENDROOT
BRANCH   1   7
ATOM      7  C   UNL     1     -11.284 -16.593  16.886  1.00  0.00     0.072 C 
ATOM      8  O   UNL     1     -10.887 -15.859  17.830  1.00  0.00    -0.545 OA
ATOM      9  O   UNL     1     -11.531 -17.938  17.136  1.00  0.00    -0.545 OA
ENDBRANCH   1   7
BRANCH   4  10
ATOM     10  O   UNL     1     -12.198 -12.775  13.905  1.00  0.00    -0.504 OA
ATOM     11  H   UNL     1     -11.766 -12.236  13.164  1.00  0.00     0.293 HD
ENDBRANCH   4  10
BRANCH   5  12
ATOM     12  O   UNL     1     -11.521 -17.206  12.022  1.00  0.00    -0.504 OA
ATOM     13  H   UNL     1     -11.961 -16.992  11.135  1.00  0.00     0.293 HD
ENDBRANCH   5  12
BRANCH   6  14
ATOM     14  O   UNL     1     -12.050 -14.465  11.659  1.00  0.00    -0.502 OA
ATOM     15  H   UNL     1     -12.852 -13.897  11.415  1.00  0.00     0.293 HD
ENDBRANCH   6  14
TORSDOF 4
ENDMDL
MODEL 7
REMARK VINA RESULT:    -3.469      4.144      7.308
REMARK INTER + INTRA:          -4.021
REMARK INTER:                  -3.970
REMARK INTRA:                  -0.051
REMARK UNBOUND:                -0.046
REMARK SMILES O=C([O-])c1cc(O)c(O)c(O)c1
REMARK SMILES IDX 4 1 5 2 12 3 6 4 10 5 8 6 2 7 1 8 3 9 7 10 11 12 9 14
REMARK H PARENT 7 11 11 13 9 15
REMARK Flexibility Score: inf
ROOT
ATOM      1  C   UNL     1     -11.491 -16.036  15.514  1.00  0.00     0.005 A 
ATOM      2  C   UNL     1     -11.417 -16.866  14.383  1.00  0.00     0.060 A 
ATOM      3  C   UNL     1     -11.753 -14.667  15.339  1.00  0.00     0.060 A 
ATOM      4  C   UNL     1     -11.600 -16.340  13.097  1.00  0.00     0.162 A 
ATOM      5  C   UNL     1     -11.938 -14.134  14.059  1.00  0.00     0.162 A 
ATOM      6  C   UNL     1     -11.862 -14.969  12.933  1.00  0.00     0.200 A 
ENDROOT
BRANCH   1   7
ATOM      7  C   UNL     1     -11.297 -16.591  16.873  1.00  0.00     0.072 C 
ATOM      8  O   UNL     1     -10.875 -15.861  17.810  1.00  0.00    -0.545 OA
ATOM      9  O   UNL     1     -11.579 -17.927  17.135  1.00  0.00    -0.545 OA
ENDBRANCH   1   7
BRANCH   4  10
ATOM     10  O   UNL     1     -11.524 -17.174  11.984  1.00  0.00    -0.504 OA
ATOM     11  H   UNL     1     -12.297 -17.267  11.336  1.00  0.00     0.293 HD
ENDBRANCH   4  10
BRANCH   5  12
ATOM     12  O   UNL     1     -12.196 -12.769  13.928  1.00  0.00    -0.504 OA
ATOM     13  H   UNL     1     -11.454 -12.079  13.905  1.00  0.00     0.293 HD
ENDBRANCH   5  12
BRANCH   6  14
ATOM     14  O   UNL     1     -12.048 -14.428  11.659  1.00  0.00    -0.502 OA
ATOM     15  H   UNL     1     -11.275 -14.089  11.098  1.00  0.00     0.293 HD
ENDBRANCH   6  14
TORSDOF 4
ENDMDL
MODEL 8
REMARK VINA RESULT:    -3.436      1.415      2.798
REMARK INTER + INTRA:          -3.983
REMARK INTER:                  -3.932
REMARK INTRA:                  -0.051
REMARK UNBOUND:                -0.046
REMARK SMILES O=C([O-])c1cc(O)c(O)c(O)c1
REMARK SMILES IDX 4 1 5 2 12 3 6 4 10 5 8 6 2 7 1 8 3 9 7 10 11 12 9 14
REMARK H PARENT 7 11 11 13 9 15
REMARK Flexibility Score: inf
ROOT
ATOM      1  C   UNL     1     -12.175 -19.097  18.846  1.00  0.00     0.005 A 
ATOM      2  C   UNL     1     -12.444 -20.468  18.993  1.00  0.00     0.060 A 
ATOM      3  C   UNL     1     -12.476 -18.226  19.905  1.00  0.00     0.060 A 
ATOM      4  C   UNL     1     -13.005 -20.963  20.178  1.00  0.00     0.162 A 
ATOM      5  C   UNL     1     -13.037 -18.711  21.091  1.00  0.00     0.162 A 
ATOM      6  C   UNL     1     -13.304 -20.083  21.232  1.00  0.00     0.200 A 
ENDROOT
BRANCH   1   7
ATOM      7  C   UNL     1     -11.581 -18.574  17.594  1.00  0.00     0.072 C 
ATOM      8  O   UNL     1     -10.877 -19.316  16.859  1.00  0.00    -0.545 OA
ATOM      9  O   UNL     1     -11.794 -17.254  17.211  1.00  0.00    -0.545 OA
ENDBRANCH   1   7
BRANCH   4  10
ATOM     10  O   UNL     1     -13.267 -22.325  20.311  1.00  0.00    -0.504 OA
ATOM     11  H   UNL     1     -13.113 -22.813  21.186  1.00  0.00     0.293 HD
ENDBRANCH   4  10
BRANCH   5  12
ATOM     12  O   UNL     1     -13.322 -17.813  22.120  1.00  0.00    -0.504 OA
ATOM     13  H   UNL     1     -12.711 -17.697  22.920  1.00  0.00     0.293 HD
ENDBRANCH   5  12
BRANCH   6  14
ATOM     14  O   UNL     1     -13.863 -20.558  22.419  1.00  0.00    -0.502 OA
ATOM     15  H   UNL     1     -13.324 -21.080  23.100  1.00  0.00     0.293 HD
ENDBRANCH   6  14
TORSDOF 4
ENDMDL
MODEL 9
REMARK VINA RESULT:    -3.215      5.530      7.485
REMARK INTER + INTRA:          -3.730
REMARK INTER:                  -3.678
REMARK INTRA:                  -0.053
REMARK UNBOUND:                -0.046
REMARK SMILES O=C([O-])c1cc(O)c(O)c(O)c1
REMARK SMILES IDX 4 1 5 2 12 3 6 4 10 5 8 6 2 7 1 8 3 9 7 10 11 12 9 14
REMARK H PARENT 7 11 11 13 9 15
REMARK Flexibility Score: inf
ROOT
ATOM      1  C   UNL     1     -11.584 -12.522  14.607  1.00  0.00     0.005 A 
ATOM      2  C   UNL     1     -11.211 -13.165  15.800  1.00  0.00     0.060 A 
ATOM      3  C   UNL     1     -12.161 -13.280  13.575  1.00  0.00     0.060 A 
ATOM      4  C   UNL     1     -11.409 -14.543  15.961  1.00  0.00     0.162 A 
ATOM      5  C   UNL     1     -12.363 -14.657  13.728  1.00  0.00     0.162 A 
ATOM      6  C   UNL     1     -11.988 -15.293  14.923  1.00  0.00     0.200 A 
ENDROOT
BRANCH   1   7
ATOM      7  C   UNL     1     -11.374 -11.066  14.435  1.00  0.00     0.072 C 
ATOM      8  O   UNL     1     -11.556 -10.520  13.315  1.00  0.00    -0.545 OA
ATOM      9  O   UNL     1     -10.974 -10.281  15.511  1.00  0.00    -0.545 OA
ENDBRANCH   1   7
BRANCH   4  10
ATOM     10  O   UNL     1     -11.035 -15.168  17.149  1.00  0.00    -0.504 OA
ATOM     11  H   UNL     1     -10.946 -16.175  17.214  1.00  0.00     0.293 HD
ENDBRANCH   4  10
BRANCH   5  12
ATOM     12  O   UNL     1     -12.939 -15.374  12.680  1.00  0.00    -0.504 OA
ATOM     13  H   UNL     1     -12.648 -15.251  11.718  1.00  0.00     0.293 HD
ENDBRANCH   5  12
BRANCH   6  14
ATOM     14  O   UNL     1     -12.193 -16.666  15.067  1.00  0.00    -0.502 OA
ATOM     15  H   UNL     1     -13.070 -17.049  15.400  1.00  0.00     0.293 HD
ENDBRANCH   6  14
TORSDOF 4
ENDMDL
