MODEL 1
REMARK VINA RESULT:    -6.239      0.000      0.000
REMARK INTER + INTRA:          -6.421
REMARK INTER:                  -6.421
REMARK INTRA:                   0.000
REMARK UNBOUND:                 0.000
REMARK SMILES O=c1ccc2ccc(O)cc2o1
REMARK SMILES IDX 6 1 7 2 8 3 10 4 11 5 5 6 4 7 3 8 2 9 1 10 12 11 9 12
REMARK H PARENT 9 13
REMARK Flexibility Score: inf
ROOT
ATOM      1  C   UNL     1      18.235  29.483  37.123  1.00  0.00     0.016 A 
ATOM      2  C   UNL     1      19.368  30.300  37.121  1.00  0.00     0.047 A 
ATOM      3  C   UNL     1      20.618  29.777  36.757  1.00  0.00     0.119 A 
ATOM      4  C   UNL     1      20.732  28.429  36.395  1.00  0.00     0.094 A 
ATOM      5  C   UNL     1      19.603  27.603  36.394  1.00  0.00     0.142 A 
ATOM      6  C   UNL     1      18.345  28.133  36.761  1.00  0.00     0.018 A 
ATOM      7  C   UNL     1      17.236  27.283  36.751  1.00  0.00     0.019 A 
ATOM      8  C   UNL     1      17.399  25.948  36.382  1.00  0.00     0.094 A 
ATOM      9  C   UNL     1      18.675  25.493  36.031  1.00  0.00     0.336 A 
ATOM     10  O   UNL     1      18.843  24.291  35.696  1.00  0.00    -0.246 OA
ATOM     11  O   UNL     1      19.715  26.322  36.049  1.00  0.00    -0.423 OA
ENDROOT
BRANCH   3  12
ATOM     12  O   UNL     1      21.752  30.587  36.754  1.00  0.00    -0.508 OA
ATOM     13  H   UNL     1      21.770  31.470  36.258  1.00  0.00     0.293 HD
ENDBRANCH   3  12
TORSDOF 1
ENDMDL
MODEL 2
REMARK VINA RESULT:    -5.618      1.297      4.150
REMARK INTER + INTRA:          -5.782
REMARK INTER:                  -5.782
REMARK INTRA:                   0.000
REMARK UNBOUND:                 0.000
REMARK SMILES O=c1ccc2ccc(O)cc2o1
REMARK SMILES IDX 6 1 7 2 8 3 10 4 11 5 5 6 4 7 3 8 2 9 1 10 12 11 9 12
REMARK H PARENT 9 13
REMARK Flexibility Score: inf
ROOT
ATOM      1  C   UNL     1      17.205  26.695  36.589  1.00  0.00     0.016 A 
ATOM      2  C   UNL     1      18.023  25.588  36.349  1.00  0.00     0.047 A 
ATOM      3  C   UNL     1      19.414  25.743  36.253  1.00  0.00     0.119 A 
ATOM      4  C   UNL     1      19.986  27.013  36.397  1.00  0.00     0.094 A 
ATOM      5  C   UNL     1      19.176  28.126  36.639  1.00  0.00     0.142 A 
ATOM      6  C   UNL     1      17.775  27.967  36.735  1.00  0.00     0.018 A 
ATOM      7  C   UNL     1      16.991  29.100  36.975  1.00  0.00     0.019 A 
ATOM      8  C   UNL     1      17.608  30.343  37.112  1.00  0.00     0.094 A 
ATOM      9  C   UNL     1      19.000  30.425  37.005  1.00  0.00     0.336 A 
ATOM     10  O   UNL     1      19.575  31.538  37.125  1.00  0.00    -0.246 OA
ATOM     11  O   UNL     1      19.724  29.332  36.775  1.00  0.00    -0.423 OA
ENDROOT
BRANCH   3  12
ATOM     12  O   UNL     1      20.235  24.643  36.014  1.00  0.00    -0.508 OA
ATOM     13  H   UNL     1      19.865  23.700  35.999  1.00  0.00     0.293 HD
ENDBRANCH   3  12
TORSDOF 1
ENDMDL
MODEL 3
REMARK VINA RESULT:    -5.422      1.873      4.103
REMARK INTER + INTRA:          -5.580
REMARK INTER:                  -5.580
REMARK INTRA:                   0.000
REMARK UNBOUND:                 0.000
REMARK SMILES O=c1ccc2ccc(O)cc2o1
REMARK SMILES IDX 6 1 7 2 8 3 10 4 11 5 5 6 4 7 3 8 2 9 1 10 12 11 9 12
REMARK H PARENT 9 13
REMARK Flexibility Score: inf
ROOT
ATOM      1  C   UNL     1      17.996  24.846  35.660  1.00  0.00     0.016 A 
ATOM      2  C   UNL     1      19.173  24.194  35.280  1.00  0.00     0.047 A 
ATOM      3  C   UNL     1      20.396  24.881  35.284  1.00  0.00     0.119 A 
ATOM      4  C   UNL     1      20.440  26.226  35.670  1.00  0.00     0.094 A 
ATOM      5  C   UNL     1      19.268  26.887  36.052  1.00  0.00     0.142 A 
ATOM      6  C   UNL     1      18.037  26.193  36.047  1.00  0.00     0.018 A 
ATOM      7  C   UNL     1      16.882  26.880  36.433  1.00  0.00     0.019 A 
ATOM      8  C   UNL     1      16.977  28.220  36.809  1.00  0.00     0.094 A 
ATOM      9  C   UNL     1      18.229  28.843  36.790  1.00  0.00     0.336 A 
ATOM     10  O   UNL     1      18.335  30.051  37.125  1.00  0.00    -0.246 OA
ATOM     11  O   UNL     1      19.313  28.166  36.418  1.00  0.00    -0.423 OA
ENDROOT
BRANCH   3  12
ATOM     12  O   UNL     1      21.573  24.237  34.907  1.00  0.00    -0.508 OA
ATOM     13  H   UNL     1      21.833  24.139  33.932  1.00  0.00     0.293 HD
ENDBRANCH   3  12
TORSDOF 1
ENDMDL
MODEL 4
REMARK VINA RESULT:    -5.298      1.220      4.721
REMARK INTER + INTRA:          -5.452
REMARK INTER:                  -5.452
REMARK INTRA:                   0.000
REMARK UNBOUND:                 0.000
REMARK SMILES O=c1ccc2ccc(O)cc2o1
REMARK SMILES IDX 6 1 7 2 8 3 10 4 11 5 5 6 4 7 3 8 2 9 1 10 12 11 9 12
REMARK H PARENT 9 13
REMARK Flexibility Score: inf
ROOT
ATOM      1  C   UNL     1      17.978  29.212  37.125  1.00  0.00     0.016 A 
ATOM      2  C   UNL     1      18.254  27.856  36.931  1.00  0.00     0.047 A 
ATOM      3  C   UNL     1      19.540  27.443  36.550  1.00  0.00     0.119 A 
ATOM      4  C   UNL     1      20.551  28.392  36.361  1.00  0.00     0.094 A 
ATOM      5  C   UNL     1      20.284  29.752  36.553  1.00  0.00     0.142 A 
ATOM      6  C   UNL     1      18.989  30.165  36.937  1.00  0.00     0.018 A 
ATOM      7  C   UNL     1      18.752  31.531  37.120  1.00  0.00     0.019 A 
ATOM      8  C   UNL     1      19.792  32.439  36.920  1.00  0.00     0.094 A 
ATOM      9  C   UNL     1      21.050  31.956  36.540  1.00  0.00     0.336 A 
ATOM     10  O   UNL     1      22.000  32.760  36.354  1.00  0.00    -0.246 OA
ATOM     11  O   UNL     1      21.248  30.651  36.372  1.00  0.00    -0.423 OA
ENDROOT
BRANCH   3  12
ATOM     12  O   UNL     1      19.821  26.092  36.355  1.00  0.00    -0.508 OA
ATOM     13  H   UNL     1      19.954  25.707  35.427  1.00  0.00     0.293 HD
ENDBRANCH   3  12
TORSDOF 1
ENDMDL
MODEL 5
REMARK VINA RESULT:    -4.852     16.388     17.488
REMARK INTER + INTRA:          -4.993
REMARK INTER:                  -4.993
REMARK INTRA:                   0.000
REMARK UNBOUND:                 0.000
REMARK SMILES O=c1ccc2ccc(O)cc2o1
REMARK SMILES IDX 6 1 7 2 8 3 10 4 11 5 5 6 4 7 3 8 2 9 1 10 12 11 9 12
REMARK H PARENT 9 13
REMARK Flexibility Score: inf
ROOT
ATOM      1  C   UNL     1      20.245  24.726  20.010  1.00  0.00     0.016 A 
ATOM      2  C   UNL     1      20.977  24.699  18.819  1.00  0.00     0.047 A 
ATOM      3  C   UNL     1      21.066  23.516  18.070  1.00  0.00     0.119 A 
ATOM      4  C   UNL     1      20.420  22.357  18.516  1.00  0.00     0.094 A 
ATOM      5  C   UNL     1      19.685  22.375  19.706  1.00  0.00     0.142 A 
ATOM      6  C   UNL     1      19.597  23.567  20.459  1.00  0.00     0.018 A 
ATOM      7  C   UNL     1      18.856  23.554  21.644  1.00  0.00     0.019 A 
ATOM      8  C   UNL     1      18.229  22.374  22.047  1.00  0.00     0.094 A 
ATOM      9  C   UNL     1      18.361  21.231  21.250  1.00  0.00     0.336 A 
ATOM     10  O   UNL     1      17.804  20.157  21.597  1.00  0.00    -0.246 OA
ATOM     11  O   UNL     1      19.072  21.270  20.127  1.00  0.00    -0.423 OA
ENDROOT
BRANCH   3  12
ATOM     12  O   UNL     1      21.795  23.483  16.883  1.00  0.00    -0.508 OA
ATOM     13  H   UNL     1      21.709  22.712  16.230  1.00  0.00     0.293 HD
ENDBRANCH   3  12
TORSDOF 1
ENDMDL
MODEL 6
REMARK VINA RESULT:    -4.850     15.438     16.537
REMARK INTER + INTRA:          -4.991
REMARK INTER:                  -4.991
REMARK INTRA:                   0.000
REMARK UNBOUND:                 0.000
REMARK SMILES O=c1ccc2ccc(O)cc2o1
REMARK SMILES IDX 6 1 7 2 8 3 10 4 11 5 5 6 4 7 3 8 2 9 1 10 12 11 9 12
REMARK H PARENT 9 13
REMARK Flexibility Score: inf
ROOT
ATOM      1  C   UNL     1      18.785  22.767  18.860  1.00  0.00     0.016 A 
ATOM      2  C   UNL     1      19.655  23.803  18.508  1.00  0.00     0.047 A 
ATOM      3  C   UNL     1      20.174  24.658  19.493  1.00  0.00     0.119 A 
ATOM      4  C   UNL     1      19.817  24.475  20.834  1.00  0.00     0.094 A 
ATOM      5  C   UNL     1      18.947  23.441  21.196  1.00  0.00     0.142 A 
ATOM      6  C   UNL     1      18.427  22.581  20.203  1.00  0.00     0.018 A 
ATOM      7  C   UNL     1      17.559  21.558  20.595  1.00  0.00     0.019 A 
ATOM      8  C   UNL     1      17.234  21.415  21.944  1.00  0.00     0.094 A 
ATOM      9  C   UNL     1      17.787  22.304  22.872  1.00  0.00     0.336 A 
ATOM     10  O   UNL     1      17.505  22.192  24.094  1.00  0.00    -0.246 OA
ATOM     11  O   UNL     1      18.611  23.270  22.473  1.00  0.00    -0.423 OA
ENDROOT
BRANCH   3  12
ATOM     12  O   UNL     1      21.041  25.692  19.148  1.00  0.00    -0.508 OA
ATOM     13  H   UNL     1      21.536  25.696  18.264  1.00  0.00     0.293 HD
ENDBRANCH   3  12
TORSDOF 1
ENDMDL
MODEL 7
REMARK VINA RESULT:    -4.802      1.534      2.291
REMARK INTER + INTRA:          -4.942
REMARK INTER:                  -4.942
REMARK INTRA:                   0.000
REMARK UNBOUND:                 0.000
REMARK SMILES O=c1ccc2ccc(O)cc2o1
REMARK SMILES IDX 6 1 7 2 8 3 10 4 11 5 5 6 4 7 3 8 2 9 1 10 12 11 9 12
REMARK H PARENT 9 13
REMARK Flexibility Score: inf
ROOT
ATOM      1  C   UNL     1      18.409  31.685  37.125  1.00  0.00     0.016 A 
ATOM      2  C   UNL     1      19.468  32.588  36.990  1.00  0.00     0.047 A 
ATOM      3  C   UNL     1      20.763  32.124  36.713  1.00  0.00     0.119 A 
ATOM      4  C   UNL     1      20.998  30.751  36.573  1.00  0.00     0.094 A 
ATOM      5  C   UNL     1      19.945  29.840  36.706  1.00  0.00     0.142 A 
ATOM      6  C   UNL     1      18.641  30.310  36.985  1.00  0.00     0.018 A 
ATOM      7  C   UNL     1      17.610  29.375  37.114  1.00  0.00     0.019 A 
ATOM      8  C   UNL     1      17.894  28.017  36.965  1.00  0.00     0.094 A 
ATOM      9  C   UNL     1      19.208  27.626  36.690  1.00  0.00     0.336 A 
ATOM     10  O   UNL     1      19.484  26.405  36.553  1.00  0.00    -0.246 OA
ATOM     11  O   UNL     1      20.172  28.535  36.573  1.00  0.00    -0.423 OA
ENDROOT
BRANCH   3  12
ATOM     12  O   UNL     1      21.822  33.020  36.577  1.00  0.00    -0.508 OA
ATOM     13  H   UNL     1      22.786  32.715  36.648  1.00  0.00     0.293 HD
ENDBRANCH   3  12
TORSDOF 1
ENDMDL
MODEL 8
REMARK VINA RESULT:    -4.733     15.835     17.189
REMARK INTER + INTRA:          -4.872
REMARK INTER:                  -4.872
REMARK INTRA:                   0.000
REMARK UNBOUND:                 0.000
REMARK SMILES O=c1ccc2ccc(O)cc2o1
REMARK SMILES IDX 6 1 7 2 8 3 10 4 11 5 5 6 4 7 3 8 2 9 1 10 12 11 9 12
REMARK H PARENT 9 13
REMARK Flexibility Score: inf
ROOT
ATOM      1  C   UNL     1      17.474  21.454  20.505  1.00  0.00     0.016 A 
ATOM      2  C   UNL     1      17.220  21.534  21.877  1.00  0.00     0.047 A 
ATOM      3  C   UNL     1      17.904  22.468  22.670  1.00  0.00     0.119 A 
ATOM      4  C   UNL     1      18.847  23.322  22.085  1.00  0.00     0.094 A 
ATOM      5  C   UNL     1      19.107  23.249  20.713  1.00  0.00     0.142 A 
ATOM      6  C   UNL     1      18.417  22.308  19.917  1.00  0.00     0.018 A 
ATOM      7  C   UNL     1      18.700  22.258  18.548  1.00  0.00     0.019 A 
ATOM      8  C   UNL     1      19.647  23.130  18.013  1.00  0.00     0.094 A 
ATOM      9  C   UNL     1      20.292  24.036  18.862  1.00  0.00     0.336 A 
ATOM     10  O   UNL     1      21.150  24.831  18.397  1.00  0.00    -0.246 OA
ATOM     11  O   UNL     1      20.005  24.063  20.161  1.00  0.00    -0.423 OA
ENDROOT
BRANCH   3  12
ATOM     12  O   UNL     1      17.655  22.553  24.038  1.00  0.00    -0.508 OA
ATOM     13  H   UNL     1      18.376  22.351  24.721  1.00  0.00     0.293 HD
ENDBRANCH   3  12
TORSDOF 1
ENDMDL
MODEL 9
REMARK VINA RESULT:    -4.662     16.673     17.722
REMARK INTER + INTRA:          -4.798
REMARK INTER:                  -4.798
REMARK INTRA:                   0.000
REMARK UNBOUND:                 0.000
REMARK SMILES O=c1ccc2ccc(O)cc2o1
REMARK SMILES IDX 6 1 7 2 8 3 10 4 11 5 5 6 4 7 3 8 2 9 1 10 12 11 9 12
REMARK H PARENT 9 13
REMARK Flexibility Score: inf
ROOT
ATOM      1  C   UNL     1      19.560  24.524  18.965  1.00  0.00     0.016 A 
ATOM      2  C   UNL     1      20.046  25.052  20.165  1.00  0.00     0.047 A 
ATOM      3  C   UNL     1      20.225  24.221  21.282  1.00  0.00     0.119 A 
ATOM      4  C   UNL     1      19.914  22.859  21.196  1.00  0.00     0.094 A 
ATOM      5  C   UNL     1      19.427  22.323  20.000  1.00  0.00     0.142 A 
ATOM      6  C   UNL     1      19.248  23.161  18.876  1.00  0.00     0.018 A 
ATOM      7  C   UNL     1      18.758  22.596  17.695  1.00  0.00     0.019 A 
ATOM      8  C   UNL     1      18.463  21.233  17.659  1.00  0.00     0.094 A 
ATOM      9  C   UNL     1      18.665  20.465  18.810  1.00  0.00     0.336 A 
ATOM     10  O   UNL     1      18.404  19.233  18.797  1.00  0.00    -0.246 OA
ATOM     11  O   UNL     1      19.132  21.027  19.923  1.00  0.00    -0.423 OA
ENDROOT
BRANCH   3  12
ATOM     12  O   UNL     1      20.710  24.741  22.480  1.00  0.00    -0.508 OA
ATOM     13  H   UNL     1      20.583  24.253  23.359  1.00  0.00     0.293 HD
ENDBRANCH   3  12
TORSDOF 1
ENDMDL
