MODEL 1
REMARK VINA RESULT:    -4.419      0.000      0.000
REMARK INTER + INTRA:          -4.853
REMARK INTER:                  -4.806
REMARK INTRA:                  -0.046
REMARK UNBOUND:                -0.046
REMARK SMILES COc1ccccc1O
REMARK SMILES IDX 3 1 4 2 5 3 6 4 7 5 8 6 2 7 1 8 9 9
REMARK H PARENT 9 10
REMARK Flexibility Score: inf
ROOT
ATOM      1  C   UNL     1      -0.421  -0.266   0.446  1.00  0.00     0.160 A 
ATOM      2  C   UNL     1      -0.698   1.115   0.374  1.00  0.00     0.050 A 
ATOM      3  C   UNL     1      -2.020   1.566   0.334  1.00  0.00     0.004 A 
ATOM      4  C   UNL     1      -3.074   0.651   0.364  1.00  0.00     0.004 A 
ATOM      5  C   UNL     1      -2.809  -0.719   0.435  1.00  0.00     0.050 A 
ATOM      6  C   UNL     1      -1.486  -1.179   0.476  1.00  0.00     0.157 A 
ENDROOT
BRANCH   1   7
ATOM      7  O   UNL     1       0.891  -0.764   0.489  1.00  0.00    -0.493 OA
ATOM      8  C   UNL     1       1.738  -0.901  -0.649  1.00  0.00     0.278 C 
ENDBRANCH   1   7
BRANCH   6   9
ATOM      9  O   UNL     1      -1.219  -2.546   0.546  1.00  0.00    -0.504 OA
ATOM     10  H   UNL     1      -0.826  -3.050  -0.240  1.00  0.00     0.293 HD
ENDBRANCH   6   9
TORSDOF 2
ENDMDL
MODEL 2
REMARK VINA RESULT:    -3.985      0.899      2.358
REMARK INTER + INTRA:          -4.381
REMARK INTER:                  -4.475
REMARK INTRA:                   0.094
REMARK UNBOUND:                -0.046
REMARK SMILES COc1ccccc1O
REMARK SMILES IDX 3 1 4 2 5 3 6 4 7 5 8 6 2 7 1 8 9 9
REMARK H PARENT 9 10
REMARK Flexibility Score: inf
ROOT
ATOM      1  C   UNL     1      -1.419  -1.235   0.625  1.00  0.00     0.160 A 
ATOM      2  C   UNL     1      -2.738  -0.795   0.396  1.00  0.00     0.050 A 
ATOM      3  C   UNL     1      -3.013   0.571   0.274  1.00  0.00     0.004 A 
ATOM      4  C   UNL     1      -1.981   1.505   0.379  1.00  0.00     0.004 A 
ATOM      5  C   UNL     1      -0.671   1.078   0.607  1.00  0.00     0.050 A 
ATOM      6  C   UNL     1      -0.387  -0.289   0.730  1.00  0.00     0.157 A 
ENDROOT
BRANCH   1   7
ATOM      7  O   UNL     1      -1.097  -2.596   0.754  1.00  0.00    -0.493 OA
ATOM      8  C   UNL     1      -0.443  -3.367  -0.249  1.00  0.00     0.278 C 
ENDBRANCH   1   7
BRANCH   6   9
ATOM      9  O   UNL     1       0.920  -0.718   0.958  1.00  0.00    -0.504 OA
ATOM     10  H   UNL     1       1.182  -1.692   0.866  1.00  0.00     0.293 HD
ENDBRANCH   6   9
TORSDOF 2
ENDMDL
MODEL 3
REMARK VINA RESULT:    -3.863     10.404     10.953
REMARK INTER + INTRA:          -4.248
REMARK INTER:                  -4.218
REMARK INTRA:                  -0.030
REMARK UNBOUND:                -0.046
REMARK SMILES COc1ccccc1O
REMARK SMILES IDX 3 1 4 2 5 3 6 4 7 5 8 6 2 7 1 8 9 9
REMARK H PARENT 9 10
REMARK Flexibility Score: inf
ROOT
ATOM      1  C   UNL     1      -5.349   1.330  -8.771  1.00  0.00     0.160 A 
ATOM      2  C   UNL     1      -6.417   0.528  -8.320  1.00  0.00     0.050 A 
ATOM      3  C   UNL     1      -7.718   0.773  -8.767  1.00  0.00     0.004 A 
ATOM      4  C   UNL     1      -7.967   1.815  -9.664  1.00  0.00     0.004 A 
ATOM      5  C   UNL     1      -6.915   2.614 -10.116  1.00  0.00     0.050 A 
ATOM      6  C   UNL     1      -5.607   2.375  -9.672  1.00  0.00     0.157 A 
ENDROOT
BRANCH   1   7
ATOM      7  O   UNL     1      -4.026   1.121  -8.348  1.00  0.00    -0.493 OA
ATOM      8  C   UNL     1      -3.477  -0.153  -8.022  1.00  0.00     0.278 C 
ENDBRANCH   1   7
BRANCH   6   9
ATOM      9  O   UNL     1      -4.555   3.173 -10.122  1.00  0.00    -0.504 OA
ATOM     10  H   UNL     1      -3.902   2.842 -10.821  1.00  0.00     0.293 HD
ENDBRANCH   6   9
TORSDOF 2
ENDMDL
MODEL 4
REMARK VINA RESULT:    -3.712      1.261      2.337
REMARK INTER + INTRA:          -4.084
REMARK INTER:                  -4.038
REMARK INTRA:                  -0.046
REMARK UNBOUND:                -0.046
REMARK SMILES COc1ccccc1O
REMARK SMILES IDX 3 1 4 2 5 3 6 4 7 5 8 6 2 7 1 8 9 9
REMARK H PARENT 9 10
REMARK Flexibility Score: inf
ROOT
ATOM      1  C   UNL     1      -0.832  -0.191   0.560  1.00  0.00     0.160 A 
ATOM      2  C   UNL     1      -1.620  -1.358   0.512  1.00  0.00     0.050 A 
ATOM      3  C   UNL     1      -3.013  -1.264   0.431  1.00  0.00     0.004 A 
ATOM      4  C   UNL     1      -3.630  -0.012   0.398  1.00  0.00     0.004 A 
ATOM      5  C   UNL     1      -2.857   1.150   0.446  1.00  0.00     0.050 A 
ATOM      6  C   UNL     1      -1.459   1.064   0.527  1.00  0.00     0.157 A 
ENDROOT
BRANCH   1   7
ATOM      7  O   UNL     1       0.569  -0.237   0.642  1.00  0.00    -0.493 OA
ATOM      8  C   UNL     1       1.430  -0.547  -0.450  1.00  0.00     0.278 C 
ENDBRANCH   1   7
BRANCH   6   9
ATOM      9  O   UNL     1      -0.686   2.223   0.576  1.00  0.00    -0.504 OA
ATOM     10  H   UNL     1      -0.124   2.519  -0.214  1.00  0.00     0.293 HD
ENDBRANCH   6   9
TORSDOF 2
ENDMDL
MODEL 5
REMARK VINA RESULT:    -3.690      1.393      2.364
REMARK INTER + INTRA:          -4.060
REMARK INTER:                  -4.033
REMARK INTRA:                  -0.027
REMARK UNBOUND:                -0.046
REMARK SMILES COc1ccccc1O
REMARK SMILES IDX 3 1 4 2 5 3 6 4 7 5 8 6 2 7 1 8 9 9
REMARK H PARENT 9 10
REMARK Flexibility Score: inf
ROOT
ATOM      1  C   UNL     1      -1.609  -0.990   0.502  1.00  0.00     0.160 A 
ATOM      2  C   UNL     1      -0.360  -0.336   0.520  1.00  0.00     0.050 A 
ATOM      3  C   UNL     1      -0.298   1.061   0.505  1.00  0.00     0.004 A 
ATOM      4  C   UNL     1      -1.472   1.815   0.471  1.00  0.00     0.004 A 
ATOM      5  C   UNL     1      -2.714   1.175   0.453  1.00  0.00     0.050 A 
ATOM      6  C   UNL     1      -2.785  -0.225   0.468  1.00  0.00     0.157 A 
ENDROOT
BRANCH   1   7
ATOM      7  O   UNL     1      -1.720  -2.390   0.516  1.00  0.00    -0.493 OA
ATOM      8  C   UNL     1      -0.612  -3.285   0.518  1.00  0.00     0.278 C 
ENDBRANCH   1   7
BRANCH   6   9
ATOM      9  O   UNL     1      -4.024  -0.865   0.449  1.00  0.00    -0.504 OA
ATOM     10  H   UNL     1      -4.841  -0.426   0.043  1.00  0.00     0.293 HD
ENDBRANCH   6   9
TORSDOF 2
ENDMDL
MODEL 6
REMARK VINA RESULT:    -3.658      9.860     10.429
REMARK INTER + INTRA:          -4.025
REMARK INTER:                  -3.983
REMARK INTRA:                  -0.043
REMARK UNBOUND:                -0.046
REMARK SMILES COc1ccccc1O
REMARK SMILES IDX 3 1 4 2 5 3 6 4 7 5 8 6 2 7 1 8 9 9
REMARK H PARENT 9 10
REMARK Flexibility Score: inf
ROOT
ATOM      1  C   UNL     1      -3.799   0.383  -8.789  1.00  0.00     0.160 A 
ATOM      2  C   UNL     1      -4.321  -0.824  -8.281  1.00  0.00     0.050 A 
ATOM      3  C   UNL     1      -3.715  -2.042  -8.600  1.00  0.00     0.004 A 
ATOM      4  C   UNL     1      -2.589  -2.070  -9.425  1.00  0.00     0.004 A 
ATOM      5  C   UNL     1      -2.065  -0.880  -9.934  1.00  0.00     0.050 A 
ATOM      6  C   UNL     1      -2.666   0.347  -9.618  1.00  0.00     0.157 A 
ENDROOT
BRANCH   1   7
ATOM      7  O   UNL     1      -4.374   1.630  -8.495  1.00  0.00    -0.493 OA
ATOM      8  C   UNL     1      -5.687   2.022  -8.885  1.00  0.00     0.278 C 
ENDBRANCH   1   7
BRANCH   6   9
ATOM      9  O   UNL     1      -2.145   1.536 -10.125  1.00  0.00    -0.504 OA
ATOM     10  H   UNL     1      -1.468   1.539 -10.878  1.00  0.00     0.293 HD
ENDBRANCH   6   9
TORSDOF 2
ENDMDL
MODEL 7
REMARK VINA RESULT:    -3.605      1.438      3.222
REMARK INTER + INTRA:          -3.968
REMARK INTER:                  -3.935
REMARK INTRA:                  -0.033
REMARK UNBOUND:                -0.046
REMARK SMILES COc1ccccc1O
REMARK SMILES IDX 3 1 4 2 5 3 6 4 7 5 8 6 2 7 1 8 9 9
REMARK H PARENT 9 10
REMARK Flexibility Score: inf
ROOT
ATOM      1  C   UNL     1      -0.999  -0.348   0.339  1.00  0.00     0.160 A 
ATOM      2  C   UNL     1       0.038   0.513  -0.075  1.00  0.00     0.050 A 
ATOM      3  C   UNL     1       1.282  -0.009  -0.440  1.00  0.00     0.004 A 
ATOM      4  C   UNL     1       1.505  -1.387  -0.396  1.00  0.00     0.004 A 
ATOM      5  C   UNL     1       0.484  -2.248   0.014  1.00  0.00     0.050 A 
ATOM      6  C   UNL     1      -0.768  -1.732   0.381  1.00  0.00     0.157 A 
ENDROOT
BRANCH   1   7
ATOM      7  O   UNL     1      -2.264   0.131   0.714  1.00  0.00    -0.493 OA
ATOM      8  C   UNL     1      -2.972   1.159   0.027  1.00  0.00     0.278 C 
ENDBRANCH   1   7
BRANCH   6   9
ATOM      9  O   UNL     1      -1.788  -2.589   0.791  1.00  0.00    -0.504 OA
ATOM     10  H   UNL     1      -1.978  -3.457   0.304  1.00  0.00     0.293 HD
ENDBRANCH   6   9
TORSDOF 2
ENDMDL
MODEL 8
REMARK VINA RESULT:    -3.495      1.626      3.759
REMARK INTER + INTRA:          -3.847
REMARK INTER:                  -3.816
REMARK INTRA:                  -0.032
REMARK UNBOUND:                -0.046
REMARK SMILES COc1ccccc1O
REMARK SMILES IDX 3 1 4 2 5 3 6 4 7 5 8 6 2 7 1 8 9 9
REMARK H PARENT 9 10
REMARK Flexibility Score: inf
ROOT
ATOM      1  C   UNL     1      -0.648  -0.585   0.384  1.00  0.00     0.160 A 
ATOM      2  C   UNL     1      -1.395  -1.738   0.702  1.00  0.00     0.050 A 
ATOM      3  C   UNL     1      -0.858  -3.009   0.475  1.00  0.00     0.004 A 
ATOM      4  C   UNL     1       0.421  -3.142  -0.069  1.00  0.00     0.004 A 
ATOM      5  C   UNL     1       1.167  -2.006  -0.389  1.00  0.00     0.050 A 
ATOM      6  C   UNL     1       0.636  -0.728  -0.164  1.00  0.00     0.157 A 
ENDROOT
BRANCH   1   7
ATOM      7  O   UNL     1      -1.147   0.710   0.594  1.00  0.00    -0.493 OA
ATOM      8  C   UNL     1      -2.502   1.096   0.378  1.00  0.00     0.278 C 
ENDBRANCH   1   7
BRANCH   6   9
ATOM      9  O   UNL     1       1.379   0.408  -0.482  1.00  0.00    -0.504 OA
ATOM     10  H   UNL     1       0.945   1.319  -0.564  1.00  0.00     0.293 HD
ENDBRANCH   6   9
TORSDOF 2
ENDMDL
MODEL 9
REMARK VINA RESULT:    -3.452     11.516     12.320
REMARK INTER + INTRA:          -3.801
REMARK INTER:                  -3.756
REMARK INTRA:                  -0.045
REMARK UNBOUND:                -0.046
REMARK SMILES COc1ccccc1O
REMARK SMILES IDX 3 1 4 2 5 3 6 4 7 5 8 6 2 7 1 8 9 9
REMARK H PARENT 9 10
REMARK Flexibility Score: inf
ROOT
ATOM      1  C   UNL     1      -7.898   0.748  -8.863  1.00  0.00     0.160 A 
ATOM      2  C   UNL     1      -7.354  -0.425  -9.426  1.00  0.00     0.050 A 
ATOM      3  C   UNL     1      -8.192  -1.377 -10.014  1.00  0.00     0.004 A 
ATOM      4  C   UNL     1      -9.573  -1.170 -10.047  1.00  0.00     0.004 A 
ATOM      5  C   UNL     1     -10.120  -0.012  -9.492  1.00  0.00     0.050 A 
ATOM      6  C   UNL     1      -9.287   0.948  -8.900  1.00  0.00     0.157 A 
ENDROOT
BRANCH   1   7
ATOM      7  O   UNL     1      -7.095   1.730  -8.262  1.00  0.00    -0.493 OA
ATOM      8  C   UNL     1      -6.214   2.596  -8.972  1.00  0.00     0.278 C 
ENDBRANCH   1   7
BRANCH   6   9
ATOM      9  O   UNL     1      -9.831   2.105  -8.345  1.00  0.00    -0.504 OA
ATOM     10  H   UNL     1     -10.611   2.067  -7.700  1.00  0.00     0.293 HD
ENDBRANCH   6   9
TORSDOF 2
ENDMDL
