MODEL 1
REMARK VINA RESULT:    -3.835      0.000      0.000
REMARK INTER + INTRA:         -11.384
REMARK INTER:                  -8.318
REMARK INTRA:                  -3.066
REMARK UNBOUND:                -3.066
REMARK SMILES CCCCCCCCCCCCCCCCCCCCCC(=O)[O-]
REMARK SMILES IDX 12 1 11 2 10 3 9 4 8 5 7 6 6 7 5 8 4 9 3 10 2 11 1 12 13 13
REMARK SMILES IDX 14 14 15 15 16 16 17 17 18 18 19 19 20 20 21 21 22 22 23 23
REMARK SMILES IDX 24 24
REMARK H PARENT
REMARK Flexibility Score: inf
ROOT
ATOM      1  C   UNL     1      -7.156  -3.927  10.910  1.00  0.00     0.000 C 
ENDROOT
BRANCH   1   2
ATOM      2  C   UNL     1      -8.306  -2.990  10.480  1.00  0.00     0.000 C 
BRANCH   2   3
ATOM      3  C   UNL     1      -8.551  -1.868  11.502  1.00  0.00     0.000 C 
BRANCH   3   4
ATOM      4  C   UNL     1      -7.566  -1.964  12.673  1.00  0.00    -0.000 C 
BRANCH   4   5
ATOM      5  C   UNL     1      -6.859  -0.623  12.909  1.00  0.00    -0.000 C 
BRANCH   5   6
ATOM      6  C   UNL     1      -5.350  -0.823  13.095  1.00  0.00    -0.000 C 
BRANCH   6   7
ATOM      7  C   UNL     1      -4.629  -0.855  11.737  1.00  0.00    -0.000 C 
BRANCH   7   8
ATOM      8  C   UNL     1      -3.658  -2.041  11.614  1.00  0.00    -0.000 C 
BRANCH   8   9
ATOM      9  C   UNL     1      -2.538  -1.783  10.589  1.00  0.00    -0.000 C 
BRANCH   9  10
ATOM     10  C   UNL     1      -2.790  -0.527   9.733  1.00  0.00    -0.000 C 
BRANCH  10  11
ATOM     11  C   UNL     1      -1.543   0.338   9.473  1.00  0.00    -0.003 C 
ATOM     12  C   UNL     1      -1.746   1.359   8.353  1.00  0.00     0.004 C 
ENDBRANCH  10  11
ENDBRANCH   9  10
ENDBRANCH   8   9
ENDBRANCH   7   8
ENDBRANCH   6   7
ENDBRANCH   5   6
ENDBRANCH   4   5
ENDBRANCH   3   4
ENDBRANCH   2   3
ENDBRANCH   1   2
BRANCH   1  13
ATOM     13  C   UNL     1      -6.002  -3.994   9.895  1.00  0.00     0.000 C 
BRANCH  13  14
ATOM     14  C   UNL     1      -6.065  -2.869   8.848  1.00  0.00     0.000 C 
BRANCH  14  15
ATOM     15  C   UNL     1      -4.888  -2.905   7.856  1.00  0.00     0.000 C 
BRANCH  15  16
ATOM     16  C   UNL     1      -4.434  -4.312   7.429  1.00  0.00     0.000 C 
BRANCH  16  17
ATOM     17  C   UNL     1      -3.105  -4.308   6.654  1.00  0.00     0.000 C 
BRANCH  17  18
ATOM     18  C   UNL     1      -2.039  -3.417   7.310  1.00  0.00     0.000 C 
BRANCH  18  19
ATOM     19  C   UNL     1      -1.340  -2.489   6.304  1.00  0.00     0.000 C 
BRANCH  19  20
ATOM     20  C   UNL     1      -2.217  -1.269   5.986  1.00  0.00     0.006 C 
BRANCH  20  21
ATOM     21  C   UNL     1      -1.960  -0.721   4.574  1.00  0.00     0.053 C 
BRANCH  21  22
ATOM     22  C   UNL     1      -1.141  -1.670   3.749  1.00  0.00     0.041 C 
ATOM     23  O   UNL     1      -1.706  -2.547   3.042  1.00  0.00    -0.550 OA
ATOM     24  O   UNL     1       0.244  -1.555   3.726  1.00  0.00    -0.550 OA
ENDBRANCH  21  22
ENDBRANCH  20  21
ENDBRANCH  19  20
ENDBRANCH  18  19
ENDBRANCH  17  18
ENDBRANCH  16  17
ENDBRANCH  15  16
ENDBRANCH  14  15
ENDBRANCH  13  14
ENDBRANCH   1  13
TORSDOF 20
ENDMDL
MODEL 2
REMARK VINA RESULT:    -3.785      3.074      6.425
REMARK INTER + INTRA:         -11.276
REMARK INTER:                  -7.265
REMARK INTRA:                  -4.011
REMARK UNBOUND:                -3.066
REMARK SMILES CCCCCCCCCCCCCCCCCCCCCC(=O)[O-]
REMARK SMILES IDX 12 1 11 2 10 3 9 4 8 5 7 6 6 7 5 8 4 9 3 10 2 11 1 12 13 13
REMARK SMILES IDX 14 14 15 15 16 16 17 17 18 18 19 19 20 20 21 21 22 22 23 23
REMARK SMILES IDX 24 24
REMARK H PARENT
REMARK Flexibility Score: inf
ROOT
ATOM      1  C   UNL     1      -5.121   0.740   8.108  1.00  0.00     0.000 C 
ENDROOT
BRANCH   1   2
ATOM      2  C   UNL     1      -4.719  -0.728   7.848  1.00  0.00     0.000 C 
BRANCH   2   3
ATOM      3  C   UNL     1      -5.656  -1.416   6.843  1.00  0.00     0.000 C 
BRANCH   3   4
ATOM      4  C   UNL     1      -5.970  -2.853   7.279  1.00  0.00    -0.000 C 
BRANCH   4   5
ATOM      5  C   UNL     1      -4.831  -3.431   8.129  1.00  0.00    -0.000 C 
BRANCH   5   6
ATOM      6  C   UNL     1      -4.220  -4.668   7.460  1.00  0.00    -0.000 C 
BRANCH   6   7
ATOM      7  C   UNL     1      -3.063  -4.273   6.528  1.00  0.00    -0.000 C 
BRANCH   7   8
ATOM      8  C   UNL     1      -1.941  -3.524   7.268  1.00  0.00    -0.000 C 
BRANCH   8   9
ATOM      9  C   UNL     1      -1.506  -2.241   6.537  1.00  0.00    -0.000 C 
BRANCH   9  10
ATOM     10  C   UNL     1      -2.295  -1.998   5.237  1.00  0.00    -0.000 C 
BRANCH  10  11
ATOM     11  C   UNL     1      -1.455  -1.472   4.059  1.00  0.00    -0.003 C 
ATOM     12  C   UNL     1       0.030  -1.816   4.182  1.00  0.00     0.004 C 
ENDBRANCH  10  11
ENDBRANCH   9  10
ENDBRANCH   8   9
ENDBRANCH   7   8
ENDBRANCH   6   7
ENDBRANCH   5   6
ENDBRANCH   4   5
ENDBRANCH   3   4
ENDBRANCH   2   3
ENDBRANCH   1   2
BRANCH   1  13
ATOM     13  C   UNL     1      -4.065   1.760   7.650  1.00  0.00     0.000 C 
BRANCH  13  14
ATOM     14  C   UNL     1      -2.694   1.118   7.382  1.00  0.00     0.000 C 
BRANCH  14  15
ATOM     15  C   UNL     1      -1.653   1.445   8.469  1.00  0.00     0.000 C 
BRANCH  15  16
ATOM     16  C   UNL     1      -1.306   0.281   9.413  1.00  0.00     0.000 C 
BRANCH  16  17
ATOM     17  C   UNL     1      -1.824   0.492  10.846  1.00  0.00     0.000 C 
BRANCH  17  18
ATOM     18  C   UNL     1      -3.107  -0.304  11.136  1.00  0.00     0.000 C 
BRANCH  18  19
ATOM     19  C   UNL     1      -2.889  -1.824  11.070  1.00  0.00     0.000 C 
BRANCH  19  20
ATOM     20  C   UNL     1      -4.107  -2.575  11.630  1.00  0.00     0.006 C 
BRANCH  20  21
ATOM     21  C   UNL     1      -5.306  -1.644  11.862  1.00  0.00     0.053 C 
BRANCH  21  22
ATOM     22  C   UNL     1      -6.557  -2.180  11.230  1.00  0.00     0.041 C 
ATOM     23  O   UNL     1      -7.018  -3.298  11.584  1.00  0.00    -0.550 OA
ATOM     24  O   UNL     1      -7.239  -1.423  10.286  1.00  0.00    -0.550 OA
ENDBRANCH  21  22
ENDBRANCH  20  21
ENDBRANCH  19  20
ENDBRANCH  18  19
ENDBRANCH  17  18
ENDBRANCH  16  17
ENDBRANCH  15  16
ENDBRANCH  14  15
ENDBRANCH  13  14
ENDBRANCH   1  13
TORSDOF 20
ENDMDL
MODEL 3
REMARK VINA RESULT:    -3.761      2.975      5.994
REMARK INTER + INTRA:         -11.224
REMARK INTER:                  -7.991
REMARK INTRA:                  -3.233
REMARK UNBOUND:                -3.066
REMARK SMILES CCCCCCCCCCCCCCCCCCCCCC(=O)[O-]
REMARK SMILES IDX 12 1 11 2 10 3 9 4 8 5 7 6 6 7 5 8 4 9 3 10 2 11 1 12 13 13
REMARK SMILES IDX 14 14 15 15 16 16 17 17 18 18 19 19 20 20 21 21 22 22 23 23
REMARK SMILES IDX 24 24
REMARK H PARENT
REMARK Flexibility Score: inf
ROOT
ATOM      1  C   UNL     1      -5.933  -3.863   9.616  1.00  0.00     0.000 C 
ENDROOT
BRANCH   1   2
ATOM      2  C   UNL     1      -6.064  -2.727   8.579  1.00  0.00     0.000 C 
BRANCH   2   3
ATOM      3  C   UNL     1      -5.053  -2.871   7.430  1.00  0.00     0.000 C 
BRANCH   3   4
ATOM      4  C   UNL     1      -4.413  -4.265   7.432  1.00  0.00    -0.000 C 
BRANCH   4   5
ATOM      5  C   UNL     1      -3.077  -4.258   6.677  1.00  0.00    -0.000 C 
BRANCH   5   6
ATOM      6  C   UNL     1      -2.088  -3.278   7.321  1.00  0.00    -0.000 C 
BRANCH   6   7
ATOM      7  C   UNL     1      -1.284  -2.526   6.248  1.00  0.00    -0.000 C 
BRANCH   7   8
ATOM      8  C   UNL     1      -1.885  -1.149   5.920  1.00  0.00    -0.000 C 
BRANCH   8   9
ATOM      9  C   UNL     1      -2.283  -1.017   4.438  1.00  0.00    -0.000 C 
BRANCH   9  10
ATOM     10  C   UNL     1      -1.521  -1.997   3.526  1.00  0.00    -0.000 C 
BRANCH  10  11
ATOM     11  C   UNL     1      -0.276  -1.408   2.840  1.00  0.00    -0.003 C 
ATOM     12  C   UNL     1      -0.612  -0.562   1.611  1.00  0.00     0.004 C 
ENDBRANCH  10  11
ENDBRANCH   9  10
ENDBRANCH   8   9
ENDBRANCH   7   8
ENDBRANCH   6   7
ENDBRANCH   5   6
ENDBRANCH   4   5
ENDBRANCH   3   4
ENDBRANCH   2   3
ENDBRANCH   1   2
BRANCH   1  13
ATOM     13  C   UNL     1      -5.493  -3.381  11.009  1.00  0.00     0.000 C 
BRANCH  13  14
ATOM     14  C   UNL     1      -5.788  -1.890  11.243  1.00  0.00     0.000 C 
BRANCH  14  15
ATOM     15  C   UNL     1      -4.530  -1.076  11.597  1.00  0.00     0.000 C 
BRANCH  15  16
ATOM     16  C   UNL     1      -3.192  -1.772  11.288  1.00  0.00     0.000 C 
BRANCH  16  17
ATOM     17  C   UNL     1      -2.391  -1.072  10.176  1.00  0.00     0.000 C 
BRANCH  17  18
ATOM     18  C   UNL     1      -3.278  -0.230   9.246  1.00  0.00     0.000 C 
BRANCH  18  19
ATOM     19  C   UNL     1      -2.590   1.061   8.778  1.00  0.00     0.000 C 
BRANCH  19  20
ATOM     20  C   UNL     1      -1.062   0.936   8.882  1.00  0.00     0.006 C 
BRANCH  20  21
ATOM     21  C   UNL     1      -0.405   2.237   9.365  1.00  0.00     0.053 C 
BRANCH  21  22
ATOM     22  C   UNL     1      -1.053   2.759  10.613  1.00  0.00     0.041 C 
ATOM     23  O   UNL     1      -1.633   3.878  10.607  1.00  0.00    -0.550 OA
ATOM     24  O   UNL     1      -1.056   1.989  11.770  1.00  0.00    -0.550 OA
ENDBRANCH  21  22
ENDBRANCH  20  21
ENDBRANCH  19  20
ENDBRANCH  18  19
ENDBRANCH  17  18
ENDBRANCH  16  17
ENDBRANCH  15  16
ENDBRANCH  14  15
ENDBRANCH  13  14
ENDBRANCH   1  13
TORSDOF 20
ENDMDL
MODEL 4
REMARK VINA RESULT:    -3.734      2.616      6.146
REMARK INTER + INTRA:         -11.166
REMARK INTER:                  -8.544
REMARK INTRA:                  -2.623
REMARK UNBOUND:                -3.066
REMARK SMILES CCCCCCCCCCCCCCCCCCCCCC(=O)[O-]
REMARK SMILES IDX 12 1 11 2 10 3 9 4 8 5 7 6 6 7 5 8 4 9 3 10 2 11 1 12 13 13
REMARK SMILES IDX 14 14 15 15 16 16 17 17 18 18 19 19 20 20 21 21 22 22 23 23
REMARK SMILES IDX 24 24
REMARK H PARENT
REMARK Flexibility Score: inf
ROOT
ATOM      1  C   UNL     1      -6.207  -4.240  10.128  1.00  0.00     0.000 C 
ENDROOT
BRANCH   1   2
ATOM      2  C   UNL     1      -5.391  -3.613   8.977  1.00  0.00     0.000 C 
BRANCH   2   3
ATOM      3  C   UNL     1      -5.010  -4.648   7.906  1.00  0.00     0.000 C 
BRANCH   3   4
ATOM      4  C   UNL     1      -4.323  -3.975   6.711  1.00  0.00    -0.000 C 
BRANCH   4   5
ATOM      5  C   UNL     1      -2.824  -4.305   6.681  1.00  0.00    -0.000 C 
BRANCH   5   6
ATOM      6  C   UNL     1      -2.002  -3.181   7.324  1.00  0.00    -0.000 C 
BRANCH   6   7
ATOM      7  C   UNL     1      -2.520  -1.802   6.885  1.00  0.00    -0.000 C 
BRANCH   7   8
ATOM      8  C   UNL     1      -1.723  -1.224   5.703  1.00  0.00    -0.000 C 
BRANCH   8   9
ATOM      9  C   UNL     1      -0.422  -2.002   5.431  1.00  0.00    -0.000 C 
BRANCH   9  10
ATOM     10  C   UNL     1       0.226  -1.630   4.084  1.00  0.00    -0.000 C 
BRANCH  10  11
ATOM     11  C   UNL     1      -0.703  -1.755   2.863  1.00  0.00    -0.003 C 
ATOM     12  C   UNL     1      -1.176  -0.402   2.328  1.00  0.00     0.004 C 
ENDBRANCH  10  11
ENDBRANCH   9  10
ENDBRANCH   8   9
ENDBRANCH   7   8
ENDBRANCH   6   7
ENDBRANCH   5   6
ENDBRANCH   4   5
ENDBRANCH   3   4
ENDBRANCH   2   3
ENDBRANCH   1   2
BRANCH   1  13
ATOM     13  C   UNL     1      -7.548  -3.532  10.391  1.00  0.00     0.000 C 
BRANCH  13  14
ATOM     14  C   UNL     1      -7.885  -3.433  11.888  1.00  0.00     0.000 C 
BRANCH  14  15
ATOM     15  C   UNL     1      -7.474  -2.085  12.509  1.00  0.00     0.000 C 
BRANCH  15  16
ATOM     16  C   UNL     1      -7.118  -0.980  11.498  1.00  0.00     0.000 C 
BRANCH  16  17
ATOM     17  C   UNL     1      -5.645  -0.544  11.577  1.00  0.00     0.000 C 
BRANCH  17  18
ATOM     18  C   UNL     1      -4.780  -1.521  12.389  1.00  0.00     0.000 C 
BRANCH  18  19
ATOM     19  C   UNL     1      -3.524  -1.975  11.628  1.00  0.00     0.000 C 
BRANCH  19  20
ATOM     20  C   UNL     1      -3.322  -1.136  10.357  1.00  0.00     0.006 C 
BRANCH  20  21
ATOM     21  C   UNL     1      -1.978  -0.393  10.360  1.00  0.00     0.053 C 
BRANCH  21  22
ATOM     22  C   UNL     1      -2.127   1.026  10.823  1.00  0.00     0.041 C 
ATOM     23  O   UNL     1      -1.782   1.353  11.990  1.00  0.00    -0.550 OA
ATOM     24  O   UNL     1      -2.602   1.997   9.949  1.00  0.00    -0.550 OA
ENDBRANCH  21  22
ENDBRANCH  20  21
ENDBRANCH  19  20
ENDBRANCH  18  19
ENDBRANCH  17  18
ENDBRANCH  16  17
ENDBRANCH  15  16
ENDBRANCH  14  15
ENDBRANCH  13  14
ENDBRANCH   1  13
TORSDOF 20
ENDMDL
MODEL 5
REMARK VINA RESULT:    -3.732      1.418      2.741
REMARK INTER + INTRA:         -11.162
REMARK INTER:                  -7.845
REMARK INTRA:                  -3.316
REMARK UNBOUND:                -3.066
REMARK SMILES CCCCCCCCCCCCCCCCCCCCCC(=O)[O-]
REMARK SMILES IDX 12 1 11 2 10 3 9 4 8 5 7 6 6 7 5 8 4 9 3 10 2 11 1 12 13 13
REMARK SMILES IDX 14 14 15 15 16 16 17 17 18 18 19 19 20 20 21 21 22 22 23 23
REMARK SMILES IDX 24 24
REMARK H PARENT
REMARK Flexibility Score: inf
ROOT
ATOM      1  C   UNL     1      -6.122  -3.134   9.014  1.00  0.00     0.000 C 
ENDROOT
BRANCH   1   2
ATOM      2  C   UNL     1      -5.738  -3.673  10.409  1.00  0.00     0.000 C 
BRANCH   2   3
ATOM      3  C   UNL     1      -6.041  -2.662  11.526  1.00  0.00     0.000 C 
BRANCH   3   4
ATOM      4  C   UNL     1      -4.911  -1.634  11.661  1.00  0.00    -0.000 C 
BRANCH   4   5
ATOM      5  C   UNL     1      -3.538  -2.316  11.599  1.00  0.00    -0.000 C 
BRANCH   5   6
ATOM      6  C   UNL     1      -2.633  -1.638  10.563  1.00  0.00    -0.000 C 
BRANCH   6   7
ATOM      7  C   UNL     1      -2.957  -0.139  10.450  1.00  0.00    -0.000 C 
BRANCH   7   8
ATOM      8  C   UNL     1      -1.732   0.750  10.721  1.00  0.00    -0.000 C 
BRANCH   8   9
ATOM      9  C   UNL     1      -0.864   0.958   9.466  1.00  0.00    -0.000 C 
BRANCH   9  10
ATOM     10  C   UNL     1      -0.868   2.418   8.973  1.00  0.00    -0.000 C 
BRANCH  10  11
ATOM     11  C   UNL     1      -2.241   2.942   8.516  1.00  0.00    -0.003 C 
ATOM     12  C   UNL     1      -2.317   3.187   7.008  1.00  0.00     0.004 C 
ENDBRANCH  10  11
ENDBRANCH   9  10
ENDBRANCH   8   9
ENDBRANCH   7   8
ENDBRANCH   6   7
ENDBRANCH   5   6
ENDBRANCH   4   5
ENDBRANCH   3   4
ENDBRANCH   2   3
ENDBRANCH   1   2
BRANCH   1  13
ATOM     13  C   UNL     1      -4.943  -3.079   8.027  1.00  0.00     0.000 C 
BRANCH  13  14
ATOM     14  C   UNL     1      -4.570  -4.462   7.468  1.00  0.00     0.000 C 
BRANCH  14  15
ATOM     15  C   UNL     1      -3.204  -4.476   6.759  1.00  0.00     0.000 C 
BRANCH  15  16
ATOM     16  C   UNL     1      -2.158  -3.505   7.334  1.00  0.00     0.000 C 
BRANCH  16  17
ATOM     17  C   UNL     1      -1.580  -2.546   6.278  1.00  0.00     0.000 C 
BRANCH  17  18
ATOM     18  C   UNL     1      -1.579  -1.082   6.745  1.00  0.00     0.000 C 
BRANCH  18  19
ATOM     19  C   UNL     1      -2.972  -0.436   6.675  1.00  0.00     0.000 C 
BRANCH  19  20
ATOM     20  C   UNL     1      -3.493  -0.414   5.230  1.00  0.00     0.006 C 
BRANCH  20  21
ATOM     21  C   UNL     1      -2.629   0.468   4.316  1.00  0.00     0.053 C 
BRANCH  21  22
ATOM     22  C   UNL     1      -2.056  -0.312   3.169  1.00  0.00     0.041 C 
ATOM     23  O   UNL     1      -1.115   0.168   2.483  1.00  0.00    -0.550 OA
ATOM     24  O   UNL     1      -2.530  -1.587   2.889  1.00  0.00    -0.550 OA
ENDBRANCH  21  22
ENDBRANCH  20  21
ENDBRANCH  19  20
ENDBRANCH  18  19
ENDBRANCH  17  18
ENDBRANCH  16  17
ENDBRANCH  15  16
ENDBRANCH  14  15
ENDBRANCH  13  14
ENDBRANCH   1  13
TORSDOF 20
ENDMDL
MODEL 6
REMARK VINA RESULT:    -3.727      2.060      5.181
REMARK INTER + INTRA:         -11.151
REMARK INTER:                  -8.134
REMARK INTRA:                  -3.017
REMARK UNBOUND:                -3.066
REMARK SMILES CCCCCCCCCCCCCCCCCCCCCC(=O)[O-]
REMARK SMILES IDX 12 1 11 2 10 3 9 4 8 5 7 6 6 7 5 8 4 9 3 10 2 11 1 12 13 13
REMARK SMILES IDX 14 14 15 15 16 16 17 17 18 18 19 19 20 20 21 21 22 22 23 23
REMARK SMILES IDX 24 24
REMARK H PARENT
REMARK Flexibility Score: inf
ROOT
ATOM      1  C   UNL     1      -7.833  -3.015  10.371  1.00  0.00     0.000 C 
ENDROOT
BRANCH   1   2
ATOM      2  C   UNL     1      -6.813  -4.163  10.527  1.00  0.00     0.000 C 
BRANCH   2   3
ATOM      3  C   UNL     1      -5.705  -4.104   9.463  1.00  0.00     0.000 C 
BRANCH   3   4
ATOM      4  C   UNL     1      -5.807  -2.818   8.634  1.00  0.00    -0.000 C 
BRANCH   4   5
ATOM      5  C   UNL     1      -4.904  -2.889   7.395  1.00  0.00    -0.000 C 
BRANCH   5   6
ATOM      6  C   UNL     1      -4.320  -4.296   7.221  1.00  0.00    -0.000 C 
BRANCH   6   7
ATOM      7  C   UNL     1      -2.892  -4.231   6.655  1.00  0.00    -0.000 C 
BRANCH   7   8
ATOM      8  C   UNL     1      -1.999  -3.243   7.424  1.00  0.00    -0.000 C 
BRANCH   8   9
ATOM      9  C   UNL     1      -1.042  -2.469   6.499  1.00  0.00    -0.000 C 
BRANCH   9  10
ATOM     10  C   UNL     1      -1.782  -1.619   5.450  1.00  0.00    -0.000 C 
BRANCH  10  11
ATOM     11  C   UNL     1      -1.538  -2.037   3.989  1.00  0.00    -0.003 C 
ATOM     12  C   UNL     1      -0.308  -1.370   3.372  1.00  0.00     0.004 C 
ENDBRANCH  10  11
ENDBRANCH   9  10
ENDBRANCH   8   9
ENDBRANCH   7   8
ENDBRANCH   6   7
ENDBRANCH   5   6
ENDBRANCH   4   5
ENDBRANCH   3   4
ENDBRANCH   2   3
ENDBRANCH   1   2
BRANCH   1  13
ATOM     13  C   UNL     1      -8.420  -2.524  11.705  1.00  0.00     0.000 C 
BRANCH  13  14
ATOM     14  C   UNL     1      -7.361  -1.896  12.626  1.00  0.00     0.000 C 
BRANCH  14  15
ATOM     15  C   UNL     1      -6.401  -0.950  11.882  1.00  0.00     0.000 C 
BRANCH  15  16
ATOM     16  C   UNL     1      -4.974  -0.882  12.455  1.00  0.00     0.000 C 
BRANCH  16  17
ATOM     17  C   UNL     1      -4.110  -2.095  12.068  1.00  0.00     0.000 C 
BRANCH  17  18
ATOM     18  C   UNL     1      -3.140  -1.787  10.916  1.00  0.00     0.000 C 
BRANCH  18  19
ATOM     19  C   UNL     1      -2.720  -0.310  10.873  1.00  0.00     0.000 C 
BRANCH  19  20
ATOM     20  C   UNL     1      -1.618  -0.086   9.826  1.00  0.00     0.006 C 
BRANCH  20  21
ATOM     21  C   UNL     1      -2.131   0.683   8.599  1.00  0.00     0.053 C 
BRANCH  21  22
ATOM     22  C   UNL     1      -1.516   2.048   8.499  1.00  0.00     0.041 C 
ATOM     23  O   UNL     1      -0.519   2.348   9.210  1.00  0.00    -0.550 OA
ATOM     24  O   UNL     1      -2.014   2.971   7.588  1.00  0.00    -0.550 OA
ENDBRANCH  21  22
ENDBRANCH  20  21
ENDBRANCH  19  20
ENDBRANCH  18  19
ENDBRANCH  17  18
ENDBRANCH  16  17
ENDBRANCH  15  16
ENDBRANCH  14  15
ENDBRANCH  13  14
ENDBRANCH   1  13
TORSDOF 20
ENDMDL
MODEL 7
REMARK VINA RESULT:    -3.713      2.175      4.223
REMARK INTER + INTRA:         -11.121
REMARK INTER:                  -7.752
REMARK INTRA:                  -3.369
REMARK UNBOUND:                -3.066
REMARK SMILES CCCCCCCCCCCCCCCCCCCCCC(=O)[O-]
REMARK SMILES IDX 12 1 11 2 10 3 9 4 8 5 7 6 6 7 5 8 4 9 3 10 2 11 1 12 13 13
REMARK SMILES IDX 14 14 15 15 16 16 17 17 18 18 19 19 20 20 21 21 22 22 23 23
REMARK SMILES IDX 24 24
REMARK H PARENT
REMARK Flexibility Score: inf
ROOT
ATOM      1  C   UNL     1      -3.479  -4.098   7.124  1.00  0.00     0.000 C 
ENDROOT
BRANCH   1   2
ATOM      2  C   UNL     1      -4.602  -3.076   6.844  1.00  0.00     0.000 C 
BRANCH   2   3
ATOM      3  C   UNL     1      -5.490  -2.838   8.076  1.00  0.00     0.000 C 
BRANCH   3   4
ATOM      4  C   UNL     1      -5.370  -3.997   9.073  1.00  0.00    -0.000 C 
BRANCH   4   5
ATOM      5  C   UNL     1      -6.284  -3.776  10.285  1.00  0.00    -0.000 C 
BRANCH   5   6
ATOM      6  C   UNL     1      -6.429  -2.282  10.600  1.00  0.00    -0.000 C 
BRANCH   6   7
ATOM      7  C   UNL     1      -5.674  -1.918  11.889  1.00  0.00    -0.000 C 
BRANCH   7   8
ATOM      8  C   UNL     1      -4.398  -1.104  11.614  1.00  0.00    -0.000 C 
BRANCH   8   9
ATOM      9  C   UNL     1      -3.173  -1.998  11.349  1.00  0.00    -0.000 C 
BRANCH   9  10
ATOM     10  C   UNL     1      -2.384  -1.573  10.097  1.00  0.00    -0.000 C 
BRANCH  10  11
ATOM     11  C   UNL     1      -2.988  -0.387   9.324  1.00  0.00    -0.003 C 
ATOM     12  C   UNL     1      -1.981   0.302   8.401  1.00  0.00     0.004 C 
ENDBRANCH  10  11
ENDBRANCH   9  10
ENDBRANCH   8   9
ENDBRANCH   7   8
ENDBRANCH   6   7
ENDBRANCH   5   6
ENDBRANCH   4   5
ENDBRANCH   3   4
ENDBRANCH   2   3
ENDBRANCH   1   2
BRANCH   1  13
ATOM     13  C   UNL     1      -2.065  -3.500   7.040  1.00  0.00     0.000 C 
BRANCH  13  14
ATOM     14  C   UNL     1      -1.948  -2.394   5.978  1.00  0.00     0.000 C 
BRANCH  14  15
ATOM     15  C   UNL     1      -0.491  -1.998   5.678  1.00  0.00     0.000 C 
BRANCH  15  16
ATOM     16  C   UNL     1      -0.115  -1.968   4.186  1.00  0.00     0.000 C 
BRANCH  16  17
ATOM     17  C   UNL     1      -1.340  -1.935   3.256  1.00  0.00     0.000 C 
BRANCH  17  18
ATOM     18  C   UNL     1      -1.206  -0.891   2.137  1.00  0.00     0.000 C 
BRANCH  18  19
ATOM     19  C   UNL     1      -1.803   0.472   2.522  1.00  0.00     0.000 C 
BRANCH  19  20
ATOM     20  C   UNL     1      -2.967   0.299   3.510  1.00  0.00     0.006 C 
BRANCH  20  21
ATOM     21  C   UNL     1      -2.752   1.097   4.805  1.00  0.00     0.053 C 
BRANCH  21  22
ATOM     22  C   UNL     1      -3.084   2.549   4.627  1.00  0.00     0.041 C 
ATOM     23  O   UNL     1      -4.038   2.894   3.878  1.00  0.00    -0.550 OA
ATOM     24  O   UNL     1      -2.372   3.517   5.324  1.00  0.00    -0.550 OA
ENDBRANCH  21  22
ENDBRANCH  20  21
ENDBRANCH  19  20
ENDBRANCH  18  19
ENDBRANCH  17  18
ENDBRANCH  16  17
ENDBRANCH  15  16
ENDBRANCH  14  15
ENDBRANCH  13  14
ENDBRANCH   1  13
TORSDOF 20
ENDMDL
MODEL 8
REMARK VINA RESULT:    -3.689      1.538      3.461
REMARK INTER + INTRA:         -11.068
REMARK INTER:                  -7.753
REMARK INTRA:                  -3.314
REMARK UNBOUND:                -3.066
REMARK SMILES CCCCCCCCCCCCCCCCCCCCCC(=O)[O-]
REMARK SMILES IDX 12 1 11 2 10 3 9 4 8 5 7 6 6 7 5 8 4 9 3 10 2 11 1 12 13 13
REMARK SMILES IDX 14 14 15 15 16 16 17 17 18 18 19 19 20 20 21 21 22 22 23 23
REMARK SMILES IDX 24 24
REMARK H PARENT
REMARK Flexibility Score: inf
ROOT
ATOM      1  C   UNL     1      -4.421  -0.736  11.920  1.00  0.00     0.000 C 
ENDROOT
BRANCH   1   2
ATOM      2  C   UNL     1      -5.606  -1.316  12.723  1.00  0.00     0.000 C 
BRANCH   2   3
ATOM      3  C   UNL     1      -6.954  -1.075  12.023  1.00  0.00     0.000 C 
BRANCH   3   4
ATOM      4  C   UNL     1      -7.992  -2.117  12.455  1.00  0.00    -0.000 C 
BRANCH   4   5
ATOM      5  C   UNL     1      -7.615  -3.514  11.945  1.00  0.00    -0.000 C 
BRANCH   5   6
ATOM      6  C   UNL     1      -7.410  -3.507  10.425  1.00  0.00    -0.000 C 
BRANCH   6   7
ATOM      7  C   UNL     1      -6.062  -4.145  10.050  1.00  0.00    -0.000 C 
BRANCH   7   8
ATOM      8  C   UNL     1      -5.464  -3.546   8.767  1.00  0.00    -0.000 C 
BRANCH   8   9
ATOM      9  C   UNL     1      -6.480  -2.695   7.983  1.00  0.00    -0.000 C 
BRANCH   9  10
ATOM     10  C   UNL     1      -5.942  -1.296   7.630  1.00  0.00    -0.000 C 
BRANCH  10  11
ATOM     11  C   UNL     1      -6.323  -0.186   8.627  1.00  0.00    -0.003 C 
ATOM     12  C   UNL     1      -5.314   0.962   8.659  1.00  0.00     0.004 C 
ENDBRANCH  10  11
ENDBRANCH   9  10
ENDBRANCH   8   9
ENDBRANCH   7   8
ENDBRANCH   6   7
ENDBRANCH   5   6
ENDBRANCH   4   5
ENDBRANCH   3   4
ENDBRANCH   2   3
ENDBRANCH   1   2
BRANCH   1  13
ATOM     13  C   UNL     1      -3.460  -1.807  11.378  1.00  0.00     0.000 C 
BRANCH  13  14
ATOM     14  C   UNL     1      -2.360  -1.219  10.478  1.00  0.00     0.000 C 
BRANCH  14  15
ATOM     15  C   UNL     1      -2.623  -1.450   8.978  1.00  0.00     0.000 C 
BRANCH  15  16
ATOM     16  C   UNL     1      -1.899  -0.478   8.030  1.00  0.00     0.000 C 
BRANCH  16  17
ATOM     17  C   UNL     1      -2.397  -0.570   6.577  1.00  0.00     0.000 C 
BRANCH  17  18
ATOM     18  C   UNL     1      -1.928  -1.851   5.869  1.00  0.00     0.000 C 
BRANCH  18  19
ATOM     19  C   UNL     1      -0.401  -1.911   5.704  1.00  0.00     0.000 C 
BRANCH  19  20
ATOM     20  C   UNL     1      -0.004  -1.733   4.230  1.00  0.00     0.006 C 
BRANCH  20  21
ATOM     21  C   UNL     1      -1.228  -1.650   3.305  1.00  0.00     0.053 C 
BRANCH  21  22
ATOM     22  C   UNL     1      -1.240  -0.378   2.510  1.00  0.00     0.041 C 
ATOM     23  O   UNL     1      -1.564   0.710   3.057  1.00  0.00    -0.550 OA
ATOM     24  O   UNL     1      -0.847  -0.387   1.177  1.00  0.00    -0.550 OA
ENDBRANCH  21  22
ENDBRANCH  20  21
ENDBRANCH  19  20
ENDBRANCH  18  19
ENDBRANCH  17  18
ENDBRANCH  16  17
ENDBRANCH  15  16
ENDBRANCH  14  15
ENDBRANCH  13  14
ENDBRANCH   1  13
TORSDOF 20
ENDMDL
MODEL 9
REMARK VINA RESULT:    -3.639      1.695      4.173
REMARK INTER + INTRA:         -10.961
REMARK INTER:                  -6.661
REMARK INTRA:                  -4.299
REMARK UNBOUND:                -3.066
REMARK SMILES CCCCCCCCCCCCCCCCCCCCCC(=O)[O-]
REMARK SMILES IDX 12 1 11 2 10 3 9 4 8 5 7 6 6 7 5 8 4 9 3 10 2 11 1 12 13 13
REMARK SMILES IDX 14 14 15 15 16 16 17 17 18 18 19 19 20 20 21 21 22 22 23 23
REMARK SMILES IDX 24 24
REMARK H PARENT
REMARK Flexibility Score: inf
ROOT
ATOM      1  C   UNL     1      -5.444  -0.524   8.289  1.00  0.00     0.000 C 
ENDROOT
BRANCH   1   2
ATOM      2  C   UNL     1      -4.371   0.585   8.260  1.00  0.00     0.000 C 
BRANCH   2   3
ATOM      3  C   UNL     1      -2.945   0.014   8.314  1.00  0.00     0.000 C 
BRANCH   3   4
ATOM      4  C   UNL     1      -2.140   0.651   9.453  1.00  0.00    -0.000 C 
BRANCH   4   5
ATOM      5  C   UNL     1      -2.306  -0.143  10.755  1.00  0.00    -0.000 C 
BRANCH   5   6
ATOM      6  C   UNL     1      -2.427  -1.645  10.472  1.00  0.00    -0.000 C 
BRANCH   6   7
ATOM      7  C   UNL     1      -3.536  -2.278  11.328  1.00  0.00    -0.000 C 
BRANCH   7   8
ATOM      8  C   UNL     1      -4.618  -1.262  11.732  1.00  0.00    -0.000 C 
BRANCH   8   9
ATOM      9  C   UNL     1      -6.028  -1.880  11.757  1.00  0.00    -0.000 C 
BRANCH   9  10
ATOM     10  C   UNL     1      -6.056  -3.324  11.221  1.00  0.00    -0.000 C 
BRANCH  10  11
ATOM     11  C   UNL     1      -7.271  -3.663  10.339  1.00  0.00    -0.003 C 
ATOM     12  C   UNL     1      -8.167  -2.455  10.064  1.00  0.00     0.004 C 
ENDBRANCH  10  11
ENDBRANCH   9  10
ENDBRANCH   8   9
ENDBRANCH   7   8
ENDBRANCH   6   7
ENDBRANCH   5   6
ENDBRANCH   4   5
ENDBRANCH   3   4
ENDBRANCH   2   3
ENDBRANCH   1   2
BRANCH   1  13
ATOM     13  C   UNL     1      -5.540  -1.326   6.980  1.00  0.00     0.000 C 
BRANCH  13  14
ATOM     14  C   UNL     1      -5.632  -2.843   7.216  1.00  0.00     0.000 C 
BRANCH  14  15
ATOM     15  C   UNL     1      -4.354  -3.433   7.842  1.00  0.00     0.000 C 
BRANCH  15  16
ATOM     16  C   UNL     1      -3.295  -3.914   6.835  1.00  0.00     0.000 C 
BRANCH  16  17
ATOM     17  C   UNL     1      -1.866  -3.484   7.212  1.00  0.00     0.000 C 
BRANCH  17  18
ATOM     18  C   UNL     1      -1.305  -2.405   6.272  1.00  0.00     0.000 C 
BRANCH  18  19
ATOM     19  C   UNL     1      -2.227  -2.122   5.076  1.00  0.00     0.000 C 
BRANCH  19  20
ATOM     20  C   UNL     1      -2.021  -0.692   4.553  1.00  0.00     0.006 C 
BRANCH  20  21
ATOM     21  C   UNL     1      -3.348   0.068   4.405  1.00  0.00     0.053 C 
BRANCH  21  22
ATOM     22  C   UNL     1      -3.652   0.381   2.970  1.00  0.00     0.041 C 
ATOM     23  O   UNL     1      -4.490   1.277   2.680  1.00  0.00    -0.550 OA
ATOM     24  O   UNL     1      -2.977  -0.284   1.953  1.00  0.00    -0.550 OA
ENDBRANCH  21  22
ENDBRANCH  20  21
ENDBRANCH  19  20
ENDBRANCH  18  19
ENDBRANCH  17  18
ENDBRANCH  16  17
ENDBRANCH  15  16
ENDBRANCH  14  15
ENDBRANCH  13  14
ENDBRANCH   1  13
TORSDOF 20
ENDMDL
