MODEL 1
REMARK VINA RESULT:    -7.221      0.000      0.000
REMARK INTER + INTRA:         -10.850
REMARK INTER:                 -10.175
REMARK INTRA:                  -0.675
REMARK UNBOUND:                -0.675
REMARK SMILES OC[C@H]1O[C@H](O[C@@H]2OC=C[C@@H]3[C@@H](O)[C@H]4O[C@@]4(CO)[C@H]23)[C@@H](O)[C@@H](O)[C@H]1O
REMARK SMILES IDX 6 1 7 2 10 3 9 4 11 5 8 6 19 7 12 8 16 9 14 10 15 11 13 12
REMARK SMILES IDX 17 14 18 15 5 17 20 18 4 19 22 20 3 21 24 22 21 23 23 25
REMARK SMILES IDX 2 27 1 28 25 30
REMARK H PARENT 13 13 18 16 21 24 23 26 1 29 25 31
REMARK Flexibility Score: inf
ROOT
ATOM      1  O   UNL     1      -5.683  -5.582   6.151  1.00  0.00    -0.310 OA
ENDROOT
BRANCH   1   2
ATOM      2  C   UNL     1      -5.609  -5.631   4.736  1.00  0.00     0.315 C 
ATOM      3  C   UNL     1      -7.954  -7.209   4.360  1.00  0.00     0.018 C 
ATOM      4  C   UNL     1      -7.994  -5.890   4.172  1.00  0.00     0.186 C 
ATOM      5  C   UNL     1      -6.645  -7.956   4.447  1.00  0.00     0.059 C 
ATOM      6  O   UNL     1      -6.819  -5.135   4.160  1.00  0.00    -0.472 OA
ATOM      7  C   UNL     1      -5.379  -7.087   4.269  1.00  0.00     0.105 C 
ATOM      8  C   UNL     1      -6.462  -8.681   5.791  1.00  0.00     0.154 C 
ATOM      9  C   UNL     1      -4.305  -7.798   5.104  1.00  0.00     0.130 C 
ATOM     10  C   UNL     1      -4.958  -8.732   6.034  1.00  0.00     0.183 C 
ATOM     11  O   UNL     1      -4.236  -9.193   4.907  1.00  0.00    -0.360 OA
BRANCH   8  12
ATOM     12  O   UNL     1      -6.981  -9.984   5.741  1.00  0.00    -0.390 OA
ATOM     13  H   UNL     1      -6.565 -10.481   6.493  1.00  0.00     0.211 HD
ENDBRANCH   8  12
BRANCH   9  14
ATOM     14  C   UNL     1      -2.970  -7.168   5.509  1.00  0.00     0.195 C 
BRANCH  14  15
ATOM     15  O   UNL     1      -1.914  -7.985   5.077  1.00  0.00    -0.393 OA
ATOM     16  H   UNL     1      -1.346  -8.172   5.868  1.00  0.00     0.210 HD
ENDBRANCH  14  15
ENDBRANCH   9  14
ENDBRANCH   1   2
BRANCH   1  17
ATOM     17  C   UNL     1      -4.928  -4.500   6.678  1.00  0.00     0.286 C 
ATOM     18  C   UNL     1      -4.612  -4.760   8.166  1.00  0.00     0.202 C 
ATOM     19  O   UNL     1      -5.618  -3.267   6.511  1.00  0.00    -0.341 OA
ATOM     20  C   UNL     1      -5.909  -4.694   8.998  1.00  0.00     0.179 C 
ATOM     21  C   UNL     1      -6.879  -3.273   7.169  1.00  0.00     0.178 C 
ATOM     22  C   UNL     1      -6.697  -3.403   8.700  1.00  0.00     0.177 C 
BRANCH  18  23
ATOM     23  O   UNL     1      -3.690  -3.805   8.629  1.00  0.00    -0.385 OA
ATOM     24  H   UNL     1      -2.916  -4.307   8.994  1.00  0.00     0.211 HD
ENDBRANCH  18  23
BRANCH  20  25
ATOM     25  O   UNL     1      -5.656  -4.846  10.373  1.00  0.00    -0.387 OA
ATOM     26  H   UNL     1      -5.808  -5.797  10.615  1.00  0.00     0.211 HD
ENDBRANCH  20  25
BRANCH  21  27
ATOM     27  C   UNL     1      -7.635  -1.994   6.786  1.00  0.00     0.191 C 
BRANCH  27  28
ATOM     28  O   UNL     1      -7.103  -1.435   5.613  1.00  0.00    -0.394 OA
ATOM     29  H   UNL     1      -7.072  -2.160   4.936  1.00  0.00     0.210 HD
ENDBRANCH  27  28
ENDBRANCH  21  27
BRANCH  22  30
ATOM     30  O   UNL     1      -6.004  -2.286   9.202  1.00  0.00    -0.387 OA
ATOM     31  H   UNL     1      -5.927  -1.629   8.461  1.00  0.00     0.211 HD
ENDBRANCH  22  30
ENDBRANCH   1  17
TORSDOF 10
ENDMDL
MODEL 2
REMARK VINA RESULT:    -6.959      1.510      2.127
REMARK INTER + INTRA:         -10.481
REMARK INTER:                  -9.396
REMARK INTRA:                  -1.086
REMARK UNBOUND:                -0.675
REMARK SMILES OC[C@H]1O[C@H](O[C@@H]2OC=C[C@@H]3[C@@H](O)[C@H]4O[C@@]4(CO)[C@H]23)[C@@H](O)[C@@H](O)[C@H]1O
REMARK SMILES IDX 6 1 7 2 10 3 9 4 11 5 8 6 19 7 12 8 16 9 14 10 15 11 13 12
REMARK SMILES IDX 17 14 18 15 5 17 20 18 4 19 22 20 3 21 24 22 21 23 23 25
REMARK SMILES IDX 2 27 1 28 25 30
REMARK H PARENT 13 13 18 16 21 24 23 26 1 29 25 31
REMARK Flexibility Score: inf
ROOT
ATOM      1  O   UNL     1      -6.629  -5.655   5.742  1.00  0.00    -0.310 OA
ENDROOT
BRANCH   1   2
ATOM      2  C   UNL     1      -6.950  -5.721   4.362  1.00  0.00     0.315 C 
ATOM      3  C   UNL     1      -9.779  -5.753   4.705  1.00  0.00     0.018 C 
ATOM      4  C   UNL     1      -9.157  -4.626   4.363  1.00  0.00     0.186 C 
ATOM      5  C   UNL     1      -9.098  -7.096   4.604  1.00  0.00     0.059 C 
ATOM      6  O   UNL     1      -7.807  -4.638   4.001  1.00  0.00    -0.472 OA
ATOM      7  C   UNL     1      -7.656  -7.060   4.049  1.00  0.00     0.105 C 
ATOM      8  C   UNL     1      -8.999  -7.817   5.960  1.00  0.00     0.154 C 
ATOM      9  C   UNL     1      -6.957  -8.252   4.717  1.00  0.00     0.130 C 
ATOM     10  C   UNL     1      -7.750  -8.686   5.878  1.00  0.00     0.183 C 
ATOM     11  O   UNL     1      -7.693  -9.455   4.691  1.00  0.00    -0.360 OA
BRANCH   8  12
ATOM     12  O   UNL     1     -10.125  -8.623   6.190  1.00  0.00    -0.390 OA
ATOM     13  H   UNL     1      -9.817  -9.563   6.118  1.00  0.00     0.211 HD
ENDBRANCH   8  12
BRANCH   9  14
ATOM     14  C   UNL     1      -5.440  -8.461   4.742  1.00  0.00     0.195 C 
BRANCH  14  15
ATOM     15  O   UNL     1      -4.958  -8.564   3.428  1.00  0.00    -0.393 OA
ATOM     16  H   UNL     1      -4.915  -7.644   3.060  1.00  0.00     0.210 HD
ENDBRANCH  14  15
ENDBRANCH   9  14
ENDBRANCH   1   2
BRANCH   1  17
ATOM     17  C   UNL     1      -5.393  -4.988   5.962  1.00  0.00     0.286 C 
ATOM     18  C   UNL     1      -4.707  -5.563   7.219  1.00  0.00     0.202 C 
ATOM     19  O   UNL     1      -5.585  -3.583   6.083  1.00  0.00    -0.341 OA
ATOM     20  C   UNL     1      -5.514  -5.186   8.478  1.00  0.00     0.179 C 
ATOM     21  C   UNL     1      -6.448  -3.259   7.166  1.00  0.00     0.178 C 
ATOM     22  C   UNL     1      -5.814  -3.674   8.515  1.00  0.00     0.177 C 
BRANCH  18  23
ATOM     23  O   UNL     1      -3.397  -5.062   7.314  1.00  0.00    -0.385 OA
ATOM     24  H   UNL     1      -3.472  -4.074   7.386  1.00  0.00     0.211 HD
ENDBRANCH  18  23
BRANCH  20  25
ATOM     25  O   UNL     1      -4.880  -5.622   9.655  1.00  0.00    -0.387 OA
ATOM     26  H   UNL     1      -3.931  -5.820   9.443  1.00  0.00     0.211 HD
ENDBRANCH  20  25
BRANCH  21  27
ATOM     27  C   UNL     1      -6.754  -1.756   7.112  1.00  0.00     0.191 C 
BRANCH  27  28
ATOM     28  O   UNL     1      -6.756  -1.205   8.403  1.00  0.00    -0.394 OA
ATOM     29  H   UNL     1      -7.699  -1.196   8.713  1.00  0.00     0.210 HD
ENDBRANCH  27  28
ENDBRANCH  21  27
BRANCH  22  30
ATOM     30  O   UNL     1      -4.627  -2.951   8.735  1.00  0.00    -0.387 OA
ATOM     31  H   UNL     1      -3.872  -3.590   8.651  1.00  0.00     0.211 HD
ENDBRANCH  22  30
ENDBRANCH   1  17
TORSDOF 10
ENDMDL
MODEL 3
REMARK VINA RESULT:    -6.955      1.788      6.413
REMARK INTER + INTRA:         -10.477
REMARK INTER:                  -9.694
REMARK INTRA:                  -0.783
REMARK UNBOUND:                -0.675
REMARK SMILES OC[C@H]1O[C@H](O[C@@H]2OC=C[C@@H]3[C@@H](O)[C@H]4O[C@@]4(CO)[C@H]23)[C@@H](O)[C@@H](O)[C@H]1O
REMARK SMILES IDX 6 1 7 2 10 3 9 4 11 5 8 6 19 7 12 8 16 9 14 10 15 11 13 12
REMARK SMILES IDX 17 14 18 15 5 17 20 18 4 19 22 20 3 21 24 22 21 23 23 25
REMARK SMILES IDX 2 27 1 28 25 30
REMARK H PARENT 13 13 18 16 21 24 23 26 1 29 25 31
REMARK Flexibility Score: inf
ROOT
ATOM      1  O   UNL     1      -6.588  -3.913   6.864  1.00  0.00    -0.310 OA
ENDROOT
BRANCH   1   2
ATOM      2  C   UNL     1      -5.849  -2.759   7.227  1.00  0.00     0.315 C 
ATOM      3  C   UNL     1      -6.663  -2.718   9.959  1.00  0.00     0.018 C 
ATOM      4  C   UNL     1      -5.469  -3.205   9.620  1.00  0.00     0.186 C 
ATOM      5  C   UNL     1      -7.478  -1.886   9.000  1.00  0.00     0.059 C 
ATOM      6  O   UNL     1      -4.979  -3.052   8.321  1.00  0.00    -0.472 OA
ATOM      7  C   UNL     1      -6.813  -1.620   7.630  1.00  0.00     0.105 C 
ATOM      8  C   UNL     1      -8.845  -2.516   8.679  1.00  0.00     0.154 C 
ATOM      9  C   UNL     1      -7.988  -1.484   6.652  1.00  0.00     0.130 C 
ATOM     10  C   UNL     1      -9.198  -2.046   7.272  1.00  0.00     0.183 C 
ATOM     11  O   UNL     1      -9.034  -0.651   7.102  1.00  0.00    -0.360 OA
BRANCH   8  12
ATOM     12  O   UNL     1      -9.828  -2.087   9.584  1.00  0.00    -0.390 OA
ATOM     13  H   UNL     1     -10.701  -2.197   9.124  1.00  0.00     0.211 HD
ENDBRANCH   8  12
BRANCH   9  14
ATOM     14  C   UNL     1      -7.852  -1.531   5.128  1.00  0.00     0.195 C 
BRANCH  14  15
ATOM     15  O   UNL     1      -7.336  -0.311   4.664  1.00  0.00    -0.393 OA
ATOM     16  H   UNL     1      -6.970  -0.475   3.757  1.00  0.00     0.210 HD
ENDBRANCH  14  15
ENDBRANCH   9  14
ENDBRANCH   1   2
BRANCH   1  17
ATOM     17  C   UNL     1      -6.217  -4.390   5.578  1.00  0.00     0.286 C 
ATOM     18  C   UNL     1      -7.304  -5.347   5.044  1.00  0.00     0.202 C 
ATOM     19  O   UNL     1      -4.948  -5.032   5.618  1.00  0.00    -0.341 OA
ATOM     20  C   UNL     1      -7.323  -6.642   5.883  1.00  0.00     0.179 C 
ATOM     21  C   UNL     1      -4.943  -6.141   6.507  1.00  0.00     0.178 C 
ATOM     22  C   UNL     1      -5.910  -7.243   6.012  1.00  0.00     0.177 C 
BRANCH  18  23
ATOM     23  O   UNL     1      -7.048  -5.649   3.695  1.00  0.00    -0.385 OA
ATOM     24  H   UNL     1      -7.897  -5.502   3.202  1.00  0.00     0.211 HD
ENDBRANCH  18  23
BRANCH  20  25
ATOM     25  O   UNL     1      -8.246  -7.577   5.380  1.00  0.00    -0.387 OA
ATOM     26  H   UNL     1      -8.590  -7.240   4.513  1.00  0.00     0.211 HD
ENDBRANCH  20  25
BRANCH  21  27
ATOM     27  C   UNL     1      -3.503  -6.656   6.637  1.00  0.00     0.191 C 
BRANCH  27  28
ATOM     28  O   UNL     1      -2.736  -6.268   5.528  1.00  0.00    -0.394 OA
ATOM     29  H   UNL     1      -1.846  -5.995   5.873  1.00  0.00     0.210 HD
ENDBRANCH  27  28
ENDBRANCH  21  27
BRANCH  22  30
ATOM     30  O   UNL     1      -5.481  -7.742   4.769  1.00  0.00    -0.387 OA
ATOM     31  H   UNL     1      -5.599  -8.728   4.789  1.00  0.00     0.211 HD
ENDBRANCH  22  30
ENDBRANCH   1  17
TORSDOF 10
ENDMDL
MODEL 4
REMARK VINA RESULT:    -6.944      1.540      2.046
REMARK INTER + INTRA:         -10.460
REMARK INTER:                  -9.404
REMARK INTRA:                  -1.056
REMARK UNBOUND:                -0.675
REMARK SMILES OC[C@H]1O[C@H](O[C@@H]2OC=C[C@@H]3[C@@H](O)[C@H]4O[C@@]4(CO)[C@H]23)[C@@H](O)[C@@H](O)[C@H]1O
REMARK SMILES IDX 6 1 7 2 10 3 9 4 11 5 8 6 19 7 12 8 16 9 14 10 15 11 13 12
REMARK SMILES IDX 17 14 18 15 5 17 20 18 4 19 22 20 3 21 24 22 21 23 23 25
REMARK SMILES IDX 2 27 1 28 25 30
REMARK H PARENT 13 13 18 16 21 24 23 26 1 29 25 31
REMARK Flexibility Score: inf
ROOT
ATOM      1  O   UNL     1      -6.822  -4.763   6.167  1.00  0.00    -0.310 OA
ENDROOT
BRANCH   1   2
ATOM      2  C   UNL     1      -6.517  -4.838   4.784  1.00  0.00     0.315 C 
ATOM      3  C   UNL     1      -8.522  -6.755   4.129  1.00  0.00     0.018 C 
ATOM      4  C   UNL     1      -8.720  -5.462   3.873  1.00  0.00     0.186 C 
ATOM      5  C   UNL     1      -7.152  -7.298   4.454  1.00  0.00     0.059 C 
ATOM      6  O   UNL     1      -7.676  -4.542   4.005  1.00  0.00    -0.472 OA
ATOM      7  C   UNL     1      -6.010  -6.256   4.431  1.00  0.00     0.105 C 
ATOM      8  C   UNL     1      -7.085  -7.952   5.845  1.00  0.00     0.154 C 
ATOM      9  C   UNL     1      -4.993  -6.777   5.455  1.00  0.00     0.130 C 
ATOM     10  C   UNL     1      -5.647  -7.773   6.319  1.00  0.00     0.183 C 
ATOM     11  O   UNL     1      -4.696  -8.152   5.341  1.00  0.00    -0.360 OA
BRANCH   8  12
ATOM     12  O   UNL     1      -7.398  -9.318   5.780  1.00  0.00    -0.390 OA
ATOM     13  H   UNL     1      -8.350  -9.401   6.048  1.00  0.00     0.211 HD
ENDBRANCH   8  12
BRANCH   9  14
ATOM     14  C   UNL     1      -3.843  -5.946   6.030  1.00  0.00     0.195 C 
BRANCH  14  15
ATOM     15  O   UNL     1      -2.634  -6.346   5.441  1.00  0.00    -0.393 OA
ATOM     16  H   UNL     1      -2.063  -5.538   5.369  1.00  0.00     0.210 HD
ENDBRANCH  14  15
ENDBRANCH   9  14
ENDBRANCH   1   2
BRANCH   1  17
ATOM     17  C   UNL     1      -6.865  -3.418   6.622  1.00  0.00     0.286 C 
ATOM     18  C   UNL     1      -5.574  -3.090   7.403  1.00  0.00     0.202 C 
ATOM     19  O   UNL     1      -8.018  -3.185   7.422  1.00  0.00    -0.341 OA
ATOM     20  C   UNL     1      -5.545  -3.885   8.725  1.00  0.00     0.179 C 
ATOM     21  C   UNL     1      -8.046  -4.028   8.566  1.00  0.00     0.178 C 
ATOM     22  C   UNL     1      -6.860  -3.712   9.508  1.00  0.00     0.177 C 
BRANCH  18  23
ATOM     23  O   UNL     1      -5.517  -1.711   7.666  1.00  0.00    -0.385 OA
ATOM     24  H   UNL     1      -5.664  -1.598   8.641  1.00  0.00     0.211 HD
ENDBRANCH  18  23
BRANCH  20  25
ATOM     25  O   UNL     1      -4.423  -3.556   9.507  1.00  0.00    -0.387 OA
ATOM     26  H   UNL     1      -4.096  -4.383   9.948  1.00  0.00     0.211 HD
ENDBRANCH  20  25
BRANCH  21  27
ATOM     27  C   UNL     1      -9.400  -3.854   9.268  1.00  0.00     0.191 C 
BRANCH  27  28
ATOM     28  O   UNL     1      -9.265  -4.016  10.655  1.00  0.00    -0.394 OA
ATOM     29  H   UNL     1      -8.384  -3.634  10.906  1.00  0.00     0.210 HD
ENDBRANCH  27  28
ENDBRANCH  21  27
BRANCH  22  30
ATOM     30  O   UNL     1      -6.965  -2.396   9.994  1.00  0.00    -0.387 OA
ATOM     31  H   UNL     1      -6.135  -1.917   9.732  1.00  0.00     0.211 HD
ENDBRANCH  22  30
ENDBRANCH   1  17
TORSDOF 10
ENDMDL
MODEL 5
REMARK VINA RESULT:    -6.886      2.144      4.541
REMARK INTER + INTRA:         -10.379
REMARK INTER:                  -9.358
REMARK INTRA:                  -1.021
REMARK UNBOUND:                -0.675
REMARK SMILES OC[C@H]1O[C@H](O[C@@H]2OC=C[C@@H]3[C@@H](O)[C@H]4O[C@@]4(CO)[C@H]23)[C@@H](O)[C@@H](O)[C@H]1O
REMARK SMILES IDX 6 1 7 2 10 3 9 4 11 5 8 6 19 7 12 8 16 9 14 10 15 11 13 12
REMARK SMILES IDX 17 14 18 15 5 17 20 18 4 19 22 20 3 21 24 22 21 23 23 25
REMARK SMILES IDX 2 27 1 28 25 30
REMARK H PARENT 13 13 18 16 21 24 23 26 1 29 25 31
REMARK Flexibility Score: inf
ROOT
ATOM      1  O   UNL     1      -7.543  -4.146   6.374  1.00  0.00    -0.310 OA
ENDROOT
BRANCH   1   2
ATOM      2  C   UNL     1      -7.814  -5.356   7.062  1.00  0.00     0.315 C 
ATOM      3  C   UNL     1      -5.213  -5.657   8.190  1.00  0.00     0.018 C 
ATOM      4  C   UNL     1      -6.213  -5.177   8.928  1.00  0.00     0.186 C 
ATOM      5  C   UNL     1      -5.463  -6.357   6.876  1.00  0.00     0.059 C 
ATOM      6  O   UNL     1      -7.527  -5.208   8.454  1.00  0.00    -0.472 OA
ATOM      7  C   UNL     1      -6.951  -6.499   6.480  1.00  0.00     0.105 C 
ATOM      8  C   UNL     1      -4.786  -5.652   5.687  1.00  0.00     0.154 C 
ATOM      9  C   UNL     1      -6.942  -6.492   4.946  1.00  0.00     0.130 C 
ATOM     10  C   UNL     1      -5.655  -5.959   4.473  1.00  0.00     0.183 C 
ATOM     11  O   UNL     1      -5.973  -7.333   4.359  1.00  0.00    -0.360 OA
BRANCH   8  12
ATOM     12  O   UNL     1      -3.487  -6.141   5.479  1.00  0.00    -0.390 OA
ATOM     13  H   UNL     1      -2.987  -5.420   5.016  1.00  0.00     0.211 HD
ENDBRANCH   8  12
BRANCH   9  14
ATOM     14  C   UNL     1      -8.186  -6.289   4.076  1.00  0.00     0.195 C 
BRANCH  14  15
ATOM     15  O   UNL     1      -8.833  -7.520   3.888  1.00  0.00    -0.393 OA
ATOM     16  H   UNL     1      -9.730  -7.446   4.306  1.00  0.00     0.210 HD
ENDBRANCH  14  15
ENDBRANCH   9  14
ENDBRANCH   1   2
BRANCH   1  17
ATOM     17  C   UNL     1      -8.732  -3.410   6.120  1.00  0.00     0.286 C 
ATOM     18  C   UNL     1      -8.513  -2.466   4.919  1.00  0.00     0.202 C 
ATOM     19  O   UNL     1      -9.140  -2.683   7.273  1.00  0.00    -0.341 OA
ATOM     20  C   UNL     1      -7.513  -1.354   5.300  1.00  0.00     0.179 C 
ATOM     21  C   UNL     1      -8.144  -1.761   7.696  1.00  0.00     0.178 C 
ATOM     22  C   UNL     1      -7.916  -0.671   6.621  1.00  0.00     0.177 C 
BRANCH  18  23
ATOM     23  O   UNL     1      -9.740  -1.900   4.531  1.00  0.00    -0.385 OA
ATOM     24  H   UNL     1     -10.214  -2.585   3.990  1.00  0.00     0.211 HD
ENDBRANCH  18  23
BRANCH  20  25
ATOM     25  O   UNL     1      -7.345  -0.423   4.259  1.00  0.00    -0.387 OA
ATOM     26  H   UNL     1      -7.142   0.461   4.662  1.00  0.00     0.211 HD
ENDBRANCH  20  25
BRANCH  21  27
ATOM     27  C   UNL     1      -8.576  -1.160   9.041  1.00  0.00     0.191 C 
BRANCH  27  28
ATOM     28  O   UNL     1      -8.076   0.143   9.185  1.00  0.00    -0.394 OA
ATOM     29  H   UNL     1      -8.857   0.738   9.332  1.00  0.00     0.210 HD
ENDBRANCH  27  28
ENDBRANCH  21  27
BRANCH  22  30
ATOM     30  O   UNL     1      -9.090   0.082   6.438  1.00  0.00    -0.387 OA
ATOM     31  H   UNL     1      -9.109   0.374   5.489  1.00  0.00     0.211 HD
ENDBRANCH  22  30
ENDBRANCH   1  17
TORSDOF 10
ENDMDL
MODEL 6
REMARK VINA RESULT:    -6.757      2.539      5.288
REMARK INTER + INTRA:         -10.196
REMARK INTER:                  -9.218
REMARK INTRA:                  -0.979
REMARK UNBOUND:                -0.675
REMARK SMILES OC[C@H]1O[C@H](O[C@@H]2OC=C[C@@H]3[C@@H](O)[C@H]4O[C@@]4(CO)[C@H]23)[C@@H](O)[C@@H](O)[C@H]1O
REMARK SMILES IDX 6 1 7 2 10 3 9 4 11 5 8 6 19 7 12 8 16 9 14 10 15 11 13 12
REMARK SMILES IDX 17 14 18 15 5 17 20 18 4 19 22 20 3 21 24 22 21 23 23 25
REMARK SMILES IDX 2 27 1 28 25 30
REMARK H PARENT 13 13 18 16 21 24 23 26 1 29 25 31
REMARK Flexibility Score: inf
ROOT
ATOM      1  O   UNL     1      -8.089  -3.102   7.029  1.00  0.00    -0.310 OA
ENDROOT
BRANCH   1   2
ATOM      2  C   UNL     1      -8.419  -4.342   7.631  1.00  0.00     0.315 C 
ATOM      3  C   UNL     1      -6.586  -4.129   9.803  1.00  0.00     0.018 C 
ATOM      4  C   UNL     1      -7.877  -3.855   9.985  1.00  0.00     0.186 C 
ATOM      5  C   UNL     1      -6.097  -4.862   8.578  1.00  0.00     0.059 C 
ATOM      6  O   UNL     1      -8.814  -4.143   8.990  1.00  0.00    -0.472 OA
ATOM      7  C   UNL     1      -7.201  -5.293   7.586  1.00  0.00     0.105 C 
ATOM      8  C   UNL     1      -5.097  -4.036   7.749  1.00  0.00     0.154 C 
ATOM      9  C   UNL     1      -6.511  -5.282   6.215  1.00  0.00     0.130 C 
ATOM     10  C   UNL     1      -5.265  -4.506   6.309  1.00  0.00     0.183 C 
ATOM     11  O   UNL     1      -5.251  -5.915   6.186  1.00  0.00    -0.360 OA
BRANCH   8  12
ATOM     12  O   UNL     1      -3.778  -4.260   8.172  1.00  0.00    -0.390 OA
ATOM     13  H   UNL     1      -3.810  -4.336   9.161  1.00  0.00     0.211 HD
ENDBRANCH   8  12
BRANCH   9  14
ATOM     14  C   UNL     1      -7.251  -5.327   4.875  1.00  0.00     0.195 C 
BRANCH  14  15
ATOM     15  O   UNL     1      -6.825  -6.443   4.140  1.00  0.00    -0.393 OA
ATOM     16  H   UNL     1      -7.637  -6.887   3.785  1.00  0.00     0.210 HD
ENDBRANCH  14  15
ENDBRANCH   9  14
ENDBRANCH   1   2
BRANCH   1  17
ATOM     17  C   UNL     1      -9.191  -2.554   6.319  1.00  0.00     0.286 C 
ATOM     18  C   UNL     1      -8.699  -1.922   5.000  1.00  0.00     0.202 C 
ATOM     19  O   UNL     1      -9.887  -1.600   7.113  1.00  0.00    -0.341 OA
ATOM     20  C   UNL     1      -7.846  -0.672   5.302  1.00  0.00     0.179 C 
ATOM     21  C   UNL     1      -9.045  -0.522   7.503  1.00  0.00     0.178 C 
ATOM     22  C   UNL     1      -8.578   0.282   6.266  1.00  0.00     0.177 C 
BRANCH  18  23
ATOM     23  O   UNL     1      -9.802  -1.574   4.201  1.00  0.00    -0.385 OA
ATOM     24  H   UNL     1      -9.449  -1.377   3.294  1.00  0.00     0.211 HD
ENDBRANCH  18  23
BRANCH  20  25
ATOM     25  O   UNL     1      -7.444  -0.018   4.124  1.00  0.00    -0.387 OA
ATOM     26  H   UNL     1      -8.224   0.034   3.512  1.00  0.00     0.211 HD
ENDBRANCH  20  25
BRANCH  21  27
ATOM     27  C   UNL     1      -9.809   0.356   8.504  1.00  0.00     0.191 C 
BRANCH  27  28
ATOM     28  O   UNL     1      -9.467   1.707   8.340  1.00  0.00    -0.394 OA
ATOM     29  H   UNL     1      -9.600   1.925   7.381  1.00  0.00     0.210 HD
ENDBRANCH  27  28
ENDBRANCH  21  27
BRANCH  22  30
ATOM     30  O   UNL     1      -9.684   0.867   5.622  1.00  0.00    -0.387 OA
ATOM     31  H   UNL     1      -9.356   1.262   4.772  1.00  0.00     0.211 HD
ENDBRANCH  22  30
ENDBRANCH   1  17
TORSDOF 10
ENDMDL
MODEL 7
REMARK VINA RESULT:    -6.731     10.943     13.236
REMARK INTER + INTRA:         -10.160
REMARK INTER:                  -9.920
REMARK INTRA:                  -0.239
REMARK UNBOUND:                -0.675
REMARK SMILES OC[C@H]1O[C@H](O[C@@H]2OC=C[C@@H]3[C@@H](O)[C@H]4O[C@@]4(CO)[C@H]23)[C@@H](O)[C@@H](O)[C@H]1O
REMARK SMILES IDX 6 1 7 2 10 3 9 4 11 5 8 6 19 7 12 8 16 9 14 10 15 11 13 12
REMARK SMILES IDX 17 14 18 15 5 17 20 18 4 19 22 20 3 21 24 22 21 23 23 25
REMARK SMILES IDX 2 27 1 28 25 30
REMARK H PARENT 13 13 18 16 21 24 23 26 1 29 25 31
REMARK Flexibility Score: inf
ROOT
ATOM      1  O   UNL     1      -4.330  -5.316  -5.372  1.00  0.00    -0.310 OA
ENDROOT
BRANCH   1   2
ATOM      2  C   UNL     1      -5.489  -5.598  -4.604  1.00  0.00     0.315 C 
ATOM      3  C   UNL     1      -7.121  -6.409  -6.796  1.00  0.00     0.018 C 
ATOM      4  C   UNL     1      -6.549  -7.321  -6.011  1.00  0.00     0.186 C 
ATOM      5  C   UNL     1      -7.212  -4.959  -6.388  1.00  0.00     0.059 C 
ATOM      6  O   UNL     1      -5.913  -6.943  -4.826  1.00  0.00    -0.472 OA
ATOM      7  C   UNL     1      -6.629  -4.630  -4.995  1.00  0.00     0.105 C 
ATOM      8  C   UNL     1      -6.490  -4.017  -7.369  1.00  0.00     0.154 C 
ATOM      9  C   UNL     1      -6.140  -3.180  -5.115  1.00  0.00     0.130 C 
ATOM     10  C   UNL     1      -6.032  -2.825  -6.539  1.00  0.00     0.183 C 
ATOM     11  O   UNL     1      -7.060  -2.298  -5.721  1.00  0.00    -0.360 OA
BRANCH   8  12
ATOM     12  O   UNL     1      -7.354  -3.585  -8.387  1.00  0.00    -0.390 OA
ATOM     13  H   UNL     1      -6.981  -2.730  -8.727  1.00  0.00     0.211 HD
ENDBRANCH   8  12
BRANCH   9  14
ATOM     14  C   UNL     1      -5.204  -2.498  -4.113  1.00  0.00     0.195 C 
BRANCH  14  15
ATOM     15  O   UNL     1      -5.574  -1.153  -3.966  1.00  0.00    -0.393 OA
ATOM     16  H   UNL     1      -6.564  -1.115  -4.012  1.00  0.00     0.210 HD
ENDBRANCH  14  15
ENDBRANCH   9  14
ENDBRANCH   1   2
BRANCH   1  17
ATOM     17  C   UNL     1      -3.637  -6.504  -5.730  1.00  0.00     0.286 C 
ATOM     18  C   UNL     1      -2.717  -6.940  -4.570  1.00  0.00     0.202 C 
ATOM     19  O   UNL     1      -2.894  -6.321  -6.929  1.00  0.00    -0.341 OA
ATOM     20  C   UNL     1      -1.567  -5.925  -4.402  1.00  0.00     0.179 C 
ATOM     21  C   UNL     1      -1.932  -5.282  -6.802  1.00  0.00     0.178 C 
ATOM     22  C   UNL     1      -0.863  -5.653  -5.746  1.00  0.00     0.177 C 
BRANCH  18  23
ATOM     23  O   UNL     1      -2.198  -8.220  -4.832  1.00  0.00    -0.385 OA
ATOM     24  H   UNL     1      -1.532  -8.116  -5.561  1.00  0.00     0.211 HD
ENDBRANCH  18  23
BRANCH  20  25
ATOM     25  O   UNL     1      -0.657  -6.326  -3.407  1.00  0.00    -0.387 OA
ATOM     26  H   UNL     1      -0.049  -7.007  -3.796  1.00  0.00     0.211 HD
ENDBRANCH  20  25
BRANCH  21  27
ATOM     27  C   UNL     1      -1.311  -5.020  -8.181  1.00  0.00     0.191 C 
BRANCH  27  28
ATOM     28  O   UNL     1       0.027  -4.615  -8.053  1.00  0.00    -0.394 OA
ATOM     29  H   UNL     1       0.463  -4.775  -8.930  1.00  0.00     0.210 HD
ENDBRANCH  27  28
ENDBRANCH  21  27
BRANCH  22  30
ATOM     30  O   UNL     1      -0.150  -6.793  -6.158  1.00  0.00    -0.387 OA
ATOM     31  H   UNL     1      -0.243  -7.475  -5.442  1.00  0.00     0.211 HD
ENDBRANCH  22  30
ENDBRANCH   1  17
TORSDOF 10
ENDMDL
MODEL 8
REMARK VINA RESULT:    -6.679      2.212      6.147
REMARK INTER + INTRA:         -10.087
REMARK INTER:                  -8.980
REMARK INTRA:                  -1.107
REMARK UNBOUND:                -0.675
REMARK SMILES OC[C@H]1O[C@H](O[C@@H]2OC=C[C@@H]3[C@@H](O)[C@H]4O[C@@]4(CO)[C@H]23)[C@@H](O)[C@@H](O)[C@H]1O
REMARK SMILES IDX 6 1 7 2 10 3 9 4 11 5 8 6 19 7 12 8 16 9 14 10 15 11 13 12
REMARK SMILES IDX 17 14 18 15 5 17 20 18 4 19 22 20 3 21 24 22 21 23 23 25
REMARK SMILES IDX 2 27 1 28 25 30
REMARK H PARENT 13 13 18 16 21 24 23 26 1 29 25 31
REMARK Flexibility Score: inf
ROOT
ATOM      1  O   UNL     1      -7.672  -3.470   7.568  1.00  0.00    -0.310 OA
ENDROOT
BRANCH   1   2
ATOM      2  C   UNL     1      -9.084  -3.344   7.520  1.00  0.00     0.315 C 
ATOM      3  C   UNL     1      -9.285  -3.221   4.679  1.00  0.00     0.018 C 
ATOM      4  C   UNL     1      -9.548  -4.358   5.322  1.00  0.00     0.186 C 
ATOM      5  C   UNL     1      -9.200  -1.901   5.406  1.00  0.00     0.059 C 
ATOM      6  O   UNL     1      -9.645  -4.382   6.716  1.00  0.00    -0.472 OA
ATOM      7  C   UNL     1      -9.472  -1.970   6.926  1.00  0.00     0.105 C 
ATOM      8  C   UNL     1      -7.822  -1.231   5.264  1.00  0.00     0.154 C 
ATOM      9  C   UNL     1      -8.635  -0.829   7.519  1.00  0.00     0.130 C 
ATOM     10  C   UNL     1      -7.629  -0.406   6.531  1.00  0.00     0.183 C 
ATOM     11  O   UNL     1      -8.751   0.401   6.837  1.00  0.00    -0.360 OA
BRANCH   8  12
ATOM     12  O   UNL     1      -7.778  -0.393   4.139  1.00  0.00    -0.390 OA
ATOM     13  H   UNL     1      -7.176  -0.834   3.485  1.00  0.00     0.211 HD
ENDBRANCH   8  12
BRANCH   9  14
ATOM     14  C   UNL     1      -8.313  -0.676   9.008  1.00  0.00     0.195 C 
BRANCH  14  15
ATOM     15  O   UNL     1      -9.474  -0.308   9.704  1.00  0.00    -0.393 OA
ATOM     16  H   UNL     1      -9.663  -1.028  10.359  1.00  0.00     0.210 HD
ENDBRANCH  14  15
ENDBRANCH   9  14
ENDBRANCH   1   2
BRANCH   1  17
ATOM     17  C   UNL     1      -7.265  -4.444   8.519  1.00  0.00     0.286 C 
ATOM     18  C   UNL     1      -6.130  -3.873   9.396  1.00  0.00     0.202 C 
ATOM     19  O   UNL     1      -6.857  -5.646   7.877  1.00  0.00    -0.341 OA
ATOM     20  C   UNL     1      -4.855  -3.685   8.549  1.00  0.00     0.179 C 
ATOM     21  C   UNL     1      -5.768  -5.428   6.989  1.00  0.00     0.178 C 
ATOM     22  C   UNL     1      -4.511  -4.968   7.767  1.00  0.00     0.177 C 
BRANCH  18  23
ATOM     23  O   UNL     1      -5.876  -4.746  10.468  1.00  0.00    -0.385 OA
ATOM     24  H   UNL     1      -6.720  -4.820  10.985  1.00  0.00     0.211 HD
ENDBRANCH  18  23
BRANCH  20  25
ATOM     25  O   UNL     1      -3.771  -3.242   9.328  1.00  0.00    -0.387 OA
ATOM     26  H   UNL     1      -3.869  -3.616  10.242  1.00  0.00     0.211 HD
ENDBRANCH  20  25
BRANCH  21  27
ATOM     27  C   UNL     1      -5.514  -6.721   6.201  1.00  0.00     0.191 C 
BRANCH  27  28
ATOM     28  O   UNL     1      -4.186  -6.775   5.752  1.00  0.00    -0.394 OA
ATOM     29  H   UNL     1      -3.641  -7.131   6.502  1.00  0.00     0.210 HD
ENDBRANCH  27  28
ENDBRANCH  21  27
BRANCH  22  30
ATOM     30  O   UNL     1      -4.093  -5.978   8.653  1.00  0.00    -0.387 OA
ATOM     31  H   UNL     1      -4.439  -5.742   9.554  1.00  0.00     0.211 HD
ENDBRANCH  22  30
ENDBRANCH   1  17
TORSDOF 10
ENDMDL
MODEL 9
REMARK VINA RESULT:    -6.647      2.560      6.513
REMARK INTER + INTRA:         -10.042
REMARK INTER:                  -8.933
REMARK INTRA:                  -1.109
REMARK UNBOUND:                -0.675
REMARK SMILES OC[C@H]1O[C@H](O[C@@H]2OC=C[C@@H]3[C@@H](O)[C@H]4O[C@@]4(CO)[C@H]23)[C@@H](O)[C@@H](O)[C@H]1O
REMARK SMILES IDX 6 1 7 2 10 3 9 4 11 5 8 6 19 7 12 8 16 9 14 10 15 11 13 12
REMARK SMILES IDX 17 14 18 15 5 17 20 18 4 19 22 20 3 21 24 22 21 23 23 25
REMARK SMILES IDX 2 27 1 28 25 30
REMARK H PARENT 13 13 18 16 21 24 23 26 1 29 25 31
REMARK Flexibility Score: inf
ROOT
ATOM      1  O   UNL     1      -7.149  -4.428   6.637  1.00  0.00    -0.310 OA
ENDROOT
BRANCH   1   2
ATOM      2  C   UNL     1      -5.993  -3.643   6.396  1.00  0.00     0.315 C 
ATOM      3  C   UNL     1      -5.266  -3.316   9.132  1.00  0.00     0.018 C 
ATOM      4  C   UNL     1      -4.642  -4.218   8.375  1.00  0.00     0.186 C 
ATOM      5  C   UNL     1      -6.121  -2.230   8.528  1.00  0.00     0.059 C 
ATOM      6  O   UNL     1      -4.848  -4.253   6.993  1.00  0.00    -0.472 OA
ATOM      7  C   UNL     1      -6.184  -2.226   6.983  1.00  0.00     0.105 C 
ATOM      8  C   UNL     1      -7.584  -2.291   9.000  1.00  0.00     0.154 C 
ATOM      9  C   UNL     1      -7.568  -1.648   6.656  1.00  0.00     0.130 C 
ATOM     10  C   UNL     1      -8.413  -1.713   7.859  1.00  0.00     0.183 C 
ATOM     11  O   UNL     1      -7.903  -0.483   7.378  1.00  0.00    -0.360 OA
BRANCH   8  12
ATOM     12  O   UNL     1      -7.776  -1.528  10.162  1.00  0.00    -0.390 OA
ATOM     13  H   UNL     1      -6.872  -1.336  10.524  1.00  0.00     0.211 HD
ENDBRANCH   8  12
BRANCH   9  14
ATOM     14  C   UNL     1      -8.236  -1.732   5.281  1.00  0.00     0.195 C 
BRANCH  14  15
ATOM     15  O   UNL     1      -7.529  -0.937   4.366  1.00  0.00    -0.393 OA
ATOM     16  H   UNL     1      -7.445  -1.461   3.528  1.00  0.00     0.210 HD
ENDBRANCH  14  15
ENDBRANCH   9  14
ENDBRANCH   1   2
BRANCH   1  17
ATOM     17  C   UNL     1      -7.035  -5.721   6.058  1.00  0.00     0.286 C 
ATOM     18  C   UNL     1      -7.320  -5.641   4.543  1.00  0.00     0.202 C 
ATOM     19  O   UNL     1      -7.911  -6.645   6.694  1.00  0.00    -0.341 OA
ATOM     20  C   UNL     1      -8.807  -5.303   4.306  1.00  0.00     0.179 C 
ATOM     21  C   UNL     1      -9.270  -6.243   6.588  1.00  0.00     0.178 C 
ATOM     22  C   UNL     1      -9.727  -6.243   5.109  1.00  0.00     0.177 C 
BRANCH  18  23
ATOM     23  O   UNL     1      -7.000  -6.867   3.935  1.00  0.00    -0.385 OA
ATOM     24  H   UNL     1      -7.504  -7.570   4.423  1.00  0.00     0.211 HD
ENDBRANCH  18  23
BRANCH  20  25
ATOM     25  O   UNL     1      -9.130  -5.299   2.937  1.00  0.00    -0.387 OA
ATOM     26  H   UNL     1      -8.393  -5.742   2.441  1.00  0.00     0.211 HD
ENDBRANCH  20  25
BRANCH  21  27
ATOM     27  C   UNL     1     -10.125  -7.180   7.453  1.00  0.00     0.191 C 
BRANCH  27  28
ATOM     28  O   UNL     1      -9.590  -8.477   7.456  1.00  0.00    -0.394 OA
ATOM     29  H   UNL     1      -9.200  -8.632   6.556  1.00  0.00     0.210 HD
ENDBRANCH  27  28
ENDBRANCH  21  27
BRANCH  22  30
ATOM     30  O   UNL     1      -9.666  -7.546   4.583  1.00  0.00    -0.387 OA
ATOM     31  H   UNL     1      -9.400  -8.151   5.324  1.00  0.00     0.211 HD
ENDBRANCH  22  30
ENDBRANCH   1  17
TORSDOF 10
ENDMDL
