MODEL 1
REMARK VINA RESULT:    -4.183      0.000      0.000
REMARK INTER + INTRA:          -9.529
REMARK INTER:                  -7.607
REMARK INTRA:                  -1.922
REMARK UNBOUND:                -1.922
REMARK SMILES CCCCCCCCCCCCCC[C@@H](C)C(=O)[O-]
REMARK SMILES IDX 9 1 10 2 11 3 12 4 13 5 14 6 15 7 16 8 17 9 18 10 19 11 8 12
REMARK SMILES IDX 7 13 6 14 5 15 4 16 3 17 2 18 1 19
REMARK H PARENT
REMARK Flexibility Score: inf
ROOT
ATOM      1  C   UNL     1       0.553   7.896  -0.988  1.00  0.00     0.000 C 
ENDROOT
BRANCH   1   2
ATOM      2  C   UNL     1       1.092   6.770  -0.089  1.00  0.00     0.000 C 
BRANCH   2   3
ATOM      3  C   UNL     1       1.256   7.145   1.396  1.00  0.00     0.000 C 
BRANCH   3   4
ATOM      4  C   UNL     1       0.044   7.899   1.984  1.00  0.00     0.000 C 
BRANCH   4   5
ATOM      5  C   UNL     1      -0.681   7.082   3.069  1.00  0.00     0.001 C 
BRANCH   5   6
ATOM      6  C   UNL     1       0.284   6.358   4.029  1.00  0.00     0.009 C 
BRANCH   6   7
ATOM      7  C   UNL     1      -0.052   4.871   4.297  1.00  0.00     0.032 C 
ATOM      8  C   UNL     1      -0.100   4.036   3.009  1.00  0.00     0.014 C 
BRANCH   7   9
ATOM      9  C   UNL     1       0.962   4.291   5.249  1.00  0.00     0.044 C 
ATOM     10  O   UNL     1       0.590   3.676   6.285  1.00  0.00    -0.550 OA
ATOM     11  O   UNL     1       2.319   4.415   4.976  1.00  0.00    -0.550 OA
ENDBRANCH   7   9
ENDBRANCH   6   7
ENDBRANCH   5   6
ENDBRANCH   4   5
ENDBRANCH   3   4
ENDBRANCH   2   3
ENDBRANCH   1   2
BRANCH   1  12
ATOM     12  C   UNL     1       0.969   7.735  -2.461  1.00  0.00     0.000 C 
BRANCH  12  13
ATOM     13  C   UNL     1       1.681   6.396  -2.737  1.00  0.00    -0.000 C 
BRANCH  13  14
ATOM     14  C   UNL     1       2.591   6.400  -3.979  1.00  0.00    -0.000 C 
BRANCH  14  15
ATOM     15  C   UNL     1       4.089   6.427  -3.619  1.00  0.00    -0.000 C 
BRANCH  15  16
ATOM     16  C   UNL     1       4.329   6.131  -2.127  1.00  0.00    -0.000 C 
BRANCH  16  17
ATOM     17  C   UNL     1       5.141   7.234  -1.408  1.00  0.00    -0.000 C 
BRANCH  17  18
ATOM     18  C   UNL     1       4.274   8.397  -0.895  1.00  0.00    -0.003 C 
ATOM     19  C   UNL     1       4.321   9.624  -1.806  1.00  0.00     0.004 C 
ENDBRANCH  17  18
ENDBRANCH  16  17
ENDBRANCH  15  16
ENDBRANCH  14  15
ENDBRANCH  13  14
ENDBRANCH  12  13
ENDBRANCH   1  12
TORSDOF 14
ENDMDL
MODEL 2
REMARK VINA RESULT:    -4.085      1.361      1.953
REMARK INTER + INTRA:          -9.350
REMARK INTER:                  -7.745
REMARK INTRA:                  -1.605
REMARK UNBOUND:                -1.922
REMARK SMILES CCCCCCCCCCCCCC[C@@H](C)C(=O)[O-]
REMARK SMILES IDX 9 1 10 2 11 3 12 4 13 5 14 6 15 7 16 8 17 9 18 10 19 11 8 12
REMARK SMILES IDX 7 13 6 14 5 15 4 16 3 17 2 18 1 19
REMARK H PARENT
REMARK Flexibility Score: inf
ROOT
ATOM      1  C   UNL     1      -0.699   8.525  -1.566  1.00  0.00     0.000 C 
ENDROOT
BRANCH   1   2
ATOM      2  C   UNL     1      -0.905   9.014  -0.122  1.00  0.00     0.000 C 
BRANCH   2   3
ATOM      3  C   UNL     1       0.371   9.051   0.740  1.00  0.00     0.000 C 
BRANCH   3   4
ATOM      4  C   UNL     1       0.237   8.299   2.081  1.00  0.00     0.000 C 
BRANCH   4   5
ATOM      5  C   UNL     1       1.275   7.170   2.223  1.00  0.00     0.001 C 
BRANCH   5   6
ATOM      6  C   UNL     1       0.681   5.766   1.992  1.00  0.00     0.009 C 
BRANCH   6   7
ATOM      7  C   UNL     1       0.443   4.936   3.276  1.00  0.00     0.032 C 
ATOM      8  C   UNL     1      -0.490   3.738   3.040  1.00  0.00     0.014 C 
BRANCH   7   9
ATOM      9  C   UNL     1       1.765   4.460   3.818  1.00  0.00     0.044 C 
ATOM     10  O   UNL     1       2.659   4.027   3.040  1.00  0.00    -0.550 OA
ATOM     11  O   UNL     1       2.015   4.518   5.184  1.00  0.00    -0.550 OA
ENDBRANCH   7   9
ENDBRANCH   6   7
ENDBRANCH   5   6
ENDBRANCH   4   5
ENDBRANCH   3   4
ENDBRANCH   2   3
ENDBRANCH   1   2
BRANCH   1  12
ATOM     12  C   UNL     1       0.761   8.136  -1.861  1.00  0.00     0.000 C 
BRANCH  12  13
ATOM     13  C   UNL     1       0.998   6.614  -1.799  1.00  0.00    -0.000 C 
BRANCH  13  14
ATOM     14  C   UNL     1       1.682   6.023  -3.045  1.00  0.00    -0.000 C 
BRANCH  14  15
ATOM     15  C   UNL     1       2.793   6.934  -3.603  1.00  0.00    -0.000 C 
BRANCH  15  16
ATOM     16  C   UNL     1       4.181   6.274  -3.511  1.00  0.00    -0.000 C 
BRANCH  16  17
ATOM     17  C   UNL     1       5.160   7.037  -2.588  1.00  0.00    -0.000 C 
BRANCH  17  18
ATOM     18  C   UNL     1       5.463   6.298  -1.272  1.00  0.00    -0.003 C 
ATOM     19  C   UNL     1       4.364   6.469  -0.223  1.00  0.00     0.004 C 
ENDBRANCH  17  18
ENDBRANCH  16  17
ENDBRANCH  15  16
ENDBRANCH  14  15
ENDBRANCH  13  14
ENDBRANCH  12  13
ENDBRANCH   1  12
TORSDOF 14
ENDMDL
MODEL 3
REMARK VINA RESULT:    -4.059      1.187      2.365
REMARK INTER + INTRA:          -9.303
REMARK INTER:                  -7.279
REMARK INTRA:                  -2.025
REMARK UNBOUND:                -1.922
REMARK SMILES CCCCCCCCCCCCCC[C@@H](C)C(=O)[O-]
REMARK SMILES IDX 9 1 10 2 11 3 12 4 13 5 14 6 15 7 16 8 17 9 18 10 19 11 8 12
REMARK SMILES IDX 7 13 6 14 5 15 4 16 3 17 2 18 1 19
REMARK H PARENT
REMARK Flexibility Score: inf
ROOT
ATOM      1  C   UNL     1       1.410   6.591  -2.698  1.00  0.00     0.000 C 
ENDROOT
BRANCH   1   2
ATOM      2  C   UNL     1       0.669   7.201  -1.496  1.00  0.00     0.000 C 
BRANCH   2   3
ATOM      3  C   UNL     1       1.138   6.696  -0.118  1.00  0.00     0.000 C 
BRANCH   3   4
ATOM      4  C   UNL     1       0.923   7.712   1.023  1.00  0.00     0.000 C 
BRANCH   4   5
ATOM      5  C   UNL     1       0.526   7.030   2.345  1.00  0.00     0.001 C 
BRANCH   5   6
ATOM      6  C   UNL     1       0.288   5.514   2.198  1.00  0.00     0.009 C 
BRANCH   6   7
ATOM      7  C   UNL     1       0.302   4.717   3.524  1.00  0.00     0.032 C 
ATOM      8  C   UNL     1      -0.504   3.412   3.437  1.00  0.00     0.014 C 
BRANCH   7   9
ATOM      9  C   UNL     1       1.726   4.417   3.914  1.00  0.00     0.044 C 
ATOM     10  O   UNL     1       2.584   4.125   3.036  1.00  0.00    -0.550 OA
ATOM     11  O   UNL     1       2.107   4.484   5.249  1.00  0.00    -0.550 OA
ENDBRANCH   7   9
ENDBRANCH   6   7
ENDBRANCH   5   6
ENDBRANCH   4   5
ENDBRANCH   3   4
ENDBRANCH   2   3
ENDBRANCH   1   2
BRANCH   1  12
ATOM     12  C   UNL     1       1.690   7.618  -3.810  1.00  0.00     0.000 C 
BRANCH  12  13
ATOM     13  C   UNL     1       1.563   9.075  -3.323  1.00  0.00    -0.000 C 
BRANCH  13  14
ATOM     14  C   UNL     1       2.902   9.754  -2.983  1.00  0.00    -0.000 C 
BRANCH  14  15
ATOM     15  C   UNL     1       3.144   9.867  -1.466  1.00  0.00    -0.000 C 
BRANCH  15  16
ATOM     16  C   UNL     1       4.076   8.757  -0.946  1.00  0.00    -0.000 C 
BRANCH  16  17
ATOM     17  C   UNL     1       5.057   8.231  -2.019  1.00  0.00    -0.000 C 
BRANCH  17  18
ATOM     18  C   UNL     1       5.047   6.698  -2.162  1.00  0.00    -0.003 C 
ATOM     19  C   UNL     1       4.931   6.234  -3.613  1.00  0.00     0.004 C 
ENDBRANCH  17  18
ENDBRANCH  16  17
ENDBRANCH  15  16
ENDBRANCH  14  15
ENDBRANCH  13  14
ENDBRANCH  12  13
ENDBRANCH   1  12
TORSDOF 14
ENDMDL
MODEL 4
REMARK VINA RESULT:    -4.037      2.148      6.050
REMARK INTER + INTRA:          -9.264
REMARK INTER:                  -7.532
REMARK INTRA:                  -1.732
REMARK UNBOUND:                -1.922
REMARK SMILES CCCCCCCCCCCCCC[C@@H](C)C(=O)[O-]
REMARK SMILES IDX 9 1 10 2 11 3 12 4 13 5 14 6 15 7 16 8 17 9 18 10 19 11 8 12
REMARK SMILES IDX 7 13 6 14 5 15 4 16 3 17 2 18 1 19
REMARK H PARENT
REMARK Flexibility Score: inf
ROOT
ATOM      1  C   UNL     1       1.358   6.358  -2.425  1.00  0.00     0.000 C 
ENDROOT
BRANCH   1   2
ATOM      2  C   UNL     1       2.111   6.613  -3.742  1.00  0.00     0.000 C 
BRANCH   2   3
ATOM      3  C   UNL     1       3.637   6.410  -3.668  1.00  0.00     0.000 C 
BRANCH   3   4
ATOM      4  C   UNL     1       4.345   7.376  -2.694  1.00  0.00     0.000 C 
BRANCH   4   5
ATOM      5  C   UNL     1       5.561   6.726  -2.010  1.00  0.00     0.001 C 
BRANCH   5   6
ATOM      6  C   UNL     1       5.173   5.751  -0.880  1.00  0.00     0.009 C 
BRANCH   6   7
ATOM      7  C   UNL     1       5.990   5.903   0.426  1.00  0.00     0.032 C 
ATOM      8  C   UNL     1       5.575   7.138   1.240  1.00  0.00     0.014 C 
BRANCH   7   9
ATOM      9  C   UNL     1       5.835   4.660   1.262  1.00  0.00     0.044 C 
ATOM     10  O   UNL     1       6.623   3.685   1.113  1.00  0.00    -0.550 OA
ATOM     11  O   UNL     1       4.832   4.589   2.221  1.00  0.00    -0.550 OA
ENDBRANCH   7   9
ENDBRANCH   6   7
ENDBRANCH   5   6
ENDBRANCH   4   5
ENDBRANCH   3   4
ENDBRANCH   2   3
ENDBRANCH   1   2
BRANCH   1  12
ATOM     12  C   UNL     1       0.557   7.584  -1.950  1.00  0.00     0.000 C 
BRANCH  12  13
ATOM     13  C   UNL     1       0.653   7.807  -0.428  1.00  0.00    -0.000 C 
BRANCH  13  14
ATOM     14  C   UNL     1       1.961   7.309   0.210  1.00  0.00    -0.000 C 
BRANCH  14  15
ATOM     15  C   UNL     1       1.720   6.367   1.405  1.00  0.00    -0.000 C 
BRANCH  15  16
ATOM     16  C   UNL     1       0.316   6.552   2.011  1.00  0.00    -0.000 C 
BRANCH  16  17
ATOM     17  C   UNL     1       0.089   5.714   3.292  1.00  0.00    -0.000 C 
BRANCH  17  18
ATOM     18  C   UNL     1       0.419   4.221   3.114  1.00  0.00    -0.003 C 
ATOM     19  C   UNL     1      -0.797   3.384   2.718  1.00  0.00     0.004 C 
ENDBRANCH  17  18
ENDBRANCH  16  17
ENDBRANCH  15  16
ENDBRANCH  14  15
ENDBRANCH  13  14
ENDBRANCH  12  13
ENDBRANCH   1  12
TORSDOF 14
ENDMDL
MODEL 5
REMARK VINA RESULT:    -4.032      1.302      1.932
REMARK INTER + INTRA:          -9.255
REMARK INTER:                  -7.555
REMARK INTRA:                  -1.700
REMARK UNBOUND:                -1.922
REMARK SMILES CCCCCCCCCCCCCC[C@@H](C)C(=O)[O-]
REMARK SMILES IDX 9 1 10 2 11 3 12 4 13 5 14 6 15 7 16 8 17 9 18 10 19 11 8 12
REMARK SMILES IDX 7 13 6 14 5 15 4 16 3 17 2 18 1 19
REMARK H PARENT
REMARK Flexibility Score: inf
ROOT
ATOM      1  C   UNL     1       0.300   7.540  -1.402  1.00  0.00     0.000 C 
ENDROOT
BRANCH   1   2
ATOM      2  C   UNL     1       1.031   6.805  -0.265  1.00  0.00     0.000 C 
BRANCH   2   3
ATOM      3  C   UNL     1       1.547   7.713   0.868  1.00  0.00     0.000 C 
BRANCH   3   4
ATOM      4  C   UNL     1       2.269   6.947   1.997  1.00  0.00     0.000 C 
BRANCH   4   5
ATOM      5  C   UNL     1       1.512   5.672   2.413  1.00  0.00     0.001 C 
BRANCH   5   6
ATOM      6  C   UNL     1       0.651   5.862   3.678  1.00  0.00     0.009 C 
BRANCH   6   7
ATOM      7  C   UNL     1      -0.283   4.676   4.020  1.00  0.00     0.032 C 
ATOM      8  C   UNL     1      -0.615   3.815   2.793  1.00  0.00     0.014 C 
BRANCH   7   9
ATOM      9  C   UNL     1       0.356   3.827   5.087  1.00  0.00     0.044 C 
ATOM     10  O   UNL     1       1.344   4.258   5.744  1.00  0.00    -0.550 OA
ATOM     11  O   UNL     1      -0.157   2.567   5.370  1.00  0.00    -0.550 OA
ENDBRANCH   7   9
ENDBRANCH   6   7
ENDBRANCH   5   6
ENDBRANCH   4   5
ENDBRANCH   3   4
ENDBRANCH   2   3
ENDBRANCH   1   2
BRANCH   1  12
ATOM     12  C   UNL     1       0.993   8.854  -1.806  1.00  0.00     0.000 C 
BRANCH  12  13
ATOM     13  C   UNL     1       2.032   8.662  -2.928  1.00  0.00    -0.000 C 
BRANCH  13  14
ATOM     14  C   UNL     1       1.788   7.432  -3.820  1.00  0.00    -0.000 C 
BRANCH  14  15
ATOM     15  C   UNL     1       2.986   6.463  -3.839  1.00  0.00    -0.000 C 
BRANCH  15  16
ATOM     16  C   UNL     1       4.129   6.941  -2.923  1.00  0.00    -0.000 C 
BRANCH  16  17
ATOM     17  C   UNL     1       4.710   5.816  -2.035  1.00  0.00    -0.000 C 
BRANCH  17  18
ATOM     18  C   UNL     1       4.848   6.213  -0.554  1.00  0.00    -0.003 C 
ATOM     19  C   UNL     1       5.769   5.279   0.232  1.00  0.00     0.004 C 
ENDBRANCH  17  18
ENDBRANCH  16  17
ENDBRANCH  15  16
ENDBRANCH  14  15
ENDBRANCH  13  14
ENDBRANCH  12  13
ENDBRANCH   1  12
TORSDOF 14
ENDMDL
MODEL 6
REMARK VINA RESULT:    -3.983      1.191      2.755
REMARK INTER + INTRA:          -9.166
REMARK INTER:                  -7.339
REMARK INTRA:                  -1.826
REMARK UNBOUND:                -1.922
REMARK SMILES CCCCCCCCCCCCCC[C@@H](C)C(=O)[O-]
REMARK SMILES IDX 9 1 10 2 11 3 12 4 13 5 14 6 15 7 16 8 17 9 18 10 19 11 8 12
REMARK SMILES IDX 7 13 6 14 5 15 4 16 3 17 2 18 1 19
REMARK H PARENT
REMARK Flexibility Score: inf
ROOT
ATOM      1  C   UNL     1       4.966   5.960   0.414  1.00  0.00     0.000 C 
ENDROOT
BRANCH   1   2
ATOM      2  C   UNL     1       3.807   6.956   0.591  1.00  0.00     0.000 C 
BRANCH   2   3
ATOM      3  C   UNL     1       2.932   6.722   1.838  1.00  0.00     0.000 C 
BRANCH   3   4
ATOM      4  C   UNL     1       1.461   7.151   1.655  1.00  0.00     0.000 C 
BRANCH   4   5
ATOM      5  C   UNL     1       0.482   5.983   1.870  1.00  0.00     0.001 C 
BRANCH   5   6
ATOM      6  C   UNL     1      -0.119   5.948   3.290  1.00  0.00     0.009 C 
BRANCH   6   7
ATOM      7  C   UNL     1      -0.197   4.543   3.933  1.00  0.00     0.032 C 
ATOM      8  C   UNL     1      -0.520   3.442   2.911  1.00  0.00     0.014 C 
BRANCH   7   9
ATOM      9  C   UNL     1       1.104   4.235   4.627  1.00  0.00     0.044 C 
ATOM     10  O   UNL     1       1.177   4.243   5.886  1.00  0.00    -0.550 OA
ATOM     11  O   UNL     1       2.231   3.920   3.877  1.00  0.00    -0.550 OA
ENDBRANCH   7   9
ENDBRANCH   6   7
ENDBRANCH   5   6
ENDBRANCH   4   5
ENDBRANCH   3   4
ENDBRANCH   2   3
ENDBRANCH   1   2
BRANCH   1  12
ATOM     12  C   UNL     1       5.520   5.939  -1.021  1.00  0.00     0.000 C 
BRANCH  12  13
ATOM     13  C   UNL     1       5.684   7.350  -1.620  1.00  0.00    -0.000 C 
BRANCH  13  14
ATOM     14  C   UNL     1       4.996   7.550  -2.982  1.00  0.00    -0.000 C 
BRANCH  14  15
ATOM     15  C   UNL     1       4.198   6.312  -3.433  1.00  0.00    -0.000 C 
BRANCH  15  16
ATOM     16  C   UNL     1       2.734   6.657  -3.761  1.00  0.00    -0.000 C 
BRANCH  16  17
ATOM     17  C   UNL     1       1.720   6.005  -2.792  1.00  0.00    -0.000 C 
BRANCH  17  18
ATOM     18  C   UNL     1       0.908   7.026  -1.975  1.00  0.00    -0.003 C 
ATOM     19  C   UNL     1       1.466   8.446  -2.071  1.00  0.00     0.004 C 
ENDBRANCH  17  18
ENDBRANCH  16  17
ENDBRANCH  15  16
ENDBRANCH  14  15
ENDBRANCH  13  14
ENDBRANCH  12  13
ENDBRANCH   1  12
TORSDOF 14
ENDMDL
MODEL 7
REMARK VINA RESULT:    -3.944      2.043      3.708
REMARK INTER + INTRA:          -9.093
REMARK INTER:                  -7.792
REMARK INTRA:                  -1.302
REMARK UNBOUND:                -1.922
REMARK SMILES CCCCCCCCCCCCCC[C@@H](C)C(=O)[O-]
REMARK SMILES IDX 9 1 10 2 11 3 12 4 13 5 14 6 15 7 16 8 17 9 18 10 19 11 8 12
REMARK SMILES IDX 7 13 6 14 5 15 4 16 3 17 2 18 1 19
REMARK H PARENT
REMARK Flexibility Score: inf
ROOT
ATOM      1  C   UNL     1       5.451   5.852   0.029  1.00  0.00     0.000 C 
ENDROOT
BRANCH   1   2
ATOM      2  C   UNL     1       4.481   6.842   0.697  1.00  0.00     0.000 C 
BRANCH   2   3
ATOM      3  C   UNL     1       3.598   6.238   1.806  1.00  0.00     0.000 C 
BRANCH   3   4
ATOM      4  C   UNL     1       4.310   5.160   2.650  1.00  0.00     0.000 C 
BRANCH   4   5
ATOM      5  C   UNL     1       3.330   4.104   3.194  1.00  0.00     0.001 C 
BRANCH   5   6
ATOM      6  C   UNL     1       2.132   4.718   3.947  1.00  0.00     0.009 C 
BRANCH   6   7
ATOM      7  C   UNL     1       0.881   3.812   4.038  1.00  0.00     0.032 C 
ATOM      8  C   UNL     1       0.103   4.010   5.347  1.00  0.00     0.014 C 
BRANCH   7   9
ATOM      9  C   UNL     1      -0.018   4.077   2.859  1.00  0.00     0.044 C 
ATOM     10  O   UNL     1       0.284   4.958   2.008  1.00  0.00    -0.550 OA
ATOM     11  O   UNL     1      -1.180   3.333   2.692  1.00  0.00    -0.550 OA
ENDBRANCH   7   9
ENDBRANCH   6   7
ENDBRANCH   5   6
ENDBRANCH   4   5
ENDBRANCH   3   4
ENDBRANCH   2   3
ENDBRANCH   1   2
BRANCH   1  12
ATOM     12  C   UNL     1       5.139   5.626  -1.461  1.00  0.00     0.000 C 
BRANCH  12  13
ATOM     13  C   UNL     1       4.024   6.552  -1.985  1.00  0.00    -0.000 C 
BRANCH  13  14
ATOM     14  C   UNL     1       3.764   6.446  -3.499  1.00  0.00    -0.000 C 
BRANCH  14  15
ATOM     15  C   UNL     1       2.264   6.398  -3.843  1.00  0.00    -0.000 C 
BRANCH  15  16
ATOM     16  C   UNL     1       1.379   6.590  -2.598  1.00  0.00    -0.000 C 
BRANCH  16  17
ATOM     17  C   UNL     1       0.720   7.987  -2.526  1.00  0.00    -0.000 C 
BRANCH  17  18
ATOM     18  C   UNL     1      -0.091   8.217  -1.237  1.00  0.00    -0.003 C 
ATOM     19  C   UNL     1       0.690   7.866   0.030  1.00  0.00     0.004 C 
ENDBRANCH  17  18
ENDBRANCH  16  17
ENDBRANCH  15  16
ENDBRANCH  14  15
ENDBRANCH  13  14
ENDBRANCH  12  13
ENDBRANCH   1  12
TORSDOF 14
ENDMDL
MODEL 8
REMARK VINA RESULT:    -3.929      1.743      3.082
REMARK INTER + INTRA:          -9.067
REMARK INTER:                  -6.988
REMARK INTRA:                  -2.079
REMARK UNBOUND:                -1.922
REMARK SMILES CCCCCCCCCCCCCC[C@@H](C)C(=O)[O-]
REMARK SMILES IDX 9 1 10 2 11 3 12 4 13 5 14 6 15 7 16 8 17 9 18 10 19 11 8 12
REMARK SMILES IDX 7 13 6 14 5 15 4 16 3 17 2 18 1 19
REMARK H PARENT
REMARK Flexibility Score: inf
ROOT
ATOM      1  C   UNL     1       1.253   7.418  -2.613  1.00  0.00     0.000 C 
ENDROOT
BRANCH   1   2
ATOM      2  C   UNL     1      -0.108   7.518  -1.904  1.00  0.00     0.000 C 
BRANCH   2   3
ATOM      3  C   UNL     1      -0.556   8.951  -1.556  1.00  0.00     0.000 C 
BRANCH   3   4
ATOM      4  C   UNL     1      -0.914   9.146  -0.068  1.00  0.00     0.000 C 
BRANCH   4   5
ATOM      5  C   UNL     1       0.310   8.986   0.852  1.00  0.00     0.001 C 
BRANCH   5   6
ATOM      6  C   UNL     1       0.205   7.773   1.798  1.00  0.00     0.009 C 
BRANCH   6   7
ATOM      7  C   UNL     1       1.033   6.536   1.372  1.00  0.00     0.032 C 
ATOM      8  C   UNL     1       2.504   6.879   1.092  1.00  0.00     0.014 C 
BRANCH   7   9
ATOM      9  C   UNL     1       0.945   5.481   2.444  1.00  0.00     0.044 C 
ATOM     10  O   UNL     1       1.576   5.614   3.528  1.00  0.00    -0.550 OA
ATOM     11  O   UNL     1       0.146   4.361   2.250  1.00  0.00    -0.550 OA
ENDBRANCH   7   9
ENDBRANCH   6   7
ENDBRANCH   5   6
ENDBRANCH   4   5
ENDBRANCH   3   4
ENDBRANCH   2   3
ENDBRANCH   1   2
BRANCH   1  12
ATOM     12  C   UNL     1       1.540   8.623  -3.527  1.00  0.00     0.000 C 
BRANCH  12  13
ATOM     13  C   UNL     1       2.746   9.458  -3.054  1.00  0.00    -0.000 C 
BRANCH  13  14
ATOM     14  C   UNL     1       3.662   8.744  -2.045  1.00  0.00    -0.000 C 
BRANCH  14  15
ATOM     15  C   UNL     1       4.983   8.265  -2.675  1.00  0.00    -0.000 C 
BRANCH  15  16
ATOM     16  C   UNL     1       4.937   6.772  -3.049  1.00  0.00    -0.000 C 
BRANCH  16  17
ATOM     17  C   UNL     1       4.812   5.839  -1.822  1.00  0.00    -0.000 C 
BRANCH  17  18
ATOM     18  C   UNL     1       5.884   6.093  -0.747  1.00  0.00    -0.003 C 
ATOM     19  C   UNL     1       5.924   5.005   0.327  1.00  0.00     0.004 C 
ENDBRANCH  17  18
ENDBRANCH  16  17
ENDBRANCH  15  16
ENDBRANCH  14  15
ENDBRANCH  13  14
ENDBRANCH  12  13
ENDBRANCH   1  12
TORSDOF 14
ENDMDL
MODEL 9
REMARK VINA RESULT:    -3.924      1.200      3.117
REMARK INTER + INTRA:          -9.058
REMARK INTER:                  -7.320
REMARK INTRA:                  -1.738
REMARK UNBOUND:                -1.922
REMARK SMILES CCCCCCCCCCCCCC[C@@H](C)C(=O)[O-]
REMARK SMILES IDX 9 1 10 2 11 3 12 4 13 5 14 6 15 7 16 8 17 9 18 10 19 11 8 12
REMARK SMILES IDX 7 13 6 14 5 15 4 16 3 17 2 18 1 19
REMARK H PARENT
REMARK Flexibility Score: inf
ROOT
ATOM      1  C   UNL     1       4.673   6.502  -0.376  1.00  0.00     0.000 C 
ENDROOT
BRANCH   1   2
ATOM      2  C   UNL     1       4.027   7.894  -0.261  1.00  0.00     0.000 C 
BRANCH   2   3
ATOM      3  C   UNL     1       2.768   7.955   0.626  1.00  0.00     0.000 C 
BRANCH   3   4
ATOM      4  C   UNL     1       1.857   6.716   0.497  1.00  0.00     0.000 C 
BRANCH   4   5
ATOM      5  C   UNL     1       0.969   6.514   1.739  1.00  0.00     0.001 C 
BRANCH   5   6
ATOM      6  C   UNL     1       1.598   5.575   2.789  1.00  0.00     0.009 C 
BRANCH   6   7
ATOM      7  C   UNL     1       0.595   4.927   3.772  1.00  0.00     0.032 C 
ATOM      8  C   UNL     1      -0.262   3.838   3.109  1.00  0.00     0.014 C 
BRANCH   7   9
ATOM      9  C   UNL     1       1.344   4.350   4.945  1.00  0.00     0.044 C 
ATOM     10  O   UNL     1       0.720   3.889   5.941  1.00  0.00    -0.550 OA
ATOM     11  O   UNL     1       2.733   4.303   4.925  1.00  0.00    -0.550 OA
ENDBRANCH   7   9
ENDBRANCH   6   7
ENDBRANCH   5   6
ENDBRANCH   4   5
ENDBRANCH   3   4
ENDBRANCH   2   3
ENDBRANCH   1   2
BRANCH   1  12
ATOM     12  C   UNL     1       4.702   5.975  -1.822  1.00  0.00     0.000 C 
BRANCH  12  13
ATOM     13  C   UNL     1       3.995   6.918  -2.815  1.00  0.00    -0.000 C 
BRANCH  13  14
ATOM     14  C   UNL     1       2.575   6.477  -3.214  1.00  0.00    -0.000 C 
BRANCH  14  15
ATOM     15  C   UNL     1       1.737   7.629  -3.801  1.00  0.00    -0.000 C 
BRANCH  15  16
ATOM     16  C   UNL     1       1.078   8.482  -2.702  1.00  0.00    -0.000 C 
BRANCH  16  17
ATOM     17  C   UNL     1      -0.114   7.776  -2.013  1.00  0.00    -0.000 C 
BRANCH  17  18
ATOM     18  C   UNL     1      -1.163   8.752  -1.450  1.00  0.00    -0.003 C 
ATOM     19  C   UNL     1      -0.808   9.271  -0.057  1.00  0.00     0.004 C 
ENDBRANCH  17  18
ENDBRANCH  16  17
ENDBRANCH  15  16
ENDBRANCH  14  15
ENDBRANCH  13  14
ENDBRANCH  12  13
ENDBRANCH   1  12
TORSDOF 14
ENDMDL
