MODEL 1
REMARK VINA RESULT:    -4.380      0.000      0.000
REMARK INTER + INTRA:          -8.562
REMARK INTER:                  -7.452
REMARK INTRA:                  -1.109
REMARK UNBOUND:                -1.109
REMARK SMILES CCCCCCCCCCCCCC(=O)[O-]
REMARK SMILES IDX 8 1 9 2 10 3 11 4 12 5 13 6 14 7 15 8 16 9 7 10 6 11 5 12
REMARK SMILES IDX 4 13 3 14 2 15 1 16
REMARK H PARENT
REMARK Flexibility Score: inf
ROOT
ATOM      1  C   UNL     1     -14.727   2.574 -22.879  1.00  0.00     0.000 C 
ENDROOT
BRANCH   1   2
ATOM      2  C   UNL     1     -13.378   2.871 -22.199  1.00  0.00     0.000 C 
BRANCH   2   3
ATOM      3  C   UNL     1     -12.603   1.592 -21.842  1.00  0.00     0.000 C 
BRANCH   3   4
ATOM      4  C   UNL     1     -12.036   1.625 -20.413  1.00  0.00     0.000 C 
BRANCH   4   5
ATOM      5  C   UNL     1     -10.870   0.641 -20.217  1.00  0.00     0.006 C 
BRANCH   5   6
ATOM      6  C   UNL     1      -9.584   1.100 -20.915  1.00  0.00     0.053 C 
BRANCH   6   7
ATOM      7  C   UNL     1      -8.704   1.837 -19.955  1.00  0.00     0.041 C 
ATOM      8  O   UNL     1      -9.212   2.529 -19.034  1.00  0.00    -0.550 OA
ATOM      9  O   UNL     1      -7.322   1.721 -20.047  1.00  0.00    -0.550 OA
ENDBRANCH   6   7
ENDBRANCH   5   6
ENDBRANCH   4   5
ENDBRANCH   3   4
ENDBRANCH   2   3
ENDBRANCH   1   2
BRANCH   1  10
ATOM     10  C   UNL     1     -15.917   2.735 -21.920  1.00  0.00     0.000 C 
BRANCH  10  11
ATOM     11  C   UNL     1     -15.602   3.667 -20.735  1.00  0.00    -0.000 C 
BRANCH  11  12
ATOM     12  C   UNL     1     -16.272   5.044 -20.876  1.00  0.00    -0.000 C 
BRANCH  12  13
ATOM     13  C   UNL     1     -15.631   5.900 -21.982  1.00  0.00    -0.000 C 
BRANCH  13  14
ATOM     14  C   UNL     1     -16.620   6.253 -23.104  1.00  0.00    -0.000 C 
BRANCH  14  15
ATOM     15  C   UNL     1     -16.097   5.867 -24.496  1.00  0.00    -0.003 C 
ATOM     16  C   UNL     1     -14.571   5.850 -24.523  1.00  0.00     0.004 C 
ENDBRANCH  14  15
ENDBRANCH  13  14
ENDBRANCH  12  13
ENDBRANCH  11  12
ENDBRANCH  10  11
ENDBRANCH   1  10
TORSDOF 12
ENDMDL
MODEL 2
REMARK VINA RESULT:    -4.315     14.853     16.895
REMARK INTER + INTRA:          -8.452
REMARK INTER:                  -7.437
REMARK INTRA:                  -1.015
REMARK UNBOUND:                -1.109
REMARK SMILES CCCCCCCCCCCCCC(=O)[O-]
REMARK SMILES IDX 8 1 9 2 10 3 11 4 12 5 13 6 14 7 15 8 16 9 7 10 6 11 5 12
REMARK SMILES IDX 4 13 3 14 2 15 1 16
REMARK H PARENT
REMARK Flexibility Score: inf
ROOT
ATOM      1  C   UNL     1      -6.157   7.043 -34.247  1.00  0.00     0.000 C 
ENDROOT
BRANCH   1   2
ATOM      2  C   UNL     1      -6.567   6.720 -32.799  1.00  0.00     0.000 C 
BRANCH   2   3
ATOM      3  C   UNL     1      -7.722   5.707 -32.726  1.00  0.00     0.000 C 
BRANCH   3   4
ATOM      4  C   UNL     1      -8.382   5.465 -34.093  1.00  0.00     0.000 C 
BRANCH   4   5
ATOM      5  C   UNL     1      -8.446   3.974 -34.463  1.00  0.00     0.006 C 
BRANCH   5   6
ATOM      6  C   UNL     1      -7.091   3.419 -34.922  1.00  0.00     0.053 C 
BRANCH   6   7
ATOM      7  C   UNL     1      -6.916   3.622 -36.394  1.00  0.00     0.041 C 
ATOM      8  O   UNL     1      -7.886   3.446 -37.177  1.00  0.00    -0.550 OA
ATOM      9  O   UNL     1      -5.694   4.053 -36.897  1.00  0.00    -0.550 OA
ENDBRANCH   6   7
ENDBRANCH   5   6
ENDBRANCH   4   5
ENDBRANCH   3   4
ENDBRANCH   2   3
ENDBRANCH   1   2
BRANCH   1  10
ATOM     10  C   UNL     1      -4.665   7.395 -34.372  1.00  0.00     0.000 C 
BRANCH  10  11
ATOM     11  C   UNL     1      -4.421   8.912 -34.474  1.00  0.00    -0.000 C 
BRANCH  11  12
ATOM     12  C   UNL     1      -2.925   9.267 -34.476  1.00  0.00    -0.000 C 
BRANCH  12  13
ATOM     13  C   UNL     1      -2.030   8.051 -34.175  1.00  0.00    -0.000 C 
BRANCH  13  14
ATOM     14  C   UNL     1      -1.051   7.742 -35.318  1.00  0.00    -0.000 C 
BRANCH  14  15
ATOM     15  C   UNL     1      -1.762   7.520 -36.661  1.00  0.00    -0.003 C 
ATOM     16  C   UNL     1      -1.370   8.593 -37.673  1.00  0.00     0.004 C 
ENDBRANCH  14  15
ENDBRANCH  13  14
ENDBRANCH  12  13
ENDBRANCH  11  12
ENDBRANCH  10  11
ENDBRANCH   1  10
TORSDOF 12
ENDMDL
MODEL 3
REMARK VINA RESULT:    -4.279     14.785     16.719
REMARK INTER + INTRA:          -8.391
REMARK INTER:                  -7.364
REMARK INTRA:                  -1.027
REMARK UNBOUND:                -1.109
REMARK SMILES CCCCCCCCCCCCCC(=O)[O-]
REMARK SMILES IDX 8 1 9 2 10 3 11 4 12 5 13 6 14 7 15 8 16 9 7 10 6 11 5 12
REMARK SMILES IDX 4 13 3 14 2 15 1 16
REMARK H PARENT
REMARK Flexibility Score: inf
ROOT
ATOM      1  C   UNL     1      -7.679   5.869 -32.537  1.00  0.00     0.000 C 
ENDROOT
BRANCH   1   2
ATOM      2  C   UNL     1      -8.389   5.421 -33.827  1.00  0.00     0.000 C 
BRANCH   2   3
ATOM      3  C   UNL     1      -8.202   3.922 -34.113  1.00  0.00     0.000 C 
BRANCH   3   4
ATOM      4  C   UNL     1      -7.801   3.644 -35.571  1.00  0.00     0.000 C 
BRANCH   4   5
ATOM      5  C   UNL     1      -6.289   3.421 -35.736  1.00  0.00     0.006 C 
BRANCH   5   6
ATOM      6  C   UNL     1      -5.854   3.374 -37.207  1.00  0.00     0.053 C 
BRANCH   6   7
ATOM      7  C   UNL     1      -5.342   4.712 -37.641  1.00  0.00     0.041 C 
ATOM      8  O   UNL     1      -4.109   4.889 -37.827  1.00  0.00    -0.550 OA
ATOM      9  O   UNL     1      -6.231   5.750 -37.889  1.00  0.00    -0.550 OA
ENDBRANCH   6   7
ENDBRANCH   5   6
ENDBRANCH   4   5
ENDBRANCH   3   4
ENDBRANCH   2   3
ENDBRANCH   1   2
BRANCH   1  10
ATOM     10  C   UNL     1      -6.629   6.963 -32.792  1.00  0.00     0.000 C 
BRANCH  10  11
ATOM     11  C   UNL     1      -5.796   6.701 -34.060  1.00  0.00    -0.000 C 
BRANCH  11  12
ATOM     12  C   UNL     1      -5.466   7.993 -34.824  1.00  0.00    -0.000 C 
BRANCH  12  13
ATOM     13  C   UNL     1      -4.224   7.847 -35.721  1.00  0.00    -0.000 C 
BRANCH  13  14
ATOM     14  C   UNL     1      -2.983   8.532 -35.127  1.00  0.00    -0.000 C 
BRANCH  14  15
ATOM     15  C   UNL     1      -1.675   8.041 -35.766  1.00  0.00    -0.003 C 
ATOM     16  C   UNL     1      -0.878   7.181 -34.790  1.00  0.00     0.004 C 
ENDBRANCH  14  15
ENDBRANCH  13  14
ENDBRANCH  12  13
ENDBRANCH  11  12
ENDBRANCH  10  11
ENDBRANCH   1  10
TORSDOF 12
ENDMDL
MODEL 4
REMARK VINA RESULT:    -4.262     15.638     17.832
REMARK INTER + INTRA:          -8.361
REMARK INTER:                  -6.838
REMARK INTRA:                  -1.523
REMARK UNBOUND:                -1.109
REMARK SMILES CCCCCCCCCCCCCC(=O)[O-]
REMARK SMILES IDX 8 1 9 2 10 3 11 4 12 5 13 6 14 7 15 8 16 9 7 10 6 11 5 12
REMARK SMILES IDX 4 13 3 14 2 15 1 16
REMARK H PARENT
REMARK Flexibility Score: inf
ROOT
ATOM      1  C   UNL     1      -3.081   6.458 -37.627  1.00  0.00     0.000 C 
ENDROOT
BRANCH   1   2
ATOM      2  C   UNL     1      -4.519   6.374 -38.171  1.00  0.00     0.000 C 
BRANCH   2   3
ATOM      3  C   UNL     1      -5.561   6.189 -37.055  1.00  0.00     0.000 C 
BRANCH   3   4
ATOM      4  C   UNL     1      -5.544   7.341 -36.036  1.00  0.00     0.000 C 
BRANCH   4   5
ATOM      5  C   UNL     1      -6.099   6.923 -34.664  1.00  0.00     0.006 C 
BRANCH   5   6
ATOM      6  C   UNL     1      -6.835   5.578 -34.707  1.00  0.00     0.053 C 
BRANCH   6   7
ATOM      7  C   UNL     1      -8.015   5.600 -33.786  1.00  0.00     0.041 C 
ATOM      8  O   UNL     1      -9.182   5.514 -34.251  1.00  0.00    -0.550 OA
ATOM      9  O   UNL     1      -7.824   5.666 -32.412  1.00  0.00    -0.550 OA
ENDBRANCH   6   7
ENDBRANCH   5   6
ENDBRANCH   4   5
ENDBRANCH   3   4
ENDBRANCH   2   3
ENDBRANCH   1   2
BRANCH   1  10
ATOM     10  C   UNL     1      -2.378   7.766 -38.024  1.00  0.00     0.000 C 
BRANCH  10  11
ATOM     11  C   UNL     1      -1.274   8.172 -37.029  1.00  0.00    -0.000 C 
BRANCH  11  12
ATOM     12  C   UNL     1      -1.117   7.161 -35.882  1.00  0.00    -0.000 C 
BRANCH  12  13
ATOM     13  C   UNL     1      -1.208   7.824 -34.496  1.00  0.00    -0.000 C 
BRANCH  13  14
ATOM     14  C   UNL     1      -2.632   8.292 -34.157  1.00  0.00    -0.000 C 
BRANCH  14  15
ATOM     15  C   UNL     1      -2.734   9.818 -34.020  1.00  0.00    -0.003 C 
ATOM     16  C   UNL     1      -3.555  10.417 -35.158  1.00  0.00     0.004 C 
ENDBRANCH  14  15
ENDBRANCH  13  14
ENDBRANCH  12  13
ENDBRANCH  11  12
ENDBRANCH  10  11
ENDBRANCH   1  10
TORSDOF 12
ENDMDL
MODEL 5
REMARK VINA RESULT:    -4.253     14.706     16.713
REMARK INTER + INTRA:          -8.345
REMARK INTER:                  -7.084
REMARK INTRA:                  -1.261
REMARK UNBOUND:                -1.109
REMARK SMILES CCCCCCCCCCCCCC(=O)[O-]
REMARK SMILES IDX 8 1 9 2 10 3 11 4 12 5 13 6 14 7 15 8 16 9 7 10 6 11 5 12
REMARK SMILES IDX 4 13 3 14 2 15 1 16
REMARK H PARENT
REMARK Flexibility Score: inf
ROOT
ATOM      1  C   UNL     1      -8.106   6.053 -32.714  1.00  0.00     0.000 C 
ENDROOT
BRANCH   1   2
ATOM      2  C   UNL     1      -6.888   6.921 -32.350  1.00  0.00     0.000 C 
BRANCH   2   3
ATOM      3  C   UNL     1      -5.751   6.800 -33.378  1.00  0.00     0.000 C 
BRANCH   3   4
ATOM      4  C   UNL     1      -5.783   7.922 -34.429  1.00  0.00     0.000 C 
BRANCH   4   5
ATOM      5  C   UNL     1      -5.724   7.384 -35.869  1.00  0.00     0.006 C 
BRANCH   5   6
ATOM      6  C   UNL     1      -4.436   7.786 -36.599  1.00  0.00     0.053 C 
BRANCH   6   7
ATOM      7  C   UNL     1      -4.161   6.842 -37.727  1.00  0.00     0.041 C 
ATOM      8  O   UNL     1      -4.955   6.771 -38.702  1.00  0.00    -0.550 OA
ATOM      9  O   UNL     1      -3.001   6.076 -37.726  1.00  0.00    -0.550 OA
ENDBRANCH   6   7
ENDBRANCH   5   6
ENDBRANCH   4   5
ENDBRANCH   3   4
ENDBRANCH   2   3
ENDBRANCH   1   2
BRANCH   1  10
ATOM     10  C   UNL     1      -7.717   4.795 -33.507  1.00  0.00     0.000 C 
BRANCH  10  11
ATOM     11  C   UNL     1      -8.699   4.489 -34.653  1.00  0.00    -0.000 C 
BRANCH  11  12
ATOM     12  C   UNL     1      -8.164   3.416 -35.615  1.00  0.00    -0.000 C 
BRANCH  12  13
ATOM     13  C   UNL     1      -6.635   3.263 -35.535  1.00  0.00    -0.000 C 
BRANCH  13  14
ATOM     14  C   UNL     1      -5.916   3.883 -36.744  1.00  0.00    -0.000 C 
BRANCH  14  15
ATOM     15  C   UNL     1      -5.427   2.825 -37.745  1.00  0.00    -0.003 C 
ATOM     16  C   UNL     1      -3.938   2.547 -37.566  1.00  0.00     0.004 C 
ENDBRANCH  14  15
ENDBRANCH  13  14
ENDBRANCH  12  13
ENDBRANCH  11  12
ENDBRANCH  10  11
ENDBRANCH   1  10
TORSDOF 12
ENDMDL
MODEL 6
REMARK VINA RESULT:    -4.199     14.793     16.825
REMARK INTER + INTRA:          -8.254
REMARK INTER:                  -6.929
REMARK INTRA:                  -1.325
REMARK UNBOUND:                -1.109
REMARK SMILES CCCCCCCCCCCCCC(=O)[O-]
REMARK SMILES IDX 8 1 9 2 10 3 11 4 12 5 13 6 14 7 15 8 16 9 7 10 6 11 5 12
REMARK SMILES IDX 4 13 3 14 2 15 1 16
REMARK H PARENT
REMARK Flexibility Score: inf
ROOT
ATOM      1  C   UNL     1      -4.978   5.904 -36.824  1.00  0.00     0.000 C 
ENDROOT
BRANCH   1   2
ATOM      2  C   UNL     1      -5.601   4.772 -37.662  1.00  0.00     0.000 C 
BRANCH   2   3
ATOM      3  C   UNL     1      -6.206   3.659 -36.791  1.00  0.00     0.000 C 
BRANCH   3   4
ATOM      4  C   UNL     1      -7.743   3.655 -36.823  1.00  0.00     0.000 C 
BRANCH   4   5
ATOM      5  C   UNL     1      -8.361   3.253 -35.473  1.00  0.00     0.006 C 
BRANCH   5   6
ATOM      6  C   UNL     1      -7.573   3.797 -34.275  1.00  0.00     0.053 C 
BRANCH   6   7
ATOM      7  C   UNL     1      -8.250   5.008 -33.713  1.00  0.00     0.041 C 
ATOM      8  O   UNL     1      -9.225   5.526 -34.317  1.00  0.00    -0.550 OA
ATOM      9  O   UNL     1      -7.835   5.535 -32.496  1.00  0.00    -0.550 OA
ENDBRANCH   6   7
ENDBRANCH   5   6
ENDBRANCH   4   5
ENDBRANCH   3   4
ENDBRANCH   2   3
ENDBRANCH   1   2
BRANCH   1  10
ATOM     10  C   UNL     1      -6.037   6.739 -36.084  1.00  0.00     0.000 C 
BRANCH  10  11
ATOM     11  C   UNL     1      -5.516   7.314 -34.754  1.00  0.00    -0.000 C 
BRANCH  11  12
ATOM     12  C   UNL     1      -4.821   8.673 -34.934  1.00  0.00    -0.000 C 
BRANCH  12  13
ATOM     13  C   UNL     1      -3.294   8.582 -34.759  1.00  0.00    -0.000 C 
BRANCH  13  14
ATOM     14  C   UNL     1      -2.539   8.712 -36.091  1.00  0.00    -0.000 C 
BRANCH  14  15
ATOM     15  C   UNL     1      -1.605   7.522 -36.359  1.00  0.00    -0.003 C 
ATOM     16  C   UNL     1      -0.875   7.101 -35.086  1.00  0.00     0.004 C 
ENDBRANCH  14  15
ENDBRANCH  13  14
ENDBRANCH  12  13
ENDBRANCH  11  12
ENDBRANCH  10  11
ENDBRANCH   1  10
TORSDOF 12
ENDMDL
MODEL 7
REMARK VINA RESULT:    -4.180     14.897     17.048
REMARK INTER + INTRA:          -8.222
REMARK INTER:                  -6.872
REMARK INTRA:                  -1.349
REMARK UNBOUND:                -1.109
REMARK SMILES CCCCCCCCCCCCCC(=O)[O-]
REMARK SMILES IDX 8 1 9 2 10 3 11 4 12 5 13 6 14 7 15 8 16 9 7 10 6 11 5 12
REMARK SMILES IDX 4 13 3 14 2 15 1 16
REMARK H PARENT
REMARK Flexibility Score: inf
ROOT
ATOM      1  C   UNL     1      -5.121   8.456 -35.357  1.00  0.00     0.000 C 
ENDROOT
BRANCH   1   2
ATOM      2  C   UNL     1      -5.998   7.218 -35.096  1.00  0.00     0.000 C 
BRANCH   2   3
ATOM      3  C   UNL     1      -5.766   6.615 -33.700  1.00  0.00     0.000 C 
BRANCH   3   4
ATOM      4  C   UNL     1      -6.985   6.778 -32.777  1.00  0.00     0.000 C 
BRANCH   4   5
ATOM      5  C   UNL     1      -8.171   5.897 -33.205  1.00  0.00     0.006 C 
BRANCH   5   6
ATOM      6  C   UNL     1      -7.750   4.464 -33.555  1.00  0.00     0.053 C 
BRANCH   6   7
ATOM      7  C   UNL     1      -8.373   4.039 -34.848  1.00  0.00     0.041 C 
ATOM      8  O   UNL     1      -8.152   4.691 -35.902  1.00  0.00    -0.550 OA
ATOM      9  O   UNL     1      -9.157   2.894 -34.898  1.00  0.00    -0.550 OA
ENDBRANCH   6   7
ENDBRANCH   5   6
ENDBRANCH   4   5
ENDBRANCH   3   4
ENDBRANCH   2   3
ENDBRANCH   1   2
BRANCH   1  10
ATOM     10  C   UNL     1      -4.163   8.755 -34.193  1.00  0.00     0.000 C 
BRANCH  10  11
ATOM     11  C   UNL     1      -2.736   9.084 -34.668  1.00  0.00    -0.000 C 
BRANCH  11  12
ATOM     12  C   UNL     1      -1.715   8.015 -34.247  1.00  0.00    -0.000 C 
BRANCH  12  13
ATOM     13  C   UNL     1      -0.985   7.391 -35.450  1.00  0.00    -0.000 C 
BRANCH  13  14
ATOM     14  C   UNL     1      -1.670   7.711 -36.787  1.00  0.00    -0.000 C 
BRANCH  14  15
ATOM     15  C   UNL     1      -2.510   6.539 -37.315  1.00  0.00    -0.003 C 
ATOM     16  C   UNL     1      -3.500   7.008 -38.377  1.00  0.00     0.004 C 
ENDBRANCH  14  15
ENDBRANCH  13  14
ENDBRANCH  12  13
ENDBRANCH  11  12
ENDBRANCH  10  11
ENDBRANCH   1  10
TORSDOF 12
ENDMDL
MODEL 8
REMARK VINA RESULT:    -4.160     15.647     17.570
REMARK INTER + INTRA:          -8.188
REMARK INTER:                  -7.090
REMARK INTRA:                  -1.098
REMARK UNBOUND:                -1.109
REMARK SMILES CCCCCCCCCCCCCC(=O)[O-]
REMARK SMILES IDX 8 1 9 2 10 3 11 4 12 5 13 6 14 7 15 8 16 9 7 10 6 11 5 12
REMARK SMILES IDX 4 13 3 14 2 15 1 16
REMARK H PARENT
REMARK Flexibility Score: inf
ROOT
ATOM      1  C   UNL     1      -2.851   6.605 -37.552  1.00  0.00     0.000 C 
ENDROOT
BRANCH   1   2
ATOM      2  C   UNL     1      -2.036   7.876 -37.854  1.00  0.00     0.000 C 
BRANCH   2   3
ATOM      3  C   UNL     1      -1.061   8.234 -36.720  1.00  0.00     0.000 C 
BRANCH   3   4
ATOM      4  C   UNL     1      -1.187   7.290 -35.513  1.00  0.00     0.000 C 
BRANCH   4   5
ATOM      5  C   UNL     1      -1.666   8.013 -34.244  1.00  0.00     0.006 C 
BRANCH   5   6
ATOM      6  C   UNL     1      -3.038   8.675 -34.420  1.00  0.00     0.053 C 
BRANCH   6   7
ATOM      7  C   UNL     1      -2.968  10.126 -34.059  1.00  0.00     0.041 C 
ATOM      8  O   UNL     1      -2.242  10.506 -33.104  1.00  0.00    -0.550 OA
ATOM      9  O   UNL     1      -3.666  11.064 -34.809  1.00  0.00    -0.550 OA
ENDBRANCH   6   7
ENDBRANCH   5   6
ENDBRANCH   4   5
ENDBRANCH   3   4
ENDBRANCH   2   3
ENDBRANCH   1   2
BRANCH   1  10
ATOM     10  C   UNL     1      -4.334   6.754 -37.928  1.00  0.00     0.000 C 
BRANCH  10  11
ATOM     11  C   UNL     1      -5.268   5.993 -36.969  1.00  0.00    -0.000 C 
BRANCH  11  12
ATOM     12  C   UNL     1      -6.183   6.934 -36.170  1.00  0.00    -0.000 C 
BRANCH  12  13
ATOM     13  C   UNL     1      -6.134   6.660 -34.656  1.00  0.00    -0.000 C 
BRANCH  13  14
ATOM     14  C   UNL     1      -7.113   5.557 -34.224  1.00  0.00    -0.000 C 
BRANCH  14  15
ATOM     15  C   UNL     1      -7.734   5.827 -32.844  1.00  0.00    -0.003 C 
ATOM     16  C   UNL     1      -6.909   6.845 -32.062  1.00  0.00     0.004 C 
ENDBRANCH  14  15
ENDBRANCH  13  14
ENDBRANCH  12  13
ENDBRANCH  11  12
ENDBRANCH  10  11
ENDBRANCH   1  10
TORSDOF 12
ENDMDL
MODEL 9
REMARK VINA RESULT:    -4.142      5.383      7.679
REMARK INTER + INTRA:          -8.158
REMARK INTER:                  -6.691
REMARK INTRA:                  -1.467
REMARK UNBOUND:                -1.109
REMARK SMILES CCCCCCCCCCCCCC(=O)[O-]
REMARK SMILES IDX 8 1 9 2 10 3 11 4 12 5 13 6 14 7 15 8 16 9 7 10 6 11 5 12
REMARK SMILES IDX 4 13 3 14 2 15 1 16
REMARK H PARENT
REMARK Flexibility Score: inf
ROOT
ATOM      1  C   UNL     1     -13.011  -2.770 -23.906  1.00  0.00     0.000 C 
ENDROOT
BRANCH   1   2
ATOM      2  C   UNL     1     -12.514  -3.659 -22.752  1.00  0.00     0.000 C 
BRANCH   2   3
ATOM      3  C   UNL     1     -11.983  -2.840 -21.563  1.00  0.00     0.000 C 
BRANCH   3   4
ATOM      4  C   UNL     1     -11.797  -1.353 -21.908  1.00  0.00     0.000 C 
BRANCH   4   5
ATOM      5  C   UNL     1     -10.320  -0.969 -22.092  1.00  0.00     0.006 C 
BRANCH   5   6
ATOM      6  C   UNL     1     -10.140   0.319 -22.906  1.00  0.00     0.053 C 
BRANCH   6   7
ATOM      7  C   UNL     1      -9.820   1.467 -22.001  1.00  0.00     0.041 C 
ATOM      8  O   UNL     1     -10.739   2.216 -21.577  1.00  0.00    -0.550 OA
ATOM      9  O   UNL     1      -8.512   1.681 -21.584  1.00  0.00    -0.550 OA
ENDBRANCH   6   7
ENDBRANCH   5   6
ENDBRANCH   4   5
ENDBRANCH   3   4
ENDBRANCH   2   3
ENDBRANCH   1   2
BRANCH   1  10
ATOM     10  C   UNL     1     -12.320  -3.097 -25.240  1.00  0.00     0.000 C 
BRANCH  10  11
ATOM     11  C   UNL     1     -10.844  -3.498 -25.061  1.00  0.00    -0.000 C 
BRANCH  11  12
ATOM     12  C   UNL     1      -9.877  -2.369 -25.452  1.00  0.00    -0.000 C 
BRANCH  12  13
ATOM     13  C   UNL     1      -8.864  -2.807 -26.525  1.00  0.00    -0.000 C 
BRANCH  13  14
ATOM     14  C   UNL     1      -9.185  -2.228 -27.912  1.00  0.00    -0.000 C 
BRANCH  14  15
ATOM     15  C   UNL     1      -9.900  -3.238 -28.822  1.00  0.00    -0.003 C 
ATOM     16  C   UNL     1     -11.387  -2.914 -28.938  1.00  0.00     0.004 C 
ENDBRANCH  14  15
ENDBRANCH  13  14
ENDBRANCH  12  13
ENDBRANCH  11  12
ENDBRANCH  10  11
ENDBRANCH   1  10
TORSDOF 12
ENDMDL
