MODEL 1
REMARK VINA RESULT:     6.935      0.000      0.000
REMARK INTER + INTRA:          11.033
REMARK INTER:                   9.976
REMARK INTRA:                   1.057
REMARK UNBOUND:                 1.057
REMARK SMILES O=c1c(O[C@@H]2O[C@H](CO)[C@@H](O)[C@@H](O)[C@@H]2O)c(-c2ccc(O)cc2)oc2cc(O)cc(O)c12
REMARK SMILES IDX 4 1 3 2 16 3 24 4 2 5 25 6 1 7 32 8 26 9 30 10 27 11 29 12
REMARK SMILES IDX 17 13 18 14 19 15 20 16 23 17 22 18 21 19 31 21 28 23 5 25
REMARK SMILES IDX 14 26 6 27 12 28 7 29 10 30 15 31 13 33 8 35 9 36 11 38
REMARK H PARENT 21 20 31 22 28 24 15 32 13 34 9 37 11 39
REMARK Flexibility Score: inf
ROOT
ATOM      1  O   UNL     1     -23.786  24.910 -30.760  1.00  0.00    -0.454 OA
ENDROOT
BRANCH   1   2
ATOM      2  C   UNL     1     -23.698  25.840 -31.814  1.00  0.00     0.214 A 
ATOM      3  C   UNL     1     -23.099  27.097 -31.609  1.00  0.00     0.180 A 
ATOM      4  O   UNL     1     -22.866  27.885 -32.653  1.00  0.00    -0.452 OA
ATOM      5  C   UNL     1     -24.180  25.520 -33.097  1.00  0.00     0.239 A 
ATOM      6  C   UNL     1     -23.206  27.574 -33.901  1.00  0.00     0.146 A 
ATOM      7  O   UNL     1     -24.917  24.509 -33.230  1.00  0.00    -0.285 OA
ATOM      8  C   UNL     1     -23.891  26.368 -34.192  1.00  0.00     0.111 A 
ATOM      9  C   UNL     1     -22.889  28.475 -34.919  1.00  0.00     0.094 A 
ATOM     10  C   UNL     1     -24.259  26.107 -35.549  1.00  0.00     0.134 A 
ATOM     11  C   UNL     1     -23.266  28.222 -36.232  1.00  0.00     0.123 A 
ATOM     12  C   UNL     1     -23.958  27.048 -36.540  1.00  0.00     0.093 A 
BRANCH   3  13
ATOM     13  C   UNL     1     -22.675  27.583 -30.271  1.00  0.00     0.021 A 
ATOM     14  C   UNL     1     -23.500  28.406 -29.476  1.00  0.00     0.016 A 
ATOM     15  C   UNL     1     -23.072  28.836 -28.220  1.00  0.00     0.047 A 
ATOM     16  C   UNL     1     -21.795  28.500 -27.760  1.00  0.00     0.115 A 
ATOM     17  C   UNL     1     -21.380  27.283 -29.814  1.00  0.00     0.016 A 
ATOM     18  C   UNL     1     -20.945  27.744 -28.567  1.00  0.00     0.047 A 
BRANCH  16  19
ATOM     19  O   UNL     1     -21.361  28.923 -26.504  1.00  0.00    -0.508 OA
ATOM     20  H   UNL     1     -21.984  29.393 -25.860  1.00  0.00     0.293 HD
ENDBRANCH  16  19
ENDBRANCH   3  13
BRANCH  10  21
ATOM     21  O   UNL     1     -24.903  24.941 -35.971  1.00  0.00    -0.507 OA
ATOM     22  H   UNL     1     -24.519  24.246 -36.592  1.00  0.00     0.293 HD
ENDBRANCH  10  21
BRANCH  11  23
ATOM     23  O   UNL     1     -22.908  29.124 -37.233  1.00  0.00    -0.508 OA
ATOM     24  H   UNL     1     -23.125  28.950 -38.211  1.00  0.00     0.293 HD
ENDBRANCH  11  23
ENDBRANCH   1   2
BRANCH   1  25
ATOM     25  C   UNL     1     -24.008  25.300 -29.396  1.00  0.00     0.339 C 
ATOM     26  C   UNL     1     -25.158  24.492 -28.756  1.00  0.00     0.214 C 
ATOM     27  O   UNL     1     -22.798  25.253 -28.659  1.00  0.00    -0.332 OA
ATOM     28  C   UNL     1     -24.708  23.081 -28.282  1.00  0.00     0.180 C 
ATOM     29  C   UNL     1     -22.331  23.956 -28.306  1.00  0.00     0.179 C 
ATOM     30  C   UNL     1     -23.258  22.774 -28.687  1.00  0.00     0.177 C 
BRANCH  26  31
ATOM     31  O   UNL     1     -26.209  24.382 -29.683  1.00  0.00    -0.384 OA
ATOM     32  H   UNL     1     -26.554  25.302 -29.835  1.00  0.00     0.211 HD
ENDBRANCH  26  31
BRANCH  28  33
ATOM     33  O   UNL     1     -24.884  22.925 -26.893  1.00  0.00    -0.387 OA
ATOM     34  H   UNL     1     -25.240  22.016 -26.723  1.00  0.00     0.211 HD
ENDBRANCH  28  33
BRANCH  29  35
ATOM     35  C   UNL     1     -20.914  23.768 -28.880  1.00  0.00     0.191 C 
BRANCH  35  36
ATOM     36  O   UNL     1     -20.875  23.974 -30.269  1.00  0.00    -0.394 OA
ATOM     37  H   UNL     1     -20.321  24.786 -30.426  1.00  0.00     0.210 HD
ENDBRANCH  35  36
ENDBRANCH  29  35
BRANCH  30  38
ATOM     38  O   UNL     1     -22.812  21.601 -28.052  1.00  0.00    -0.387 OA
ATOM     39  H   UNL     1     -22.011  21.290 -28.555  1.00  0.00     0.211 HD
ENDBRANCH  30  38
ENDBRANCH   1  25
TORSDOF 11
ENDMDL
MODEL 2
REMARK VINA RESULT:     7.244      2.271      5.079
REMARK INTER + INTRA:          11.477
REMARK INTER:                  10.879
REMARK INTRA:                   0.599
REMARK UNBOUND:                 1.057
REMARK SMILES O=c1c(O[C@@H]2O[C@H](CO)[C@@H](O)[C@@H](O)[C@@H]2O)c(-c2ccc(O)cc2)oc2cc(O)cc(O)c12
REMARK SMILES IDX 4 1 3 2 16 3 24 4 2 5 25 6 1 7 32 8 26 9 30 10 27 11 29 12
REMARK SMILES IDX 17 13 18 14 19 15 20 16 23 17 22 18 21 19 31 21 28 23 5 25
REMARK SMILES IDX 14 26 6 27 12 28 7 29 10 30 15 31 13 33 8 35 9 36 11 38
REMARK H PARENT 21 20 31 22 28 24 15 32 13 34 9 37 11 39
REMARK Flexibility Score: inf
ROOT
ATOM      1  O   UNL     1     -23.572  25.014 -32.159  1.00  0.00    -0.454 OA
ENDROOT
BRANCH   1   2
ATOM      2  C   UNL     1     -24.046  25.573 -33.361  1.00  0.00     0.214 A 
ATOM      3  C   UNL     1     -25.356  25.307 -33.805  1.00  0.00     0.180 A 
ATOM      4  O   UNL     1     -25.841  25.982 -34.841  1.00  0.00    -0.452 OA
ATOM      5  C   UNL     1     -23.232  26.430 -34.127  1.00  0.00     0.239 A 
ATOM      6  C   UNL     1     -25.143  26.882 -35.526  1.00  0.00     0.146 A 
ATOM      7  O   UNL     1     -22.003  26.485 -33.866  1.00  0.00    -0.285 OA
ATOM      8  C   UNL     1     -23.789  27.153 -35.207  1.00  0.00     0.111 A 
ATOM      9  C   UNL     1     -25.770  27.543 -36.584  1.00  0.00     0.094 A 
ATOM     10  C   UNL     1     -23.081  28.108 -36.003  1.00  0.00     0.134 A 
ATOM     11  C   UNL     1     -25.069  28.456 -37.363  1.00  0.00     0.123 A 
ATOM     12  C   UNL     1     -23.729  28.726 -37.079  1.00  0.00     0.093 A 
BRANCH   3  13
ATOM     13  C   UNL     1     -26.249  24.321 -33.144  1.00  0.00     0.021 A 
ATOM     14  C   UNL     1     -26.931  23.323 -33.871  1.00  0.00     0.016 A 
ATOM     15  C   UNL     1     -27.754  22.408 -33.215  1.00  0.00     0.047 A 
ATOM     16  C   UNL     1     -27.958  22.508 -31.835  1.00  0.00     0.115 A 
ATOM     17  C   UNL     1     -26.490  24.435 -31.764  1.00  0.00     0.016 A 
ATOM     18  C   UNL     1     -27.342  23.534 -31.118  1.00  0.00     0.047 A 
BRANCH  16  19
ATOM     19  O   UNL     1     -28.777  21.595 -31.172  1.00  0.00    -0.508 OA
ATOM     20  H   UNL     1     -28.397  20.773 -30.722  1.00  0.00     0.293 HD
ENDBRANCH  16  19
ENDBRANCH   3  13
BRANCH  10  21
ATOM     21  O   UNL     1     -21.758  28.490 -35.769  1.00  0.00    -0.507 OA
ATOM     22  H   UNL     1     -21.123  28.055 -35.119  1.00  0.00     0.293 HD
ENDBRANCH  10  21
BRANCH  11  23
ATOM     23  O   UNL     1     -25.730  29.124 -38.394  1.00  0.00    -0.508 OA
ATOM     24  H   UNL     1     -25.439  30.048 -38.704  1.00  0.00     0.293 HD
ENDBRANCH  11  23
ENDBRANCH   1   2
BRANCH   1  25
ATOM     25  C   UNL     1     -24.207  25.243 -30.892  1.00  0.00     0.339 C 
ATOM     26  C   UNL     1     -23.355  24.700 -29.724  1.00  0.00     0.214 C 
ATOM     27  O   UNL     1     -24.565  26.608 -30.751  1.00  0.00    -0.332 OA
ATOM     28  C   UNL     1     -22.203  25.664 -29.324  1.00  0.00     0.180 C 
ATOM     29  C   UNL     1     -23.498  27.510 -30.479  1.00  0.00     0.179 C 
ATOM     30  C   UNL     1     -22.102  26.867 -30.274  1.00  0.00     0.177 C 
BRANCH  26  31
ATOM     31  O   UNL     1     -22.836  23.445 -30.084  1.00  0.00    -0.384 OA
ATOM     32  H   UNL     1     -23.584  22.793 -30.011  1.00  0.00     0.211 HD
ENDBRANCH  26  31
BRANCH  28  33
ATOM     33  O   UNL     1     -22.332  26.093 -27.987  1.00  0.00    -0.387 OA
ATOM     34  H   UNL     1     -21.692  26.834 -27.833  1.00  0.00     0.211 HD
ENDBRANCH  28  33
BRANCH  29  35
ATOM     35  C   UNL     1     -23.466  28.585 -31.581  1.00  0.00     0.191 C 
BRANCH  35  36
ATOM     36  O   UNL     1     -22.185  28.733 -32.137  1.00  0.00    -0.394 OA
ATOM     37  H   UNL     1     -22.300  28.776 -33.125  1.00  0.00     0.210 HD
ENDBRANCH  35  36
ENDBRANCH  29  35
BRANCH  30  38
ATOM     38  O   UNL     1     -21.213  27.825 -29.758  1.00  0.00    -0.387 OA
ATOM     39  H   UNL     1     -21.544  28.064 -28.850  1.00  0.00     0.211 HD
ENDBRANCH  30  38
ENDBRANCH   1  25
TORSDOF 11
ENDMDL
