MODEL 1
REMARK VINA RESULT:    -5.085      0.000      0.000
REMARK INTER + INTRA:          -5.565
REMARK INTER:                  -5.530
REMARK INTRA:                  -0.034
REMARK UNBOUND:                -0.034
REMARK SMILES O=C([O-])c1ccc(O)cc1
REMARK SMILES IDX 7 1 6 2 9 3 5 4 10 5 4 6 8 7 2 9 1 10 3 11
REMARK H PARENT 8 8
REMARK Flexibility Score: inf
ROOT
ATOM      1  C   UNL     1     -32.678  10.350 -36.235  1.00  0.00     0.115 A 
ATOM      2  C   UNL     1     -33.407  11.497 -35.909  1.00  0.00     0.047 A 
ATOM      3  C   UNL     1     -32.114   9.572 -35.217  1.00  0.00     0.047 A 
ATOM      4  C   UNL     1     -33.572  11.870 -34.571  1.00  0.00     0.014 A 
ATOM      5  C   UNL     1     -32.277   9.940 -33.877  1.00  0.00     0.014 A 
ATOM      6  C   UNL     1     -33.009  11.094 -33.540  1.00  0.00    -0.003 A 
ENDROOT
BRANCH   1   7
ATOM      7  O   UNL     1     -32.522   9.991 -37.573  1.00  0.00    -0.508 OA
ATOM      8  H   UNL     1     -32.414   9.023 -37.852  1.00  0.00     0.293 HD
ENDBRANCH   1   7
BRANCH   6   9
ATOM      9  C   UNL     1     -33.180  11.482 -32.124  1.00  0.00     0.071 C 
ATOM     10  O   UNL     1     -32.348  11.113 -31.253  1.00  0.00    -0.545 OA
ATOM     11  O   UNL     1     -34.263  12.260 -31.733  1.00  0.00    -0.545 OA
ENDBRANCH   6   9
TORSDOF 2
ENDMDL
MODEL 2
REMARK VINA RESULT:    -4.984      1.456      4.252
REMARK INTER + INTRA:          -5.455
REMARK INTER:                  -5.420
REMARK INTRA:                  -0.035
REMARK UNBOUND:                -0.034
REMARK SMILES O=C([O-])c1ccc(O)cc1
REMARK SMILES IDX 7 1 6 2 9 3 5 4 10 5 4 6 8 7 2 9 1 10 3 11
REMARK H PARENT 8 8
REMARK Flexibility Score: inf
ROOT
ATOM      1  C   UNL     1     -33.113  10.002 -32.377  1.00  0.00     0.115 A 
ATOM      2  C   UNL     1     -33.088   9.017 -33.368  1.00  0.00     0.047 A 
ATOM      3  C   UNL     1     -33.357  11.336 -32.729  1.00  0.00     0.047 A 
ATOM      4  C   UNL     1     -33.305   9.358 -34.706  1.00  0.00     0.014 A 
ATOM      5  C   UNL     1     -33.576  11.682 -34.066  1.00  0.00     0.014 A 
ATOM      6  C   UNL     1     -33.553  10.696 -35.070  1.00  0.00    -0.003 A 
ENDROOT
BRANCH   1   7
ATOM      7  O   UNL     1     -32.894   9.648 -31.047  1.00  0.00    -0.508 OA
ATOM      8  H   UNL     1     -33.454  10.036 -30.297  1.00  0.00     0.293 HD
ENDBRANCH   1   7
BRANCH   6   9
ATOM      9  C   UNL     1     -33.784  11.063 -36.483  1.00  0.00     0.071 C 
ATOM     10  O   UNL     1     -33.497  10.258 -37.409  1.00  0.00    -0.545 OA
ATOM     11  O   UNL     1     -34.322  12.302 -36.810  1.00  0.00    -0.545 OA
ENDBRANCH   6   9
TORSDOF 2
ENDMDL
MODEL 3
REMARK VINA RESULT:    -4.941      1.250      4.037
REMARK INTER + INTRA:          -5.409
REMARK INTER:                  -5.373
REMARK INTRA:                  -0.036
REMARK UNBOUND:                -0.034
REMARK SMILES O=C([O-])c1ccc(O)cc1
REMARK SMILES IDX 7 1 6 2 9 3 5 4 10 5 4 6 8 7 2 9 1 10 3 11
REMARK H PARENT 8 8
REMARK Flexibility Score: inf
ROOT
ATOM      1  C   UNL     1     -32.716  10.197 -32.023  1.00  0.00     0.115 A 
ATOM      2  C   UNL     1     -33.451  11.298 -32.471  1.00  0.00     0.047 A 
ATOM      3  C   UNL     1     -32.182   9.294 -32.951  1.00  0.00     0.047 A 
ATOM      4  C   UNL     1     -33.655  11.500 -33.840  1.00  0.00     0.014 A 
ATOM      5  C   UNL     1     -32.383   9.492 -34.321  1.00  0.00     0.014 A 
ATOM      6  C   UNL     1     -33.121  10.598 -34.780  1.00  0.00    -0.003 A 
ENDROOT
BRANCH   1   7
ATOM      7  O   UNL     1     -32.522  10.009 -30.656  1.00  0.00    -0.508 OA
ATOM      8  H   UNL     1     -32.999  10.582 -29.970  1.00  0.00     0.293 HD
ENDBRANCH   1   7
BRANCH   6   9
ATOM      9  C   UNL     1     -33.332  10.806 -36.229  1.00  0.00     0.071 C 
ATOM     10  O   UNL     1     -32.878   9.982 -37.067  1.00  0.00    -0.545 OA
ATOM     11  O   UNL     1     -34.035  11.914 -36.686  1.00  0.00    -0.545 OA
ENDBRANCH   6   9
TORSDOF 2
ENDMDL
MODEL 4
REMARK VINA RESULT:    -4.689      1.424      4.584
REMARK INTER + INTRA:          -5.135
REMARK INTER:                  -5.105
REMARK INTRA:                  -0.030
REMARK UNBOUND:                -0.034
REMARK SMILES O=C([O-])c1ccc(O)cc1
REMARK SMILES IDX 7 1 6 2 9 3 5 4 10 5 4 6 8 7 2 9 1 10 3 11
REMARK H PARENT 8 8
REMARK Flexibility Score: inf
ROOT
ATOM      1  C   UNL     1     -32.868  11.261 -31.537  1.00  0.00     0.115 A 
ATOM      2  C   UNL     1     -32.130  10.087 -31.714  1.00  0.00     0.047 A 
ATOM      3  C   UNL     1     -33.618  11.777 -32.601  1.00  0.00     0.047 A 
ATOM      4  C   UNL     1     -32.138   9.430 -32.948  1.00  0.00     0.014 A 
ATOM      5  C   UNL     1     -33.630  11.122 -33.837  1.00  0.00     0.014 A 
ATOM      6  C   UNL     1     -32.890   9.940 -34.023  1.00  0.00    -0.003 A 
ENDROOT
BRANCH   1   7
ATOM      7  O   UNL     1     -32.851  11.906 -30.302  1.00  0.00    -0.508 OA
ATOM      8  H   UNL     1     -32.033  12.409 -29.979  1.00  0.00     0.293 HD
ENDBRANCH   1   7
BRANCH   6   9
ATOM      9  C   UNL     1     -32.902   9.249 -35.330  1.00  0.00     0.071 C 
ATOM     10  O   UNL     1     -33.992   8.988 -35.906  1.00  0.00    -0.545 OA
ATOM     11  O   UNL     1     -31.712   8.878 -35.942  1.00  0.00    -0.545 OA
ENDBRANCH   6   9
TORSDOF 2
ENDMDL
MODEL 5
REMARK VINA RESULT:    -4.569      1.663      4.291
REMARK INTER + INTRA:          -5.004
REMARK INTER:                  -4.973
REMARK INTRA:                  -0.031
REMARK UNBOUND:                -0.034
REMARK SMILES O=C([O-])c1ccc(O)cc1
REMARK SMILES IDX 7 1 6 2 9 3 5 4 10 5 4 6 8 7 2 9 1 10 3 11
REMARK H PARENT 8 8
REMARK Flexibility Score: inf
ROOT
ATOM      1  C   UNL     1     -33.059  11.741 -31.102  1.00  0.00     0.115 A 
ATOM      2  C   UNL     1     -33.871  12.108 -32.178  1.00  0.00     0.047 A 
ATOM      3  C   UNL     1     -32.175  10.662 -31.235  1.00  0.00     0.047 A 
ATOM      4  C   UNL     1     -33.806  11.402 -33.384  1.00  0.00     0.014 A 
ATOM      5  C   UNL     1     -32.105   9.954 -32.440  1.00  0.00     0.014 A 
ATOM      6  C   UNL     1     -32.920  10.318 -33.527  1.00  0.00    -0.003 A 
ENDROOT
BRANCH   1   7
ATOM      7  O   UNL     1     -33.135  12.453 -29.907  1.00  0.00    -0.508 OA
ATOM      8  H   UNL     1     -32.623  12.161 -29.083  1.00  0.00     0.293 HD
ENDBRANCH   1   7
BRANCH   6   9
ATOM      9  C   UNL     1     -32.845   9.568 -34.800  1.00  0.00     0.071 C 
ATOM     10  O   UNL     1     -31.729   9.279 -35.309  1.00  0.00    -0.545 OA
ATOM     11  O   UNL     1     -34.006   9.171 -35.453  1.00  0.00    -0.545 OA
ENDBRANCH   6   9
TORSDOF 2
ENDMDL
MODEL 6
REMARK VINA RESULT:    -4.550      1.734      2.241
REMARK INTER + INTRA:          -4.984
REMARK INTER:                  -4.955
REMARK INTRA:                  -0.029
REMARK UNBOUND:                -0.034
REMARK SMILES O=C([O-])c1ccc(O)cc1
REMARK SMILES IDX 7 1 6 2 9 3 5 4 10 5 4 6 8 7 2 9 1 10 3 11
REMARK H PARENT 8 8
REMARK Flexibility Score: inf
ROOT
ATOM      1  C   UNL     1     -34.014  10.990 -36.579  1.00  0.00     0.115 A 
ATOM      2  C   UNL     1     -34.075   9.623 -36.294  1.00  0.00     0.047 A 
ATOM      3  C   UNL     1     -33.732  11.901 -35.553  1.00  0.00     0.047 A 
ATOM      4  C   UNL     1     -33.856   9.163 -34.992  1.00  0.00     0.014 A 
ATOM      5  C   UNL     1     -33.512  11.446 -34.248  1.00  0.00     0.014 A 
ATOM      6  C   UNL     1     -33.571  10.071 -33.954  1.00  0.00    -0.003 A 
ENDROOT
BRANCH   1   7
ATOM      7  O   UNL     1     -34.234  11.433 -37.881  1.00  0.00    -0.508 OA
ATOM      8  H   UNL     1     -34.767  12.273 -38.071  1.00  0.00     0.293 HD
ENDBRANCH   1   7
BRANCH   6   9
ATOM      9  C   UNL     1     -33.339   9.591 -32.575  1.00  0.00     0.071 C 
ATOM     10  O   UNL     1     -32.245   9.821 -31.993  1.00  0.00    -0.545 OA
ATOM     11  O   UNL     1     -34.324   8.880 -31.901  1.00  0.00    -0.545 OA
ENDBRANCH   6   9
TORSDOF 2
ENDMDL
MODEL 7
REMARK VINA RESULT:    -4.272      1.531      4.686
REMARK INTER + INTRA:          -4.681
REMARK INTER:                  -4.653
REMARK INTRA:                  -0.027
REMARK UNBOUND:                -0.034
REMARK SMILES O=C([O-])c1ccc(O)cc1
REMARK SMILES IDX 7 1 6 2 9 3 5 4 10 5 4 6 8 7 2 9 1 10 3 11
REMARK H PARENT 8 8
REMARK Flexibility Score: inf
ROOT
ATOM      1  C   UNL     1     -33.641  11.059 -33.654  1.00  0.00     0.115 A 
ATOM      2  C   UNL     1     -33.932   9.704 -33.833  1.00  0.00     0.047 A 
ATOM      3  C   UNL     1     -33.439  11.879 -34.771  1.00  0.00     0.047 A 
ATOM      4  C   UNL     1     -34.018   9.166 -35.121  1.00  0.00     0.014 A 
ATOM      5  C   UNL     1     -33.525  11.346 -36.061  1.00  0.00     0.014 A 
ATOM      6  C   UNL     1     -33.817   9.982 -36.250  1.00  0.00    -0.003 A 
ENDROOT
BRANCH   1   7
ATOM      7  O   UNL     1     -33.558  11.581 -32.365  1.00  0.00    -0.508 OA
ATOM      8  H   UNL     1     -33.023  12.418 -32.167  1.00  0.00     0.293 HD
ENDBRANCH   1   7
BRANCH   6   9
ATOM      9  C   UNL     1     -33.908   9.420 -37.614  1.00  0.00     0.071 C 
ATOM     10  O   UNL     1     -32.866   9.187 -38.282  1.00  0.00    -0.545 OA
ATOM     11  O   UNL     1     -35.147   9.139 -38.179  1.00  0.00    -0.545 OA
ENDBRANCH   6   9
TORSDOF 2
ENDMDL
MODEL 8
REMARK VINA RESULT:    -4.260      2.243      3.043
REMARK INTER + INTRA:          -4.667
REMARK INTER:                  -4.640
REMARK INTRA:                  -0.027
REMARK UNBOUND:                -0.034
REMARK SMILES O=C([O-])c1ccc(O)cc1
REMARK SMILES IDX 7 1 6 2 9 3 5 4 10 5 4 6 8 7 2 9 1 10 3 11
REMARK H PARENT 8 8
REMARK Flexibility Score: inf
ROOT
ATOM      1  C   UNL     1     -33.330   9.767 -33.464  1.00  0.00     0.115 A 
ATOM      2  C   UNL     1     -32.393   9.393 -32.497  1.00  0.00     0.047 A 
ATOM      3  C   UNL     1     -33.961  11.014 -33.374  1.00  0.00     0.047 A 
ATOM      4  C   UNL     1     -32.085  10.259 -31.442  1.00  0.00     0.014 A 
ATOM      5  C   UNL     1     -33.656  11.883 -32.321  1.00  0.00     0.014 A 
ATOM      6  C   UNL     1     -32.714  11.514 -31.344  1.00  0.00    -0.003 A 
ENDROOT
BRANCH   1   7
ATOM      7  O   UNL     1     -33.627   8.894 -34.509  1.00  0.00    -0.508 OA
ATOM      8  H   UNL     1     -34.347   9.108 -35.189  1.00  0.00     0.293 HD
ENDBRANCH   1   7
BRANCH   6   9
ATOM      9  C   UNL     1     -32.393  12.434 -30.232  1.00  0.00     0.071 C 
ATOM     10  O   UNL     1     -31.298  13.058 -30.212  1.00  0.00    -0.545 OA
ATOM     11  O   UNL     1     -33.294  12.623 -29.191  1.00  0.00    -0.545 OA
ENDBRANCH   6   9
TORSDOF 2
ENDMDL
MODEL 9
REMARK VINA RESULT:    -4.220     17.726     18.595
REMARK INTER + INTRA:          -4.624
REMARK INTER:                  -4.597
REMARK INTRA:                  -0.027
REMARK UNBOUND:                -0.034
REMARK SMILES O=C([O-])c1ccc(O)cc1
REMARK SMILES IDX 7 1 6 2 9 3 5 4 10 5 4 6 8 7 2 9 1 10 3 11
REMARK H PARENT 8 8
REMARK Flexibility Score: inf
ROOT
ATOM      1  C   UNL     1     -22.747  24.131 -29.644  1.00  0.00     0.115 A 
ATOM      2  C   UNL     1     -22.010  25.274 -29.321  1.00  0.00     0.047 A 
ATOM      3  C   UNL     1     -23.862  24.240 -30.484  1.00  0.00     0.047 A 
ATOM      4  C   UNL     1     -22.381  26.521 -29.832  1.00  0.00     0.014 A 
ATOM      5  C   UNL     1     -24.238  25.485 -30.999  1.00  0.00     0.014 A 
ATOM      6  C   UNL     1     -23.500  26.640 -30.678  1.00  0.00    -0.003 A 
ENDROOT
BRANCH   1   7
ATOM      7  O   UNL     1     -22.365  22.895 -29.127  1.00  0.00    -0.508 OA
ATOM      8  H   UNL     1     -21.586  22.378 -29.514  1.00  0.00     0.293 HD
ENDBRANCH   1   7
BRANCH   6   9
ATOM      9  C   UNL     1     -23.898  27.955 -31.223  1.00  0.00     0.071 C 
ATOM     10  O   UNL     1     -23.279  28.459 -32.198  1.00  0.00    -0.545 OA
ATOM     11  O   UNL     1     -24.961  28.656 -30.666  1.00  0.00    -0.545 OA
ENDBRANCH   6   9
TORSDOF 2
ENDMDL
