MODEL 1
REMARK VINA RESULT:    -3.742      0.000      0.000
REMARK INTER + INTRA:          -6.047
REMARK INTER:                  -5.492
REMARK INTRA:                  -0.555
REMARK UNBOUND:                -0.555
REMARK SMILES O=C([O-])CCCCCCCC(=O)[O-]
REMARK SMILES IDX 7 1 6 2 5 3 4 4 2 5 1 6 3 7 8 8 9 9 10 10 11 11 12 12 13 13
REMARK H PARENT
REMARK Flexibility Score: inf
ROOT
ATOM      1  C   UNL     1      36.865  25.449 223.629  1.00  0.00     0.000 C 
ENDROOT
BRANCH   1   2
ATOM      2  C   UNL     1      36.629  23.971 223.963  1.00  0.00     0.000 C 
BRANCH   2   3
ATOM      3  C   UNL     1      36.464  23.138 222.683  1.00  0.00     0.006 C 
BRANCH   3   4
ATOM      4  C   UNL     1      35.765  23.924 221.565  1.00  0.00     0.053 C 
BRANCH   4   5
ATOM      5  C   UNL     1      36.552  23.898 220.291  1.00  0.00     0.041 C 
ATOM      6  O   UNL     1      37.636  23.261 220.230  1.00  0.00    -0.550 OA
ATOM      7  O   UNL     1      36.104  24.604 219.181  1.00  0.00    -0.550 OA
ENDBRANCH   4   5
ENDBRANCH   3   4
ENDBRANCH   2   3
ENDBRANCH   1   2
BRANCH   1   8
ATOM      8  C   UNL     1      38.282  25.884 224.020  1.00  0.00     0.000 C 
BRANCH   8   9
ATOM      9  C   UNL     1      39.123  24.682 224.465  1.00  0.00     0.006 C 
BRANCH   9  10
ATOM     10  C   UNL     1      40.166  24.317 223.403  1.00  0.00     0.053 C 
BRANCH  10  11
ATOM     11  C   UNL     1      40.395  22.839 223.381  1.00  0.00     0.041 C 
ATOM     12  O   UNL     1      41.267  22.345 222.618  1.00  0.00    -0.550 OA
ATOM     13  O   UNL     1      39.682  22.011 224.239  1.00  0.00    -0.550 OA
ENDBRANCH  10  11
ENDBRANCH   9  10
ENDBRANCH   8   9
ENDBRANCH   1   8
TORSDOF 8
ENDMDL
MODEL 2
REMARK VINA RESULT:    -3.732      1.265      4.927
REMARK INTER + INTRA:          -6.033
REMARK INTER:                  -5.466
REMARK INTRA:                  -0.566
REMARK UNBOUND:                -0.555
REMARK SMILES O=C([O-])CCCCCCCC(=O)[O-]
REMARK SMILES IDX 7 1 6 2 5 3 4 4 2 5 1 6 3 7 8 8 9 9 10 10 11 11 12 12 13 13
REMARK H PARENT
REMARK Flexibility Score: inf
ROOT
ATOM      1  C   UNL     1      37.311  25.119 224.879  1.00  0.00     0.000 C 
ENDROOT
BRANCH   1   2
ATOM      2  C   UNL     1      38.583  24.263 224.815  1.00  0.00     0.000 C 
BRANCH   2   3
ATOM      3  C   UNL     1      39.575  24.829 223.788  1.00  0.00     0.006 C 
BRANCH   3   4
ATOM      4  C   UNL     1      40.129  23.741 222.857  1.00  0.00     0.053 C 
BRANCH   4   5
ATOM      5  C   UNL     1      41.374  23.117 223.410  1.00  0.00     0.041 C 
ATOM      6  O   UNL     1      41.884  22.115 222.844  1.00  0.00    -0.550 OA
ATOM      7  O   UNL     1      41.951  23.623 224.568  1.00  0.00    -0.550 OA
ENDBRANCH   4   5
ENDBRANCH   3   4
ENDBRANCH   2   3
ENDBRANCH   1   2
BRANCH   1   8
ATOM      8  C   UNL     1      36.777  25.418 223.474  1.00  0.00     0.000 C 
BRANCH   8   9
ATOM      9  C   UNL     1      35.996  24.223 222.916  1.00  0.00     0.006 C 
BRANCH   9  10
ATOM     10  C   UNL     1      36.597  23.742 221.592  1.00  0.00     0.053 C 
BRANCH  10  11
ATOM     11  C   UNL     1      35.714  24.123 220.447  1.00  0.00     0.041 C 
ATOM     12  O   UNL     1      36.217  24.535 219.368  1.00  0.00    -0.550 OA
ATOM     13  O   UNL     1      34.337  23.977 220.552  1.00  0.00    -0.550 OA
ENDBRANCH  10  11
ENDBRANCH   9  10
ENDBRANCH   8   9
ENDBRANCH   1   8
TORSDOF 8
ENDMDL
MODEL 3
REMARK VINA RESULT:    -3.603      0.716      4.819
REMARK INTER + INTRA:          -5.843
REMARK INTER:                  -5.300
REMARK INTRA:                  -0.543
REMARK UNBOUND:                -0.555
REMARK SMILES O=C([O-])CCCCCCCC(=O)[O-]
REMARK SMILES IDX 7 1 6 2 5 3 4 4 2 5 1 6 3 7 8 8 9 9 10 10 11 11 12 12 13 13
REMARK H PARENT
REMARK Flexibility Score: inf
ROOT
ATOM      1  C   UNL     1      38.004  25.033 223.684  1.00  0.00     0.000 C 
ENDROOT
BRANCH   1   2
ATOM      2  C   UNL     1      39.317  24.692 224.401  1.00  0.00     0.000 C 
BRANCH   2   3
ATOM      3  C   UNL     1      40.437  24.409 223.390  1.00  0.00     0.006 C 
BRANCH   3   4
ATOM      4  C   UNL     1      40.266  23.048 222.699  1.00  0.00     0.053 C 
BRANCH   4   5
ATOM      5  C   UNL     1      41.132  21.996 223.320  1.00  0.00     0.041 C 
ATOM      6  O   UNL     1      42.317  21.838 222.924  1.00  0.00    -0.550 OA
ATOM      7  O   UNL     1      40.621  21.168 224.311  1.00  0.00    -0.550 OA
ENDBRANCH   4   5
ENDBRANCH   3   4
ENDBRANCH   2   3
ENDBRANCH   1   2
BRANCH   1   8
ATOM      8  C   UNL     1      36.896  24.045 224.064  1.00  0.00     0.000 C 
BRANCH   8   9
ATOM      9  C   UNL     1      36.542  23.133 222.884  1.00  0.00     0.006 C 
BRANCH   9  10
ATOM     10  C   UNL     1      35.681  23.875 221.855  1.00  0.00     0.053 C 
BRANCH  10  11
ATOM     11  C   UNL     1      36.400  23.977 220.548  1.00  0.00     0.041 C 
ATOM     12  O   UNL     1      35.907  24.653 219.606  1.00  0.00    -0.550 OA
ATOM     13  O   UNL     1      37.637  23.367 220.384  1.00  0.00    -0.550 OA
ENDBRANCH  10  11
ENDBRANCH   9  10
ENDBRANCH   8   9
ENDBRANCH   1   8
TORSDOF 8
ENDMDL
MODEL 4
REMARK VINA RESULT:    -3.504      1.126      1.296
REMARK INTER + INTRA:          -5.698
REMARK INTER:                  -4.963
REMARK INTRA:                  -0.735
REMARK UNBOUND:                -0.555
REMARK SMILES O=C([O-])CCCCCCCC(=O)[O-]
REMARK SMILES IDX 7 1 6 2 5 3 4 4 2 5 1 6 3 7 8 8 9 9 10 10 11 11 12 12 13 13
REMARK H PARENT
REMARK Flexibility Score: inf
ROOT
ATOM      1  C   UNL     1      37.735  25.771 223.999  1.00  0.00     0.000 C 
ENDROOT
BRANCH   1   2
ATOM      2  C   UNL     1      36.379  25.065 224.125  1.00  0.00     0.000 C 
BRANCH   2   3
ATOM      3  C   UNL     1      36.399  23.704 223.412  1.00  0.00     0.006 C 
BRANCH   3   4
ATOM      4  C   UNL     1      37.399  23.674 222.248  1.00  0.00     0.053 C 
BRANCH   4   5
ATOM      5  C   UNL     1      36.706  23.690 220.919  1.00  0.00     0.041 C 
ATOM      6  O   UNL     1      37.334  23.370 219.876  1.00  0.00    -0.550 OA
ATOM      7  O   UNL     1      35.379  24.090 220.831  1.00  0.00    -0.550 OA
ENDBRANCH   4   5
ENDBRANCH   3   4
ENDBRANCH   2   3
ENDBRANCH   1   2
BRANCH   1   8
ATOM      8  C   UNL     1      38.475  25.787 225.342  1.00  0.00     0.000 C 
BRANCH   8   9
ATOM      9  C   UNL     1      39.877  25.184 225.205  1.00  0.00     0.006 C 
BRANCH   9  10
ATOM     10  C   UNL     1      39.822  23.653 225.225  1.00  0.00     0.053 C 
BRANCH  10  11
ATOM     11  C   UNL     1      40.519  23.087 224.029  1.00  0.00     0.041 C 
ATOM     12  O   UNL     1      41.048  23.855 223.183  1.00  0.00    -0.550 OA
ATOM     13  O   UNL     1      40.627  21.711 223.874  1.00  0.00    -0.550 OA
ENDBRANCH  10  11
ENDBRANCH   9  10
ENDBRANCH   8   9
ENDBRANCH   1   8
TORSDOF 8
ENDMDL
MODEL 5
REMARK VINA RESULT:    -3.465      1.829      2.771
REMARK INTER + INTRA:          -5.640
REMARK INTER:                  -5.035
REMARK INTRA:                  -0.605
REMARK UNBOUND:                -0.555
REMARK SMILES O=C([O-])CCCCCCCC(=O)[O-]
REMARK SMILES IDX 7 1 6 2 5 3 4 4 2 5 1 6 3 7 8 8 9 9 10 10 11 11 12 12 13 13
REMARK H PARENT
REMARK Flexibility Score: inf
ROOT
ATOM      1  C   UNL     1      39.261  26.171 225.458  1.00  0.00     0.000 C 
ENDROOT
BRANCH   1   2
ATOM      2  C   UNL     1      37.815  25.660 225.427  1.00  0.00     0.000 C 
BRANCH   2   3
ATOM      3  C   UNL     1      37.271  25.635 223.991  1.00  0.00     0.006 C 
BRANCH   3   4
ATOM      4  C   UNL     1      36.127  24.626 223.821  1.00  0.00     0.053 C 
BRANCH   4   5
ATOM      5  C   UNL     1      36.619  23.309 223.304  1.00  0.00     0.041 C 
ATOM      6  O   UNL     1      36.603  23.069 222.068  1.00  0.00    -0.550 OA
ATOM      7  O   UNL     1      37.063  22.335 224.190  1.00  0.00    -0.550 OA
ENDBRANCH   4   5
ENDBRANCH   3   4
ENDBRANCH   2   3
ENDBRANCH   1   2
BRANCH   1   8
ATOM      8  C   UNL     1      40.141  25.284 226.346  1.00  0.00     0.000 C 
BRANCH   8   9
ATOM      9  C   UNL     1      40.404  23.928 225.680  1.00  0.00     0.006 C 
BRANCH   9  10
ATOM     10  C   UNL     1      41.538  24.030 224.654  1.00  0.00     0.053 C 
BRANCH  10  11
ATOM     11  C   UNL     1      41.104  23.470 223.337  1.00  0.00     0.041 C 
ATOM     12  O   UNL     1      41.664  22.443 222.870  1.00  0.00    -0.550 OA
ATOM     13  O   UNL     1      40.049  24.053 222.648  1.00  0.00    -0.550 OA
ENDBRANCH  10  11
ENDBRANCH   9  10
ENDBRANCH   8   9
ENDBRANCH   1   8
TORSDOF 8
ENDMDL
MODEL 6
REMARK VINA RESULT:    -3.445      2.380      5.144
REMARK INTER + INTRA:          -5.611
REMARK INTER:                  -5.233
REMARK INTRA:                  -0.378
REMARK UNBOUND:                -0.555
REMARK SMILES O=C([O-])CCCCCCCC(=O)[O-]
REMARK SMILES IDX 7 1 6 2 5 3 4 4 2 5 1 6 3 7 8 8 9 9 10 10 11 11 12 12 13 13
REMARK H PARENT
REMARK Flexibility Score: inf
ROOT
ATOM      1  C   UNL     1      37.018  22.400 223.839  1.00  0.00     0.000 C 
ENDROOT
BRANCH   1   2
ATOM      2  C   UNL     1      38.394  22.483 224.513  1.00  0.00     0.000 C 
BRANCH   2   3
ATOM      3  C   UNL     1      38.482  23.708 225.434  1.00  0.00     0.006 C 
BRANCH   3   4
ATOM      4  C   UNL     1      39.506  24.737 224.935  1.00  0.00     0.053 C 
BRANCH   4   5
ATOM      5  C   UNL     1      38.992  26.139 225.063  1.00  0.00     0.041 C 
ATOM      6  O   UNL     1      38.250  26.624 224.169  1.00  0.00    -0.550 OA
ATOM      7  O   UNL     1      39.362  26.920 226.150  1.00  0.00    -0.550 OA
ENDBRANCH   4   5
ENDBRANCH   3   4
ENDBRANCH   2   3
ENDBRANCH   1   2
BRANCH   1   8
ATOM      8  C   UNL     1      36.377  23.788 223.725  1.00  0.00     0.000 C 
BRANCH   8   9
ATOM      9  C   UNL     1      35.607  23.931 222.407  1.00  0.00     0.006 C 
BRANCH   9  10
ATOM     10  C   UNL     1      36.540  24.355 221.268  1.00  0.00     0.053 C 
BRANCH  10  11
ATOM     11  C   UNL     1      35.880  24.140 219.943  1.00  0.00     0.041 C 
ATOM     12  O   UNL     1      36.576  24.034 218.899  1.00  0.00    -0.550 OA
ATOM     13  O   UNL     1      34.500  24.005 219.867  1.00  0.00    -0.550 OA
ENDBRANCH  10  11
ENDBRANCH   9  10
ENDBRANCH   8   9
ENDBRANCH   1   8
TORSDOF 8
ENDMDL
MODEL 7
REMARK VINA RESULT:    -3.402      1.721      2.551
REMARK INTER + INTRA:          -5.548
REMARK INTER:                  -5.096
REMARK INTRA:                  -0.452
REMARK UNBOUND:                -0.555
REMARK SMILES O=C([O-])CCCCCCCC(=O)[O-]
REMARK SMILES IDX 7 1 6 2 5 3 4 4 2 5 1 6 3 7 8 8 9 9 10 10 11 11 12 12 13 13
REMARK H PARENT
REMARK Flexibility Score: inf
ROOT
ATOM      1  C   UNL     1      39.044  23.425 223.676  1.00  0.00     0.000 C 
ENDROOT
BRANCH   1   2
ATOM      2  C   UNL     1      38.248  24.731 223.567  1.00  0.00     0.000 C 
BRANCH   2   3
ATOM      3  C   UNL     1      36.780  24.452 223.211  1.00  0.00     0.006 C 
BRANCH   3   4
ATOM      4  C   UNL     1      36.633  23.275 222.236  1.00  0.00     0.053 C 
BRANCH   4   5
ATOM      5  C   UNL     1      36.785  23.710 220.811  1.00  0.00     0.041 C 
ATOM      6  O   UNL     1      35.925  24.464 220.285  1.00  0.00    -0.550 OA
ATOM      7  O   UNL     1      37.857  23.254 220.055  1.00  0.00    -0.550 OA
ENDBRANCH   4   5
ENDBRANCH   3   4
ENDBRANCH   2   3
ENDBRANCH   1   2
BRANCH   1   8
ATOM      8  C   UNL     1      40.314  23.480 222.818  1.00  0.00     0.000 C 
BRANCH   8   9
ATOM      9  C   UNL     1      41.477  22.758 223.509  1.00  0.00     0.006 C 
BRANCH   9  10
ATOM     10  C   UNL     1      41.997  21.604 222.646  1.00  0.00     0.053 C 
BRANCH  10  11
ATOM     11  C   UNL     1      41.962  20.320 223.412  1.00  0.00     0.041 C 
ATOM     12  O   UNL     1      42.948  19.537 223.383  1.00  0.00    -0.550 OA
ATOM     13  O   UNL     1      40.859  20.010 224.198  1.00  0.00    -0.550 OA
ENDBRANCH  10  11
ENDBRANCH   9  10
ENDBRANCH   8   9
ENDBRANCH   1   8
TORSDOF 8
ENDMDL
MODEL 8
REMARK VINA RESULT:    -3.396      1.886      5.187
REMARK INTER + INTRA:          -5.540
REMARK INTER:                  -5.194
REMARK INTRA:                  -0.346
REMARK UNBOUND:                -0.555
REMARK SMILES O=C([O-])CCCCCCCC(=O)[O-]
REMARK SMILES IDX 7 1 6 2 5 3 4 4 2 5 1 6 3 7 8 8 9 9 10 10 11 11 12 12 13 13
REMARK H PARENT
REMARK Flexibility Score: inf
ROOT
ATOM      1  C   UNL     1      39.451  23.795 224.330  1.00  0.00     0.000 C 
ENDROOT
BRANCH   1   2
ATOM      2  C   UNL     1      40.962  23.949 224.115  1.00  0.00     0.000 C 
BRANCH   2   3
ATOM      3  C   UNL     1      41.647  22.578 224.020  1.00  0.00     0.006 C 
BRANCH   3   4
ATOM      4  C   UNL     1      41.577  21.991 222.603  1.00  0.00     0.053 C 
BRANCH   4   5
ATOM      5  C   UNL     1      42.373  20.728 222.484  1.00  0.00     0.041 C 
ATOM      6  O   UNL     1      43.533  20.755 221.996  1.00  0.00    -0.550 OA
ATOM      7  O   UNL     1      41.821  19.516 222.881  1.00  0.00    -0.550 OA
ENDBRANCH   4   5
ENDBRANCH   3   4
ENDBRANCH   2   3
ENDBRANCH   1   2
BRANCH   1   8
ATOM      8  C   UNL     1      38.721  25.119 224.083  1.00  0.00     0.000 C 
BRANCH   8   9
ATOM      9  C   UNL     1      37.201  24.928 224.133  1.00  0.00     0.006 C 
BRANCH   9  10
ATOM     10  C   UNL     1      36.804  23.538 223.624  1.00  0.00     0.053 C 
BRANCH  10  11
ATOM     11  C   UNL     1      36.244  23.627 222.241  1.00  0.00     0.041 C 
ATOM     12  O   UNL     1      36.984  23.420 221.243  1.00  0.00    -0.550 OA
ATOM     13  O   UNL     1      34.892  23.889 222.054  1.00  0.00    -0.550 OA
ENDBRANCH  10  11
ENDBRANCH   9  10
ENDBRANCH   8   9
ENDBRANCH   1   8
TORSDOF 8
ENDMDL
MODEL 9
REMARK VINA RESULT:    -3.385      2.086      4.607
REMARK INTER + INTRA:          -5.523
REMARK INTER:                  -4.729
REMARK INTRA:                  -0.794
REMARK UNBOUND:                -0.555
REMARK SMILES O=C([O-])CCCCCCCC(=O)[O-]
REMARK SMILES IDX 7 1 6 2 5 3 4 4 2 5 1 6 3 7 8 8 9 9 10 10 11 11 12 12 13 13
REMARK H PARENT
REMARK Flexibility Score: inf
ROOT
ATOM      1  C   UNL     1      39.636  25.106 226.183  1.00  0.00     0.000 C 
ENDROOT
BRANCH   1   2
ATOM      2  C   UNL     1      41.146  25.306 226.364  1.00  0.00     0.000 C 
BRANCH   2   3
ATOM      3  C   UNL     1      41.929  24.631 225.228  1.00  0.00     0.006 C 
BRANCH   3   4
ATOM      4  C   UNL     1      41.300  23.297 224.801  1.00  0.00     0.053 C 
BRANCH   4   5
ATOM      5  C   UNL     1      41.134  23.211 223.315  1.00  0.00     0.041 C 
ATOM      6  O   UNL     1      40.462  24.081 222.702  1.00  0.00    -0.550 OA
ATOM      7  O   UNL     1      41.692  22.150 222.613  1.00  0.00    -0.550 OA
ENDBRANCH   4   5
ENDBRANCH   3   4
ENDBRANCH   2   3
ENDBRANCH   1   2
BRANCH   1   8
ATOM      8  C   UNL     1      39.009  26.289 225.435  1.00  0.00     0.000 C 
BRANCH   8   9
ATOM      9  C   UNL     1      38.033  25.804 224.358  1.00  0.00     0.006 C 
BRANCH   9  10
ATOM     10  C   UNL     1      37.154  24.665 224.885  1.00  0.00     0.053 C 
BRANCH  10  11
ATOM     11  C   UNL     1      37.118  23.535 223.906  1.00  0.00     0.041 C 
ATOM     12  O   UNL     1      37.660  22.434 224.190  1.00  0.00    -0.550 OA
ATOM     13  O   UNL     1      36.444  23.680 222.700  1.00  0.00    -0.550 OA
ENDBRANCH  10  11
ENDBRANCH   9  10
ENDBRANCH   8   9
ENDBRANCH   1   8
TORSDOF 8
ENDMDL
