MODEL 1
REMARK VINA RESULT:    -5.128      0.000      0.000
REMARK INTER + INTRA:          -9.083
REMARK INTER:                  -7.376
REMARK INTRA:                  -1.707
REMARK UNBOUND:                -1.707
REMARK SMILES O=c1c(O[C@H]2O[C@@H](CO)[C@@H](O)[C@H](O)[C@H]2O)c(-c2ccc(O)cc2)oc2cc(O)cc(O)c12
REMARK SMILES IDX 4 1 3 2 16 3 24 4 2 5 25 6 1 7 32 8 26 9 30 10 27 11 29 12
REMARK SMILES IDX 17 13 18 14 19 15 20 16 23 17 22 18 21 19 31 21 28 23 5 25
REMARK SMILES IDX 14 26 6 27 12 28 7 29 10 30 15 31 13 33 8 35 9 36 11 38
REMARK H PARENT 21 20 31 22 28 24 15 32 13 34 9 37 11 39
REMARK Flexibility Score: inf
ROOT
ATOM      1  O   UNL     1       4.000 -11.565  15.702  1.00  0.00    -0.454 OA
ENDROOT
BRANCH   1   2
ATOM      2  C   UNL     1       4.721 -12.682  15.250  1.00  0.00     0.214 A 
ATOM      3  C   UNL     1       5.943 -12.565  14.553  1.00  0.00     0.180 A 
ATOM      4  O   UNL     1       6.617 -13.660  14.223  1.00  0.00    -0.452 OA
ATOM      5  C   UNL     1       4.199 -13.958  15.483  1.00  0.00     0.239 A 
ATOM      6  C   UNL     1       6.190 -14.889  14.482  1.00  0.00     0.146 A 
ATOM      7  O   UNL     1       3.045 -14.050  15.980  1.00  0.00    -0.285 OA
ATOM      8  C   UNL     1       4.954 -15.107  15.145  1.00  0.00     0.111 A 
ATOM      9  C   UNL     1       6.973 -15.968  14.065  1.00  0.00     0.094 A 
ATOM     10  C   UNL     1       4.550 -16.451  15.407  1.00  0.00     0.134 A 
ATOM     11  C   UNL     1       6.544 -17.276  14.279  1.00  0.00     0.123 A 
ATOM     12  C   UNL     1       5.338 -17.511  14.941  1.00  0.00     0.093 A 
BRANCH   3  13
ATOM     13  C   UNL     1       6.492 -11.263  14.122  1.00  0.00     0.021 A 
ATOM     14  C   UNL     1       7.335 -10.542  14.982  1.00  0.00     0.016 A 
ATOM     15  C   UNL     1       7.868  -9.314  14.580  1.00  0.00     0.047 A 
ATOM     16  C   UNL     1       7.580  -8.801  13.312  1.00  0.00     0.115 A 
ATOM     17  C   UNL     1       6.226 -10.757  12.837  1.00  0.00     0.016 A 
ATOM     18  C   UNL     1       6.759  -9.527  12.439  1.00  0.00     0.047 A 
BRANCH  16  19
ATOM     19  O   UNL     1       8.115  -7.574  12.927  1.00  0.00    -0.508 OA
ATOM     20  H   UNL     1       8.488  -6.922  13.609  1.00  0.00     0.293 HD
ENDBRANCH  16  19
ENDBRANCH   3  13
BRANCH  10  21
ATOM     21  O   UNL     1       3.410 -16.798  16.138  1.00  0.00    -0.507 OA
ATOM     22  H   UNL     1       3.075 -17.739  16.274  1.00  0.00     0.293 HD
ENDBRANCH  10  21
BRANCH  11  23
ATOM     23  O   UNL     1       7.330 -18.337  13.834  1.00  0.00    -0.508 OA
ATOM     24  H   UNL     1       7.922 -18.251  13.016  1.00  0.00     0.293 HD
ENDBRANCH  11  23
ENDBRANCH   1   2
BRANCH   1  25
ATOM     25  C   UNL     1       4.139 -10.986  17.006  1.00  0.00     0.339 C 
ATOM     26  C   UNL     1       2.794 -10.938  17.759  1.00  0.00     0.214 C 
ATOM     27  O   UNL     1       4.745  -9.702  16.921  1.00  0.00    -0.332 OA
ATOM     28  C   UNL     1       1.835  -9.946  17.080  1.00  0.00     0.180 C 
ATOM     29  C   UNL     1       3.934  -8.713  16.291  1.00  0.00     0.179 C 
ATOM     30  C   UNL     1       2.536  -8.580  16.956  1.00  0.00     0.177 C 
BRANCH  26  31
ATOM     31  O   UNL     1       2.228 -12.220  17.878  1.00  0.00    -0.384 OA
ATOM     32  H   UNL     1       1.261 -12.114  18.063  1.00  0.00     0.211 HD
ENDBRANCH  26  31
BRANCH  28  33
ATOM     33  O   UNL     1       0.633  -9.832  17.803  1.00  0.00    -0.387 OA
ATOM     34  H   UNL     1       0.221  -8.959  17.573  1.00  0.00     0.211 HD
ENDBRANCH  28  33
BRANCH  29  35
ATOM     35  C   UNL     1       3.910  -8.874  14.755  1.00  0.00     0.191 C 
BRANCH  35  36
ATOM     36  O   UNL     1       2.632  -9.263  14.331  1.00  0.00    -0.394 OA
ATOM     37  H   UNL     1       2.198  -9.689  15.117  1.00  0.00     0.210 HD
ENDBRANCH  35  36
ENDBRANCH  29  35
BRANCH  30  38
ATOM     38  O   UNL     1       1.729  -7.635  16.294  1.00  0.00    -0.387 OA
ATOM     39  H   UNL     1       1.322  -8.075  15.503  1.00  0.00     0.211 HD
ENDBRANCH  30  38
ENDBRANCH   1  25
TORSDOF 11
ENDMDL
MODEL 2
REMARK VINA RESULT:    -5.052      1.795      6.862
REMARK INTER + INTRA:          -8.974
REMARK INTER:                  -7.366
REMARK INTRA:                  -1.608
REMARK UNBOUND:                -1.707
REMARK SMILES O=c1c(O[C@H]2O[C@@H](CO)[C@@H](O)[C@H](O)[C@H]2O)c(-c2ccc(O)cc2)oc2cc(O)cc(O)c12
REMARK SMILES IDX 4 1 3 2 16 3 24 4 2 5 25 6 1 7 32 8 26 9 30 10 27 11 29 12
REMARK SMILES IDX 17 13 18 14 19 15 20 16 23 17 22 18 21 19 31 21 28 23 5 25
REMARK SMILES IDX 14 26 6 27 12 28 7 29 10 30 15 31 13 33 8 35 9 36 11 38
REMARK H PARENT 21 20 31 22 28 24 15 32 13 34 9 37 11 39
REMARK Flexibility Score: inf
ROOT
ATOM      1  O   UNL     1       4.629 -12.302  14.881  1.00  0.00    -0.454 OA
ENDROOT
BRANCH   1   2
ATOM      2  C   UNL     1       5.151 -11.048  14.522  1.00  0.00     0.214 A 
ATOM      3  C   UNL     1       4.944  -9.888  15.298  1.00  0.00     0.180 A 
ATOM      4  O   UNL     1       5.531  -8.751  14.948  1.00  0.00    -0.452 OA
ATOM      5  C   UNL     1       5.889 -10.942  13.338  1.00  0.00     0.239 A 
ATOM      6  C   UNL     1       6.291  -8.620  13.869  1.00  0.00     0.146 A 
ATOM      7  O   UNL     1       5.952 -11.947  12.581  1.00  0.00    -0.285 OA
ATOM      8  C   UNL     1       6.526  -9.722  13.006  1.00  0.00     0.111 A 
ATOM      9  C   UNL     1       6.837  -7.367  13.586  1.00  0.00     0.094 A 
ATOM     10  C   UNL     1       7.362  -9.527  11.865  1.00  0.00     0.134 A 
ATOM     11  C   UNL     1       7.608  -7.174  12.442  1.00  0.00     0.123 A 
ATOM     12  C   UNL     1       7.862  -8.248  11.586  1.00  0.00     0.093 A 
BRANCH   3  13
ATOM     13  C   UNL     1       4.050  -9.867  16.475  1.00  0.00     0.021 A 
ATOM     14  C   UNL     1       2.660  -9.799  16.293  1.00  0.00     0.016 A 
ATOM     15  C   UNL     1       1.804  -9.788  17.399  1.00  0.00     0.047 A 
ATOM     16  C   UNL     1       2.325  -9.861  18.693  1.00  0.00     0.115 A 
ATOM     17  C   UNL     1       4.568  -9.967  17.777  1.00  0.00     0.016 A 
ATOM     18  C   UNL     1       3.710  -9.953  18.882  1.00  0.00     0.047 A 
BRANCH  16  19
ATOM     19  O   UNL     1       1.459  -9.845  19.786  1.00  0.00    -0.508 OA
ATOM     20  H   UNL     1       0.898  -9.029  20.004  1.00  0.00     0.293 HD
ENDBRANCH  16  19
ENDBRANCH   3  13
BRANCH  10  21
ATOM     21  O   UNL     1       7.752 -10.549  10.995  1.00  0.00    -0.507 OA
ATOM     22  H   UNL     1       7.123 -11.193  10.540  1.00  0.00     0.293 HD
ENDBRANCH  10  21
BRANCH  11  23
ATOM     23  O   UNL     1       8.124  -5.909  12.166  1.00  0.00    -0.508 OA
ATOM     24  H   UNL     1       7.529  -5.150  11.857  1.00  0.00     0.293 HD
ENDBRANCH  11  23
ENDBRANCH   1   2
BRANCH   1  25
ATOM     25  C   UNL     1       5.099 -13.086  15.985  1.00  0.00     0.339 C 
ATOM     26  C   UNL     1       5.966 -14.273  15.518  1.00  0.00     0.214 C 
ATOM     27  O   UNL     1       4.009 -13.513  16.794  1.00  0.00    -0.332 OA
ATOM     28  C   UNL     1       5.109 -15.295  14.752  1.00  0.00     0.180 C 
ATOM     29  C   UNL     1       3.146 -14.456  16.163  1.00  0.00     0.179 C 
ATOM     30  C   UNL     1       3.911 -15.699  15.632  1.00  0.00     0.177 C 
BRANCH  26  31
ATOM     31  O   UNL     1       7.066 -13.835  14.758  1.00  0.00    -0.384 OA
ATOM     32  H   UNL     1       6.738 -13.578  13.859  1.00  0.00     0.211 HD
ENDBRANCH  26  31
BRANCH  28  33
ATOM     33  O   UNL     1       5.871 -16.420  14.390  1.00  0.00    -0.387 OA
ATOM     34  H   UNL     1       6.794 -16.112  14.190  1.00  0.00     0.211 HD
ENDBRANCH  28  33
BRANCH  29  35
ATOM     35  C   UNL     1       2.205 -13.786  15.138  1.00  0.00     0.191 C 
BRANCH  35  36
ATOM     36  O   UNL     1       1.000 -14.497  15.054  1.00  0.00    -0.394 OA
ATOM     37  H   UNL     1       1.193 -15.410  15.395  1.00  0.00     0.210 HD
ENDBRANCH  35  36
ENDBRANCH  29  35
BRANCH  30  38
ATOM     38  O   UNL     1       3.054 -16.598  14.970  1.00  0.00    -0.387 OA
ATOM     39  H   UNL     1       3.306 -16.616  14.010  1.00  0.00     0.211 HD
ENDBRANCH  30  38
ENDBRANCH   1  25
TORSDOF 11
ENDMDL
MODEL 3
REMARK VINA RESULT:    -4.962      1.593      4.611
REMARK INTER + INTRA:          -8.844
REMARK INTER:                  -7.657
REMARK INTRA:                  -1.187
REMARK UNBOUND:                -1.707
REMARK SMILES O=c1c(O[C@H]2O[C@@H](CO)[C@@H](O)[C@H](O)[C@H]2O)c(-c2ccc(O)cc2)oc2cc(O)cc(O)c12
REMARK SMILES IDX 4 1 3 2 16 3 24 4 2 5 25 6 1 7 32 8 26 9 30 10 27 11 29 12
REMARK SMILES IDX 17 13 18 14 19 15 20 16 23 17 22 18 21 19 31 21 28 23 5 25
REMARK SMILES IDX 14 26 6 27 12 28 7 29 10 30 15 31 13 33 8 35 9 36 11 38
REMARK H PARENT 21 20 31 22 28 24 15 32 13 34 9 37 11 39
REMARK Flexibility Score: inf
ROOT
ATOM      1  O   UNL     1       5.484 -10.723  14.899  1.00  0.00    -0.454 OA
ENDROOT
BRANCH   1   2
ATOM      2  C   UNL     1       5.033 -12.037  15.108  1.00  0.00     0.214 A 
ATOM      3  C   UNL     1       3.781 -12.327  15.690  1.00  0.00     0.180 A 
ATOM      4  O   UNL     1       3.378 -13.588  15.786  1.00  0.00    -0.452 OA
ATOM      5  C   UNL     1       5.867 -13.099  14.740  1.00  0.00     0.239 A 
ATOM      6  C   UNL     1       4.109 -14.623  15.392  1.00  0.00     0.146 A 
ATOM      7  O   UNL     1       7.035 -12.834  14.352  1.00  0.00    -0.285 OA
ATOM      8  C   UNL     1       5.398 -14.432  14.828  1.00  0.00     0.111 A 
ATOM      9  C   UNL     1       3.593 -15.908  15.564  1.00  0.00     0.094 A 
ATOM     10  C   UNL     1       6.135 -15.581  14.411  1.00  0.00     0.134 A 
ATOM     11  C   UNL     1       4.342 -17.026  15.202  1.00  0.00     0.123 A 
ATOM     12  C   UNL     1       5.607 -16.859  14.634  1.00  0.00     0.093 A 
BRANCH   3  13
ATOM     13  C   UNL     1       2.903 -11.281  16.254  1.00  0.00     0.021 A 
ATOM     14  C   UNL     1       2.777 -11.151  17.645  1.00  0.00     0.016 A 
ATOM     15  C   UNL     1       1.957 -10.158  18.190  1.00  0.00     0.047 A 
ATOM     16  C   UNL     1       1.268  -9.276  17.353  1.00  0.00     0.115 A 
ATOM     17  C   UNL     1       2.230 -10.375  15.416  1.00  0.00     0.016 A 
ATOM     18  C   UNL     1       1.408  -9.384  15.962  1.00  0.00     0.047 A 
BRANCH  16  19
ATOM     19  O   UNL     1       0.451  -8.294  17.910  1.00  0.00    -0.508 OA
ATOM     20  H   UNL     1      -0.500  -8.496  18.194  1.00  0.00     0.293 HD
ENDBRANCH  16  19
ENDBRANCH   3  13
BRANCH  10  21
ATOM     21  O   UNL     1       7.367 -15.525  13.753  1.00  0.00    -0.507 OA
ATOM     22  H   UNL     1       8.217 -15.959  14.078  1.00  0.00     0.293 HD
ENDBRANCH  10  21
BRANCH  11  23
ATOM     23  O   UNL     1       3.816 -18.300  15.405  1.00  0.00    -0.508 OA
ATOM     24  H   UNL     1       4.414 -19.096  15.589  1.00  0.00     0.293 HD
ENDBRANCH  11  23
ENDBRANCH   1   2
BRANCH   1  25
ATOM     25  C   UNL     1       6.638 -10.154  15.531  1.00  0.00     0.339 C 
ATOM     26  C   UNL     1       6.333  -8.774  16.147  1.00  0.00     0.214 C 
ATOM     27  O   UNL     1       7.730 -10.099  14.621  1.00  0.00    -0.332 OA
ATOM     28  C   UNL     1       6.046  -7.745  15.040  1.00  0.00     0.180 C 
ATOM     29  C   UNL     1       7.550  -9.178  13.547  1.00  0.00     0.179 C 
ATOM     30  C   UNL     1       7.220  -7.743  14.043  1.00  0.00     0.177 C 
BRANCH  26  31
ATOM     31  O   UNL     1       5.283  -8.850  17.080  1.00  0.00    -0.384 OA
ATOM     32  H   UNL     1       4.583  -8.204  16.809  1.00  0.00     0.211 HD
ENDBRANCH  26  31
BRANCH  28  33
ATOM     33  O   UNL     1       5.844  -6.463  15.585  1.00  0.00    -0.387 OA
ATOM     34  H   UNL     1       6.425  -6.378  16.386  1.00  0.00     0.211 HD
ENDBRANCH  28  33
BRANCH  29  35
ATOM     35  C   UNL     1       6.594  -9.727  12.466  1.00  0.00     0.191 C 
BRANCH  35  36
ATOM     36  O   UNL     1       7.009 -11.003  12.059  1.00  0.00    -0.394 OA
ATOM     37  H   UNL     1       6.404 -11.648  12.511  1.00  0.00     0.210 HD
ENDBRANCH  35  36
ENDBRANCH  29  35
BRANCH  30  38
ATOM     38  O   UNL     1       6.998  -6.857  12.973  1.00  0.00    -0.387 OA
ATOM     39  H   UNL     1       6.045  -6.579  12.994  1.00  0.00     0.211 HD
ENDBRANCH  30  38
ENDBRANCH   1  25
TORSDOF 11
ENDMDL
MODEL 4
REMARK VINA RESULT:    -4.954      1.803      6.171
REMARK INTER + INTRA:          -8.834
REMARK INTER:                  -7.045
REMARK INTRA:                  -1.789
REMARK UNBOUND:                -1.707
REMARK SMILES O=c1c(O[C@H]2O[C@@H](CO)[C@@H](O)[C@H](O)[C@H]2O)c(-c2ccc(O)cc2)oc2cc(O)cc(O)c12
REMARK SMILES IDX 4 1 3 2 16 3 24 4 2 5 25 6 1 7 32 8 26 9 30 10 27 11 29 12
REMARK SMILES IDX 17 13 18 14 19 15 20 16 23 17 22 18 21 19 31 21 28 23 5 25
REMARK SMILES IDX 14 26 6 27 12 28 7 29 10 30 15 31 13 33 8 35 9 36 11 38
REMARK H PARENT 21 20 31 22 28 24 15 32 13 34 9 37 11 39
REMARK Flexibility Score: inf
ROOT
ATOM      1  O   UNL     1       4.485 -11.808  16.722  1.00  0.00    -0.454 OA
ENDROOT
BRANCH   1   2
ATOM      2  C   UNL     1       5.142 -11.432  15.539  1.00  0.00     0.214 A 
ATOM      3  C   UNL     1       5.377 -12.334  14.481  1.00  0.00     0.180 A 
ATOM      4  O   UNL     1       5.930 -11.897  13.357  1.00  0.00    -0.452 OA
ATOM      5  C   UNL     1       5.598 -10.115  15.415  1.00  0.00     0.239 A 
ATOM      6  C   UNL     1       6.319 -10.643  13.171  1.00  0.00     0.146 A 
ATOM      7  O   UNL     1       5.509  -9.355  16.415  1.00  0.00    -0.285 OA
ATOM      8  C   UNL     1       6.159  -9.671  14.193  1.00  0.00     0.111 A 
ATOM      9  C   UNL     1       6.913 -10.302  11.954  1.00  0.00     0.094 A 
ATOM     10  C   UNL     1       6.585  -8.333  13.933  1.00  0.00     0.134 A 
ATOM     11  C   UNL     1       7.374  -9.006  11.730  1.00  0.00     0.123 A 
ATOM     12  C   UNL     1       7.213  -8.033  12.718  1.00  0.00     0.093 A 
BRANCH   3  13
ATOM     13  C   UNL     1       5.077 -13.777  14.583  1.00  0.00     0.021 A 
ATOM     14  C   UNL     1       3.772 -14.237  14.348  1.00  0.00     0.016 A 
ATOM     15  C   UNL     1       3.479 -15.601  14.433  1.00  0.00     0.047 A 
ATOM     16  C   UNL     1       4.486 -16.521  14.737  1.00  0.00     0.115 A 
ATOM     17  C   UNL     1       6.093 -14.708  14.863  1.00  0.00     0.016 A 
ATOM     18  C   UNL     1       5.797 -16.072  14.950  1.00  0.00     0.047 A 
BRANCH  16  19
ATOM     19  O   UNL     1       4.178 -17.877  14.822  1.00  0.00    -0.508 OA
ATOM     20  H   UNL     1       4.468 -18.437  15.616  1.00  0.00     0.293 HD
ENDBRANCH  16  19
ENDBRANCH   3  13
BRANCH  10  21
ATOM     21  O   UNL     1       6.392  -7.265  14.814  1.00  0.00    -0.507 OA
ATOM     22  H   UNL     1       7.113  -6.847  15.383  1.00  0.00     0.293 HD
ENDBRANCH  10  21
BRANCH  11  23
ATOM     23  O   UNL     1       7.984  -8.695  10.517  1.00  0.00    -0.508 OA
ATOM     24  H   UNL     1       8.102  -9.389   9.789  1.00  0.00     0.293 HD
ENDBRANCH  11  23
ENDBRANCH   1   2
BRANCH   1  25
ATOM     25  C   UNL     1       3.072 -11.696  16.933  1.00  0.00     0.339 C 
ATOM     26  C   UNL     1       2.744 -10.867  18.192  1.00  0.00     0.214 C 
ATOM     27  O   UNL     1       2.468 -12.983  16.975  1.00  0.00    -0.332 OA
ATOM     28  C   UNL     1       3.188 -11.617  19.459  1.00  0.00     0.180 C 
ATOM     29  C   UNL     1       2.832 -13.763  18.112  1.00  0.00     0.179 C 
ATOM     30  C   UNL     1       2.561 -13.024  19.451  1.00  0.00     0.177 C 
BRANCH  26  31
ATOM     31  O   UNL     1       3.307  -9.580  18.118  1.00  0.00    -0.384 OA
ATOM     32  H   UNL     1       2.707  -8.953  18.596  1.00  0.00     0.211 HD
ENDBRANCH  26  31
BRANCH  28  33
ATOM     33  O   UNL     1       2.823 -10.908  20.617  1.00  0.00    -0.387 OA
ATOM     34  H   UNL     1       1.970 -11.291  20.953  1.00  0.00     0.211 HD
ENDBRANCH  28  33
BRANCH  29  35
ATOM     35  C   UNL     1       4.249 -14.362  17.975  1.00  0.00     0.191 C 
BRANCH  35  36
ATOM     36  O   UNL     1       4.251 -15.697  18.402  1.00  0.00    -0.394 OA
ATOM     37  H   UNL     1       4.217 -16.251  17.578  1.00  0.00     0.210 HD
ENDBRANCH  35  36
ENDBRANCH  29  35
BRANCH  30  38
ATOM     38  O   UNL     1       2.969 -13.786  20.562  1.00  0.00    -0.387 OA
ATOM     39  H   UNL     1       2.452 -13.482  21.352  1.00  0.00     0.211 HD
ENDBRANCH  30  38
ENDBRANCH   1  25
TORSDOF 11
ENDMDL
MODEL 5
REMARK VINA RESULT:    -4.846      1.515      4.879
REMARK INTER + INTRA:          -8.678
REMARK INTER:                  -7.179
REMARK INTRA:                  -1.500
REMARK UNBOUND:                -1.707
REMARK SMILES O=c1c(O[C@H]2O[C@@H](CO)[C@@H](O)[C@H](O)[C@H]2O)c(-c2ccc(O)cc2)oc2cc(O)cc(O)c12
REMARK SMILES IDX 4 1 3 2 16 3 24 4 2 5 25 6 1 7 32 8 26 9 30 10 27 11 29 12
REMARK SMILES IDX 17 13 18 14 19 15 20 16 23 17 22 18 21 19 31 21 28 23 5 25
REMARK SMILES IDX 14 26 6 27 12 28 7 29 10 30 15 31 13 33 8 35 9 36 11 38
REMARK H PARENT 21 20 31 22 28 24 15 32 13 34 9 37 11 39
REMARK Flexibility Score: inf
ROOT
ATOM      1  O   UNL     1       5.510 -10.705  15.087  1.00  0.00    -0.454 OA
ENDROOT
BRANCH   1   2
ATOM      2  C   UNL     1       5.053 -12.026  15.233  1.00  0.00     0.214 A 
ATOM      3  C   UNL     1       3.791 -12.337  15.782  1.00  0.00     0.180 A 
ATOM      4  O   UNL     1       3.385 -13.600  15.819  1.00  0.00    -0.452 OA
ATOM      5  C   UNL     1       5.891 -13.074  14.836  1.00  0.00     0.239 A 
ATOM      6  C   UNL     1       4.120 -14.619  15.393  1.00  0.00     0.146 A 
ATOM      7  O   UNL     1       7.066 -12.796  14.478  1.00  0.00    -0.285 OA
ATOM      8  C   UNL     1       5.419 -14.408  14.860  1.00  0.00     0.111 A 
ATOM      9  C   UNL     1       3.599 -15.909  15.504  1.00  0.00     0.094 A 
ATOM     10  C   UNL     1       6.161 -15.540  14.407  1.00  0.00     0.134 A 
ATOM     11  C   UNL     1       4.352 -17.012  15.108  1.00  0.00     0.123 A 
ATOM     12  C   UNL     1       5.626 -16.825  14.568  1.00  0.00     0.093 A 
BRANCH   3  13
ATOM     13  C   UNL     1       2.906 -11.313  16.375  1.00  0.00     0.021 A 
ATOM     14  C   UNL     1       2.930 -11.086  17.759  1.00  0.00     0.016 A 
ATOM     15  C   UNL     1       2.104 -10.113  18.329  1.00  0.00     0.047 A 
ATOM     16  C   UNL     1       1.259  -9.347  17.523  1.00  0.00     0.115 A 
ATOM     17  C   UNL     1       2.074 -10.522  15.564  1.00  0.00     0.016 A 
ATOM     18  C   UNL     1       1.246  -9.550  16.136  1.00  0.00     0.047 A 
BRANCH  16  19
ATOM     19  O   UNL     1       0.438  -8.383  18.106  1.00  0.00    -0.508 OA
ATOM     20  H   UNL     1       0.824  -7.604  18.627  1.00  0.00     0.293 HD
ENDBRANCH  16  19
ENDBRANCH   3  13
BRANCH  10  21
ATOM     21  O   UNL     1       7.404 -15.460  13.772  1.00  0.00    -0.507 OA
ATOM     22  H   UNL     1       7.541 -15.264  12.793  1.00  0.00     0.293 HD
ENDBRANCH  10  21
BRANCH  11  23
ATOM     23  O   UNL     1       3.821 -18.292  15.248  1.00  0.00    -0.508 OA
ATOM     24  H   UNL     1       3.425 -18.609  16.126  1.00  0.00     0.293 HD
ENDBRANCH  11  23
ENDBRANCH   1   2
BRANCH   1  25
ATOM     25  C   UNL     1       5.013  -9.782  14.111  1.00  0.00     0.339 C 
ATOM     26  C   UNL     1       5.963  -9.658  12.903  1.00  0.00     0.214 C 
ATOM     27  O   UNL     1       4.747  -8.518  14.708  1.00  0.00    -0.332 OA
ATOM     28  C   UNL     1       7.281  -8.985  13.324  1.00  0.00     0.180 C 
ATOM     29  C   UNL     1       5.911  -7.821  15.145  1.00  0.00     0.179 C 
ATOM     30  C   UNL     1       6.959  -7.645  14.012  1.00  0.00     0.177 C 
BRANCH  26  31
ATOM     31  O   UNL     1       6.181 -10.906  12.293  1.00  0.00    -0.384 OA
ATOM     32  H   UNL     1       6.331 -11.576  13.007  1.00  0.00     0.211 HD
ENDBRANCH  26  31
BRANCH  28  33
ATOM     33  O   UNL     1       8.125  -8.794  12.215  1.00  0.00    -0.387 OA
ATOM     34  H   UNL     1       8.979  -8.410  12.545  1.00  0.00     0.211 HD
ENDBRANCH  28  33
BRANCH  29  35
ATOM     35  C   UNL     1       6.471  -8.397  16.464  1.00  0.00     0.191 C 
BRANCH  35  36
ATOM     36  O   UNL     1       5.422  -8.685  17.348  1.00  0.00    -0.394 OA
ATOM     37  H   UNL     1       5.150  -9.621  17.159  1.00  0.00     0.210 HD
ENDBRANCH  35  36
ENDBRANCH  29  35
BRANCH  30  38
ATOM     38  O   UNL     1       8.123  -6.999  14.470  1.00  0.00    -0.387 OA
ATOM     39  H   UNL     1       7.875  -6.082  14.756  1.00  0.00     0.211 HD
ENDBRANCH  30  38
ENDBRANCH   1  25
TORSDOF 11
ENDMDL
MODEL 6
REMARK VINA RESULT:    -4.653      1.724      5.812
REMARK INTER + INTRA:          -8.401
REMARK INTER:                  -7.110
REMARK INTRA:                  -1.290
REMARK UNBOUND:                -1.707
REMARK SMILES O=c1c(O[C@H]2O[C@@H](CO)[C@@H](O)[C@H](O)[C@H]2O)c(-c2ccc(O)cc2)oc2cc(O)cc(O)c12
REMARK SMILES IDX 4 1 3 2 16 3 24 4 2 5 25 6 1 7 32 8 26 9 30 10 27 11 29 12
REMARK SMILES IDX 17 13 18 14 19 15 20 16 23 17 22 18 21 19 31 21 28 23 5 25
REMARK SMILES IDX 14 26 6 27 12 28 7 29 10 30 15 31 13 33 8 35 9 36 11 38
REMARK H PARENT 21 20 31 22 28 24 15 32 13 34 9 37 11 39
REMARK Flexibility Score: inf
ROOT
ATOM      1  O   UNL     1       3.895 -11.552  16.626  1.00  0.00    -0.454 OA
ENDROOT
BRANCH   1   2
ATOM      2  C   UNL     1       4.684 -11.255  15.503  1.00  0.00     0.214 A 
ATOM      3  C   UNL     1       4.999 -12.218  14.520  1.00  0.00     0.180 A 
ATOM      4  O   UNL     1       5.681 -11.855  13.442  1.00  0.00    -0.452 OA
ATOM      5  C   UNL     1       5.193  -9.960  15.363  1.00  0.00     0.239 A 
ATOM      6  C   UNL     1       6.128 -10.623  13.237  1.00  0.00     0.146 A 
ATOM      7  O   UNL     1       5.025  -9.147  16.310  1.00  0.00    -0.285 OA
ATOM      8  C   UNL     1       5.893  -9.595  14.188  1.00  0.00     0.111 A 
ATOM      9  C   UNL     1       6.857 -10.362  12.075  1.00  0.00     0.094 A 
ATOM     10  C   UNL     1       6.388  -8.285  13.910  1.00  0.00     0.134 A 
ATOM     11  C   UNL     1       7.381  -9.093  11.839  1.00  0.00     0.123 A 
ATOM     12  C   UNL     1       7.149  -8.065  12.756  1.00  0.00     0.093 A 
BRANCH   3  13
ATOM     13  C   UNL     1       4.643 -13.645  14.661  1.00  0.00     0.021 A 
ATOM     14  C   UNL     1       5.647 -14.593  14.910  1.00  0.00     0.016 A 
ATOM     15  C   UNL     1       5.321 -15.945  15.055  1.00  0.00     0.047 A 
ATOM     16  C   UNL     1       3.990 -16.361  14.967  1.00  0.00     0.115 A 
ATOM     17  C   UNL     1       3.303 -14.064  14.600  1.00  0.00     0.016 A 
ATOM     18  C   UNL     1       2.979 -15.417  14.742  1.00  0.00     0.047 A 
BRANCH  16  19
ATOM     19  O   UNL     1       3.680 -17.713  15.109  1.00  0.00    -0.508 OA
ATOM     20  H   UNL     1       3.458 -18.112  16.014  1.00  0.00     0.293 HD
ENDBRANCH  16  19
ENDBRANCH   3  13
BRANCH  10  21
ATOM     21  O   UNL     1       6.139  -7.168  14.713  1.00  0.00    -0.507 OA
ATOM     22  H   UNL     1       6.825  -6.474  14.967  1.00  0.00     0.293 HD
ENDBRANCH  10  21
BRANCH  11  23
ATOM     23  O   UNL     1       8.124  -8.861  10.684  1.00  0.00    -0.508 OA
ATOM     24  H   UNL     1       9.137  -8.885  10.693  1.00  0.00     0.293 HD
ENDBRANCH  11  23
ENDBRANCH   1   2
BRANCH   1  25
ATOM     25  C   UNL     1       4.384 -11.579  17.973  1.00  0.00     0.339 C 
ATOM     26  C   UNL     1       4.005 -12.888  18.695  1.00  0.00     0.214 C 
ATOM     27  O   UNL     1       3.940 -10.432  18.689  1.00  0.00    -0.332 OA
ATOM     28  C   UNL     1       2.484 -12.958  18.915  1.00  0.00     0.180 C 
ATOM     29  C   UNL     1       2.535 -10.400  18.930  1.00  0.00     0.179 C 
ATOM     30  C   UNL     1       2.026 -11.682  19.646  1.00  0.00     0.177 C 
BRANCH  26  31
ATOM     31  O   UNL     1       4.489 -14.013  18.003  1.00  0.00    -0.384 OA
ATOM     32  H   UNL     1       5.476 -14.023  18.084  1.00  0.00     0.211 HD
ENDBRANCH  26  31
BRANCH  28  33
ATOM     33  O   UNL     1       2.134 -14.110  19.643  1.00  0.00    -0.387 OA
ATOM     34  H   UNL     1       1.776 -13.818  20.522  1.00  0.00     0.211 HD
ENDBRANCH  28  33
BRANCH  29  35
ATOM     35  C   UNL     1       1.738 -10.000  17.669  1.00  0.00     0.191 C 
BRANCH  35  36
ATOM     36  O   UNL     1       2.318  -8.872  17.072  1.00  0.00    -0.394 OA
ATOM     37  H   UNL     1       1.637  -8.151  17.124  1.00  0.00     0.210 HD
ENDBRANCH  35  36
ENDBRANCH  29  35
BRANCH  30  38
ATOM     38  O   UNL     1       0.631 -11.658  19.834  1.00  0.00    -0.387 OA
ATOM     39  H   UNL     1       0.292 -12.587  19.752  1.00  0.00     0.211 HD
ENDBRANCH  30  38
ENDBRANCH   1  25
TORSDOF 11
ENDMDL
MODEL 7
REMARK VINA RESULT:    -4.505      2.217      7.515
REMARK INTER + INTRA:          -8.187
REMARK INTER:                  -7.083
REMARK INTRA:                  -1.104
REMARK UNBOUND:                -1.707
REMARK SMILES O=c1c(O[C@H]2O[C@@H](CO)[C@@H](O)[C@H](O)[C@H]2O)c(-c2ccc(O)cc2)oc2cc(O)cc(O)c12
REMARK SMILES IDX 4 1 3 2 16 3 24 4 2 5 25 6 1 7 32 8 26 9 30 10 27 11 29 12
REMARK SMILES IDX 17 13 18 14 19 15 20 16 23 17 22 18 21 19 31 21 28 23 5 25
REMARK SMILES IDX 14 26 6 27 12 28 7 29 10 30 15 31 13 33 8 35 9 36 11 38
REMARK H PARENT 21 20 31 22 28 24 15 32 13 34 9 37 11 39
REMARK Flexibility Score: inf
ROOT
ATOM      1  O   UNL     1       5.256 -13.927  14.889  1.00  0.00    -0.454 OA
ENDROOT
BRANCH   1   2
ATOM      2  C   UNL     1       5.421 -12.546  15.086  1.00  0.00     0.214 A 
ATOM      3  C   UNL     1       5.115 -11.912  16.308  1.00  0.00     0.180 A 
ATOM      4  O   UNL     1       5.369 -10.618  16.458  1.00  0.00    -0.452 OA
ATOM      5  C   UNL     1       5.889 -11.768  14.022  1.00  0.00     0.239 A 
ATOM      6  C   UNL     1       5.873  -9.855  15.497  1.00  0.00     0.146 A 
ATOM      7  O   UNL     1       6.027 -12.315  12.897  1.00  0.00    -0.285 OA
ATOM      8  C   UNL     1       6.178 -10.396  14.221  1.00  0.00     0.111 A 
ATOM      9  C   UNL     1       6.076  -8.498  15.761  1.00  0.00     0.094 A 
ATOM     10  C   UNL     1       6.729  -9.530  13.228  1.00  0.00     0.134 A 
ATOM     11  C   UNL     1       6.565  -7.651  14.769  1.00  0.00     0.123 A 
ATOM     12  C   UNL     1       6.883  -8.167  13.510  1.00  0.00     0.093 A 
BRANCH   3  13
ATOM     13  C   UNL     1       4.468 -12.619  17.433  1.00  0.00     0.021 A 
ATOM     14  C   UNL     1       3.106 -12.951  17.357  1.00  0.00     0.016 A 
ATOM     15  C   UNL     1       2.486 -13.629  18.411  1.00  0.00     0.047 A 
ATOM     16  C   UNL     1       3.220 -13.996  19.542  1.00  0.00     0.115 A 
ATOM     17  C   UNL     1       5.209 -13.014  18.560  1.00  0.00     0.016 A 
ATOM     18  C   UNL     1       4.586 -13.690  19.614  1.00  0.00     0.047 A 
BRANCH  16  19
ATOM     19  O   UNL     1       2.587 -14.668  20.586  1.00  0.00    -0.508 OA
ATOM     20  H   UNL     1       3.107 -15.015  21.384  1.00  0.00     0.293 HD
ENDBRANCH  16  19
ENDBRANCH   3  13
BRANCH  10  21
ATOM     21  O   UNL     1       7.164  -9.957  11.970  1.00  0.00    -0.507 OA
ATOM     22  H   UNL     1       6.588 -10.427  11.288  1.00  0.00     0.293 HD
ENDBRANCH  10  21
BRANCH  11  23
ATOM     23  O   UNL     1       6.738  -6.297  15.046  1.00  0.00    -0.508 OA
ATOM     24  H   UNL     1       7.233  -5.684  14.409  1.00  0.00     0.293 HD
ENDBRANCH  11  23
ENDBRANCH   1   2
BRANCH   1  25
ATOM     25  C   UNL     1       5.847 -14.938  15.715  1.00  0.00     0.339 C 
ATOM     26  C   UNL     1       6.928 -15.737  14.959  1.00  0.00     0.214 C 
ATOM     27  O   UNL     1       4.844 -15.788  16.259  1.00  0.00    -0.332 OA
ATOM     28  C   UNL     1       6.290 -16.581  13.844  1.00  0.00     0.180 C 
ATOM     29  C   UNL     1       4.183 -16.605  15.295  1.00  0.00     0.179 C 
ATOM     30  C   UNL     1       5.176 -17.453  14.453  1.00  0.00     0.177 C 
BRANCH  26  31
ATOM     31  O   UNL     1       7.938 -14.890  14.466  1.00  0.00    -0.384 OA
ATOM     32  H   UNL     1       8.805 -15.361  14.553  1.00  0.00     0.211 HD
ENDBRANCH  26  31
BRANCH  28  33
ATOM     33  O   UNL     1       7.256 -17.375  13.198  1.00  0.00    -0.387 OA
ATOM     34  H   UNL     1       7.947 -16.769  12.823  1.00  0.00     0.211 HD
ENDBRANCH  28  33
BRANCH  29  35
ATOM     35  C   UNL     1       3.149 -15.807  14.471  1.00  0.00     0.191 C 
BRANCH  35  36
ATOM     36  O   UNL     1       2.041 -15.488  15.268  1.00  0.00    -0.394 OA
ATOM     37  H   UNL     1       1.748 -14.582  14.985  1.00  0.00     0.210 HD
ENDBRANCH  35  36
ENDBRANCH  29  35
BRANCH  30  38
ATOM     38  O   UNL     1       4.513 -18.217  13.474  1.00  0.00    -0.387 OA
ATOM     39  H   UNL     1       3.551 -17.974  13.491  1.00  0.00     0.211 HD
ENDBRANCH  30  38
ENDBRANCH   1  25
TORSDOF 11
ENDMDL
MODEL 8
REMARK VINA RESULT:    -4.385      2.060      5.240
REMARK INTER + INTRA:          -8.015
REMARK INTER:                  -6.300
REMARK INTRA:                  -1.715
REMARK UNBOUND:                -1.707
REMARK SMILES O=c1c(O[C@H]2O[C@@H](CO)[C@@H](O)[C@H](O)[C@H]2O)c(-c2ccc(O)cc2)oc2cc(O)cc(O)c12
REMARK SMILES IDX 4 1 3 2 16 3 24 4 2 5 25 6 1 7 32 8 26 9 30 10 27 11 29 12
REMARK SMILES IDX 17 13 18 14 19 15 20 16 23 17 22 18 21 19 31 21 28 23 5 25
REMARK SMILES IDX 14 26 6 27 12 28 7 29 10 30 15 31 13 33 8 35 9 36 11 38
REMARK H PARENT 21 20 31 22 28 24 15 32 13 34 9 37 11 39
REMARK Flexibility Score: inf
ROOT
ATOM      1  O   UNL     1       5.491 -13.239  15.766  1.00  0.00    -0.454 OA
ENDROOT
BRANCH   1   2
ATOM      2  C   UNL     1       5.478 -14.643  15.708  1.00  0.00     0.214 A 
ATOM      3  C   UNL     1       4.723 -15.434  16.599  1.00  0.00     0.180 A 
ATOM      4  O   UNL     1       4.690 -16.751  16.441  1.00  0.00    -0.452 OA
ATOM      5  C   UNL     1       6.260 -15.281  14.739  1.00  0.00     0.239 A 
ATOM      6  C   UNL     1       5.364 -17.393  15.497  1.00  0.00     0.146 A 
ATOM      7  O   UNL     1       7.036 -14.578  14.039  1.00  0.00    -0.285 OA
ATOM      8  C   UNL     1       6.181 -16.685  14.576  1.00  0.00     0.111 A 
ATOM      9  C   UNL     1       5.273 -18.785  15.441  1.00  0.00     0.094 A 
ATOM     10  C   UNL     1       6.876 -17.427  13.573  1.00  0.00     0.134 A 
ATOM     11  C   UNL     1       5.996 -19.503  14.492  1.00  0.00     0.123 A 
ATOM     12  C   UNL     1       6.795 -18.825  13.569  1.00  0.00     0.093 A 
BRANCH   3  13
ATOM     13  C   UNL     1       3.996 -14.861  17.751  1.00  0.00     0.021 A 
ATOM     14  C   UNL     1       4.562 -14.921  19.034  1.00  0.00     0.016 A 
ATOM     15  C   UNL     1       3.887 -14.374  20.129  1.00  0.00     0.047 A 
ATOM     16  C   UNL     1       2.650 -13.748  19.953  1.00  0.00     0.115 A 
ATOM     17  C   UNL     1       2.764 -14.207  17.574  1.00  0.00     0.016 A 
ATOM     18  C   UNL     1       2.089 -13.662  18.672  1.00  0.00     0.047 A 
BRANCH  16  19
ATOM     19  O   UNL     1       1.987 -13.211  21.055  1.00  0.00    -0.508 OA
ATOM     20  H   UNL     1       2.496 -12.838  21.848  1.00  0.00     0.293 HD
ENDBRANCH  16  19
ENDBRANCH   3  13
BRANCH  10  21
ATOM     21  O   UNL     1       7.630 -16.845  12.549  1.00  0.00    -0.507 OA
ATOM     22  H   UNL     1       7.704 -17.204  11.611  1.00  0.00     0.293 HD
ENDBRANCH  10  21
BRANCH  11  23
ATOM     23  O   UNL     1       5.908 -20.893  14.469  1.00  0.00    -0.508 OA
ATOM     24  H   UNL     1       5.136 -21.368  14.015  1.00  0.00     0.293 HD
ENDBRANCH  11  23
ENDBRANCH   1   2
BRANCH   1  25
ATOM     25  C   UNL     1       4.635 -12.390  14.990  1.00  0.00     0.339 C 
ATOM     26  C   UNL     1       5.441 -11.409  14.116  1.00  0.00     0.214 C 
ATOM     27  O   UNL     1       3.708 -11.713  15.830  1.00  0.00    -0.332 OA
ATOM     28  C   UNL     1       6.178 -10.386  14.997  1.00  0.00     0.180 C 
ATOM     29  C   UNL     1       4.301 -10.749  16.698  1.00  0.00     0.179 C 
ATOM     30  C   UNL     1       5.158  -9.705  15.930  1.00  0.00     0.177 C 
BRANCH  26  31
ATOM     31  O   UNL     1       6.321 -12.093  13.256  1.00  0.00    -0.384 OA
ATOM     32  H   UNL     1       6.825 -11.420  12.733  1.00  0.00     0.211 HD
ENDBRANCH  26  31
BRANCH  28  33
ATOM     33  O   UNL     1       6.853  -9.436  14.209  1.00  0.00    -0.387 OA
ATOM     34  H   UNL     1       6.367  -8.574  14.288  1.00  0.00     0.211 HD
ENDBRANCH  28  33
BRANCH  29  35
ATOM     35  C   UNL     1       5.007 -11.409  17.902  1.00  0.00     0.191 C 
BRANCH  35  36
ATOM     36  O   UNL     1       4.937 -10.568  19.022  1.00  0.00    -0.394 OA
ATOM     37  H   UNL     1       4.028 -10.167  19.010  1.00  0.00     0.210 HD
ENDBRANCH  35  36
ENDBRANCH  29  35
BRANCH  30  38
ATOM     38  O   UNL     1       5.776  -8.790  16.802  1.00  0.00    -0.387 OA
ATOM     39  H   UNL     1       6.007  -9.269  17.640  1.00  0.00     0.211 HD
ENDBRANCH  30  38
ENDBRANCH   1  25
TORSDOF 11
ENDMDL
MODEL 9
REMARK VINA RESULT:    -4.275      1.659      6.553
REMARK INTER + INTRA:          -7.856
REMARK INTER:                  -6.693
REMARK INTRA:                  -1.163
REMARK UNBOUND:                -1.707
REMARK SMILES O=c1c(O[C@H]2O[C@@H](CO)[C@@H](O)[C@H](O)[C@H]2O)c(-c2ccc(O)cc2)oc2cc(O)cc(O)c12
REMARK SMILES IDX 4 1 3 2 16 3 24 4 2 5 25 6 1 7 32 8 26 9 30 10 27 11 29 12
REMARK SMILES IDX 17 13 18 14 19 15 20 16 23 17 22 18 21 19 31 21 28 23 5 25
REMARK SMILES IDX 14 26 6 27 12 28 7 29 10 30 15 31 13 33 8 35 9 36 11 38
REMARK H PARENT 21 20 31 22 28 24 15 32 13 34 9 37 11 39
REMARK Flexibility Score: inf
ROOT
ATOM      1  O   UNL     1       4.054 -13.030  15.881  1.00  0.00    -0.454 OA
ENDROOT
BRANCH   1   2
ATOM      2  C   UNL     1       3.671 -11.781  16.396  1.00  0.00     0.214 A 
ATOM      3  C   UNL     1       4.151 -10.563  15.870  1.00  0.00     0.180 A 
ATOM      4  O   UNL     1       3.690  -9.414  16.349  1.00  0.00    -0.452 OA
ATOM      5  C   UNL     1       2.795 -11.744  17.487  1.00  0.00     0.239 A 
ATOM      6  C   UNL     1       2.810  -9.333  17.338  1.00  0.00     0.146 A 
ATOM      7  O   UNL     1       2.482 -12.832  18.038  1.00  0.00    -0.285 OA
ATOM      8  C   UNL     1       2.298 -10.504  17.956  1.00  0.00     0.111 A 
ATOM      9  C   UNL     1       2.414  -8.068  17.777  1.00  0.00     0.094 A 
ATOM     10  C   UNL     1       1.345 -10.358  19.009  1.00  0.00     0.134 A 
ATOM     11  C   UNL     1       1.523  -7.935  18.840  1.00  0.00     0.123 A 
ATOM     12  C   UNL     1       0.999  -9.075  19.452  1.00  0.00     0.093 A 
BRANCH   3  13
ATOM     13  C   UNL     1       5.198 -10.502  14.829  1.00  0.00     0.021 A 
ATOM     14  C   UNL     1       4.994 -11.143  13.597  1.00  0.00     0.016 A 
ATOM     15  C   UNL     1       5.973 -11.085  12.601  1.00  0.00     0.047 A 
ATOM     16  C   UNL     1       7.156 -10.374  12.817  1.00  0.00     0.115 A 
ATOM     17  C   UNL     1       6.378  -9.766  15.033  1.00  0.00     0.016 A 
ATOM     18  C   UNL     1       7.357  -9.711  14.036  1.00  0.00     0.047 A 
BRANCH  16  19
ATOM     19  O   UNL     1       8.125 -10.328  11.816  1.00  0.00    -0.508 OA
ATOM     20  H   UNL     1       8.938 -10.933  11.838  1.00  0.00     0.293 HD
ENDBRANCH  16  19
ENDBRANCH   3  13
BRANCH  10  21
ATOM     21  O   UNL     1       0.693 -11.427  19.629  1.00  0.00    -0.507 OA
ATOM     22  H   UNL     1       1.105 -12.032  20.322  1.00  0.00     0.293 HD
ENDBRANCH  10  21
BRANCH  11  23
ATOM     23  O   UNL     1       1.160  -6.663  19.276  1.00  0.00    -0.508 OA
ATOM     24  H   UNL     1       1.851  -5.939  19.433  1.00  0.00     0.293 HD
ENDBRANCH  11  23
ENDBRANCH   1   2
BRANCH   1  25
ATOM     25  C   UNL     1       4.785 -14.019  16.616  1.00  0.00     0.339 C 
ATOM     26  C   UNL     1       6.072 -14.445  15.882  1.00  0.00     0.214 C 
ATOM     27  O   UNL     1       3.954 -15.133  16.918  1.00  0.00    -0.332 OA
ATOM     28  C   UNL     1       5.727 -15.209  14.593  1.00  0.00     0.180 C 
ATOM     29  C   UNL     1       3.567 -15.900  15.780  1.00  0.00     0.179 C 
ATOM     30  C   UNL     1       4.786 -16.378  14.944  1.00  0.00     0.177 C 
BRANCH  26  31
ATOM     31  O   UNL     1       6.907 -13.341  15.631  1.00  0.00    -0.384 OA
ATOM     32  H   UNL     1       7.532 -13.586  14.903  1.00  0.00     0.211 HD
ENDBRANCH  26  31
BRANCH  28  33
ATOM     33  O   UNL     1       6.892 -15.672  13.955  1.00  0.00    -0.387 OA
ATOM     34  H   UNL     1       7.645 -15.091  14.237  1.00  0.00     0.211 HD
ENDBRANCH  28  33
BRANCH  29  35
ATOM     35  C   UNL     1       2.452 -15.208  14.966  1.00  0.00     0.191 C 
BRANCH  35  36
ATOM     36  O   UNL     1       1.559 -14.558  15.828  1.00  0.00    -0.394 OA
ATOM     37  H   UNL     1       0.649 -14.736  15.470  1.00  0.00     0.210 HD
ENDBRANCH  35  36
ENDBRANCH  29  35
BRANCH  30  38
ATOM     38  O   UNL     1       4.388 -17.092  13.798  1.00  0.00    -0.387 OA
ATOM     39  H   UNL     1       3.558 -17.589  14.016  1.00  0.00     0.211 HD
ENDBRANCH  30  38
ENDBRANCH   1  25
TORSDOF 11
ENDMDL
