MODEL 1
REMARK VINA RESULT:    -4.787      0.000      0.000
REMARK INTER + INTRA:          -6.055
REMARK INTER:                  -5.906
REMARK INTRA:                  -0.149
REMARK UNBOUND:                -0.149
REMARK SMILES O=c1c(O)c(-c2cc(O)c(O)c(O)c2)oc2cc(O)cc(O)c12
REMARK SMILES IDX 5 1 3 2 2 3 1 4 23 5 21 6 20 7 18 8 17 9 16 10 15 11 6 12
REMARK SMILES IDX 7 13 8 14 14 15 10 16 12 17 9 18 11 20 13 22 4 24 22 26
REMARK SMILES IDX 19 28
REMARK H PARENT 9 19 11 21 13 23 4 25 22 27 19 29
REMARK Flexibility Score: inf
ROOT
ATOM      1  C   UNL     1     -26.192  51.180  41.936  1.00  0.00     0.180 A 
ATOM      2  C   UNL     1     -25.331  51.922  41.109  1.00  0.00     0.208 A 
ATOM      3  C   UNL     1     -24.937  53.208  41.514  1.00  0.00     0.238 A 
ATOM      4  O   UNL     1     -24.211  53.888  40.744  1.00  0.00    -0.285 OA
ATOM      5  C   UNL     1     -25.396  53.729  42.748  1.00  0.00     0.111 A 
ATOM      6  C   UNL     1     -25.029  55.002  43.277  1.00  0.00     0.134 A 
ATOM      7  C   UNL     1     -25.645  55.470  44.445  1.00  0.00     0.093 A 
ATOM      8  C   UNL     1     -26.567  54.680  45.137  1.00  0.00     0.123 A 
ATOM      9  C   UNL     1     -26.887  53.411  44.661  1.00  0.00     0.094 A 
ATOM     10  C   UNL     1     -26.316  52.933  43.479  1.00  0.00     0.146 A 
ATOM     11  O   UNL     1     -26.657  51.722  43.055  1.00  0.00    -0.452 OA
ENDROOT
BRANCH   1  12
ATOM     12  C   UNL     1     -26.630  49.810  41.588  1.00  0.00     0.029 A 
ATOM     13  C   UNL     1     -26.343  48.716  42.423  1.00  0.00     0.062 A 
ATOM     14  C   UNL     1     -26.786  47.429  42.089  1.00  0.00     0.162 A 
ATOM     15  C   UNL     1     -27.398  49.603  40.433  1.00  0.00     0.062 A 
ATOM     16  C   UNL     1     -27.535  47.227  40.916  1.00  0.00     0.200 A 
ATOM     17  C   UNL     1     -27.844  48.322  40.090  1.00  0.00     0.162 A 
BRANCH  14  18
ATOM     18  O   UNL     1     -26.490  46.350  42.921  1.00  0.00    -0.504 OA
ATOM     19  H   UNL     1     -26.648  46.391  43.920  1.00  0.00     0.293 HD
ENDBRANCH  14  18
BRANCH  16  20
ATOM     20  O   UNL     1     -27.981  45.952  40.567  1.00  0.00    -0.502 OA
ATOM     21  H   UNL     1     -28.334  45.296  41.253  1.00  0.00     0.293 HD
ENDBRANCH  16  20
BRANCH  17  22
ATOM     22  O   UNL     1     -28.591  48.156  38.925  1.00  0.00    -0.504 OA
ATOM     23  H   UNL     1     -28.165  48.148  38.006  1.00  0.00     0.293 HD
ENDBRANCH  17  22
ENDBRANCH   1  12
BRANCH   2  24
ATOM     24  O   UNL     1     -24.908  51.398  39.885  1.00  0.00    -0.502 OA
ATOM     25  H   UNL     1     -25.360  50.603  39.448  1.00  0.00     0.293 HD
ENDBRANCH   2  24
BRANCH   6  26
ATOM     26  O   UNL     1     -24.052  55.829  42.714  1.00  0.00    -0.507 OA
ATOM     27  H   UNL     1     -24.228  56.526  42.007  1.00  0.00     0.293 HD
ENDBRANCH   6  26
BRANCH   8  28
ATOM     28  O   UNL     1     -27.164  55.146  46.307  1.00  0.00    -0.508 OA
ATOM     29  H   UNL     1     -28.110  55.509  46.311  1.00  0.00     0.293 HD
ENDBRANCH   8  28
TORSDOF 7
ENDMDL
MODEL 2
REMARK VINA RESULT:    -4.748      0.053      1.755
REMARK INTER + INTRA:          -6.007
REMARK INTER:                  -5.858
REMARK INTRA:                  -0.149
REMARK UNBOUND:                -0.149
REMARK SMILES O=c1c(O)c(-c2cc(O)c(O)c(O)c2)oc2cc(O)cc(O)c12
REMARK SMILES IDX 5 1 3 2 2 3 1 4 23 5 21 6 20 7 18 8 17 9 16 10 15 11 6 12
REMARK SMILES IDX 7 13 8 14 14 15 10 16 12 17 9 18 11 20 13 22 4 24 22 26
REMARK SMILES IDX 19 28
REMARK H PARENT 9 19 11 21 13 23 4 25 22 27 19 29
REMARK Flexibility Score: inf
ROOT
ATOM      1  C   UNL     1     -26.227  51.187  41.942  1.00  0.00     0.180 A 
ATOM      2  C   UNL     1     -25.347  51.915  41.123  1.00  0.00     0.208 A 
ATOM      3  C   UNL     1     -24.933  53.193  41.534  1.00  0.00     0.238 A 
ATOM      4  O   UNL     1     -24.189  53.861  40.771  1.00  0.00    -0.285 OA
ATOM      5  C   UNL     1     -25.393  53.719  42.766  1.00  0.00     0.111 A 
ATOM      6  C   UNL     1     -25.007  54.985  43.300  1.00  0.00     0.134 A 
ATOM      7  C   UNL     1     -25.624  55.461  44.463  1.00  0.00     0.093 A 
ATOM      8  C   UNL     1     -26.566  54.687  45.147  1.00  0.00     0.123 A 
ATOM      9  C   UNL     1     -26.905  53.424  44.666  1.00  0.00     0.094 A 
ATOM     10  C   UNL     1     -26.332  52.938  43.488  1.00  0.00     0.146 A 
ATOM     11  O   UNL     1     -26.691  51.734  43.058  1.00  0.00    -0.452 OA
ENDROOT
BRANCH   1  12
ATOM     12  C   UNL     1     -26.687  49.825  41.588  1.00  0.00     0.029 A 
ATOM     13  C   UNL     1     -27.420  49.583  40.413  1.00  0.00     0.062 A 
ATOM     14  C   UNL     1     -27.827  48.283  40.082  1.00  0.00     0.162 A 
ATOM     15  C   UNL     1     -26.337  48.743  42.408  1.00  0.00     0.062 A 
ATOM     16  C   UNL     1     -27.491  47.207  40.923  1.00  0.00     0.200 A 
ATOM     17  C   UNL     1     -26.739  47.442  42.087  1.00  0.00     0.162 A 
BRANCH  14  18
ATOM     18  O   UNL     1     -28.559  48.055  38.918  1.00  0.00    -0.504 OA
ATOM     19  H   UNL     1     -28.186  48.280  38.003  1.00  0.00     0.293 HD
ENDBRANCH  14  18
BRANCH  16  20
ATOM     20  O   UNL     1     -27.891  45.907  40.610  1.00  0.00    -0.502 OA
ATOM     21  H   UNL     1     -28.852  45.601  40.701  1.00  0.00     0.293 HD
ENDBRANCH  16  20
BRANCH  17  22
ATOM     22  O   UNL     1     -26.383  46.396  42.937  1.00  0.00    -0.504 OA
ATOM     23  H   UNL     1     -25.716  46.515  43.691  1.00  0.00     0.293 HD
ENDBRANCH  17  22
ENDBRANCH   1  12
BRANCH   2  24
ATOM     24  O   UNL     1     -24.923  51.385  39.901  1.00  0.00    -0.502 OA
ATOM     25  H   UNL     1     -24.118  51.744  39.403  1.00  0.00     0.293 HD
ENDBRANCH   2  24
BRANCH   6  26
ATOM     26  O   UNL     1     -24.011  55.795  42.746  1.00  0.00    -0.507 OA
ATOM     27  H   UNL     1     -23.058  55.506  42.588  1.00  0.00     0.293 HD
ENDBRANCH   6  26
BRANCH   8  28
ATOM     28  O   UNL     1     -27.164  55.161  46.313  1.00  0.00    -0.508 OA
ATOM     29  H   UNL     1     -27.867  55.890  46.289  1.00  0.00     0.293 HD
ENDBRANCH   8  28
TORSDOF 7
ENDMDL
MODEL 3
REMARK VINA RESULT:    -4.393      1.594      7.061
REMARK INTER + INTRA:          -5.570
REMARK INTER:                  -5.425
REMARK INTRA:                  -0.145
REMARK UNBOUND:                -0.149
REMARK SMILES O=c1c(O)c(-c2cc(O)c(O)c(O)c2)oc2cc(O)cc(O)c12
REMARK SMILES IDX 5 1 3 2 2 3 1 4 23 5 21 6 20 7 18 8 17 9 16 10 15 11 6 12
REMARK SMILES IDX 7 13 8 14 14 15 10 16 12 17 9 18 11 20 13 22 4 24 22 26
REMARK SMILES IDX 19 28
REMARK H PARENT 9 19 11 21 13 23 4 25 22 27 19 29
REMARK Flexibility Score: inf
ROOT
ATOM      1  C   UNL     1     -25.894  52.092  43.473  1.00  0.00     0.180 A 
ATOM      2  C   UNL     1     -26.111  51.881  42.100  1.00  0.00     0.208 A 
ATOM      3  C   UNL     1     -26.222  50.565  41.622  1.00  0.00     0.238 A 
ATOM      4  O   UNL     1     -26.361  50.381  40.385  1.00  0.00    -0.285 OA
ATOM      5  C   UNL     1     -26.132  49.478  42.525  1.00  0.00     0.111 A 
ATOM      6  C   UNL     1     -26.270  48.106  42.157  1.00  0.00     0.134 A 
ATOM      7  C   UNL     1     -26.032  47.108  43.110  1.00  0.00     0.093 A 
ATOM      8  C   UNL     1     -25.725  47.435  44.434  1.00  0.00     0.123 A 
ATOM      9  C   UNL     1     -25.646  48.772  44.816  1.00  0.00     0.094 A 
ATOM     10  C   UNL     1     -25.843  49.789  43.879  1.00  0.00     0.146 A 
ATOM     11  O   UNL     1     -25.749  51.051  44.283  1.00  0.00    -0.452 OA
ENDROOT
BRANCH   1  12
ATOM     12  C   UNL     1     -25.791  53.449  44.054  1.00  0.00     0.029 A 
ATOM     13  C   UNL     1     -26.686  53.891  45.044  1.00  0.00     0.062 A 
ATOM     14  C   UNL     1     -26.559  55.172  45.600  1.00  0.00     0.162 A 
ATOM     15  C   UNL     1     -24.747  54.295  43.653  1.00  0.00     0.062 A 
ATOM     16  C   UNL     1     -25.522  56.021  45.174  1.00  0.00     0.200 A 
ATOM     17  C   UNL     1     -24.612  55.575  44.200  1.00  0.00     0.162 A 
BRANCH  14  18
ATOM     18  O   UNL     1     -27.456  55.601  46.576  1.00  0.00    -0.504 OA
ATOM     19  H   UNL     1     -27.157  55.792  47.525  1.00  0.00     0.293 HD
ENDBRANCH  14  18
BRANCH  16  20
ATOM     20  O   UNL     1     -25.384  57.300  45.714  1.00  0.00    -0.502 OA
ATOM     21  H   UNL     1     -25.939  57.619  46.498  1.00  0.00     0.293 HD
ENDBRANCH  16  20
BRANCH  17  22
ATOM     22  O   UNL     1     -23.568  56.390  43.764  1.00  0.00    -0.504 OA
ATOM     23  H   UNL     1     -22.671  56.013  43.482  1.00  0.00     0.293 HD
ENDBRANCH  17  22
ENDBRANCH   1  12
BRANCH   2  24
ATOM     24  O   UNL     1     -26.176  52.967  41.223  1.00  0.00    -0.502 OA
ATOM     25  H   UNL     1     -26.595  52.900  40.304  1.00  0.00     0.293 HD
ENDBRANCH   2  24
BRANCH   6  26
ATOM     26  O   UNL     1     -26.663  47.674  40.887  1.00  0.00    -0.507 OA
ATOM     27  H   UNL     1     -26.297  46.859  40.418  1.00  0.00     0.293 HD
ENDBRANCH   6  26
BRANCH   8  28
ATOM     28  O   UNL     1     -25.506  46.436  45.380  1.00  0.00    -0.508 OA
ATOM     29  H   UNL     1     -25.672  45.459  45.168  1.00  0.00     0.293 HD
ENDBRANCH   8  28
TORSDOF 7
ENDMDL
MODEL 4
REMARK VINA RESULT:    -4.372      1.575      7.357
REMARK INTER + INTRA:          -5.544
REMARK INTER:                  -5.349
REMARK INTRA:                  -0.196
REMARK UNBOUND:                -0.149
REMARK SMILES O=c1c(O)c(-c2cc(O)c(O)c(O)c2)oc2cc(O)cc(O)c12
REMARK SMILES IDX 5 1 3 2 2 3 1 4 23 5 21 6 20 7 18 8 17 9 16 10 15 11 6 12
REMARK SMILES IDX 7 13 8 14 14 15 10 16 12 17 9 18 11 20 13 22 4 24 22 26
REMARK SMILES IDX 19 28
REMARK H PARENT 9 19 11 21 13 23 4 25 22 27 19 29
REMARK Flexibility Score: inf
ROOT
ATOM      1  C   UNL     1     -25.933  51.849  43.800  1.00  0.00     0.180 A 
ATOM      2  C   UNL     1     -25.636  50.762  44.641  1.00  0.00     0.208 A 
ATOM      3  C   UNL     1     -25.729  49.458  44.129  1.00  0.00     0.238 A 
ATOM      4  O   UNL     1     -25.516  48.489  44.901  1.00  0.00    -0.285 OA
ATOM      5  C   UNL     1     -26.103  49.258  42.777  1.00  0.00     0.111 A 
ATOM      6  C   UNL     1     -26.190  47.983  42.142  1.00  0.00     0.134 A 
ATOM      7  C   UNL     1     -26.695  47.894  40.838  1.00  0.00     0.093 A 
ATOM      8  C   UNL     1     -27.054  49.042  40.126  1.00  0.00     0.123 A 
ATOM      9  C   UNL     1     -26.916  50.295  40.717  1.00  0.00     0.094 A 
ATOM     10  C   UNL     1     -26.450  50.412  42.029  1.00  0.00     0.146 A 
ATOM     11  O   UNL     1     -26.343  51.626  42.558  1.00  0.00    -0.452 OA
ENDROOT
BRANCH   1  12
ATOM     12  C   UNL     1     -25.833  53.252  44.262  1.00  0.00     0.029 A 
ATOM     13  C   UNL     1     -26.672  53.751  45.273  1.00  0.00     0.062 A 
ATOM     14  C   UNL     1     -26.546  55.076  45.714  1.00  0.00     0.162 A 
ATOM     15  C   UNL     1     -24.845  54.088  43.722  1.00  0.00     0.062 A 
ATOM     16  C   UNL     1     -25.568  55.913  45.150  1.00  0.00     0.200 A 
ATOM     17  C   UNL     1     -24.713  55.411  44.153  1.00  0.00     0.162 A 
BRANCH  14  18
ATOM     18  O   UNL     1     -27.388  55.561  46.714  1.00  0.00    -0.504 OA
ATOM     19  H   UNL     1     -28.352  55.261  46.788  1.00  0.00     0.293 HD
ENDBRANCH  14  18
BRANCH  16  20
ATOM     20  O   UNL     1     -25.433  57.235  45.575  1.00  0.00    -0.502 OA
ATOM     21  H   UNL     1     -24.557  57.739  45.504  1.00  0.00     0.293 HD
ENDBRANCH  16  20
BRANCH  17  22
ATOM     22  O   UNL     1     -23.727  56.214  43.581  1.00  0.00    -0.504 OA
ATOM     23  H   UNL     1     -23.813  57.222  43.531  1.00  0.00     0.293 HD
ENDBRANCH  17  22
ENDBRANCH   1  12
BRANCH   2  24
ATOM     24  O   UNL     1     -25.291  50.982  45.978  1.00  0.00    -0.502 OA
ATOM     25  H   UNL     1     -24.831  50.279  46.544  1.00  0.00     0.293 HD
ENDBRANCH   2  24
BRANCH   6  26
ATOM     26  O   UNL     1     -25.771  46.787  42.731  1.00  0.00    -0.507 OA
ATOM     27  H   UNL     1     -24.911  46.309  42.513  1.00  0.00     0.293 HD
ENDBRANCH   6  26
BRANCH   8  28
ATOM     28  O   UNL     1     -27.541  48.946  38.824  1.00  0.00    -0.508 OA
ATOM     29  H   UNL     1     -28.535  48.934  38.629  1.00  0.00     0.293 HD
ENDBRANCH   8  28
TORSDOF 7
ENDMDL
MODEL 5
REMARK VINA RESULT:    -4.341      1.615      7.416
REMARK INTER + INTRA:          -5.506
REMARK INTER:                  -5.262
REMARK INTRA:                  -0.244
REMARK UNBOUND:                -0.149
REMARK SMILES O=c1c(O)c(-c2cc(O)c(O)c(O)c2)oc2cc(O)cc(O)c12
REMARK SMILES IDX 5 1 3 2 2 3 1 4 23 5 21 6 20 7 18 8 17 9 16 10 15 11 6 12
REMARK SMILES IDX 7 13 8 14 14 15 10 16 12 17 9 18 11 20 13 22 4 24 22 26
REMARK SMILES IDX 19 28
REMARK H PARENT 9 19 11 21 13 23 4 25 22 27 19 29
REMARK Flexibility Score: inf
ROOT
ATOM      1  C   UNL     1     -25.823  51.905  43.872  1.00  0.00     0.180 A 
ATOM      2  C   UNL     1     -25.543  50.803  44.700  1.00  0.00     0.208 A 
ATOM      3  C   UNL     1     -25.670  49.507  44.175  1.00  0.00     0.238 A 
ATOM      4  O   UNL     1     -25.471  48.525  44.935  1.00  0.00    -0.285 OA
ATOM      5  C   UNL     1     -26.059  49.329  42.825  1.00  0.00     0.111 A 
ATOM      6  C   UNL     1     -26.180  48.063  42.177  1.00  0.00     0.134 A 
ATOM      7  C   UNL     1     -26.698  47.999  40.877  1.00  0.00     0.093 A 
ATOM      8  C   UNL     1     -27.038  49.161  40.180  1.00  0.00     0.123 A 
ATOM      9  C   UNL     1     -26.868  50.405  40.783  1.00  0.00     0.094 A 
ATOM     10  C   UNL     1     -26.387  50.498  42.091  1.00  0.00     0.146 A 
ATOM     11  O   UNL     1     -26.249  51.703  42.632  1.00  0.00    -0.452 OA
ENDROOT
BRANCH   1  12
ATOM     12  C   UNL     1     -25.688  53.301  44.347  1.00  0.00     0.029 A 
ATOM     13  C   UNL     1     -24.686  54.149  43.847  1.00  0.00     0.062 A 
ATOM     14  C   UNL     1     -24.588  55.476  44.291  1.00  0.00     0.162 A 
ATOM     15  C   UNL     1     -26.613  53.808  45.272  1.00  0.00     0.062 A 
ATOM     16  C   UNL     1     -25.505  55.968  45.236  1.00  0.00     0.200 A 
ATOM     17  C   UNL     1     -26.522  55.129  45.722  1.00  0.00     0.162 A 
BRANCH  14  18
ATOM     18  O   UNL     1     -23.586  56.307  43.793  1.00  0.00    -0.504 OA
ATOM     19  H   UNL     1     -23.580  57.302  43.980  1.00  0.00     0.293 HD
ENDBRANCH  14  18
BRANCH  16  20
ATOM     20  O   UNL     1     -25.419  57.284  45.692  1.00  0.00    -0.502 OA
ATOM     21  H   UNL     1     -26.165  57.724  46.217  1.00  0.00     0.293 HD
ENDBRANCH  16  20
BRANCH  17  22
ATOM     22  O   UNL     1     -27.452  55.590  46.654  1.00  0.00    -0.504 OA
ATOM     23  H   UNL     1     -27.198  56.227  47.399  1.00  0.00     0.293 HD
ENDBRANCH  17  22
ENDBRANCH   1  12
BRANCH   2  24
ATOM     24  O   UNL     1     -25.182  51.002  46.035  1.00  0.00    -0.502 OA
ATOM     25  H   UNL     1     -24.551  51.739  46.324  1.00  0.00     0.293 HD
ENDBRANCH   2  24
BRANCH   6  26
ATOM     26  O   UNL     1     -25.783  46.852  42.751  1.00  0.00    -0.507 OA
ATOM     27  H   UNL     1     -25.234  46.147  42.283  1.00  0.00     0.293 HD
ENDBRANCH   6  26
BRANCH   8  28
ATOM     28  O   UNL     1     -27.538  49.090  38.881  1.00  0.00    -0.508 OA
ATOM     29  H   UNL     1     -28.105  48.307  38.574  1.00  0.00     0.293 HD
ENDBRANCH   8  28
TORSDOF 7
ENDMDL
MODEL 6
REMARK VINA RESULT:    -4.341      1.333      2.178
REMARK INTER + INTRA:          -5.505
REMARK INTER:                  -5.155
REMARK INTRA:                  -0.351
REMARK UNBOUND:                -0.149
REMARK SMILES O=c1c(O)c(-c2cc(O)c(O)c(O)c2)oc2cc(O)cc(O)c12
REMARK SMILES IDX 5 1 3 2 2 3 1 4 23 5 21 6 20 7 18 8 17 9 16 10 15 11 6 12
REMARK SMILES IDX 7 13 8 14 14 15 10 16 12 17 9 18 11 20 13 22 4 24 22 26
REMARK SMILES IDX 19 28
REMARK H PARENT 9 19 11 21 13 23 4 25 22 27 19 29
REMARK Flexibility Score: inf
ROOT
ATOM      1  C   UNL     1     -25.775  51.167  42.693  1.00  0.00     0.180 A 
ATOM      2  C   UNL     1     -24.429  51.497  42.460  1.00  0.00     0.208 A 
ATOM      3  C   UNL     1     -23.866  52.588  43.142  1.00  0.00     0.238 A 
ATOM      4  O   UNL     1     -22.677  52.911  42.888  1.00  0.00    -0.285 OA
ATOM      5  C   UNL     1     -24.652  53.325  44.061  1.00  0.00     0.111 A 
ATOM      6  C   UNL     1     -24.175  54.423  44.837  1.00  0.00     0.134 A 
ATOM      7  C   UNL     1     -25.074  55.160  45.617  1.00  0.00     0.093 A 
ATOM      8  C   UNL     1     -26.421  54.798  45.699  1.00  0.00     0.123 A 
ATOM      9  C   UNL     1     -26.885  53.692  44.991  1.00  0.00     0.094 A 
ATOM     10  C   UNL     1     -26.018  52.959  44.176  1.00  0.00     0.146 A 
ATOM     11  O   UNL     1     -26.503  51.917  43.511  1.00  0.00    -0.452 OA
ENDROOT
BRANCH   1  12
ATOM     12  C   UNL     1     -26.430  50.016  42.030  1.00  0.00     0.029 A 
ATOM     13  C   UNL     1     -27.000  50.137  40.752  1.00  0.00     0.062 A 
ATOM     14  C   UNL     1     -27.596  49.030  40.129  1.00  0.00     0.162 A 
ATOM     15  C   UNL     1     -26.433  48.765  42.663  1.00  0.00     0.062 A 
ATOM     16  C   UNL     1     -27.614  47.785  40.782  1.00  0.00     0.200 A 
ATOM     17  C   UNL     1     -27.025  47.655  42.052  1.00  0.00     0.162 A 
BRANCH  14  18
ATOM     18  O   UNL     1     -28.164  49.162  38.864  1.00  0.00    -0.504 OA
ATOM     19  H   UNL     1     -29.022  49.681  38.718  1.00  0.00     0.293 HD
ENDBRANCH  14  18
BRANCH  16  20
ATOM     20  O   UNL     1     -28.206  46.674  40.179  1.00  0.00    -0.502 OA
ATOM     21  H   UNL     1     -28.111  46.483  39.189  1.00  0.00     0.293 HD
ENDBRANCH  16  20
BRANCH  17  22
ATOM     22  O   UNL     1     -27.020  46.432  42.721  1.00  0.00    -0.504 OA
ATOM     23  H   UNL     1     -27.743  45.737  42.581  1.00  0.00     0.293 HD
ENDBRANCH  17  22
ENDBRANCH   1  12
BRANCH   2  24
ATOM     24  O   UNL     1     -23.678  50.769  41.532  1.00  0.00    -0.502 OA
ATOM     25  H   UNL     1     -22.727  50.471  41.716  1.00  0.00     0.293 HD
ENDBRANCH   2  24
BRANCH   6  26
ATOM     26  O   UNL     1     -22.833  54.810  44.898  1.00  0.00    -0.507 OA
ATOM     27  H   UNL     1     -22.502  55.757  44.792  1.00  0.00     0.293 HD
ENDBRANCH   6  26
BRANCH   8  28
ATOM     28  O   UNL     1     -27.306  55.528  46.489  1.00  0.00    -0.508 OA
ATOM     29  H   UNL     1     -27.878  55.080  47.196  1.00  0.00     0.293 HD
ENDBRANCH   8  28
TORSDOF 7
ENDMDL
MODEL 7
REMARK VINA RESULT:    -4.080      1.637      7.088
REMARK INTER + INTRA:          -5.183
REMARK INTER:                  -4.857
REMARK INTRA:                  -0.326
REMARK UNBOUND:                -0.149
REMARK SMILES O=c1c(O)c(-c2cc(O)c(O)c(O)c2)oc2cc(O)cc(O)c12
REMARK SMILES IDX 5 1 3 2 2 3 1 4 23 5 21 6 20 7 18 8 17 9 16 10 15 11 6 12
REMARK SMILES IDX 7 13 8 14 14 15 10 16 12 17 9 18 11 20 13 22 4 24 22 26
REMARK SMILES IDX 19 28
REMARK H PARENT 9 19 11 21 13 23 4 25 22 27 19 29
REMARK Flexibility Score: inf
ROOT
ATOM      1  C   UNL     1     -26.261  50.324  42.593  1.00  0.00     0.180 A 
ATOM      2  C   UNL     1     -26.550  50.227  41.221  1.00  0.00     0.208 A 
ATOM      3  C   UNL     1     -26.984  48.996  40.701  1.00  0.00     0.238 A 
ATOM      4  O   UNL     1     -27.187  48.901  39.464  1.00  0.00    -0.285 OA
ATOM      5  C   UNL     1     -27.138  47.883  41.563  1.00  0.00     0.111 A 
ATOM      6  C   UNL     1     -27.610  46.600  41.153  1.00  0.00     0.134 A 
ATOM      7  C   UNL     1     -27.599  45.537  42.064  1.00  0.00     0.093 A 
ATOM      8  C   UNL     1     -27.196  45.727  43.389  1.00  0.00     0.123 A 
ATOM      9  C   UNL     1     -26.791  46.990  43.814  1.00  0.00     0.094 A 
ATOM     10  C   UNL     1     -26.756  48.062  42.918  1.00  0.00     0.146 A 
ATOM     11  O   UNL     1     -26.354  49.247  43.363  1.00  0.00    -0.452 OA
ENDROOT
BRANCH   1  12
ATOM     12  C   UNL     1     -25.824  51.593  43.218  1.00  0.00     0.029 A 
ATOM     13  C   UNL     1     -26.715  52.390  43.956  1.00  0.00     0.062 A 
ATOM     14  C   UNL     1     -26.277  53.577  44.561  1.00  0.00     0.162 A 
ATOM     15  C   UNL     1     -24.480  51.983  43.120  1.00  0.00     0.062 A 
ATOM     16  C   UNL     1     -24.933  53.972  44.438  1.00  0.00     0.200 A 
ATOM     17  C   UNL     1     -24.033  53.166  43.718  1.00  0.00     0.162 A 
BRANCH  14  18
ATOM     18  O   UNL     1     -27.171  54.363  45.286  1.00  0.00    -0.504 OA
ATOM     19  H   UNL     1     -26.883  54.866  46.116  1.00  0.00     0.293 HD
ENDBRANCH  14  18
BRANCH  16  20
ATOM     20  O   UNL     1     -24.481  55.152  45.030  1.00  0.00    -0.502 OA
ATOM     21  H   UNL     1     -24.410  55.260  46.034  1.00  0.00     0.293 HD
ENDBRANCH  16  20
BRANCH  17  22
ATOM     22  O   UNL     1     -22.693  53.526  43.585  1.00  0.00    -0.504 OA
ATOM     23  H   UNL     1     -22.343  54.426  43.891  1.00  0.00     0.293 HD
ENDBRANCH  17  22
ENDBRANCH   1  12
BRANCH   2  24
ATOM     24  O   UNL     1     -26.369  51.332  40.385  1.00  0.00    -0.502 OA
ATOM     25  H   UNL     1     -25.872  52.163  40.681  1.00  0.00     0.293 HD
ENDBRANCH   2  24
BRANCH   6  26
ATOM     26  O   UNL     1     -28.120  46.327  39.881  1.00  0.00    -0.507 OA
ATOM     27  H   UNL     1     -28.194  45.406  39.477  1.00  0.00     0.293 HD
ENDBRANCH   6  26
BRANCH   8  28
ATOM     28  O   UNL     1     -27.204  44.667  44.293  1.00  0.00    -0.508 OA
ATOM     29  H   UNL     1     -28.070  44.259  44.623  1.00  0.00     0.293 HD
ENDBRANCH   8  28
TORSDOF 7
ENDMDL
MODEL 8
REMARK VINA RESULT:    -4.061      2.379      7.467
REMARK INTER + INTRA:          -5.160
REMARK INTER:                  -4.909
REMARK INTRA:                  -0.251
REMARK UNBOUND:                -0.149
REMARK SMILES O=c1c(O)c(-c2cc(O)c(O)c(O)c2)oc2cc(O)cc(O)c12
REMARK SMILES IDX 5 1 3 2 2 3 1 4 23 5 21 6 20 7 18 8 17 9 16 10 15 11 6 12
REMARK SMILES IDX 7 13 8 14 14 15 10 16 12 17 9 18 11 20 13 22 4 24 22 26
REMARK SMILES IDX 19 28
REMARK H PARENT 9 19 11 21 13 23 4 25 22 27 19 29
REMARK Flexibility Score: inf
ROOT
ATOM      1  C   UNL     1     -25.612  53.281  45.014  1.00  0.00     0.180 A 
ATOM      2  C   UNL     1     -25.630  53.872  43.738  1.00  0.00     0.208 A 
ATOM      3  C   UNL     1     -25.798  53.053  42.610  1.00  0.00     0.238 A 
ATOM      4  O   UNL     1     -25.759  53.581  41.469  1.00  0.00    -0.285 OA
ATOM      5  C   UNL     1     -25.961  51.656  42.772  1.00  0.00     0.111 A 
ATOM      6  C   UNL     1     -26.179  50.736  41.702  1.00  0.00     0.134 A 
ATOM      7  C   UNL     1     -26.197  49.361  41.967  1.00  0.00     0.093 A 
ATOM      8  C   UNL     1     -26.070  48.877  43.271  1.00  0.00     0.123 A 
ATOM      9  C   UNL     1     -25.916  49.770  44.329  1.00  0.00     0.094 A 
ATOM     10  C   UNL     1     -25.859  51.146  44.092  1.00  0.00     0.146 A 
ATOM     11  O   UNL     1     -25.702  51.962  45.128  1.00  0.00    -0.452 OA
ENDROOT
BRANCH   1  12
ATOM     12  C   UNL     1     -25.464  54.081  46.250  1.00  0.00     0.029 A 
ATOM     13  C   UNL     1     -24.274  54.060  46.997  1.00  0.00     0.062 A 
ATOM     14  C   UNL     1     -24.144  54.843  48.153  1.00  0.00     0.162 A 
ATOM     15  C   UNL     1     -26.510  54.922  46.657  1.00  0.00     0.062 A 
ATOM     16  C   UNL     1     -25.206  55.666  48.566  1.00  0.00     0.200 A 
ATOM     17  C   UNL     1     -26.391  55.706  47.809  1.00  0.00     0.162 A 
BRANCH  14  18
ATOM     18  O   UNL     1     -22.961  54.810  48.889  1.00  0.00    -0.504 OA
ATOM     19  H   UNL     1     -22.087  55.149  48.506  1.00  0.00     0.293 HD
ENDBRANCH  14  18
BRANCH  16  20
ATOM     20  O   UNL     1     -25.095  56.448  49.716  1.00  0.00    -0.502 OA
ATOM     21  H   UNL     1     -25.686  57.254  49.881  1.00  0.00     0.293 HD
ENDBRANCH  16  20
BRANCH  17  22
ATOM     22  O   UNL     1     -27.459  56.518  48.188  1.00  0.00    -0.504 OA
ATOM     23  H   UNL     1     -27.975  57.077  47.519  1.00  0.00     0.293 HD
ENDBRANCH  17  22
ENDBRANCH   1  12
BRANCH   2  24
ATOM     24  O   UNL     1     -25.446  55.250  43.600  1.00  0.00    -0.502 OA
ATOM     25  H   UNL     1     -26.090  55.836  43.083  1.00  0.00     0.293 HD
ENDBRANCH   2  24
BRANCH   6  26
ATOM     26  O   UNL     1     -26.409  51.120  40.378  1.00  0.00    -0.507 OA
ATOM     27  H   UNL     1     -27.280  51.489  40.030  1.00  0.00     0.293 HD
ENDBRANCH   6  26
BRANCH   8  28
ATOM     28  O   UNL     1     -26.104  47.508  43.528  1.00  0.00    -0.508 OA
ATOM     29  H   UNL     1     -25.594  46.848  42.952  1.00  0.00     0.293 HD
ENDBRANCH   8  28
TORSDOF 7
ENDMDL
MODEL 9
REMARK VINA RESULT:    -4.054      1.739      6.849
REMARK INTER + INTRA:          -5.152
REMARK INTER:                  -4.827
REMARK INTRA:                  -0.325
REMARK UNBOUND:                -0.149
REMARK SMILES O=c1c(O)c(-c2cc(O)c(O)c(O)c2)oc2cc(O)cc(O)c12
REMARK SMILES IDX 5 1 3 2 2 3 1 4 23 5 21 6 20 7 18 8 17 9 16 10 15 11 6 12
REMARK SMILES IDX 7 13 8 14 14 15 10 16 12 17 9 18 11 20 13 22 4 24 22 26
REMARK SMILES IDX 19 28
REMARK H PARENT 9 19 11 21 13 23 4 25 22 27 19 29
REMARK Flexibility Score: inf
ROOT
ATOM      1  C   UNL     1     -25.672  51.415  42.971  1.00  0.00     0.180 A 
ATOM      2  C   UNL     1     -25.045  51.831  41.784  1.00  0.00     0.208 A 
ATOM      3  C   UNL     1     -25.114  51.005  40.651  1.00  0.00     0.238 A 
ATOM      4  O   UNL     1     -24.505  51.357  39.608  1.00  0.00    -0.285 OA
ATOM      5  C   UNL     1     -25.823  49.781  40.715  1.00  0.00     0.111 A 
ATOM      6  C   UNL     1     -25.993  48.884  39.617  1.00  0.00     0.134 A 
ATOM      7  C   UNL     1     -26.602  47.641  39.829  1.00  0.00     0.093 A 
ATOM      8  C   UNL     1     -27.105  47.290  41.084  1.00  0.00     0.123 A 
ATOM      9  C   UNL     1     -26.997  48.183  42.147  1.00  0.00     0.094 A 
ATOM     10  C   UNL     1     -26.363  49.416  41.976  1.00  0.00     0.146 A 
ATOM     11  O   UNL     1     -26.273  50.233  43.018  1.00  0.00    -0.452 OA
ENDROOT
BRANCH   1  12
ATOM     12  C   UNL     1     -25.663  52.244  44.198  1.00  0.00     0.029 A 
ATOM     13  C   UNL     1     -26.503  53.362  44.332  1.00  0.00     0.062 A 
ATOM     14  C   UNL     1     -26.498  54.121  45.511  1.00  0.00     0.162 A 
ATOM     15  C   UNL     1     -24.842  51.876  45.274  1.00  0.00     0.062 A 
ATOM     16  C   UNL     1     -25.655  53.758  46.575  1.00  0.00     0.200 A 
ATOM     17  C   UNL     1     -24.828  52.627  46.454  1.00  0.00     0.162 A 
BRANCH  14  18
ATOM     18  O   UNL     1     -27.332  55.232  45.630  1.00  0.00    -0.504 OA
ATOM     19  H   UNL     1     -27.020  56.084  46.080  1.00  0.00     0.293 HD
ENDBRANCH  14  18
BRANCH  16  20
ATOM     20  O   UNL     1     -25.634  54.505  47.754  1.00  0.00    -0.502 OA
ATOM     21  H   UNL     1     -26.156  54.230  48.577  1.00  0.00     0.293 HD
ENDBRANCH  16  20
BRANCH  17  22
ATOM     22  O   UNL     1     -23.987  52.236  47.494  1.00  0.00    -0.504 OA
ATOM     23  H   UNL     1     -22.977  52.284  47.419  1.00  0.00     0.293 HD
ENDBRANCH  17  22
ENDBRANCH   1  12
BRANCH   2  24
ATOM     24  O   UNL     1     -24.332  53.033  41.749  1.00  0.00    -0.502 OA
ATOM     25  H   UNL     1     -24.692  53.891  42.150  1.00  0.00     0.293 HD
ENDBRANCH   2  24
BRANCH   6  26
ATOM     26  O   UNL     1     -25.609  49.176  38.305  1.00  0.00    -0.507 OA
ATOM     27  H   UNL     1     -24.680  49.452  38.026  1.00  0.00     0.293 HD
ENDBRANCH   6  26
BRANCH   8  28
ATOM     28  O   UNL     1     -27.724  46.057  41.282  1.00  0.00    -0.508 OA
ATOM     29  H   UNL     1     -28.173  45.825  42.160  1.00  0.00     0.293 HD
ENDBRANCH   8  28
TORSDOF 7
ENDMDL
