MODEL 1
REMARK VINA RESULT:    -3.654      0.000      0.000
REMARK INTER + INTRA:          -6.728
REMARK INTER:                  -5.577
REMARK INTRA:                  -1.151
REMARK UNBOUND:                -1.151
REMARK SMILES OC[C@H]1O[C@@H](O[C@@]2(CO)O[C@H](CO)[C@@H](O)[C@H]2O)[C@@H](O)[C@H](O)[C@H]1O
REMARK SMILES IDX 6 1 5 2 3 3 22 4 4 5 20 6 18 7 2 8 1 9 23 11 21 13 19 15
REMARK SMILES IDX 7 17 16 18 10 19 14 20 11 21 8 22 9 23 17 25 15 27 12 29
REMARK SMILES IDX 13 30
REMARK H PARENT 1 10 23 12 21 14 19 16 9 24 17 26 15 28 13 31
REMARK Flexibility Score: inf
ROOT
ATOM      1  O   UNL     1       4.036  -0.363  -1.895  1.00  0.00    -0.313 OA
ENDROOT
BRANCH   1   2
ATOM      2  C   UNL     1       4.718  -1.585  -2.124  1.00  0.00     0.285 C 
ATOM      3  C   UNL     1       5.044  -3.743  -1.289  1.00  0.00     0.178 C 
ATOM      4  C   UNL     1       6.577  -3.601  -1.201  1.00  0.00     0.177 C 
ATOM      5  O   UNL     1       4.429  -2.485  -1.067  1.00  0.00    -0.341 OA
ATOM      6  C   UNL     1       7.052  -2.586  -2.259  1.00  0.00     0.179 C 
ATOM      7  C   UNL     1       6.231  -1.285  -2.177  1.00  0.00     0.202 C 
BRANCH   3   8
ATOM      8  C   UNL     1       4.503  -4.749  -0.261  1.00  0.00     0.191 C 
BRANCH   8   9
ATOM      9  O   UNL     1       5.556  -5.475   0.325  1.00  0.00    -0.394 OA
ATOM     10  H   UNL     1       6.404  -5.080  -0.007  1.00  0.00     0.210 HD
ENDBRANCH   8   9
ENDBRANCH   3   8
BRANCH   4  11
ATOM     11  O   UNL     1       6.931  -3.160   0.086  1.00  0.00    -0.387 OA
ATOM     12  H   UNL     1       7.745  -2.598  -0.010  1.00  0.00     0.211 HD
ENDBRANCH   4  11
BRANCH   6  13
ATOM     13  O   UNL     1       6.937  -3.142  -3.546  1.00  0.00    -0.387 OA
ATOM     14  H   UNL     1       6.018  -3.513  -3.614  1.00  0.00     0.211 HD
ENDBRANCH   6  13
BRANCH   7  15
ATOM     15  O   UNL     1       6.618  -0.574  -1.031  1.00  0.00    -0.385 OA
ATOM     16  H   UNL     1       6.873  -1.241  -0.340  1.00  0.00     0.211 HD
ENDBRANCH   7  15
ENDBRANCH   1   2
BRANCH   1  17
ATOM     17  C   UNL     1       3.037  -0.023  -2.860  1.00  0.00     0.224 C 
ATOM     18  C   UNL     1       1.639  -0.236  -2.247  1.00  0.00     0.208 C 
ATOM     19  O   UNL     1       3.121  -0.778  -4.060  1.00  0.00    -0.337 OA
ATOM     20  C   UNL     1       0.811  -0.667  -3.430  1.00  0.00     0.180 C 
ATOM     21  C   UNL     1       1.842  -1.304  -4.354  1.00  0.00     0.179 C 
BRANCH  17  22
ATOM     22  C   UNL     1       3.268   1.459  -3.212  1.00  0.00     0.225 C 
BRANCH  22  23
ATOM     23  O   UNL     1       2.353   2.297  -2.551  1.00  0.00    -0.391 OA
ATOM     24  H   UNL     1       2.646   2.369  -1.605  1.00  0.00     0.210 HD
ENDBRANCH  22  23
ENDBRANCH  17  22
BRANCH  18  25
ATOM     25  O   UNL     1       1.668  -1.264  -1.288  1.00  0.00    -0.385 OA
ATOM     26  H   UNL     1       0.770  -1.290  -0.867  1.00  0.00     0.211 HD
ENDBRANCH  18  25
BRANCH  20  27
ATOM     27  O   UNL     1      -0.181  -1.598  -3.072  1.00  0.00    -0.387 OA
ATOM     28  H   UNL     1       0.092  -1.982  -2.199  1.00  0.00     0.211 HD
ENDBRANCH  20  27
BRANCH  21  29
ATOM     29  C   UNL     1       1.501  -1.055  -5.828  1.00  0.00     0.191 C 
BRANCH  29  30
ATOM     30  O   UNL     1       0.244  -0.448  -5.943  1.00  0.00    -0.394 OA
ATOM     31  H   UNL     1      -0.403  -1.052  -5.487  1.00  0.00     0.210 HD
ENDBRANCH  29  30
ENDBRANCH  21  29
ENDBRANCH   1  17
TORSDOF 13
ENDMDL
MODEL 2
REMARK VINA RESULT:    -3.543      1.955      5.913
REMARK INTER + INTRA:          -6.558
REMARK INTER:                  -5.343
REMARK INTRA:                  -1.215
REMARK UNBOUND:                -1.151
REMARK SMILES OC[C@H]1O[C@@H](O[C@@]2(CO)O[C@H](CO)[C@@H](O)[C@H]2O)[C@@H](O)[C@H](O)[C@H]1O
REMARK SMILES IDX 6 1 5 2 3 3 22 4 4 5 20 6 18 7 2 8 1 9 23 11 21 13 19 15
REMARK SMILES IDX 7 17 16 18 10 19 14 20 11 21 8 22 9 23 17 25 15 27 12 29
REMARK SMILES IDX 13 30
REMARK H PARENT 1 10 23 12 21 14 19 16 9 24 17 26 15 28 13 31
REMARK Flexibility Score: inf
ROOT
ATOM      1  O   UNL     1       3.184  -3.194  -2.798  1.00  0.00    -0.313 OA
ENDROOT
BRANCH   1   2
ATOM      2  C   UNL     1       2.365  -2.180  -2.239  1.00  0.00     0.285 C 
ATOM      3  C   UNL     1       0.881  -1.708  -0.495  1.00  0.00     0.178 C 
ATOM      4  C   UNL     1      -0.264  -1.275  -1.434  1.00  0.00     0.177 C 
ATOM      5  O   UNL     1       1.667  -2.708  -1.122  1.00  0.00    -0.341 OA
ATOM      6  C   UNL     1       0.336  -0.731  -2.746  1.00  0.00     0.179 C 
ATOM      7  C   UNL     1       1.370  -1.716  -3.324  1.00  0.00     0.202 C 
BRANCH   3   8
ATOM      8  C   UNL     1       0.351  -2.257   0.839  1.00  0.00     0.191 C 
BRANCH   8   9
ATOM      9  O   UNL     1       0.341  -1.249   1.821  1.00  0.00    -0.394 OA
ATOM     10  H   UNL     1       0.010  -0.420   1.386  1.00  0.00     0.210 HD
ENDBRANCH   8   9
ENDBRANCH   3   8
BRANCH   4  11
ATOM     11  O   UNL     1      -1.090  -2.380  -1.701  1.00  0.00    -0.387 OA
ATOM     12  H   UNL     1      -1.993  -2.027  -1.919  1.00  0.00     0.211 HD
ENDBRANCH   4  11
BRANCH   6  13
ATOM     13  O   UNL     1       0.944   0.517  -2.517  1.00  0.00    -0.387 OA
ATOM     14  H   UNL     1       1.900   0.336  -2.317  1.00  0.00     0.211 HD
ENDBRANCH   6  13
BRANCH   7  15
ATOM     15  O   UNL     1       0.694  -2.824  -3.858  1.00  0.00    -0.385 OA
ATOM     16  H   UNL     1       0.064  -3.151  -3.163  1.00  0.00     0.211 HD
ENDBRANCH   7  15
ENDBRANCH   1   2
BRANCH   1  17
ATOM     17  C   UNL     1       4.559  -3.161  -2.408  1.00  0.00     0.224 C 
ATOM     18  C   UNL     1       4.946  -4.515  -1.782  1.00  0.00     0.208 C 
ATOM     19  O   UNL     1       4.865  -2.133  -1.477  1.00  0.00    -0.337 OA
ATOM     20  C   UNL     1       5.967  -4.131  -0.743  1.00  0.00     0.180 C 
ATOM     21  C   UNL     1       5.576  -2.700  -0.395  1.00  0.00     0.179 C 
BRANCH  17  22
ATOM     22  C   UNL     1       5.363  -2.895  -3.694  1.00  0.00     0.225 C 
BRANCH  22  23
ATOM     23  O   UNL     1       5.878  -1.587  -3.722  1.00  0.00    -0.391 OA
ATOM     24  H   UNL     1       6.513  -1.501  -2.964  1.00  0.00     0.210 HD
ENDBRANCH  22  23
ENDBRANCH  17  22
BRANCH  18  25
ATOM     25  O   UNL     1       3.835  -5.111  -1.159  1.00  0.00    -0.385 OA
ATOM     26  H   UNL     1       3.647  -4.583  -0.341  1.00  0.00     0.211 HD
ENDBRANCH  18  25
BRANCH  20  27
ATOM     27  O   UNL     1       5.903  -4.956   0.394  1.00  0.00    -0.387 OA
ATOM     28  H   UNL     1       4.943  -5.150   0.552  1.00  0.00     0.211 HD
ENDBRANCH  20  27
BRANCH  21  29
ATOM     29  C   UNL     1       6.810  -1.846  -0.076  1.00  0.00     0.191 C 
BRANCH  29  30
ATOM     30  O   UNL     1       6.933  -0.801  -1.000  1.00  0.00    -0.394 OA
ATOM     31  H   UNL     1       7.550  -0.135  -0.591  1.00  0.00     0.210 HD
ENDBRANCH  29  30
ENDBRANCH  21  29
ENDBRANCH   1  17
TORSDOF 13
ENDMDL
MODEL 3
REMARK VINA RESULT:    -3.499      2.233      5.207
REMARK INTER + INTRA:          -6.491
REMARK INTER:                  -5.171
REMARK INTRA:                  -1.320
REMARK UNBOUND:                -1.151
REMARK SMILES OC[C@H]1O[C@@H](O[C@@]2(CO)O[C@H](CO)[C@@H](O)[C@H]2O)[C@@H](O)[C@H](O)[C@H]1O
REMARK SMILES IDX 6 1 5 2 3 3 22 4 4 5 20 6 18 7 2 8 1 9 23 11 21 13 19 15
REMARK SMILES IDX 7 17 16 18 10 19 14 20 11 21 8 22 9 23 17 25 15 27 12 29
REMARK SMILES IDX 13 30
REMARK H PARENT 1 10 23 12 21 14 19 16 9 24 17 26 15 28 13 31
REMARK Flexibility Score: inf
ROOT
ATOM      1  O   UNL     1       2.595  -0.326  -1.762  1.00  0.00    -0.313 OA
ENDROOT
BRANCH   1   2
ATOM      2  C   UNL     1       3.119   0.037  -3.029  1.00  0.00     0.285 C 
ATOM      3  C   UNL     1       5.086   0.596  -4.161  1.00  0.00     0.178 C 
ATOM      4  C   UNL     1       4.545   1.948  -4.670  1.00  0.00     0.177 C 
ATOM      5  O   UNL     1       4.510   0.288  -2.903  1.00  0.00    -0.341 OA
ATOM      6  C   UNL     1       3.011   1.861  -4.798  1.00  0.00     0.179 C 
ATOM      7  C   UNL     1       2.384   1.308  -3.504  1.00  0.00     0.202 C 
BRANCH   3   8
ATOM      8  C   UNL     1       6.616   0.610  -4.016  1.00  0.00     0.191 C 
BRANCH   8   9
ATOM      9  O   UNL     1       6.988   0.990  -2.714  1.00  0.00    -0.394 OA
ATOM     10  H   UNL     1       6.979   1.982  -2.684  1.00  0.00     0.210 HD
ENDBRANCH   8   9
ENDBRANCH   3   8
BRANCH   4  11
ATOM     11  O   UNL     1       4.898   2.962  -3.765  1.00  0.00    -0.387 OA
ATOM     12  H   UNL     1       5.828   2.779  -3.466  1.00  0.00     0.211 HD
ENDBRANCH   4  11
BRANCH   6  13
ATOM     13  O   UNL     1       2.663   1.039  -5.885  1.00  0.00    -0.387 OA
ATOM     14  H   UNL     1       2.441   1.644  -6.641  1.00  0.00     0.211 HD
ENDBRANCH   6  13
BRANCH   7  15
ATOM     15  O   UNL     1       2.446   2.297  -2.509  1.00  0.00    -0.385 OA
ATOM     16  H   UNL     1       2.549   3.172  -2.967  1.00  0.00     0.211 HD
ENDBRANCH   7  15
ENDBRANCH   1   2
BRANCH   1  17
ATOM     17  C   UNL     1       2.500  -1.731  -1.514  1.00  0.00     0.224 C 
ATOM     18  C   UNL     1       3.471  -2.117  -0.381  1.00  0.00     0.208 C 
ATOM     19  O   UNL     1       2.793  -2.534  -2.648  1.00  0.00    -0.337 OA
ATOM     20  C   UNL     1       3.901  -3.510  -0.760  1.00  0.00     0.180 C 
ATOM     21  C   UNL     1       3.739  -3.515  -2.276  1.00  0.00     0.179 C 
BRANCH  17  22
ATOM     22  C   UNL     1       1.039  -1.996  -1.106  1.00  0.00     0.225 C 
BRANCH  22  23
ATOM     23  O   UNL     1       0.788  -1.593   0.217  1.00  0.00    -0.391 OA
ATOM     24  H   UNL     1       1.430  -2.075   0.801  1.00  0.00     0.210 HD
ENDBRANCH  22  23
ENDBRANCH  17  22
BRANCH  18  25
ATOM     25  O   UNL     1       4.587  -1.262  -0.369  1.00  0.00    -0.385 OA
ATOM     26  H   UNL     1       5.075  -1.438   0.476  1.00  0.00     0.211 HD
ENDBRANCH  18  25
BRANCH  20  27
ATOM     27  O   UNL     1       5.235  -3.770  -0.400  1.00  0.00    -0.387 OA
ATOM     28  H   UNL     1       5.767  -3.739  -1.237  1.00  0.00     0.211 HD
ENDBRANCH  20  27
BRANCH  21  29
ATOM     29  C   UNL     1       3.293  -4.891  -2.786  1.00  0.00     0.191 C 
BRANCH  29  30
ATOM     30  O   UNL     1       3.351  -5.837  -1.755  1.00  0.00    -0.394 OA
ATOM     31  H   UNL     1       3.415  -5.322  -0.904  1.00  0.00     0.210 HD
ENDBRANCH  29  30
ENDBRANCH  21  29
ENDBRANCH   1  17
TORSDOF 13
ENDMDL
MODEL 4
REMARK VINA RESULT:    -3.469      1.998      3.418
REMARK INTER + INTRA:          -6.445
REMARK INTER:                  -5.271
REMARK INTRA:                  -1.173
REMARK UNBOUND:                -1.151
REMARK SMILES OC[C@H]1O[C@@H](O[C@@]2(CO)O[C@H](CO)[C@@H](O)[C@H]2O)[C@@H](O)[C@H](O)[C@H]1O
REMARK SMILES IDX 6 1 5 2 3 3 22 4 4 5 20 6 18 7 2 8 1 9 23 11 21 13 19 15
REMARK SMILES IDX 7 17 16 18 10 19 14 20 11 21 8 22 9 23 17 25 15 27 12 29
REMARK SMILES IDX 13 30
REMARK H PARENT 1 10 23 12 21 14 19 16 9 24 17 26 15 28 13 31
REMARK Flexibility Score: inf
ROOT
ATOM      1  O   UNL     1       3.386  -1.131  -3.280  1.00  0.00    -0.313 OA
ENDROOT
BRANCH   1   2
ATOM      2  C   UNL     1       4.580  -1.538  -2.632  1.00  0.00     0.285 C 
ATOM      3  C   UNL     1       5.961  -3.377  -2.214  1.00  0.00     0.178 C 
ATOM      4  C   UNL     1       5.894  -3.224  -0.680  1.00  0.00     0.177 C 
ATOM      5  O   UNL     1       4.745  -2.937  -2.796  1.00  0.00    -0.341 OA
ATOM      6  C   UNL     1       5.645  -1.742  -0.331  1.00  0.00     0.179 C 
ATOM      7  C   UNL     1       4.456  -1.183  -1.135  1.00  0.00     0.202 C 
BRANCH   3   8
ATOM      8  C   UNL     1       6.214  -4.833  -2.632  1.00  0.00     0.191 C 
BRANCH   8   9
ATOM      9  O   UNL     1       6.885  -5.533  -1.612  1.00  0.00    -0.394 OA
ATOM     10  H   UNL     1       6.194  -6.006  -1.079  1.00  0.00     0.210 HD
ENDBRANCH   8   9
ENDBRANCH   3   8
BRANCH   4  11
ATOM     11  O   UNL     1       4.851  -4.021  -0.178  1.00  0.00    -0.387 OA
ATOM     12  H   UNL     1       5.270  -4.781   0.306  1.00  0.00     0.211 HD
ENDBRANCH   4  11
BRANCH   6  13
ATOM     13  O   UNL     1       6.799  -0.984  -0.598  1.00  0.00    -0.387 OA
ATOM     14  H   UNL     1       6.488  -0.091  -0.905  1.00  0.00     0.211 HD
ENDBRANCH   6  13
BRANCH   7  15
ATOM     15  O   UNL     1       3.264  -1.714  -0.615  1.00  0.00    -0.385 OA
ATOM     16  H   UNL     1       3.500  -2.227   0.202  1.00  0.00     0.211 HD
ENDBRANCH   7  15
ENDBRANCH   1   2
BRANCH   1  17
ATOM     17  C   UNL     1       3.422   0.166  -3.882  1.00  0.00     0.224 C 
ATOM     18  C   UNL     1       3.121   0.039  -5.389  1.00  0.00     0.208 C 
ATOM     19  O   UNL     1       4.666   0.834  -3.728  1.00  0.00    -0.337 OA
ATOM     20  C   UNL     1       3.952   1.140  -5.996  1.00  0.00     0.180 C 
ATOM     21  C   UNL     1       5.089   1.300  -4.994  1.00  0.00     0.179 C 
BRANCH  17  22
ATOM     22  C   UNL     1       2.341   0.999  -3.170  1.00  0.00     0.225 C 
BRANCH  22  23
ATOM     23  O   UNL     1       2.891   2.122  -2.527  1.00  0.00    -0.391 OA
ATOM     24  H   UNL     1       2.418   2.230  -1.661  1.00  0.00     0.210 HD
ENDBRANCH  22  23
ENDBRANCH  17  22
BRANCH  18  25
ATOM     25  O   UNL     1       3.552  -1.207  -5.879  1.00  0.00    -0.385 OA
ATOM     26  H   UNL     1       4.478  -1.340  -5.551  1.00  0.00     0.211 HD
ENDBRANCH  18  25
BRANCH  20  27
ATOM     27  O   UNL     1       4.451   0.790  -7.264  1.00  0.00    -0.387 OA
ATOM     28  H   UNL     1       3.997  -0.053  -7.525  1.00  0.00     0.211 HD
ENDBRANCH  20  27
BRANCH  21  29
ATOM     29  C   UNL     1       5.538   2.763  -4.888  1.00  0.00     0.191 C 
BRANCH  29  30
ATOM     30  O   UNL     1       5.345   3.241  -3.586  1.00  0.00    -0.394 OA
ATOM     31  H   UNL     1       4.717   2.607  -3.144  1.00  0.00     0.210 HD
ENDBRANCH  29  30
ENDBRANCH  21  29
ENDBRANCH   1  17
TORSDOF 13
ENDMDL
MODEL 5
REMARK VINA RESULT:    -3.461      2.376      4.348
REMARK INTER + INTRA:          -6.433
REMARK INTER:                  -5.414
REMARK INTRA:                  -1.019
REMARK UNBOUND:                -1.151
REMARK SMILES OC[C@H]1O[C@@H](O[C@@]2(CO)O[C@H](CO)[C@@H](O)[C@H]2O)[C@@H](O)[C@H](O)[C@H]1O
REMARK SMILES IDX 6 1 5 2 3 3 22 4 4 5 20 6 18 7 2 8 1 9 23 11 21 13 19 15
REMARK SMILES IDX 7 17 16 18 10 19 14 20 11 21 8 22 9 23 17 25 15 27 12 29
REMARK SMILES IDX 13 30
REMARK H PARENT 1 10 23 12 21 14 19 16 9 24 17 26 15 28 13 31
REMARK Flexibility Score: inf
ROOT
ATOM      1  O   UNL     1       2.721  -4.116  -2.371  1.00  0.00    -0.313 OA
ENDROOT
BRANCH   1   2
ATOM      2  C   UNL     1       3.773  -4.081  -1.421  1.00  0.00     0.285 C 
ATOM      3  C   UNL     1       5.422  -2.710  -0.491  1.00  0.00     0.178 C 
ATOM      4  C   UNL     1       6.578  -3.670  -0.838  1.00  0.00     0.177 C 
ATOM      5  O   UNL     1       4.401  -2.809  -1.470  1.00  0.00    -0.341 OA
ATOM      6  C   UNL     1       6.037  -5.113  -0.893  1.00  0.00     0.179 C 
ATOM      7  C   UNL     1       4.780  -5.193  -1.781  1.00  0.00     0.202 C 
BRANCH   3   8
ATOM      8  C   UNL     1       5.895  -1.250  -0.413  1.00  0.00     0.191 C 
BRANCH   8   9
ATOM      9  O   UNL     1       7.038  -1.142   0.400  1.00  0.00    -0.394 OA
ATOM     10  H   UNL     1       7.432  -2.050   0.474  1.00  0.00     0.210 HD
ENDBRANCH   8   9
ENDBRANCH   3   8
BRANCH   4  11
ATOM     11  O   UNL     1       7.125  -3.311  -2.081  1.00  0.00    -0.387 OA
ATOM     12  H   UNL     1       7.544  -2.417  -1.971  1.00  0.00     0.211 HD
ENDBRANCH   4  11
BRANCH   6  13
ATOM     13  O   UNL     1       5.732  -5.563   0.405  1.00  0.00    -0.387 OA
ATOM     14  H   UNL     1       6.581  -5.898   0.797  1.00  0.00     0.211 HD
ENDBRANCH   6  13
BRANCH   7  15
ATOM     15  O   UNL     1       5.165  -5.073  -3.126  1.00  0.00    -0.385 OA
ATOM     16  H   UNL     1       4.563  -5.656  -3.659  1.00  0.00     0.211 HD
ENDBRANCH   7  15
ENDBRANCH   1   2
BRANCH   1  17
ATOM     17  C   UNL     1       1.460  -3.619  -1.915  1.00  0.00     0.224 C 
ATOM     18  C   UNL     1       1.083  -2.361  -2.723  1.00  0.00     0.208 C 
ATOM     19  O   UNL     1       1.442  -3.287  -0.534  1.00  0.00    -0.337 OA
ATOM     20  C   UNL     1       0.330  -1.525  -1.720  1.00  0.00     0.180 C 
ATOM     21  C   UNL     1       0.913  -1.984  -0.389  1.00  0.00     0.179 C 
BRANCH  17  22
ATOM     22  C   UNL     1       0.443  -4.752  -2.146  1.00  0.00     0.225 C 
BRANCH  22  23
ATOM     23  O   UNL     1      -0.098  -5.218  -0.935  1.00  0.00    -0.391 OA
ATOM     24  H   UNL     1      -0.985  -4.785  -0.820  1.00  0.00     0.210 HD
ENDBRANCH  22  23
ENDBRANCH  17  22
BRANCH  18  25
ATOM     25  O   UNL     1       2.236  -1.676  -3.142  1.00  0.00    -0.385 OA
ATOM     26  H   UNL     1       2.431  -0.990  -2.452  1.00  0.00     0.211 HD
ENDBRANCH  18  25
BRANCH  20  27
ATOM     27  O   UNL     1       0.544  -0.148  -1.911  1.00  0.00    -0.387 OA
ATOM     28  H   UNL     1       1.319   0.100  -1.343  1.00  0.00     0.211 HD
ENDBRANCH  20  27
BRANCH  21  29
ATOM     29  C   UNL     1      -0.148  -1.972   0.719  1.00  0.00     0.191 C 
BRANCH  29  30
ATOM     30  O   UNL     1       0.330  -1.294   1.847  1.00  0.00    -0.394 OA
ATOM     31  H   UNL     1       1.308  -1.170   1.707  1.00  0.00     0.210 HD
ENDBRANCH  29  30
ENDBRANCH  21  29
ENDBRANCH   1  17
TORSDOF 13
ENDMDL
MODEL 6
REMARK VINA RESULT:    -3.460      1.605      5.815
REMARK INTER + INTRA:          -6.432
REMARK INTER:                  -5.473
REMARK INTRA:                  -0.959
REMARK UNBOUND:                -1.151
REMARK SMILES OC[C@H]1O[C@@H](O[C@@]2(CO)O[C@H](CO)[C@@H](O)[C@H]2O)[C@@H](O)[C@H](O)[C@H]1O
REMARK SMILES IDX 6 1 5 2 3 3 22 4 4 5 20 6 18 7 2 8 1 9 23 11 21 13 19 15
REMARK SMILES IDX 7 17 16 18 10 19 14 20 11 21 8 22 9 23 17 25 15 27 12 29
REMARK SMILES IDX 13 30
REMARK H PARENT 1 10 23 12 21 14 19 16 9 24 17 26 15 28 13 31
REMARK Flexibility Score: inf
ROOT
ATOM      1  O   UNL     1       4.181  -1.653  -3.661  1.00  0.00    -0.313 OA
ENDROOT
BRANCH   1   2
ATOM      2  C   UNL     1       3.299  -0.740  -3.029  1.00  0.00     0.285 C 
ATOM      3  C   UNL     1       1.292  -0.580  -1.843  1.00  0.00     0.178 C 
ATOM      4  C   UNL     1       0.656   0.421  -2.829  1.00  0.00     0.177 C 
ATOM      5  O   UNL     1       2.172  -1.448  -2.537  1.00  0.00    -0.341 OA
ATOM      6  C   UNL     1       1.773   1.236  -3.511  1.00  0.00     0.179 C 
ATOM      7  C   UNL     1       2.862   0.305  -4.076  1.00  0.00     0.202 C 
BRANCH   3   8
ATOM      8  C   UNL     1       0.230  -1.424  -1.120  1.00  0.00     0.191 C 
BRANCH   8   9
ATOM      9  O   UNL     1       0.618  -1.680   0.208  1.00  0.00    -0.394 OA
ATOM     10  H   UNL     1       1.527  -1.299   0.325  1.00  0.00     0.210 HD
ENDBRANCH   8   9
ENDBRANCH   3   8
BRANCH   4  11
ATOM     11  O   UNL     1      -0.088  -0.281  -3.792  1.00  0.00    -0.387 OA
ATOM     12  H   UNL     1      -0.588   0.392  -4.326  1.00  0.00     0.211 HD
ENDBRANCH   4  11
BRANCH   6  13
ATOM     13  O   UNL     1       2.345   2.134  -2.592  1.00  0.00    -0.387 OA
ATOM     14  H   UNL     1       3.074   2.607  -3.072  1.00  0.00     0.211 HD
ENDBRANCH   6  13
BRANCH   7  15
ATOM     15  O   UNL     1       2.361  -0.342  -5.218  1.00  0.00    -0.385 OA
ATOM     16  H   UNL     1       1.810   0.319  -5.714  1.00  0.00     0.211 HD
ENDBRANCH   7  15
ENDBRANCH   1   2
BRANCH   1  17
ATOM     17  C   UNL     1       5.371  -1.967  -2.931  1.00  0.00     0.224 C 
ATOM     18  C   UNL     1       5.270  -3.404  -2.382  1.00  0.00     0.208 C 
ATOM     19  O   UNL     1       5.624  -1.088  -1.844  1.00  0.00    -0.337 OA
ATOM     20  C   UNL     1       6.025  -3.325  -1.080  1.00  0.00     0.180 C 
ATOM     21  C   UNL     1       5.871  -1.860  -0.687  1.00  0.00     0.179 C 
BRANCH  17  22
ATOM     22  C   UNL     1       6.534  -1.837  -3.931  1.00  0.00     0.225 C 
BRANCH  22  23
ATOM     23  O   UNL     1       6.865  -0.492  -4.170  1.00  0.00    -0.391 OA
ATOM     24  H   UNL     1       6.441  -0.230  -5.029  1.00  0.00     0.210 HD
ENDBRANCH  22  23
ENDBRANCH  17  22
BRANCH  18  25
ATOM     25  O   UNL     1       3.929  -3.749  -2.133  1.00  0.00    -0.385 OA
ATOM     26  H   UNL     1       3.403  -3.435  -2.914  1.00  0.00     0.211 HD
ENDBRANCH  18  25
BRANCH  20  27
ATOM     27  O   UNL     1       5.475  -4.166  -0.096  1.00  0.00    -0.387 OA
ATOM     28  H   UNL     1       6.230  -4.475   0.468  1.00  0.00     0.211 HD
ENDBRANCH  20  27
BRANCH  21  29
ATOM     29  C   UNL     1       7.124  -1.340   0.030  1.00  0.00     0.191 C 
BRANCH  29  30
ATOM     30  O   UNL     1       7.113  -1.726   1.376  1.00  0.00    -0.394 OA
ATOM     31  H   UNL     1       7.141  -2.721   1.384  1.00  0.00     0.210 HD
ENDBRANCH  29  30
ENDBRANCH  21  29
ENDBRANCH   1  17
TORSDOF 13
ENDMDL
MODEL 7
REMARK VINA RESULT:    -3.403      1.701      6.256
REMARK INTER + INTRA:          -6.345
REMARK INTER:                  -5.376
REMARK INTRA:                  -0.968
REMARK UNBOUND:                -1.151
REMARK SMILES OC[C@H]1O[C@@H](O[C@@]2(CO)O[C@H](CO)[C@@H](O)[C@H]2O)[C@@H](O)[C@H](O)[C@H]1O
REMARK SMILES IDX 6 1 5 2 3 3 22 4 4 5 20 6 18 7 2 8 1 9 23 11 21 13 19 15
REMARK SMILES IDX 7 17 16 18 10 19 14 20 11 21 8 22 9 23 17 25 15 27 12 29
REMARK SMILES IDX 13 30
REMARK H PARENT 1 10 23 12 21 14 19 16 9 24 17 26 15 28 13 31
REMARK Flexibility Score: inf
ROOT
ATOM      1  O   UNL     1       4.627  -1.307  -3.420  1.00  0.00    -0.313 OA
ENDROOT
BRANCH   1   2
ATOM      2  C   UNL     1       3.628  -0.317  -3.599  1.00  0.00     0.285 C 
ATOM      3  C   UNL     1       2.169   0.621  -5.167  1.00  0.00     0.178 C 
ATOM      4  C   UNL     1       2.703   2.056  -4.975  1.00  0.00     0.177 C 
ATOM      5  O   UNL     1       3.214  -0.314  -4.957  1.00  0.00    -0.341 OA
ATOM      6  C   UNL     1       3.262   2.199  -3.545  1.00  0.00     0.179 C 
ATOM      7  C   UNL     1       4.235   1.050  -3.220  1.00  0.00     0.202 C 
BRANCH   3   8
ATOM      8  C   UNL     1       1.589   0.410  -6.574  1.00  0.00     0.191 C 
BRANCH   8   9
ATOM      9  O   UNL     1       1.121   1.627  -7.105  1.00  0.00    -0.394 OA
ATOM     10  H   UNL     1       0.398   1.406  -7.748  1.00  0.00     0.210 HD
ENDBRANCH   8   9
ENDBRANCH   3   8
BRANCH   4  11
ATOM     11  O   UNL     1       3.715   2.307  -5.917  1.00  0.00    -0.387 OA
ATOM     12  H   UNL     1       3.389   3.033  -6.512  1.00  0.00     0.211 HD
ENDBRANCH   4  11
BRANCH   6  13
ATOM     13  O   UNL     1       2.208   2.209  -2.614  1.00  0.00    -0.387 OA
ATOM     14  H   UNL     1       2.177   1.302  -2.209  1.00  0.00     0.211 HD
ENDBRANCH   6  13
BRANCH   7  15
ATOM     15  O   UNL     1       5.432   1.254  -3.924  1.00  0.00    -0.385 OA
ATOM     16  H   UNL     1       5.399   2.170  -4.307  1.00  0.00     0.211 HD
ENDBRANCH   7  15
ENDBRANCH   1   2
BRANCH   1  17
ATOM     17  C   UNL     1       4.465  -2.147  -2.274  1.00  0.00     0.224 C 
ATOM     18  C   UNL     1       5.303  -1.588  -1.107  1.00  0.00     0.208 C 
ATOM     19  O   UNL     1       4.848  -3.497  -2.495  1.00  0.00    -0.337 OA
ATOM     20  C   UNL     1       5.728  -2.831  -0.367  1.00  0.00     0.180 C 
ATOM     21  C   UNL     1       5.722  -3.895  -1.458  1.00  0.00     0.179 C 
BRANCH  17  22
ATOM     22  C   UNL     1       2.963  -2.127  -1.937  1.00  0.00     0.225 C 
BRANCH  22  23
ATOM     23  O   UNL     1       2.725  -1.582  -0.663  1.00  0.00    -0.391 OA
ATOM     24  H   UNL     1       1.960  -0.954  -0.747  1.00  0.00     0.210 HD
ENDBRANCH  22  23
ENDBRANCH  17  22
BRANCH  18  25
ATOM     25  O   UNL     1       6.437  -0.911  -1.589  1.00  0.00    -0.385 OA
ATOM     26  H   UNL     1       7.115  -1.603  -1.806  1.00  0.00     0.211 HD
ENDBRANCH  18  25
BRANCH  20  27
ATOM     27  O   UNL     1       7.010  -2.700   0.196  1.00  0.00    -0.387 OA
ATOM     28  H   UNL     1       7.536  -2.130  -0.423  1.00  0.00     0.211 HD
ENDBRANCH  20  27
BRANCH  21  29
ATOM     29  C   UNL     1       5.289  -5.259  -0.906  1.00  0.00     0.191 C 
BRANCH  29  30
ATOM     30  O   UNL     1       5.711  -5.405   0.421  1.00  0.00    -0.394 OA
ATOM     31  H   UNL     1       6.700  -5.515   0.392  1.00  0.00     0.210 HD
ENDBRANCH  29  30
ENDBRANCH  21  29
ENDBRANCH   1  17
TORSDOF 13
ENDMDL
MODEL 8
REMARK VINA RESULT:    -3.328      1.470      5.848
REMARK INTER + INTRA:          -6.230
REMARK INTER:                  -5.034
REMARK INTRA:                  -1.195
REMARK UNBOUND:                -1.151
REMARK SMILES OC[C@H]1O[C@@H](O[C@@]2(CO)O[C@H](CO)[C@@H](O)[C@H]2O)[C@@H](O)[C@H](O)[C@H]1O
REMARK SMILES IDX 6 1 5 2 3 3 22 4 4 5 20 6 18 7 2 8 1 9 23 11 21 13 19 15
REMARK SMILES IDX 7 17 16 18 10 19 14 20 11 21 8 22 9 23 17 25 15 27 12 29
REMARK SMILES IDX 13 30
REMARK H PARENT 1 10 23 12 21 14 19 16 9 24 17 26 15 28 13 31
REMARK Flexibility Score: inf
ROOT
ATOM      1  O   UNL     1       5.774  -0.473  -2.709  1.00  0.00    -0.313 OA
ENDROOT
BRANCH   1   2
ATOM      2  C   UNL     1       4.455   0.005  -2.918  1.00  0.00     0.285 C 
ATOM      3  C   UNL     1       2.507  -0.334  -4.163  1.00  0.00     0.178 C 
ATOM      4  C   UNL     1       2.469   1.107  -4.713  1.00  0.00     0.177 C 
ATOM      5  O   UNL     1       3.850  -0.740  -3.963  1.00  0.00    -0.341 OA
ATOM      6  C   UNL     1       3.162   2.048  -3.707  1.00  0.00     0.179 C 
ATOM      7  C   UNL     1       4.543   1.497  -3.303  1.00  0.00     0.202 C 
BRANCH   3   8
ATOM      8  C   UNL     1       1.825  -1.327  -5.117  1.00  0.00     0.191 C 
BRANCH   8   9
ATOM      9  O   UNL     1       0.836  -0.681  -5.883  1.00  0.00    -0.394 OA
ATOM     10  H   UNL     1       1.244   0.146  -6.248  1.00  0.00     0.210 HD
ENDBRANCH   8   9
ENDBRANCH   3   8
BRANCH   4  11
ATOM     11  O   UNL     1       3.132   1.150  -5.951  1.00  0.00    -0.387 OA
ATOM     12  H   UNL     1       3.665   1.989  -5.971  1.00  0.00     0.211 HD
ENDBRANCH   4  11
BRANCH   6  13
ATOM     13  O   UNL     1       2.359   2.207  -2.563  1.00  0.00    -0.387 OA
ATOM     14  H   UNL     1       2.633   1.499  -1.923  1.00  0.00     0.211 HD
ENDBRANCH   6  13
BRANCH   7  15
ATOM     15  O   UNL     1       5.432   1.663  -4.377  1.00  0.00    -0.385 OA
ATOM     16  H   UNL     1       5.681   2.624  -4.410  1.00  0.00     0.211 HD
ENDBRANCH   7  15
ENDBRANCH   1   2
BRANCH   1  17
ATOM     17  C   UNL     1       5.883  -1.653  -1.909  1.00  0.00     0.224 C 
ATOM     18  C   UNL     1       6.460  -2.799  -2.763  1.00  0.00     0.208 C 
ATOM     19  O   UNL     1       4.648  -2.085  -1.355  1.00  0.00    -0.337 OA
ATOM     20  C   UNL     1       5.785  -4.021  -2.196  1.00  0.00     0.180 C 
ATOM     21  C   UNL     1       4.483  -3.460  -1.635  1.00  0.00     0.179 C 
BRANCH  17  22
ATOM     22  C   UNL     1       6.829  -1.298  -0.747  1.00  0.00     0.225 C 
BRANCH  22  23
ATOM     23  O   UNL     1       6.229  -1.538   0.501  1.00  0.00    -0.391 OA
ATOM     24  H   UNL     1       5.935  -2.487   0.511  1.00  0.00     0.210 HD
ENDBRANCH  22  23
ENDBRANCH  17  22
BRANCH  18  25
ATOM     25  O   UNL     1       6.101  -2.642  -4.114  1.00  0.00    -0.385 OA
ATOM     26  H   UNL     1       6.873  -2.954  -4.654  1.00  0.00     0.211 HD
ENDBRANCH  18  25
BRANCH  20  27
ATOM     27  O   UNL     1       5.527  -4.990  -3.181  1.00  0.00    -0.387 OA
ATOM     28  H   UNL     1       6.228  -5.686  -3.086  1.00  0.00     0.211 HD
ENDBRANCH  20  27
BRANCH  21  29
ATOM     29  C   UNL     1       4.056  -4.204  -0.364  1.00  0.00     0.191 C 
BRANCH  29  30
ATOM     30  O   UNL     1       5.097  -5.018   0.099  1.00  0.00    -0.394 OA
ATOM     31  H   UNL     1       4.850  -5.292   1.024  1.00  0.00     0.210 HD
ENDBRANCH  29  30
ENDBRANCH  21  29
ENDBRANCH   1  17
TORSDOF 13
ENDMDL
MODEL 9
REMARK VINA RESULT:    -3.265      1.526      6.168
REMARK INTER + INTRA:          -6.133
REMARK INTER:                  -5.173
REMARK INTRA:                  -0.961
REMARK UNBOUND:                -1.151
REMARK SMILES OC[C@H]1O[C@@H](O[C@@]2(CO)O[C@H](CO)[C@@H](O)[C@H]2O)[C@@H](O)[C@H](O)[C@H]1O
REMARK SMILES IDX 6 1 5 2 3 3 22 4 4 5 20 6 18 7 2 8 1 9 23 11 21 13 19 15
REMARK SMILES IDX 7 17 16 18 10 19 14 20 11 21 8 22 9 23 17 25 15 27 12 29
REMARK SMILES IDX 13 30
REMARK H PARENT 1 10 23 12 21 14 19 16 9 24 17 26 15 28 13 31
REMARK Flexibility Score: inf
ROOT
ATOM      1  O   UNL     1       2.673  -2.487  -1.817  1.00  0.00    -0.313 OA
ENDROOT
BRANCH   1   2
ATOM      2  C   UNL     1       2.028  -1.794  -2.873  1.00  0.00     0.285 C 
ATOM      3  C   UNL     1       1.768   0.308  -3.860  1.00  0.00     0.178 C 
ATOM      4  C   UNL     1       0.230   0.307  -3.729  1.00  0.00     0.177 C 
ATOM      5  O   UNL     1       2.345  -0.414  -2.785  1.00  0.00    -0.341 OA
ATOM      6  C   UNL     1      -0.275  -1.150  -3.738  1.00  0.00     0.179 C 
ATOM      7  C   UNL     1       0.507  -2.007  -2.725  1.00  0.00     0.202 C 
BRANCH   3   8
ATOM      8  C   UNL     1       2.339   1.735  -3.864  1.00  0.00     0.191 C 
BRANCH   8   9
ATOM      9  O   UNL     1       2.675   2.138  -2.559  1.00  0.00    -0.394 OA
ATOM     10  H   UNL     1       1.878   1.980  -1.989  1.00  0.00     0.210 HD
ENDBRANCH   8   9
ENDBRANCH   3   8
BRANCH   4  11
ATOM     11  O   UNL     1      -0.136   0.938  -2.528  1.00  0.00    -0.387 OA
ATOM     12  H   UNL     1      -0.583   0.255  -1.961  1.00  0.00     0.211 HD
ENDBRANCH   4  11
BRANCH   6  13
ATOM     13  O   UNL     1      -0.144  -1.698  -5.027  1.00  0.00    -0.387 OA
ATOM     14  H   UNL     1       0.224  -0.979  -5.606  1.00  0.00     0.211 HD
ENDBRANCH   6  13
BRANCH   7  15
ATOM     15  O   UNL     1       0.099  -1.663  -1.426  1.00  0.00    -0.385 OA
ATOM     16  H   UNL     1       0.413  -0.736  -1.253  1.00  0.00     0.211 HD
ENDBRANCH   7  15
ENDBRANCH   1   2
BRANCH   1  17
ATOM     17  C   UNL     1       4.096  -2.589  -1.925  1.00  0.00     0.224 C 
ATOM     18  C   UNL     1       4.547  -3.982  -1.442  1.00  0.00     0.208 C 
ATOM     19  O   UNL     1       4.798  -1.607  -1.177  1.00  0.00    -0.337 OA
ATOM     20  C   UNL     1       5.894  -3.709  -0.825  1.00  0.00     0.180 C 
ATOM     21  C   UNL     1       5.782  -2.252  -0.394  1.00  0.00     0.179 C 
BRANCH  17  22
ATOM     22  C   UNL     1       4.429  -2.384  -3.414  1.00  0.00     0.225 C 
BRANCH  22  23
ATOM     23  O   UNL     1       5.196  -1.224  -3.618  1.00  0.00    -0.391 OA
ATOM     24  H   UNL     1       4.579  -0.511  -3.930  1.00  0.00     0.210 HD
ENDBRANCH  22  23
ENDBRANCH  17  22
BRANCH  18  25
ATOM     25  O   UNL     1       3.668  -4.478  -0.463  1.00  0.00    -0.385 OA
ATOM     26  H   UNL     1       3.562  -3.763   0.217  1.00  0.00     0.211 HD
ENDBRANCH  18  25
BRANCH  20  27
ATOM     27  O   UNL     1       6.149  -4.539   0.281  1.00  0.00    -0.387 OA
ATOM     28  H   UNL     1       5.310  -4.573   0.810  1.00  0.00     0.211 HD
ENDBRANCH  20  27
BRANCH  21  29
ATOM     29  C   UNL     1       7.123  -1.522  -0.536  1.00  0.00     0.191 C 
BRANCH  29  30
ATOM     30  O   UNL     1       7.018  -0.482  -1.468  1.00  0.00    -0.394 OA
ATOM     31  H   UNL     1       7.142  -0.895  -2.365  1.00  0.00     0.210 HD
ENDBRANCH  29  30
ENDBRANCH  21  29
ENDBRANCH   1  17
TORSDOF 13
ENDMDL
