MODEL 1
REMARK VINA RESULT:    -4.982      0.000      0.000
REMARK INTER + INTRA:          -6.845
REMARK INTER:                  -6.438
REMARK INTRA:                  -0.407
REMARK UNBOUND:                -0.407
REMARK SMILES CCO[C@@H]1O[C@@H](CO)[C@@H](O)[C@@H](O)[C@H]1O
REMARK SMILES IDX 4 1 13 2 11 3 9 4 6 5 5 6 3 7 2 8 1 9 14 10 12 12 7 14 8 15
REMARK SMILES IDX 10 17
REMARK H PARENT 14 11 12 13 8 16 10 18
REMARK Flexibility Score: inf
ROOT
ATOM      1  C   UNL     1      23.498   2.987  40.414  1.00  0.00     0.281 C 
ATOM      2  C   UNL     1      22.644   4.239  40.115  1.00  0.00     0.202 C 
ATOM      3  C   UNL     1      21.358   3.833  39.365  1.00  0.00     0.179 C 
ATOM      4  C   UNL     1      20.630   2.684  40.088  1.00  0.00     0.177 C 
ATOM      5  C   UNL     1      21.640   1.541  40.344  1.00  0.00     0.178 C 
ATOM      6  O   UNL     1      22.739   2.006  41.115  1.00  0.00    -0.341 OA
ENDROOT
BRANCH   1   7
ATOM      7  O   UNL     1      24.033   2.470  39.206  1.00  0.00    -0.350 OA
BRANCH   7   8
ATOM      8  C   UNL     1      24.901   3.414  38.612  1.00  0.00     0.160 C 
ATOM      9  C   UNL     1      24.624   3.472  37.118  1.00  0.00     0.035 C 
ENDBRANCH   7   8
ENDBRANCH   1   7
BRANCH   2  10
ATOM     10  O   UNL     1      22.319   4.890  41.318  1.00  0.00    -0.385 OA
ATOM     11  H   UNL     1      22.091   5.829  41.086  1.00  0.00     0.211 HD
ENDBRANCH   2  10
BRANCH   3  12
ATOM     12  O   UNL     1      20.511   4.935  39.145  1.00  0.00    -0.387 OA
ATOM     13  H   UNL     1      19.932   4.732  38.365  1.00  0.00     0.211 HD
ENDBRANCH   3  12
BRANCH   5  14
ATOM     14  C   UNL     1      20.994   0.358  41.083  1.00  0.00     0.191 C 
BRANCH  14  15
ATOM     15  O   UNL     1      21.026   0.551  42.472  1.00  0.00    -0.394 OA
ATOM     16  H   UNL     1      20.917  -0.346  42.885  1.00  0.00     0.210 HD
ENDBRANCH  14  15
ENDBRANCH   5  14
BRANCH   4  17
ATOM     17  O   UNL     1      20.091   3.142  41.304  1.00  0.00    -0.387 OA
ATOM     18  H   UNL     1      20.851   3.453  41.862  1.00  0.00     0.211 HD
ENDBRANCH   4  17
TORSDOF 7
ENDMDL
MODEL 2
REMARK VINA RESULT:    -4.951      1.656      4.373
REMARK INTER + INTRA:          -6.804
REMARK INTER:                  -6.421
REMARK INTRA:                  -0.383
REMARK UNBOUND:                -0.407
REMARK SMILES CCO[C@@H]1O[C@@H](CO)[C@@H](O)[C@@H](O)[C@H]1O
REMARK SMILES IDX 4 1 13 2 11 3 9 4 6 5 5 6 3 7 2 8 1 9 14 10 12 12 7 14 8 15
REMARK SMILES IDX 10 17
REMARK H PARENT 14 11 12 13 8 16 10 18
REMARK Flexibility Score: inf
ROOT
ATOM      1  C   UNL     1      22.190   2.347  39.208  1.00  0.00     0.281 C 
ATOM      2  C   UNL     1      22.095   3.619  40.080  1.00  0.00     0.202 C 
ATOM      3  C   UNL     1      23.496   4.237  40.264  1.00  0.00     0.179 C 
ATOM      4  C   UNL     1      24.214   4.405  38.911  1.00  0.00     0.177 C 
ATOM      5  C   UNL     1      24.176   3.054  38.159  1.00  0.00     0.178 C 
ATOM      6  O   UNL     1      22.835   2.623  37.969  1.00  0.00    -0.341 OA
ENDROOT
BRANCH   1   7
ATOM      7  O   UNL     1      22.853   1.319  39.928  1.00  0.00    -0.350 OA
BRANCH   7   8
ATOM      8  C   UNL     1      22.112   0.119  39.861  1.00  0.00     0.160 C 
ATOM      9  C   UNL     1      21.304  -0.038  41.140  1.00  0.00     0.035 C 
ENDBRANCH   7   8
ENDBRANCH   1   7
BRANCH   2  10
ATOM     10  O   UNL     1      21.231   4.547  39.472  1.00  0.00    -0.385 OA
ATOM     11  H   UNL     1      21.585   5.451  39.681  1.00  0.00     0.211 HD
ENDBRANCH   2  10
BRANCH   3  12
ATOM     12  O   UNL     1      23.445   5.445  40.984  1.00  0.00    -0.387 OA
ATOM     13  H   UNL     1      23.389   5.230  41.951  1.00  0.00     0.211 HD
ENDBRANCH   3  12
BRANCH   5  14
ATOM     14  C   UNL     1      24.858   3.143  36.784  1.00  0.00     0.191 C 
BRANCH  14  15
ATOM     15  O   UNL     1      25.824   4.158  36.764  1.00  0.00    -0.394 OA
ATOM     16  H   UNL     1      26.299   4.116  37.636  1.00  0.00     0.210 HD
ENDBRANCH  14  15
ENDBRANCH   5  14
BRANCH   4  17
ATOM     17  O   UNL     1      23.583   5.406  38.150  1.00  0.00    -0.387 OA
ATOM     18  H   UNL     1      22.841   5.768  38.700  1.00  0.00     0.211 HD
ENDBRANCH   4  17
TORSDOF 7
ENDMDL
MODEL 3
REMARK VINA RESULT:    -4.838      2.146      3.145
REMARK INTER + INTRA:          -6.658
REMARK INTER:                  -6.297
REMARK INTRA:                  -0.362
REMARK UNBOUND:                -0.407
REMARK SMILES CCO[C@@H]1O[C@@H](CO)[C@@H](O)[C@@H](O)[C@H]1O
REMARK SMILES IDX 4 1 13 2 11 3 9 4 6 5 5 6 3 7 2 8 1 9 14 10 12 12 7 14 8 15
REMARK SMILES IDX 10 17
REMARK H PARENT 14 11 12 13 8 16 10 18
REMARK Flexibility Score: inf
ROOT
ATOM      1  C   UNL     1      23.959   4.523  38.267  1.00  0.00     0.281 C 
ATOM      2  C   UNL     1      22.575   3.949  37.890  1.00  0.00     0.202 C 
ATOM      3  C   UNL     1      22.113   2.940  38.962  1.00  0.00     0.179 C 
ATOM      4  C   UNL     1      22.225   3.540  40.377  1.00  0.00     0.177 C 
ATOM      5  C   UNL     1      23.653   4.104  40.564  1.00  0.00     0.178 C 
ATOM      6  O   UNL     1      23.940   5.084  39.576  1.00  0.00    -0.341 OA
ENDROOT
BRANCH   1   7
ATOM      7  O   UNL     1      24.949   3.514  38.143  1.00  0.00    -0.350 OA
BRANCH   7   8
ATOM      8  C   UNL     1      25.373   3.407  36.800  1.00  0.00     0.160 C 
ATOM      9  C   UNL     1      26.850   3.048  36.773  1.00  0.00     0.035 C 
ENDBRANCH   7   8
ENDBRANCH   1   7
BRANCH   2  10
ATOM     10  O   UNL     1      21.643   4.995  37.773  1.00  0.00    -0.385 OA
ATOM     11  H   UNL     1      21.780   5.591  38.555  1.00  0.00     0.211 HD
ENDBRANCH   2  10
BRANCH   3  12
ATOM     12  O   UNL     1      20.819   2.454  38.699  1.00  0.00    -0.387 OA
ATOM     13  H   UNL     1      20.632   1.711  39.329  1.00  0.00     0.211 HD
ENDBRANCH   3  12
BRANCH   5  14
ATOM     14  C   UNL     1      23.842   4.740  41.951  1.00  0.00     0.191 C 
BRANCH  14  15
ATOM     15  O   UNL     1      23.166   5.966  42.040  1.00  0.00    -0.394 OA
ATOM     16  H   UNL     1      22.201   5.767  41.919  1.00  0.00     0.210 HD
ENDBRANCH  14  15
ENDBRANCH   5  14
BRANCH   4  17
ATOM     17  O   UNL     1      21.271   4.560  40.546  1.00  0.00    -0.387 OA
ATOM     18  H   UNL     1      20.627   4.248  41.234  1.00  0.00     0.211 HD
ENDBRANCH   4  17
TORSDOF 7
ENDMDL
MODEL 4
REMARK VINA RESULT:    -4.553      1.817      4.656
REMARK INTER + INTRA:          -6.290
REMARK INTER:                  -5.865
REMARK INTRA:                  -0.425
REMARK UNBOUND:                -0.407
REMARK SMILES CCO[C@@H]1O[C@@H](CO)[C@@H](O)[C@@H](O)[C@H]1O
REMARK SMILES IDX 4 1 13 2 11 3 9 4 6 5 5 6 3 7 2 8 1 9 14 10 12 12 7 14 8 15
REMARK SMILES IDX 10 17
REMARK H PARENT 14 11 12 13 8 16 10 18
REMARK Flexibility Score: inf
ROOT
ATOM      1  C   UNL     1      20.847   3.871  39.765  1.00  0.00     0.281 C 
ATOM      2  C   UNL     1      22.290   3.660  40.276  1.00  0.00     0.202 C 
ATOM      3  C   UNL     1      23.186   3.152  39.128  1.00  0.00     0.179 C 
ATOM      4  C   UNL     1      23.043   4.036  37.875  1.00  0.00     0.177 C 
ATOM      5  C   UNL     1      21.540   4.174  37.535  1.00  0.00     0.178 C 
ATOM      6  O   UNL     1      20.827   4.731  38.630  1.00  0.00    -0.341 OA
ENDROOT
BRANCH   1   7
ATOM      7  O   UNL     1      20.249   2.615  39.482  1.00  0.00    -0.350 OA
BRANCH   7   8
ATOM      8  C   UNL     1      19.903   1.957  40.682  1.00  0.00     0.160 C 
ATOM      9  C   UNL     1      20.327   0.499  40.590  1.00  0.00     0.035 C 
ENDBRANCH   7   8
ENDBRANCH   1   7
BRANCH   2  10
ATOM     10  O   UNL     1      22.793   4.870  40.786  1.00  0.00    -0.385 OA
ATOM     11  H   UNL     1      22.156   5.176  41.484  1.00  0.00     0.211 HD
ENDBRANCH   2  10
BRANCH   3  12
ATOM     12  O   UNL     1      24.529   3.025  39.530  1.00  0.00    -0.387 OA
ATOM     13  H   UNL     1      24.799   3.865  39.983  1.00  0.00     0.211 HD
ENDBRANCH   3  12
BRANCH   5  14
ATOM     14  C   UNL     1      21.309   5.062  36.301  1.00  0.00     0.191 C 
BRANCH  14  15
ATOM     15  O   UNL     1      21.284   6.419  36.654  1.00  0.00    -0.394 OA
ATOM     16  H   UNL     1      20.375   6.602  37.011  1.00  0.00     0.210 HD
ENDBRANCH  14  15
ENDBRANCH   5  14
BRANCH   4  17
ATOM     17  O   UNL     1      23.609   5.303  38.109  1.00  0.00    -0.387 OA
ATOM     18  H   UNL     1      24.063   5.262  38.991  1.00  0.00     0.211 HD
ENDBRANCH   4  17
TORSDOF 7
ENDMDL
MODEL 5
REMARK VINA RESULT:    -4.515      2.908      4.902
REMARK INTER + INTRA:          -6.241
REMARK INTER:                  -5.833
REMARK INTRA:                  -0.408
REMARK UNBOUND:                -0.407
REMARK SMILES CCO[C@@H]1O[C@@H](CO)[C@@H](O)[C@@H](O)[C@H]1O
REMARK SMILES IDX 4 1 13 2 11 3 9 4 6 5 5 6 3 7 2 8 1 9 14 10 12 12 7 14 8 15
REMARK SMILES IDX 10 17
REMARK H PARENT 14 11 12 13 8 16 10 18
REMARK Flexibility Score: inf
ROOT
ATOM      1  C   UNL     1      21.914   3.914  35.779  1.00  0.00     0.281 C 
ATOM      2  C   UNL     1      21.324   4.536  37.064  1.00  0.00     0.202 C 
ATOM      3  C   UNL     1      22.044   3.966  38.304  1.00  0.00     0.179 C 
ATOM      4  C   UNL     1      23.574   4.065  38.155  1.00  0.00     0.177 C 
ATOM      5  C   UNL     1      23.982   3.437  36.801  1.00  0.00     0.178 C 
ATOM      6  O   UNL     1      23.326   4.095  35.725  1.00  0.00    -0.341 OA
ENDROOT
BRANCH   1   7
ATOM      7  O   UNL     1      21.558   2.543  35.700  1.00  0.00    -0.350 OA
BRANCH   7   8
ATOM      8  C   UNL     1      21.464   2.138  34.350  1.00  0.00     0.160 C 
ATOM      9  C   UNL     1      22.541   1.102  34.065  1.00  0.00     0.035 C 
ENDBRANCH   7   8
ENDBRANCH   1   7
BRANCH   2  10
ATOM     10  O   UNL     1      21.463   5.934  37.022  1.00  0.00    -0.385 OA
ATOM     11  H   UNL     1      21.148   6.228  36.127  1.00  0.00     0.211 HD
ENDBRANCH   2  10
BRANCH   3  12
ATOM     12  O   UNL     1      21.593   4.567  39.493  1.00  0.00    -0.387 OA
ATOM     13  H   UNL     1      21.799   5.537  39.450  1.00  0.00     0.211 HD
ENDBRANCH   3  12
BRANCH   5  14
ATOM     14  C   UNL     1      25.499   3.514  36.566  1.00  0.00     0.191 C 
BRANCH  14  15
ATOM     15  O   UNL     1      26.199   3.515  37.781  1.00  0.00    -0.394 OA
ATOM     16  H   UNL     1      27.166   3.519  37.551  1.00  0.00     0.210 HD
ENDBRANCH  14  15
ENDBRANCH   5  14
BRANCH   4  17
ATOM     17  O   UNL     1      23.980   5.411  38.211  1.00  0.00    -0.387 OA
ATOM     18  H   UNL     1      24.650   5.485  38.939  1.00  0.00     0.211 HD
ENDBRANCH   4  17
TORSDOF 7
ENDMDL
MODEL 6
REMARK VINA RESULT:    -4.512     16.068     17.476
REMARK INTER + INTRA:          -6.238
REMARK INTER:                  -5.882
REMARK INTRA:                  -0.356
REMARK UNBOUND:                -0.407
REMARK SMILES CCO[C@@H]1O[C@@H](CO)[C@@H](O)[C@@H](O)[C@H]1O
REMARK SMILES IDX 4 1 13 2 11 3 9 4 6 5 5 6 3 7 2 8 1 9 14 10 12 12 7 14 8 15
REMARK SMILES IDX 10 17
REMARK H PARENT 14 11 12 13 8 16 10 18
REMARK Flexibility Score: inf
ROOT
ATOM      1  C   UNL     1      37.172   0.534  45.337  1.00  0.00     0.281 C 
ATOM      2  C   UNL     1      37.895   0.948  46.638  1.00  0.00     0.202 C 
ATOM      3  C   UNL     1      39.355   1.338  46.329  1.00  0.00     0.179 C 
ATOM      4  C   UNL     1      39.429   2.353  45.172  1.00  0.00     0.177 C 
ATOM      5  C   UNL     1      38.619   1.799  43.975  1.00  0.00     0.178 C 
ATOM      6  O   UNL     1      37.270   1.557  44.351  1.00  0.00    -0.341 OA
ENDROOT
BRANCH   1   7
ATOM      7  O   UNL     1      37.695  -0.699  44.867  1.00  0.00    -0.350 OA
BRANCH   7   8
ATOM      8  C   UNL     1      37.199  -1.768  45.645  1.00  0.00     0.160 C 
ATOM      9  C   UNL     1      37.257  -3.048  44.826  1.00  0.00     0.035 C 
ENDBRANCH   7   8
ENDBRANCH   1   7
BRANCH   2  10
ATOM     10  O   UNL     1      37.219   2.028  47.233  1.00  0.00    -0.385 OA
ATOM     11  H   UNL     1      36.416   1.653  47.682  1.00  0.00     0.211 HD
ENDBRANCH   2  10
BRANCH   3  12
ATOM     12  O   UNL     1      40.027   1.800  47.475  1.00  0.00    -0.387 OA
ATOM     13  H   UNL     1      40.089   1.052  48.123  1.00  0.00     0.211 HD
ENDBRANCH   3  12
BRANCH   5  14
ATOM     14  C   UNL     1      38.626   2.766  42.780  1.00  0.00     0.191 C 
BRANCH  14  15
ATOM     15  O   UNL     1      39.620   3.744  42.928  1.00  0.00    -0.394 OA
ATOM     16  H   UNL     1      40.306   3.559  42.234  1.00  0.00     0.210 HD
ENDBRANCH  14  15
ENDBRANCH   5  14
BRANCH   4  17
ATOM     17  O   UNL     1      38.906   3.593  45.583  1.00  0.00    -0.387 OA
ATOM     18  H   UNL     1      39.653   4.246  45.565  1.00  0.00     0.211 HD
ENDBRANCH   4  17
TORSDOF 7
ENDMDL
MODEL 7
REMARK VINA RESULT:    -4.509      1.884      3.917
REMARK INTER + INTRA:          -6.234
REMARK INTER:                  -6.029
REMARK INTRA:                  -0.205
REMARK UNBOUND:                -0.407
REMARK SMILES CCO[C@@H]1O[C@@H](CO)[C@@H](O)[C@@H](O)[C@H]1O
REMARK SMILES IDX 4 1 13 2 11 3 9 4 6 5 5 6 3 7 2 8 1 9 14 10 12 12 7 14 8 15
REMARK SMILES IDX 10 17
REMARK H PARENT 14 11 12 13 8 16 10 18
REMARK Flexibility Score: inf
ROOT
ATOM      1  C   UNL     1      20.511   4.148  38.914  1.00  0.00     0.281 C 
ATOM      2  C   UNL     1      20.072   3.427  40.208  1.00  0.00     0.202 C 
ATOM      3  C   UNL     1      20.967   2.196  40.455  1.00  0.00     0.179 C 
ATOM      4  C   UNL     1      22.460   2.565  40.370  1.00  0.00     0.177 C 
ATOM      5  C   UNL     1      22.710   3.313  39.039  1.00  0.00     0.178 C 
ATOM      6  O   UNL     1      21.897   4.476  38.957  1.00  0.00    -0.341 OA
ENDROOT
BRANCH   1   7
ATOM      7  O   UNL     1      20.197   3.346  37.786  1.00  0.00    -0.350 OA
BRANCH   7   8
ATOM      8  C   UNL     1      19.876   4.163  36.679  1.00  0.00     0.160 C 
ATOM      9  C   UNL     1      20.804   3.822  35.524  1.00  0.00     0.035 C 
ENDBRANCH   7   8
ENDBRANCH   1   7
BRANCH   2  10
ATOM     10  O   UNL     1      20.154   4.314  41.296  1.00  0.00    -0.385 OA
ATOM     11  H   UNL     1      20.869   3.972  41.894  1.00  0.00     0.211 HD
ENDBRANCH   2  10
BRANCH   3  12
ATOM     12  O   UNL     1      20.654   1.557  41.669  1.00  0.00    -0.387 OA
ATOM     13  H   UNL     1      21.127   2.029  42.402  1.00  0.00     0.211 HD
ENDBRANCH   3  12
BRANCH   5  14
ATOM     14  C   UNL     1      24.180   3.736  38.885  1.00  0.00     0.191 C 
BRANCH  14  15
ATOM     15  O   UNL     1      24.312   4.775  37.952  1.00  0.00    -0.394 OA
ATOM     16  H   UNL     1      24.236   4.360  37.053  1.00  0.00     0.210 HD
ENDBRANCH  14  15
ENDBRANCH   5  14
BRANCH   4  17
ATOM     17  O   UNL     1      22.821   3.376  41.462  1.00  0.00    -0.387 OA
ATOM     18  H   UNL     1      23.450   2.852  42.021  1.00  0.00     0.211 HD
ENDBRANCH   4  17
TORSDOF 7
ENDMDL
MODEL 8
REMARK VINA RESULT:    -4.467     12.816     14.746
REMARK INTER + INTRA:          -6.180
REMARK INTER:                  -5.811
REMARK INTRA:                  -0.369
REMARK UNBOUND:                -0.407
REMARK SMILES CCO[C@@H]1O[C@@H](CO)[C@@H](O)[C@@H](O)[C@H]1O
REMARK SMILES IDX 4 1 13 2 11 3 9 4 6 5 5 6 3 7 2 8 1 9 14 10 12 12 7 14 8 15
REMARK SMILES IDX 10 17
REMARK H PARENT 14 11 12 13 8 16 10 18
REMARK Flexibility Score: inf
ROOT
ATOM      1  C   UNL     1      35.350   1.574  44.354  1.00  0.00     0.281 C 
ATOM      2  C   UNL     1      36.475   2.117  45.263  1.00  0.00     0.202 C 
ATOM      3  C   UNL     1      37.298   3.179  44.505  1.00  0.00     0.179 C 
ATOM      4  C   UNL     1      36.384   4.242  43.866  1.00  0.00     0.177 C 
ATOM      5  C   UNL     1      35.296   3.523  43.032  1.00  0.00     0.178 C 
ATOM      6  O   UNL     1      34.545   2.634  43.848  1.00  0.00    -0.341 OA
ENDROOT
BRANCH   1   7
ATOM      7  O   UNL     1      35.910   0.796  43.307  1.00  0.00    -0.350 OA
BRANCH   7   8
ATOM      8  C   UNL     1      35.999  -0.558  43.699  1.00  0.00     0.160 C 
ATOM      9  C   UNL     1      36.582  -1.370  42.552  1.00  0.00     0.035 C 
ENDBRANCH   7   8
ENDBRANCH   1   7
BRANCH   2  10
ATOM     10  O   UNL     1      35.917   2.674  46.427  1.00  0.00    -0.385 OA
ATOM     11  H   UNL     1      36.086   2.030  47.164  1.00  0.00     0.211 HD
ENDBRANCH   2  10
BRANCH   3  12
ATOM     12  O   UNL     1      38.284   3.760  45.324  1.00  0.00    -0.387 OA
ATOM     13  H   UNL     1      38.414   3.177  46.116  1.00  0.00     0.211 HD
ENDBRANCH   3  12
BRANCH   5  14
ATOM     14  C   UNL     1      34.327   4.517  42.374  1.00  0.00     0.191 C 
BRANCH  14  15
ATOM     15  O   UNL     1      34.944   5.758  42.159  1.00  0.00    -0.394 OA
ATOM     16  H   UNL     1      35.121   6.146  43.056  1.00  0.00     0.210 HD
ENDBRANCH  14  15
ENDBRANCH   5  14
BRANCH   4  17
ATOM     17  O   UNL     1      35.790   5.033  44.866  1.00  0.00    -0.387 OA
ATOM     18  H   UNL     1      36.519   5.537  45.312  1.00  0.00     0.211 HD
ENDBRANCH   4  17
TORSDOF 7
ENDMDL
