MODEL 1
REMARK VINA RESULT:    -4.071      0.000      0.000
REMARK INTER + INTRA:          -9.060
REMARK INTER:                  -7.165
REMARK INTRA:                  -1.895
REMARK UNBOUND:                -1.895
REMARK SMILES CCCCCCC=CCCCCCCCC(=O)[O-]
REMARK SMILES IDX 10 1 11 2 12 3 13 4 14 5 15 6 16 7 17 8 18 9 9 10 8 11 7 12
REMARK SMILES IDX 6 13 5 14 4 15 3 16 2 17 1 18
REMARK H PARENT
REMARK Flexibility Score: inf
ROOT
ATOM      1  C   UNL     1     -20.363  18.190  -2.253  1.00  0.00     0.004 C 
ENDROOT
BRANCH   1   2
ATOM      2  C   UNL     1     -20.596  17.612  -3.660  1.00  0.00     0.000 C 
BRANCH   2   3
ATOM      3  C   UNL     1     -21.063  16.145  -3.636  1.00  0.00     0.000 C 
BRANCH   3   4
ATOM      4  C   UNL     1     -22.572  15.937  -3.855  1.00  0.00     0.000 C 
BRANCH   4   5
ATOM      5  C   UNL     1     -23.114  16.710  -5.069  1.00  0.00     0.006 C 
BRANCH   5   6
ATOM      6  C   UNL     1     -23.678  15.774  -6.146  1.00  0.00     0.053 C 
BRANCH   6   7
ATOM      7  C   UNL     1     -22.659  15.450  -7.195  1.00  0.00     0.041 C 
ATOM      8  O   UNL     1     -22.838  15.815  -8.387  1.00  0.00    -0.550 OA
ATOM      9  O   UNL     1     -21.525  14.718  -6.862  1.00  0.00    -0.550 OA
ENDBRANCH   6   7
ENDBRANCH   5   6
ENDBRANCH   4   5
ENDBRANCH   3   4
ENDBRANCH   2   3
ENDBRANCH   1   2
BRANCH   1  10
ATOM     10  C   UNL     1     -21.162  19.481  -2.022  1.00  0.00     0.027 C 
BRANCH  10  11
ATOM     11  C   UNL     1     -22.372  19.569  -2.918  1.00  0.00    -0.031 C 
ATOM     12  C   UNL     1     -23.622  19.217  -2.563  1.00  0.00    -0.031 C 
BRANCH  12  13
ATOM     13  C   UNL     1     -24.033  18.732  -1.192  1.00  0.00     0.027 C 
BRANCH  13  14
ATOM     14  C   UNL     1     -23.845  17.215  -1.060  1.00  0.00     0.004 C 
BRANCH  14  15
ATOM     15  C   UNL     1     -23.340  16.817   0.337  1.00  0.00     0.000 C 
BRANCH  15  16
ATOM     16  C   UNL     1     -21.936  16.186   0.309  1.00  0.00    -0.000 C 
BRANCH  16  17
ATOM     17  C   UNL     1     -21.448  15.639   1.662  1.00  0.00    -0.003 C 
ATOM     18  C   UNL     1     -22.572  15.481   2.686  1.00  0.00     0.004 C 
ENDBRANCH  16  17
ENDBRANCH  15  16
ENDBRANCH  14  15
ENDBRANCH  13  14
ENDBRANCH  12  13
ENDBRANCH  10  11
ENDBRANCH   1  10
TORSDOF 13
ENDMDL
MODEL 2
REMARK VINA RESULT:    -3.860      0.782      1.902
REMARK INTER + INTRA:          -8.688
REMARK INTER:                  -7.170
REMARK INTRA:                  -1.518
REMARK UNBOUND:                -1.895
REMARK SMILES CCCCCCC=CCCCCCCCC(=O)[O-]
REMARK SMILES IDX 10 1 11 2 12 3 13 4 14 5 15 6 16 7 17 8 18 9 9 10 8 11 7 12
REMARK SMILES IDX 6 13 5 14 4 15 3 16 2 17 1 18
REMARK H PARENT
REMARK Flexibility Score: inf
ROOT
ATOM      1  C   UNL     1     -20.508  17.068  -3.958  1.00  0.00     0.004 C 
ENDROOT
BRANCH   1   2
ATOM      2  C   UNL     1     -21.757  16.184  -4.123  1.00  0.00     0.000 C 
BRANCH   2   3
ATOM      3  C   UNL     1     -22.828  16.821  -5.026  1.00  0.00     0.000 C 
BRANCH   3   4
ATOM      4  C   UNL     1     -24.089  15.965  -5.246  1.00  0.00     0.000 C 
BRANCH   4   5
ATOM      5  C   UNL     1     -24.082  15.223  -6.593  1.00  0.00     0.006 C 
BRANCH   5   6
ATOM      6  C   UNL     1     -23.322  16.000  -7.678  1.00  0.00     0.053 C 
BRANCH   6   7
ATOM      7  C   UNL     1     -22.086  15.277  -8.119  1.00  0.00     0.041 C 
ATOM      8  O   UNL     1     -21.386  14.649  -7.282  1.00  0.00    -0.550 OA
ATOM      9  O   UNL     1     -21.690  15.323  -9.450  1.00  0.00    -0.550 OA
ENDBRANCH   6   7
ENDBRANCH   5   6
ENDBRANCH   4   5
ENDBRANCH   3   4
ENDBRANCH   2   3
ENDBRANCH   1   2
BRANCH   1  10
ATOM     10  C   UNL     1     -20.433  17.702  -2.560  1.00  0.00     0.027 C 
BRANCH  10  11
ATOM     11  C   UNL     1     -20.569  19.203  -2.608  1.00  0.00    -0.031 C 
ATOM     12  C   UNL     1     -21.737  19.870  -2.676  1.00  0.00    -0.031 C 
BRANCH  12  13
ATOM     13  C   UNL     1     -23.106  19.231  -2.655  1.00  0.00     0.027 C 
BRANCH  13  14
ATOM     14  C   UNL     1     -23.478  18.761  -1.243  1.00  0.00     0.004 C 
BRANCH  14  15
ATOM     15  C   UNL     1     -23.725  17.244  -1.188  1.00  0.00     0.000 C 
BRANCH  15  16
ATOM     16  C   UNL     1     -23.353  16.626   0.172  1.00  0.00    -0.000 C 
BRANCH  16  17
ATOM     17  C   UNL     1     -21.873  16.233   0.319  1.00  0.00    -0.003 C 
ATOM     18  C   UNL     1     -21.518  15.746   1.725  1.00  0.00     0.004 C 
ENDBRANCH  16  17
ENDBRANCH  15  16
ENDBRANCH  14  15
ENDBRANCH  13  14
ENDBRANCH  12  13
ENDBRANCH  10  11
ENDBRANCH   1  10
TORSDOF 13
ENDMDL
MODEL 3
REMARK VINA RESULT:    -3.811      1.200      2.341
REMARK INTER + INTRA:          -8.602
REMARK INTER:                  -7.081
REMARK INTRA:                  -1.521
REMARK UNBOUND:                -1.895
REMARK SMILES CCCCCCC=CCCCCCCCC(=O)[O-]
REMARK SMILES IDX 10 1 11 2 12 3 13 4 14 5 15 6 16 7 17 8 18 9 9 10 8 11 7 12
REMARK SMILES IDX 6 13 5 14 4 15 3 16 2 17 1 18
REMARK H PARENT
REMARK Flexibility Score: inf
ROOT
ATOM      1  C   UNL     1     -21.548  19.251  -3.376  1.00  0.00     0.004 C 
ENDROOT
BRANCH   1   2
ATOM      2  C   UNL     1     -23.009  19.683  -3.163  1.00  0.00     0.000 C 
BRANCH   2   3
ATOM      3  C   UNL     1     -23.997  18.504  -3.210  1.00  0.00     0.000 C 
BRANCH   3   4
ATOM      4  C   UNL     1     -23.955  17.670  -4.503  1.00  0.00     0.000 C 
BRANCH   4   5
ATOM      5  C   UNL     1     -23.391  16.255  -4.286  1.00  0.00     0.006 C 
BRANCH   5   6
ATOM      6  C   UNL     1     -22.157  15.984  -5.158  1.00  0.00     0.053 C 
BRANCH   6   7
ATOM      7  C   UNL     1     -22.517  15.283  -6.432  1.00  0.00     0.041 C 
ATOM      8  O   UNL     1     -23.726  15.105  -6.738  1.00  0.00    -0.550 OA
ATOM      9  O   UNL     1     -21.517  14.799  -7.267  1.00  0.00    -0.550 OA
ENDBRANCH   6   7
ENDBRANCH   5   6
ENDBRANCH   4   5
ENDBRANCH   3   4
ENDBRANCH   2   3
ENDBRANCH   1   2
BRANCH   1  10
ATOM     10  C   UNL     1     -20.822  19.000  -2.046  1.00  0.00     0.027 C 
BRANCH  10  11
ATOM     11  C   UNL     1     -20.537  17.537  -1.819  1.00  0.00    -0.031 C 
ATOM     12  C   UNL     1     -21.347  16.687  -1.160  1.00  0.00    -0.031 C 
BRANCH  12  13
ATOM     13  C   UNL     1     -22.701  17.041  -0.590  1.00  0.00     0.027 C 
BRANCH  13  14
ATOM     14  C   UNL     1     -22.966  16.291   0.721  1.00  0.00     0.004 C 
BRANCH  14  15
ATOM     15  C   UNL     1     -21.665  15.982   1.481  1.00  0.00     0.000 C 
BRANCH  15  16
ATOM     16  C   UNL     1     -21.906  15.216   2.796  1.00  0.00    -0.000 C 
BRANCH  16  17
ATOM     17  C   UNL     1     -23.361  15.237   3.297  1.00  0.00    -0.003 C 
ATOM     18  C   UNL     1     -23.526  15.971   4.628  1.00  0.00     0.004 C 
ENDBRANCH  16  17
ENDBRANCH  15  16
ENDBRANCH  14  15
ENDBRANCH  13  14
ENDBRANCH  12  13
ENDBRANCH  10  11
ENDBRANCH   1  10
TORSDOF 13
ENDMDL
MODEL 4
REMARK VINA RESULT:    -3.798      1.215      3.411
REMARK INTER + INTRA:          -8.579
REMARK INTER:                  -6.602
REMARK INTRA:                  -1.977
REMARK UNBOUND:                -1.895
REMARK SMILES CCCCCCC=CCCCCCCCC(=O)[O-]
REMARK SMILES IDX 10 1 11 2 12 3 13 4 14 5 15 6 16 7 17 8 18 9 9 10 8 11 7 12
REMARK SMILES IDX 6 13 5 14 4 15 3 16 2 17 1 18
REMARK H PARENT
REMARK Flexibility Score: inf
ROOT
ATOM      1  C   UNL     1     -20.885  16.325  -3.352  1.00  0.00     0.004 C 
ENDROOT
BRANCH   1   2
ATOM      2  C   UNL     1     -21.695  16.710  -4.601  1.00  0.00     0.000 C 
BRANCH   2   3
ATOM      3  C   UNL     1     -23.117  16.122  -4.600  1.00  0.00     0.000 C 
BRANCH   3   4
ATOM      4  C   UNL     1     -24.117  16.829  -5.532  1.00  0.00     0.000 C 
BRANCH   4   5
ATOM      5  C   UNL     1     -23.797  16.623  -7.022  1.00  0.00     0.006 C 
BRANCH   5   6
ATOM      6  C   UNL     1     -23.438  15.165  -7.340  1.00  0.00     0.053 C 
BRANCH   6   7
ATOM      7  C   UNL     1     -22.058  15.040  -7.909  1.00  0.00     0.041 C 
ATOM      8  O   UNL     1     -21.100  14.679  -7.175  1.00  0.00    -0.550 OA
ATOM      9  O   UNL     1     -21.823  15.352  -9.243  1.00  0.00    -0.550 OA
ENDBRANCH   6   7
ENDBRANCH   5   6
ENDBRANCH   4   5
ENDBRANCH   3   4
ENDBRANCH   2   3
ENDBRANCH   1   2
BRANCH   1  10
ATOM     10  C   UNL     1     -21.729  15.536  -2.339  1.00  0.00     0.027 C 
BRANCH  10  11
ATOM     11  C   UNL     1     -21.418  15.922  -0.915  1.00  0.00    -0.031 C 
ATOM     12  C   UNL     1     -22.245  16.606  -0.102  1.00  0.00    -0.031 C 
BRANCH  12  13
ATOM     13  C   UNL     1     -23.644  17.050  -0.459  1.00  0.00     0.027 C 
BRANCH  13  14
ATOM     14  C   UNL     1     -23.682  18.541  -0.815  1.00  0.00     0.004 C 
BRANCH  14  15
ATOM     15  C   UNL     1     -23.703  18.771  -2.335  1.00  0.00     0.000 C 
BRANCH  15  16
ATOM     16  C   UNL     1     -22.522  19.627  -2.828  1.00  0.00    -0.000 C 
BRANCH  16  17
ATOM     17  C   UNL     1     -21.243  19.512  -1.981  1.00  0.00    -0.003 C 
ATOM     18  C   UNL     1     -20.328  20.730  -2.107  1.00  0.00     0.004 C 
ENDBRANCH  16  17
ENDBRANCH  15  16
ENDBRANCH  14  15
ENDBRANCH  13  14
ENDBRANCH  12  13
ENDBRANCH  10  11
ENDBRANCH   1  10
TORSDOF 13
ENDMDL
MODEL 5
REMARK VINA RESULT:    -3.688      2.604      6.079
REMARK INTER + INTRA:          -8.385
REMARK INTER:                  -6.964
REMARK INTRA:                  -1.421
REMARK UNBOUND:                -1.895
REMARK SMILES CCCCCCC=CCCCCCCCC(=O)[O-]
REMARK SMILES IDX 10 1 11 2 12 3 13 4 14 5 15 6 16 7 17 8 18 9 9 10 8 11 7 12
REMARK SMILES IDX 6 13 5 14 4 15 3 16 2 17 1 18
REMARK H PARENT
REMARK Flexibility Score: inf
ROOT
ATOM      1  C   UNL     1     -20.907  19.132  -3.632  1.00  0.00     0.004 C 
ENDROOT
BRANCH   1   2
ATOM      2  C   UNL     1     -21.865  19.799  -2.629  1.00  0.00     0.000 C 
BRANCH   2   3
ATOM      3  C   UNL     1     -23.348  19.597  -2.989  1.00  0.00     0.000 C 
BRANCH   3   4
ATOM      4  C   UNL     1     -24.125  18.657  -2.050  1.00  0.00     0.000 C 
BRANCH   4   5
ATOM      5  C   UNL     1     -23.391  18.393  -0.724  1.00  0.00     0.006 C 
BRANCH   5   6
ATOM      6  C   UNL     1     -23.552  16.942  -0.252  1.00  0.00     0.053 C 
BRANCH   6   7
ATOM      7  C   UNL     1     -22.234  16.314   0.083  1.00  0.00     0.041 C 
ATOM      8  O   UNL     1     -21.423  16.015  -0.833  1.00  0.00    -0.550 OA
ATOM      9  O   UNL     1     -21.914  16.031   1.405  1.00  0.00    -0.550 OA
ENDBRANCH   6   7
ENDBRANCH   5   6
ENDBRANCH   4   5
ENDBRANCH   3   4
ENDBRANCH   2   3
ENDBRANCH   1   2
BRANCH   1  10
ATOM     10  C   UNL     1     -20.418  17.763  -3.138  1.00  0.00     0.027 C 
BRANCH  10  11
ATOM     11  C   UNL     1     -20.479  16.713  -4.218  1.00  0.00    -0.031 C 
ATOM     12  C   UNL     1     -21.573  15.996  -4.537  1.00  0.00    -0.031 C 
BRANCH  12  13
ATOM     13  C   UNL     1     -22.937  16.165  -3.909  1.00  0.00     0.027 C 
BRANCH  13  14
ATOM     14  C   UNL     1     -24.005  16.459  -4.970  1.00  0.00     0.004 C 
BRANCH  14  15
ATOM     15  C   UNL     1     -23.895  15.512  -6.176  1.00  0.00     0.000 C 
BRANCH  15  16
ATOM     16  C   UNL     1     -23.570  16.248  -7.489  1.00  0.00    -0.000 C 
BRANCH  16  17
ATOM     17  C   UNL     1     -22.481  15.583  -8.348  1.00  0.00    -0.003 C 
ATOM     18  C   UNL     1     -21.483  14.767  -7.526  1.00  0.00     0.004 C 
ENDBRANCH  16  17
ENDBRANCH  15  16
ENDBRANCH  14  15
ENDBRANCH  13  14
ENDBRANCH  12  13
ENDBRANCH  10  11
ENDBRANCH   1  10
TORSDOF 13
ENDMDL
MODEL 6
REMARK VINA RESULT:    -3.489      1.671      3.096
REMARK INTER + INTRA:          -8.036
REMARK INTER:                  -7.089
REMARK INTRA:                  -0.946
REMARK UNBOUND:                -1.895
REMARK SMILES CCCCCCC=CCCCCCCCC(=O)[O-]
REMARK SMILES IDX 10 1 11 2 12 3 13 4 14 5 15 6 16 7 17 8 18 9 9 10 8 11 7 12
REMARK SMILES IDX 6 13 5 14 4 15 3 16 2 17 1 18
REMARK H PARENT
REMARK Flexibility Score: inf
ROOT
ATOM      1  C   UNL     1     -21.736  18.648  -1.971  1.00  0.00     0.004 C 
ENDROOT
BRANCH   1   2
ATOM      2  C   UNL     1     -21.425  18.514  -3.472  1.00  0.00     0.000 C 
BRANCH   2   3
ATOM      3  C   UNL     1     -20.637  17.235  -3.810  1.00  0.00     0.000 C 
BRANCH   3   4
ATOM      4  C   UNL     1     -21.434  16.162  -4.573  1.00  0.00     0.000 C 
BRANCH   4   5
ATOM      5  C   UNL     1     -22.955  16.378  -4.498  1.00  0.00     0.006 C 
BRANCH   5   6
ATOM      6  C   UNL     1     -23.539  16.846  -5.838  1.00  0.00     0.053 C 
BRANCH   6   7
ATOM      7  C   UNL     1     -23.591  15.737  -6.844  1.00  0.00     0.041 C 
ATOM      8  O   UNL     1     -24.125  14.636  -6.545  1.00  0.00    -0.550 OA
ATOM      9  O   UNL     1     -23.023  15.909  -8.100  1.00  0.00    -0.550 OA
ENDBRANCH   6   7
ENDBRANCH   5   6
ENDBRANCH   4   5
ENDBRANCH   3   4
ENDBRANCH   2   3
ENDBRANCH   1   2
BRANCH   1  10
ATOM     10  C   UNL     1     -21.564  17.315  -1.227  1.00  0.00     0.027 C 
BRANCH  10  11
ATOM     11  C   UNL     1     -22.797  16.936  -0.445  1.00  0.00    -0.031 C 
ATOM     12  C   UNL     1     -22.793  16.279   0.730  1.00  0.00    -0.031 C 
BRANCH  12  13
ATOM     13  C   UNL     1     -21.556  15.864   1.491  1.00  0.00     0.027 C 
BRANCH  13  14
ATOM     14  C   UNL     1     -21.881  15.564   2.960  1.00  0.00     0.004 C 
BRANCH  14  15
ATOM     15  C   UNL     1     -23.372  15.253   3.168  1.00  0.00     0.000 C 
BRANCH  15  16
ATOM     16  C   UNL     1     -23.845  15.522   4.609  1.00  0.00    -0.000 C 
BRANCH  16  17
ATOM     17  C   UNL     1     -23.068  16.626   5.347  1.00  0.00    -0.003 C 
ATOM     18  C   UNL     1     -23.979  17.668   5.996  1.00  0.00     0.004 C 
ENDBRANCH  16  17
ENDBRANCH  15  16
ENDBRANCH  14  15
ENDBRANCH  13  14
ENDBRANCH  12  13
ENDBRANCH  10  11
ENDBRANCH   1  10
TORSDOF 13
ENDMDL
MODEL 7
REMARK VINA RESULT:    -3.406      2.855      6.203
REMARK INTER + INTRA:          -7.889
REMARK INTER:                  -6.349
REMARK INTRA:                  -1.540
REMARK UNBOUND:                -1.895
REMARK SMILES CCCCCCC=CCCCCCCCC(=O)[O-]
REMARK SMILES IDX 10 1 11 2 12 3 13 4 14 5 15 6 16 7 17 8 18 9 9 10 8 11 7 12
REMARK SMILES IDX 6 13 5 14 4 15 3 16 2 17 1 18
REMARK H PARENT
REMARK Flexibility Score: inf
ROOT
ATOM      1  C   UNL     1     -21.152  15.978  -1.089  1.00  0.00     0.004 C 
ENDROOT
BRANCH   1   2
ATOM      2  C   UNL     1     -22.296  16.646  -0.307  1.00  0.00     0.000 C 
BRANCH   2   3
ATOM      3  C   UNL     1     -23.593  16.769  -1.127  1.00  0.00     0.000 C 
BRANCH   3   4
ATOM      4  C   UNL     1     -24.035  18.210  -1.437  1.00  0.00     0.000 C 
BRANCH   4   5
ATOM      5  C   UNL     1     -22.935  19.248  -1.154  1.00  0.00     0.006 C 
BRANCH   5   6
ATOM      6  C   UNL     1     -22.167  19.639  -2.424  1.00  0.00     0.053 C 
BRANCH   6   7
ATOM      7  C   UNL     1     -20.734  19.963  -2.132  1.00  0.00     0.041 C 
ATOM      8  O   UNL     1     -20.256  21.079  -2.470  1.00  0.00    -0.550 OA
ATOM      9  O   UNL     1     -19.919  19.023  -1.515  1.00  0.00    -0.550 OA
ENDBRANCH   6   7
ENDBRANCH   5   6
ENDBRANCH   4   5
ENDBRANCH   3   4
ENDBRANCH   2   3
ENDBRANCH   1   2
BRANCH   1  10
ATOM     10  C   UNL     1     -21.602  15.518  -2.485  1.00  0.00     0.027 C 
BRANCH  10  11
ATOM     11  C   UNL     1     -21.212  16.500  -3.560  1.00  0.00    -0.031 C 
ATOM     12  C   UNL     1     -22.000  16.873  -4.587  1.00  0.00    -0.031 C 
BRANCH  12  13
ATOM     13  C   UNL     1     -23.425  16.419  -4.799  1.00  0.00     0.027 C 
BRANCH  13  14
ATOM     14  C   UNL     1     -24.023  17.038  -6.068  1.00  0.00     0.004 C 
BRANCH  14  15
ATOM     15  C   UNL     1     -23.794  16.154  -7.304  1.00  0.00     0.000 C 
BRANCH  15  16
ATOM     16  C   UNL     1     -22.994  14.876  -6.987  1.00  0.00    -0.000 C 
BRANCH  16  17
ATOM     17  C   UNL     1     -21.563  14.854  -7.552  1.00  0.00    -0.003 C 
ATOM     18  C   UNL     1     -21.499  15.213  -9.037  1.00  0.00     0.004 C 
ENDBRANCH  16  17
ENDBRANCH  15  16
ENDBRANCH  14  15
ENDBRANCH  13  14
ENDBRANCH  12  13
ENDBRANCH  10  11
ENDBRANCH   1  10
TORSDOF 13
ENDMDL
MODEL 8
REMARK VINA RESULT:    -2.627      3.204      5.025
REMARK INTER + INTRA:          -6.519
REMARK INTER:                  -5.451
REMARK INTRA:                  -1.067
REMARK UNBOUND:                -1.895
REMARK SMILES CCCCCCC=CCCCCCCCC(=O)[O-]
REMARK SMILES IDX 10 1 11 2 12 3 13 4 14 5 15 6 16 7 17 8 18 9 9 10 8 11 7 12
REMARK SMILES IDX 6 13 5 14 4 15 3 16 2 17 1 18
REMARK H PARENT
REMARK Flexibility Score: inf
ROOT
ATOM      1  C   UNL     1     -21.107  16.322  -1.382  1.00  0.00     0.004 C 
ENDROOT
BRANCH   1   2
ATOM      2  C   UNL     1     -21.713  15.576  -2.583  1.00  0.00     0.000 C 
BRANCH   2   3
ATOM      3  C   UNL     1     -21.665  16.394  -3.886  1.00  0.00     0.000 C 
BRANCH   3   4
ATOM      4  C   UNL     1     -22.878  17.311  -4.126  1.00  0.00     0.000 C 
BRANCH   4   5
ATOM      5  C   UNL     1     -22.811  18.618  -3.317  1.00  0.00     0.006 C 
BRANCH   5   6
ATOM      6  C   UNL     1     -21.430  19.282  -3.405  1.00  0.00     0.053 C 
BRANCH   6   7
ATOM      7  C   UNL     1     -21.085  20.022  -2.149  1.00  0.00     0.041 C 
ATOM      8  O   UNL     1     -20.174  20.892  -2.155  1.00  0.00    -0.550 OA
ATOM      9  O   UNL     1     -21.750  19.731  -0.964  1.00  0.00    -0.550 OA
ENDBRANCH   6   7
ENDBRANCH   5   6
ENDBRANCH   4   5
ENDBRANCH   3   4
ENDBRANCH   2   3
ENDBRANCH   1   2
BRANCH   1  10
ATOM     10  C   UNL     1     -22.025  16.273  -0.151  1.00  0.00     0.027 C 
BRANCH  10  11
ATOM     11  C   UNL     1     -21.288  15.842   1.091  1.00  0.00    -0.031 C 
ATOM     12  C   UNL     1     -21.852  15.667   2.302  1.00  0.00    -0.031 C 
BRANCH  12  13
ATOM     13  C   UNL     1     -23.325  15.816   2.604  1.00  0.00     0.027 C 
BRANCH  13  14
ATOM     14  C   UNL     1     -23.793  14.765   3.619  1.00  0.00     0.004 C 
BRANCH  14  15
ATOM     15  C   UNL     1     -24.092  15.384   4.993  1.00  0.00     0.000 C 
BRANCH  15  16
ATOM     16  C   UNL     1     -23.995  16.921   4.992  1.00  0.00    -0.000 C 
BRANCH  16  17
ATOM     17  C   UNL     1     -23.139  17.515   6.125  1.00  0.00    -0.003 C 
ATOM     18  C   UNL     1     -21.638  17.413   5.858  1.00  0.00     0.004 C 
ENDBRANCH  16  17
ENDBRANCH  15  16
ENDBRANCH  14  15
ENDBRANCH  13  14
ENDBRANCH  12  13
ENDBRANCH  10  11
ENDBRANCH   1  10
TORSDOF 13
ENDMDL
