MODEL 1
REMARK VINA RESULT:    -3.675      0.000      0.000
REMARK INTER + INTRA:          -3.998
REMARK INTER:                  -3.998
REMARK INTRA:                   0.000
REMARK UNBOUND:                 0.000
REMARK SMILES [NH3+]CC(=O)[O-]
REMARK SMILES IDX 2 1 1 2 3 6 4 7 5 8
REMARK H PARENT 1 3 1 4 1 5
REMARK Flexibility Score: inf
ROOT
ATOM      1  C   UNL     1      -1.276  26.339  18.481  1.00  0.00     0.312 C 
ENDROOT
BRANCH   1   2
ATOM      2  N   UNL     1      -1.870  26.526  19.804  1.00  0.00    -0.353 N 
ATOM      3  H   UNL     1      -2.146  27.527  19.935  1.00  0.00     0.344 HD
ATOM      4  H   UNL     1      -2.722  25.926  19.883  1.00  0.00     0.344 HD
ATOM      5  H   UNL     1      -1.188  26.247  20.545  1.00  0.00     0.344 HD
ENDBRANCH   1   2
BRANCH   1   6
ATOM      6  C   UNL     1      -2.332  26.014  17.470  1.00  0.00     0.096 C 
ATOM      7  O   UNL     1      -3.528  26.349  17.674  1.00  0.00    -0.544 OA
ATOM      8  O   UNL     1      -1.987  25.387  16.280  1.00  0.00    -0.544 OA
ENDBRANCH   1   6
TORSDOF 2
ENDMDL
MODEL 2
REMARK VINA RESULT:    -3.669      2.701      2.994
REMARK INTER + INTRA:          -3.991
REMARK INTER:                  -3.991
REMARK INTRA:                   0.000
REMARK UNBOUND:                 0.000
REMARK SMILES [NH3+]CC(=O)[O-]
REMARK SMILES IDX 2 1 1 2 3 6 4 7 5 8
REMARK H PARENT 1 3 1 4 1 5
REMARK Flexibility Score: inf
ROOT
ATOM      1  C   UNL     1      -1.886  25.363  16.635  1.00  0.00     0.312 C 
ENDROOT
BRANCH   1   2
ATOM      2  N   UNL     1      -1.506  25.562  15.237  1.00  0.00    -0.353 N 
ATOM      3  H   UNL     1      -2.329  25.902  14.686  1.00  0.00     0.344 HD
ATOM      4  H   UNL     1      -0.747  26.280  15.188  1.00  0.00     0.344 HD
ATOM      5  H   UNL     1      -1.153  24.666  14.830  1.00  0.00     0.344 HD
ENDBRANCH   1   2
BRANCH   1   6
ATOM      6  C   UNL     1      -1.334  26.460  17.492  1.00  0.00     0.096 C 
ATOM      7  O   UNL     1      -0.863  27.501  16.964  1.00  0.00    -0.544 OA
ATOM      8  O   UNL     1      -1.387  26.354  18.876  1.00  0.00    -0.544 OA
ENDBRANCH   1   6
TORSDOF 2
ENDMDL
MODEL 3
REMARK VINA RESULT:    -3.657      2.801      2.940
REMARK INTER + INTRA:          -3.978
REMARK INTER:                  -3.978
REMARK INTRA:                   0.000
REMARK UNBOUND:                 0.000
REMARK SMILES [NH3+]CC(=O)[O-]
REMARK SMILES IDX 2 1 1 2 3 6 4 7 5 8
REMARK H PARENT 1 3 1 4 1 5
REMARK Flexibility Score: inf
ROOT
ATOM      1  C   UNL     1      -1.947  25.409  16.606  1.00  0.00     0.312 C 
ENDROOT
BRANCH   1   2
ATOM      2  N   UNL     1      -1.562  25.573  15.205  1.00  0.00    -0.353 N 
ATOM      3  H   UNL     1      -1.308  26.571  15.016  1.00  0.00     0.344 HD
ATOM      4  H   UNL     1      -0.732  24.969  15.006  1.00  0.00     0.344 HD
ATOM      5  H   UNL     1      -2.350  25.284  14.581  1.00  0.00     0.344 HD
ENDBRANCH   1   2
BRANCH   1   6
ATOM      6  C   UNL     1      -1.197  26.371  17.475  1.00  0.00     0.096 C 
ATOM      7  O   UNL     1      -0.887  26.051  18.653  1.00  0.00    -0.544 OA
ATOM      8  O   UNL     1      -0.795  27.599  16.968  1.00  0.00    -0.544 OA
ENDBRANCH   1   6
TORSDOF 2
ENDMDL
MODEL 4
REMARK VINA RESULT:    -3.496      1.900      1.900
REMARK INTER + INTRA:          -3.803
REMARK INTER:                  -3.803
REMARK INTRA:                   0.000
REMARK UNBOUND:                 0.000
REMARK SMILES [NH3+]CC(=O)[O-]
REMARK SMILES IDX 2 1 1 2 3 6 4 7 5 8
REMARK H PARENT 1 3 1 4 1 5
REMARK Flexibility Score: inf
ROOT
ATOM      1  C   UNL     1      -1.076  27.189  17.467  1.00  0.00     0.312 C 
ENDROOT
BRANCH   1   2
ATOM      2  N   UNL     1      -0.530  27.951  16.345  1.00  0.00    -0.353 N 
ATOM      3  H   UNL     1      -0.047  28.811  16.696  1.00  0.00     0.344 HD
ATOM      4  H   UNL     1       0.164  27.357  15.835  1.00  0.00     0.344 HD
ATOM      5  H   UNL     1      -1.297  28.218  15.687  1.00  0.00     0.344 HD
ENDBRANCH   1   2
BRANCH   1   6
ATOM      6  C   UNL     1      -2.164  26.271  17.002  1.00  0.00     0.096 C 
ATOM      7  O   UNL     1      -3.320  26.360  17.492  1.00  0.00    -0.544 OA
ATOM      8  O   UNL     1      -1.913  25.351  15.992  1.00  0.00    -0.544 OA
ENDBRANCH   1   6
TORSDOF 2
ENDMDL
MODEL 5
REMARK VINA RESULT:    -3.490      2.113      2.498
REMARK INTER + INTRA:          -3.796
REMARK INTER:                  -3.796
REMARK INTRA:                   0.000
REMARK UNBOUND:                 0.000
REMARK SMILES [NH3+]CC(=O)[O-]
REMARK SMILES IDX 2 1 1 2 3 6 4 7 5 8
REMARK H PARENT 1 3 1 4 1 5
REMARK Flexibility Score: inf
ROOT
ATOM      1  C   UNL     1      -2.948  26.300  17.232  1.00  0.00     0.312 C 
ENDROOT
BRANCH   1   2
ATOM      2  N   UNL     1      -4.054  26.656  18.121  1.00  0.00    -0.353 N 
ATOM      3  H   UNL     1      -4.954  26.667  17.587  1.00  0.00     0.344 HD
ATOM      4  H   UNL     1      -4.121  25.944  18.884  1.00  0.00     0.344 HD
ATOM      5  H   UNL     1      -3.883  27.595  18.547  1.00  0.00     0.344 HD
ENDBRANCH   1   2
BRANCH   1   6
ATOM      6  C   UNL     1      -1.641  26.746  17.812  1.00  0.00     0.096 C 
ATOM      7  O   UNL     1      -0.872  27.486  17.145  1.00  0.00    -0.544 OA
ATOM      8  O   UNL     1      -1.296  26.384  19.107  1.00  0.00    -0.544 OA
ENDBRANCH   1   6
TORSDOF 2
ENDMDL
MODEL 6
REMARK VINA RESULT:    -2.439     18.170     18.522
REMARK INTER + INTRA:          -2.653
REMARK INTER:                  -2.653
REMARK INTRA:                   0.000
REMARK UNBOUND:                 0.000
REMARK SMILES [NH3+]CC(=O)[O-]
REMARK SMILES IDX 2 1 1 2 3 6 4 7 5 8
REMARK H PARENT 1 3 1 4 1 5
REMARK Flexibility Score: inf
ROOT
ATOM      1  C   UNL     1     -12.427  42.044  19.696  1.00  0.00     0.312 C 
ENDROOT
BRANCH   1   2
ATOM      2  N   UNL     1     -11.021  42.094  19.296  1.00  0.00    -0.353 N 
ATOM      3  H   UNL     1     -10.505  42.788  19.886  1.00  0.00     0.344 HD
ATOM      4  H   UNL     1     -10.594  41.150  19.433  1.00  0.00     0.344 HD
ATOM      5  H   UNL     1     -10.944  42.359  18.288  1.00  0.00     0.344 HD
ENDBRANCH   1   2
BRANCH   1   6
ATOM      6  C   UNL     1     -12.618  41.089  20.833  1.00  0.00     0.096 C 
ATOM      7  O   UNL     1     -13.777  40.729  21.170  1.00  0.00    -0.544 OA
ATOM      8  O   UNL     1     -11.516  40.557  21.488  1.00  0.00    -0.544 OA
ENDBRANCH   1   6
TORSDOF 2
ENDMDL
MODEL 7
REMARK VINA RESULT:    -2.393     18.829     18.979
REMARK INTER + INTRA:          -2.603
REMARK INTER:                  -2.603
REMARK INTRA:                   0.000
REMARK UNBOUND:                 0.000
REMARK SMILES [NH3+]CC(=O)[O-]
REMARK SMILES IDX 2 1 1 2 3 6 4 7 5 8
REMARK H PARENT 1 3 1 4 1 5
REMARK Flexibility Score: inf
ROOT
ATOM      1  C   UNL     1      -6.726  41.849   7.410  1.00  0.00     0.312 C 
ENDROOT
BRANCH   1   2
ATOM      2  N   UNL     1      -7.716  40.957   8.013  1.00  0.00    -0.353 N 
ATOM      3  H   UNL     1      -7.502  40.817   9.028  1.00  0.00     0.344 HD
ATOM      4  H   UNL     1      -8.664  41.389   7.923  1.00  0.00     0.344 HD
ATOM      5  H   UNL     1      -7.715  40.035   7.521  1.00  0.00     0.344 HD
ENDBRANCH   1   2
BRANCH   1   6
ATOM      6  C   UNL     1      -5.635  41.060   6.755  1.00  0.00     0.096 C 
ATOM      7  O   UNL     1      -4.530  41.603   6.495  1.00  0.00    -0.544 OA
ATOM      8  O   UNL     1      -5.821  39.712   6.479  1.00  0.00    -0.544 OA
ENDBRANCH   1   6
TORSDOF 2
ENDMDL
MODEL 8
REMARK VINA RESULT:    -2.372     17.600     17.924
REMARK INTER + INTRA:          -2.580
REMARK INTER:                  -2.580
REMARK INTRA:                   0.000
REMARK UNBOUND:                 0.000
REMARK SMILES [NH3+]CC(=O)[O-]
REMARK SMILES IDX 2 1 1 2 3 6 4 7 5 8
REMARK H PARENT 1 3 1 4 1 5
REMARK Flexibility Score: inf
ROOT
ATOM      1  C   UNL     1     -14.443  37.478  12.680  1.00  0.00     0.312 C 
ENDROOT
BRANCH   1   2
ATOM      2  N   UNL     1     -14.776  38.871  12.975  1.00  0.00    -0.353 N 
ATOM      3  H   UNL     1     -15.473  38.916  13.754  1.00  0.00     0.344 HD
ATOM      4  H   UNL     1     -13.908  39.375  13.268  1.00  0.00     0.344 HD
ATOM      5  H   UNL     1     -15.167  39.334  12.123  1.00  0.00     0.344 HD
ENDBRANCH   1   2
BRANCH   1   6
ATOM      6  C   UNL     1     -14.141  37.305  11.223  1.00  0.00     0.096 C 
ATOM      7  O   UNL     1     -14.122  36.154  10.713  1.00  0.00    -0.544 OA
ATOM      8  O   UNL     1     -13.933  38.418  10.419  1.00  0.00    -0.544 OA
ENDBRANCH   1   6
TORSDOF 2
ENDMDL
MODEL 9
REMARK VINA RESULT:    -1.904     17.437     17.898
REMARK INTER + INTRA:          -2.071
REMARK INTER:                  -2.071
REMARK INTRA:                   0.000
REMARK UNBOUND:                 0.000
REMARK SMILES [NH3+]CC(=O)[O-]
REMARK SMILES IDX 2 1 1 2 3 6 4 7 5 8
REMARK H PARENT 1 3 1 4 1 5
REMARK Flexibility Score: inf
ROOT
ATOM      1  C   UNL     1     -14.362  36.958  11.449  1.00  0.00     0.312 C 
ENDROOT
BRANCH   1   2
ATOM      2  N   UNL     1     -13.711  37.650  10.337  1.00  0.00    -0.353 N 
ATOM      3  H   UNL     1     -13.037  38.363  10.703  1.00  0.00     0.344 HD
ATOM      4  H   UNL     1     -13.186  36.953   9.761  1.00  0.00     0.344 HD
ATOM      5  H   UNL     1     -14.428  38.116   9.736  1.00  0.00     0.344 HD
ENDBRANCH   1   2
BRANCH   1   6
ATOM      6  C   UNL     1     -14.336  37.803  12.685  1.00  0.00     0.096 C 
ATOM      7  O   UNL     1     -13.828  37.356  13.747  1.00  0.00    -0.544 OA
ATOM      8  O   UNL     1     -14.826  39.101  12.650  1.00  0.00    -0.544 OA
ENDBRANCH   1   6
TORSDOF 2
ENDMDL
