MODEL 1
REMARK VINA RESULT:    -3.376      0.000      0.000
REMARK INTER + INTRA:          -4.053
REMARK INTER:                  -3.968
REMARK INTRA:                  -0.084
REMARK UNBOUND:                -0.084
REMARK SMILES O=C([O-])CCC(=O)[O-]
REMARK SMILES IDX 4 1 2 2 1 3 3 4 5 5 6 6 7 7 8 8
REMARK H PARENT
REMARK Flexibility Score: inf
ROOT
ATOM      1  C   UNL     1      -5.079 -73.053 -12.180  1.00  0.00     0.059 C 
ENDROOT
BRANCH   1   2
ATOM      2  C   UNL     1      -4.645 -74.365 -11.608  1.00  0.00     0.042 C 
ATOM      3  O   UNL     1      -3.493 -74.493 -11.116  1.00  0.00    -0.550 OA
ATOM      4  O   UNL     1      -5.531 -75.434 -11.572  1.00  0.00    -0.550 OA
ENDBRANCH   1   2
BRANCH   1   5
ATOM      5  C   UNL     1      -3.877 -72.123 -12.357  1.00  0.00     0.059 C 
BRANCH   5   6
ATOM      6  C   UNL     1      -4.166 -70.777 -11.773  1.00  0.00     0.042 C 
ATOM      7  O   UNL     1      -4.769 -70.680 -10.672  1.00  0.00    -0.550 OA
ATOM      8  O   UNL     1      -3.814 -69.627 -12.468  1.00  0.00    -0.550 OA
ENDBRANCH   5   6
ENDBRANCH   1   5
TORSDOF 3
ENDMDL
MODEL 2
REMARK VINA RESULT:    -3.312     10.137     11.912
REMARK INTER + INTRA:          -3.978
REMARK INTER:                  -3.878
REMARK INTRA:                  -0.099
REMARK UNBOUND:                -0.084
REMARK SMILES O=C([O-])CCC(=O)[O-]
REMARK SMILES IDX 4 1 2 2 1 3 3 4 5 5 6 6 7 7 8 8
REMARK H PARENT
REMARK Flexibility Score: inf
ROOT
ATOM      1  C   UNL     1       1.167 -63.011  -6.034  1.00  0.00     0.059 C 
ENDROOT
BRANCH   1   2
ATOM      2  C   UNL     1       1.823 -63.652  -4.852  1.00  0.00     0.042 C 
ATOM      3  O   UNL     1       2.124 -62.962  -3.843  1.00  0.00    -0.550 OA
ATOM      4  O   UNL     1       2.058 -65.021  -4.846  1.00  0.00    -0.550 OA
ENDBRANCH   1   2
BRANCH   1   5
ATOM      5  C   UNL     1      -0.346 -63.231  -5.991  1.00  0.00     0.059 C 
BRANCH   5   6
ATOM      6  C   UNL     1      -0.716 -64.470  -6.742  1.00  0.00     0.042 C 
ATOM      7  O   UNL     1      -1.738 -65.128  -6.415  1.00  0.00    -0.550 OA
ATOM      8  O   UNL     1       0.095 -64.926  -7.773  1.00  0.00    -0.550 OA
ENDBRANCH   5   6
ENDBRANCH   1   5
TORSDOF 3
ENDMDL
MODEL 3
REMARK VINA RESULT:    -3.305      1.173      3.866
REMARK INTER + INTRA:          -3.969
REMARK INTER:                  -3.878
REMARK INTRA:                  -0.091
REMARK UNBOUND:                -0.084
REMARK SMILES O=C([O-])CCC(=O)[O-]
REMARK SMILES IDX 4 1 2 2 1 3 3 4 5 5 6 6 7 7 8 8
REMARK H PARENT
REMARK Flexibility Score: inf
ROOT
ATOM      1  C   UNL     1      -5.212 -72.275 -12.350  1.00  0.00     0.059 C 
ENDROOT
BRANCH   1   2
ATOM      2  C   UNL     1      -5.681 -71.324 -11.295  1.00  0.00     0.042 C 
ATOM      3  O   UNL     1      -6.844 -71.423 -10.824  1.00  0.00    -0.550 OA
ATOM      4  O   UNL     1      -4.816 -70.359 -10.795  1.00  0.00    -0.550 OA
ENDBRANCH   1   2
BRANCH   1   5
ATOM      5  C   UNL     1      -3.818 -72.808 -12.009  1.00  0.00     0.059 C 
BRANCH   5   6
ATOM      6  C   UNL     1      -3.902 -74.221 -11.526  1.00  0.00     0.042 C 
ATOM      7  O   UNL     1      -5.013 -74.811 -11.481  1.00  0.00    -0.550 OA
ATOM      8  O   UNL     1      -2.758 -74.871 -11.080  1.00  0.00    -0.550 OA
ENDBRANCH   5   6
ENDBRANCH   1   5
TORSDOF 3
ENDMDL
MODEL 4
REMARK VINA RESULT:    -3.268      5.637      7.017
REMARK INTER + INTRA:          -3.925
REMARK INTER:                  -3.858
REMARK INTRA:                  -0.067
REMARK UNBOUND:                -0.084
REMARK SMILES O=C([O-])CCC(=O)[O-]
REMARK SMILES IDX 4 1 2 2 1 3 3 4 5 5 6 6 7 7 8 8
REMARK H PARENT
REMARK Flexibility Score: inf
ROOT
ATOM      1  C   UNL     1      -4.689 -67.512  -7.558  1.00  0.00     0.059 C 
ENDROOT
BRANCH   1   2
ATOM      2  C   UNL     1      -4.625 -68.716  -8.443  1.00  0.00     0.042 C 
ATOM      3  O   UNL     1      -3.535 -69.056  -8.972  1.00  0.00    -0.550 OA
ATOM      4  O   UNL     1      -5.760 -69.491  -8.645  1.00  0.00    -0.550 OA
ENDBRANCH   1   2
BRANCH   1   5
ATOM      5  C   UNL     1      -4.588 -67.922  -6.088  1.00  0.00     0.059 C 
BRANCH   5   6
ATOM      6  C   UNL     1      -3.540 -67.115  -5.389  1.00  0.00     0.042 C 
ATOM      7  O   UNL     1      -3.458 -67.133  -4.133  1.00  0.00    -0.550 OA
ATOM      8  O   UNL     1      -2.685 -66.303  -6.124  1.00  0.00    -0.550 OA
ENDBRANCH   5   6
ENDBRANCH   1   5
TORSDOF 3
ENDMDL
MODEL 5
REMARK VINA RESULT:    -3.221     16.130     17.144
REMARK INTER + INTRA:          -3.870
REMARK INTER:                  -3.792
REMARK INTRA:                  -0.078
REMARK UNBOUND:                -0.084
REMARK SMILES O=C([O-])CCC(=O)[O-]
REMARK SMILES IDX 4 1 2 2 1 3 3 4 5 5 6 6 7 7 8 8
REMARK H PARENT
REMARK Flexibility Score: inf
ROOT
ATOM      1  C   UNL     1      -8.020 -74.745   4.908  1.00  0.00     0.059 C 
ENDROOT
BRANCH   1   2
ATOM      2  C   UNL     1      -8.321 -73.869   3.733  1.00  0.00     0.042 C 
ATOM      3  O   UNL     1      -8.671 -74.377   2.636  1.00  0.00    -0.550 OA
ATOM      4  O   UNL     1      -8.263 -72.487   3.864  1.00  0.00    -0.550 OA
ENDBRANCH   1   2
BRANCH   1   5
ATOM      5  C   UNL     1      -7.442 -76.083   4.443  1.00  0.00     0.059 C 
BRANCH   5   6
ATOM      6  C   UNL     1      -8.468 -77.165   4.560  1.00  0.00     0.042 C 
ATOM      7  O   UNL     1      -9.012 -77.637   3.528  1.00  0.00    -0.550 OA
ATOM      8  O   UNL     1      -8.858 -77.619   5.813  1.00  0.00    -0.550 OA
ENDBRANCH   5   6
ENDBRANCH   1   5
TORSDOF 3
ENDMDL
MODEL 6
REMARK VINA RESULT:    -3.200      5.696      7.698
REMARK INTER + INTRA:          -3.846
REMARK INTER:                  -3.767
REMARK INTRA:                  -0.079
REMARK UNBOUND:                -0.084
REMARK SMILES O=C([O-])CCC(=O)[O-]
REMARK SMILES IDX 4 1 2 2 1 3 3 4 5 5 6 6 7 7 8 8
REMARK H PARENT
REMARK Flexibility Score: inf
ROOT
ATOM      1  C   UNL     1      -4.616 -67.013  -6.475  1.00  0.00     0.059 C 
ENDROOT
BRANCH   1   2
ATOM      2  C   UNL     1      -3.372 -66.701  -5.706  1.00  0.00     0.042 C 
ATOM      3  O   UNL     1      -2.536 -65.876  -6.160  1.00  0.00    -0.550 OA
ATOM      4  O   UNL     1      -3.158 -67.285  -4.464  1.00  0.00    -0.550 OA
ENDBRANCH   1   2
BRANCH   1   5
ATOM      5  C   UNL     1      -4.652 -68.494  -6.858  1.00  0.00     0.059 C 
BRANCH   5   6
ATOM      6  C   UNL     1      -4.744 -68.648  -8.343  1.00  0.00     0.042 C 
ATOM      7  O   UNL     1      -3.986 -67.984  -9.098  1.00  0.00    -0.550 OA
ATOM      8  O   UNL     1      -5.702 -69.488  -8.896  1.00  0.00    -0.550 OA
ENDBRANCH   5   6
ENDBRANCH   1   5
TORSDOF 3
ENDMDL
MODEL 7
REMARK VINA RESULT:    -3.187     10.085     11.723
REMARK INTER + INTRA:          -3.830
REMARK INTER:                  -3.725
REMARK INTRA:                  -0.105
REMARK UNBOUND:                -0.084
REMARK SMILES O=C([O-])CCC(=O)[O-]
REMARK SMILES IDX 4 1 2 2 1 3 3 4 5 5 6 6 7 7 8 8
REMARK H PARENT
REMARK Flexibility Score: inf
ROOT
ATOM      1  C   UNL     1      -0.183 -63.164  -6.327  1.00  0.00     0.059 C 
ENDROOT
BRANCH   1   2
ATOM      2  C   UNL     1      -0.608 -64.424  -7.012  1.00  0.00     0.042 C 
ATOM      3  O   UNL     1       0.210 -65.066  -7.721  1.00  0.00    -0.550 OA
ATOM      4  O   UNL     1      -1.894 -64.915  -6.828  1.00  0.00    -0.550 OA
ENDBRANCH   1   2
BRANCH   1   5
ATOM      5  C   UNL     1       1.343 -63.082  -6.255  1.00  0.00     0.059 C 
BRANCH   5   6
ATOM      6  C   UNL     1       1.837 -63.639  -4.958  1.00  0.00     0.042 C 
ATOM      7  O   UNL     1       2.125 -62.868  -4.006  1.00  0.00    -0.550 OA
ATOM      8  O   UNL     1       2.027 -65.007  -4.817  1.00  0.00    -0.550 OA
ENDBRANCH   5   6
ENDBRANCH   1   5
TORSDOF 3
ENDMDL
MODEL 8
REMARK VINA RESULT:    -3.170     16.223     16.800
REMARK INTER + INTRA:          -3.810
REMARK INTER:                  -3.694
REMARK INTRA:                  -0.116
REMARK UNBOUND:                -0.084
REMARK SMILES O=C([O-])CCC(=O)[O-]
REMARK SMILES IDX 4 1 2 2 1 3 3 4 5 5 6 6 7 7 8 8
REMARK H PARENT
REMARK Flexibility Score: inf
ROOT
ATOM      1  C   UNL     1      -7.400 -76.060   4.423  1.00  0.00     0.059 C 
ENDROOT
BRANCH   1   2
ATOM      2  C   UNL     1      -8.486 -77.076   4.582  1.00  0.00     0.042 C 
ATOM      3  O   UNL     1      -8.780 -77.517   5.724  1.00  0.00    -0.550 OA
ATOM      4  O   UNL     1      -9.209 -77.500   3.474  1.00  0.00    -0.550 OA
ENDBRANCH   1   2
BRANCH   1   5
ATOM      5  C   UNL     1      -7.822 -74.724   5.035  1.00  0.00     0.059 C 
BRANCH   5   6
ATOM      6  C   UNL     1      -8.429 -73.838   3.994  1.00  0.00     0.042 C 
ATOM      7  O   UNL     1      -9.051 -72.797   4.330  1.00  0.00    -0.550 OA
ATOM      8  O   UNL     1      -8.349 -74.189   2.652  1.00  0.00    -0.550 OA
ENDBRANCH   5   6
ENDBRANCH   1   5
TORSDOF 3
ENDMDL
