MODEL 1
REMARK VINA RESULT:    -2.192      0.000      0.000
REMARK INTER + INTRA:          -2.192
REMARK INTER:                  -2.192
REMARK INTRA:                   0.000
REMARK UNBOUND:                 0.000
REMARK SMILES CC(=O)[O-]
REMARK SMILES IDX 1 1 2 2 3 3 4 4
REMARK H PARENT
REMARK Flexibility Score: inf
ROOT
ATOM      1  C   UNL     1      36.474  45.362  10.181  1.00  0.00     0.063 C 
ATOM      2  C   UNL     1      35.528  45.790  11.251  1.00  0.00     0.038 C 
ATOM      3  O   UNL     1      34.640  44.998  11.663  1.00  0.00    -0.550 OA
ATOM      4  O   UNL     1      35.587  47.081  11.759  1.00  0.00    -0.550 OA
ENDROOT
TORSDOF 0
ENDMDL
MODEL 2
REMARK VINA RESULT:    -2.185      1.409      1.771
REMARK INTER + INTRA:          -2.185
REMARK INTER:                  -2.185
REMARK INTRA:                   0.000
REMARK UNBOUND:                 0.000
REMARK SMILES CC(=O)[O-]
REMARK SMILES IDX 1 1 2 2 3 3 4 4
REMARK H PARENT
REMARK Flexibility Score: inf
ROOT
ATOM      1  C   UNL     1      35.575  47.020  11.930  1.00  0.00     0.063 C 
ATOM      2  C   UNL     1      35.514  45.746  11.158  1.00  0.00     0.038 C 
ATOM      3  O   UNL     1      34.610  44.904  11.398  1.00  0.00    -0.550 OA
ATOM      4  O   UNL     1      36.487  45.460  10.209  1.00  0.00    -0.550 OA
ENDROOT
TORSDOF 0
ENDMDL
MODEL 3
REMARK VINA RESULT:    -1.870     25.378     25.508
REMARK INTER + INTRA:          -1.870
REMARK INTER:                  -1.870
REMARK INTRA:                   0.000
REMARK UNBOUND:                 0.000
REMARK SMILES CC(=O)[O-]
REMARK SMILES IDX 1 1 2 2 3 3 4 4
REMARK H PARENT
REMARK Flexibility Score: inf
ROOT
ATOM      1  C   UNL     1      24.348  33.282  -8.125  1.00  0.00     0.063 C 
ATOM      2  C   UNL     1      25.324  32.220  -7.746  1.00  0.00     0.038 C 
ATOM      3  O   UNL     1      24.954  31.246  -7.040  1.00  0.00    -0.550 OA
ATOM      4  O   UNL     1      26.655  32.330  -8.125  1.00  0.00    -0.550 OA
ENDROOT
TORSDOF 0
ENDMDL
MODEL 4
REMARK VINA RESULT:    -1.748     18.717     19.429
REMARK INTER + INTRA:          -1.748
REMARK INTER:                  -1.748
REMARK INTRA:                   0.000
REMARK UNBOUND:                 0.000
REMARK SMILES CC(=O)[O-]
REMARK SMILES IDX 1 1 2 2 3 3 4 4
REMARK H PARENT
REMARK Flexibility Score: inf
ROOT
ATOM      1  C   UNL     1      36.145  30.465   0.889  1.00  0.00     0.063 C 
ATOM      2  C   UNL     1      34.921  29.846   0.304  1.00  0.00     0.038 C 
ATOM      3  O   UNL     1      33.795  30.377   0.488  1.00  0.00    -0.550 OA
ATOM      4  O   UNL     1      35.012  28.653  -0.400  1.00  0.00    -0.550 OA
ENDROOT
TORSDOF 0
ENDMDL
MODEL 5
REMARK VINA RESULT:    -1.677     25.311     25.647
REMARK INTER + INTRA:          -1.677
REMARK INTER:                  -1.677
REMARK INTRA:                   0.000
REMARK UNBOUND:                 0.000
REMARK SMILES CC(=O)[O-]
REMARK SMILES IDX 1 1 2 2 3 3 4 4
REMARK H PARENT
REMARK Flexibility Score: inf
ROOT
ATOM      1  C   UNL     1      26.179  32.023  -7.965  1.00  0.00     0.063 C 
ATOM      2  C   UNL     1      24.753  32.438  -7.824  1.00  0.00     0.038 C 
ATOM      3  O   UNL     1      23.855  31.570  -7.670  1.00  0.00    -0.550 OA
ATOM      4  O   UNL     1      24.406  33.779  -7.919  1.00  0.00    -0.550 OA
ENDROOT
TORSDOF 0
ENDMDL
MODEL 6
REMARK VINA RESULT:    -1.650     18.721     19.389
REMARK INTER + INTRA:          -1.650
REMARK INTER:                  -1.650
REMARK INTRA:                   0.000
REMARK UNBOUND:                 0.000
REMARK SMILES CC(=O)[O-]
REMARK SMILES IDX 1 1 2 2 3 3 4 4
REMARK H PARENT
REMARK Flexibility Score: inf
ROOT
ATOM      1  C   UNL     1      36.174  30.466   0.869  1.00  0.00     0.063 C 
ATOM      2  C   UNL     1      34.964  29.790   0.319  1.00  0.00     0.038 C 
ATOM      3  O   UNL     1      35.080  28.720  -0.334  1.00  0.00    -0.550 OA
ATOM      4  O   UNL     1      33.711  30.366   0.478  1.00  0.00    -0.550 OA
ENDROOT
TORSDOF 0
ENDMDL
MODEL 7
REMARK VINA RESULT:    -1.521     20.823     21.415
REMARK INTER + INTRA:          -1.521
REMARK INTER:                  -1.521
REMARK INTRA:                   0.000
REMARK UNBOUND:                 0.000
REMARK SMILES CC(=O)[O-]
REMARK SMILES IDX 1 1 2 2 3 3 4 4
REMARK H PARENT
REMARK Flexibility Score: inf
ROOT
ATOM      1  C   UNL     1      27.876  28.058   1.616  1.00  0.00     0.063 C 
ATOM      2  C   UNL     1      27.017  29.140   1.056  1.00  0.00     0.038 C 
ATOM      3  O   UNL     1      26.761  30.163   1.744  1.00  0.00    -0.550 OA
ATOM      4  O   UNL     1      26.451  29.000  -0.204  1.00  0.00    -0.550 OA
ENDROOT
TORSDOF 0
ENDMDL
MODEL 8
REMARK VINA RESULT:    -1.305     18.040     18.641
REMARK INTER + INTRA:          -1.305
REMARK INTER:                  -1.305
REMARK INTRA:                   0.000
REMARK UNBOUND:                 0.000
REMARK SMILES CC(=O)[O-]
REMARK SMILES IDX 1 1 2 2 3 3 4 4
REMARK H PARENT
REMARK Flexibility Score: inf
ROOT
ATOM      1  C   UNL     1      35.051  29.373   0.042  1.00  0.00     0.063 C 
ATOM      2  C   UNL     1      35.699  30.437   0.862  1.00  0.00     0.038 C 
ATOM      3  O   UNL     1      34.993  31.285   1.469  1.00  0.00    -0.550 OA
ATOM      4  O   UNL     1      37.083  30.530   0.915  1.00  0.00    -0.550 OA
ENDROOT
TORSDOF 0
ENDMDL
MODEL 9
REMARK VINA RESULT:    -1.200     20.716     21.235
REMARK INTER + INTRA:          -1.200
REMARK INTER:                  -1.200
REMARK INTRA:                   0.000
REMARK UNBOUND:                 0.000
REMARK SMILES CC(=O)[O-]
REMARK SMILES IDX 1 1 2 2 3 3 4 4
REMARK H PARENT
REMARK Flexibility Score: inf
ROOT
ATOM      1  C   UNL     1      26.751  29.872  -0.369  1.00  0.00     0.063 C 
ATOM      2  C   UNL     1      26.938  29.402   1.034  1.00  0.00     0.038 C 
ATOM      3  O   UNL     1      26.623  30.148   1.997  1.00  0.00    -0.550 OA
ATOM      4  O   UNL     1      27.510  28.161   1.282  1.00  0.00    -0.550 OA
ENDROOT
TORSDOF 0
ENDMDL
