MODEL 1
REMARK VINA RESULT:    -2.774      0.000      0.000
REMARK INTER + INTRA:          -2.774
REMARK INTER:                  -2.774
REMARK INTRA:                   0.000
REMARK UNBOUND:                 0.000
REMARK SMILES CC(=O)[O-]
REMARK SMILES IDX 1 1 2 2 3 3 4 4
REMARK H PARENT
REMARK Flexibility Score: inf
ROOT
ATOM      1  C   UNL     1      14.685  54.543  81.606  1.00  0.00     0.063 C 
ATOM      2  C   UNL     1      13.506  54.763  80.720  1.00  0.00     0.038 C 
ATOM      3  O   UNL     1      12.852  53.780  80.284  1.00  0.00    -0.550 OA
ATOM      4  O   UNL     1      13.094  56.054  80.417  1.00  0.00    -0.550 OA
ENDROOT
TORSDOF 0
ENDMDL
MODEL 2
REMARK VINA RESULT:    -2.603      3.569      3.871
REMARK INTER + INTRA:          -2.603
REMARK INTER:                  -2.603
REMARK INTRA:                   0.000
REMARK UNBOUND:                 0.000
REMARK SMILES CC(=O)[O-]
REMARK SMILES IDX 1 1 2 2 3 3 4 4
REMARK H PARENT
REMARK Flexibility Score: inf
ROOT
ATOM      1  C   UNL     1      17.615  53.521  83.057  1.00  0.00     0.063 C 
ATOM      2  C   UNL     1      16.996  53.706  81.714  1.00  0.00     0.038 C 
ATOM      3  O   UNL     1      17.540  53.208  80.694  1.00  0.00    -0.550 OA
ATOM      4  O   UNL     1      15.789  54.383  81.590  1.00  0.00    -0.550 OA
ENDROOT
TORSDOF 0
ENDMDL
MODEL 3
REMARK VINA RESULT:    -2.589      4.403      4.855
REMARK INTER + INTRA:          -2.589
REMARK INTER:                  -2.589
REMARK INTRA:                   0.000
REMARK UNBOUND:                 0.000
REMARK SMILES CC(=O)[O-]
REMARK SMILES IDX 1 1 2 2 3 3 4 4
REMARK H PARENT
REMARK Flexibility Score: inf
ROOT
ATOM      1  C   UNL     1      19.026  52.690  81.977  1.00  0.00     0.063 C 
ATOM      2  C   UNL     1      17.642  53.225  82.122  1.00  0.00     0.038 C 
ATOM      3  O   UNL     1      17.294  53.793  83.189  1.00  0.00    -0.550 OA
ATOM      4  O   UNL     1      16.749  53.143  81.061  1.00  0.00    -0.550 OA
ENDROOT
TORSDOF 0
ENDMDL
MODEL 4
REMARK VINA RESULT:    -2.566     17.512     17.955
REMARK INTER + INTRA:          -2.566
REMARK INTER:                  -2.566
REMARK INTRA:                   0.000
REMARK UNBOUND:                 0.000
REMARK SMILES CC(=O)[O-]
REMARK SMILES IDX 1 1 2 2 3 3 4 4
REMARK H PARENT
REMARK Flexibility Score: inf
ROOT
ATOM      1  C   UNL     1      19.848  37.660  83.410  1.00  0.00     0.063 C 
ATOM      2  C   UNL     1      18.369  37.816  83.504  1.00  0.00     0.038 C 
ATOM      3  O   UNL     1      17.719  38.274  82.528  1.00  0.00    -0.550 OA
ATOM      4  O   UNL     1      17.697  37.407  84.649  1.00  0.00    -0.550 OA
ENDROOT
TORSDOF 0
ENDMDL
MODEL 5
REMARK VINA RESULT:    -2.551     17.969     18.433
REMARK INTER + INTRA:          -2.551
REMARK INTER:                  -2.551
REMARK INTRA:                   0.000
REMARK UNBOUND:                 0.000
REMARK SMILES CC(=O)[O-]
REMARK SMILES IDX 1 1 2 2 3 3 4 4
REMARK H PARENT
REMARK Flexibility Score: inf
ROOT
ATOM      1  C   UNL     1      17.987  38.069  83.126  1.00  0.00     0.063 C 
ATOM      2  C   UNL     1      19.339  37.637  83.585  1.00  0.00     0.038 C 
ATOM      3  O   UNL     1      20.357  37.921  82.902  1.00  0.00    -0.550 OA
ATOM      4  O   UNL     1      19.482  36.967  84.793  1.00  0.00    -0.550 OA
ENDROOT
TORSDOF 0
ENDMDL
MODEL 6
REMARK VINA RESULT:    -2.549     17.991     18.371
REMARK INTER + INTRA:          -2.549
REMARK INTER:                  -2.549
REMARK INTRA:                   0.000
REMARK UNBOUND:                 0.000
REMARK SMILES CC(=O)[O-]
REMARK SMILES IDX 1 1 2 2 3 3 4 4
REMARK H PARENT
REMARK Flexibility Score: inf
ROOT
ATOM      1  C   UNL     1      17.821  38.084  83.139  1.00  0.00     0.063 C 
ATOM      2  C   UNL     1      19.137  37.618  83.663  1.00  0.00     0.038 C 
ATOM      3  O   UNL     1      19.200  37.018  84.768  1.00  0.00    -0.550 OA
ATOM      4  O   UNL     1      20.290  37.798  82.909  1.00  0.00    -0.550 OA
ENDROOT
TORSDOF 0
ENDMDL
MODEL 7
REMARK VINA RESULT:    -2.525     18.536     19.047
REMARK INTER + INTRA:          -2.525
REMARK INTER:                  -2.525
REMARK INTRA:                   0.000
REMARK UNBOUND:                 0.000
REMARK SMILES CC(=O)[O-]
REMARK SMILES IDX 1 1 2 2 3 3 4 4
REMARK H PARENT
REMARK Flexibility Score: inf
ROOT
ATOM      1  C   UNL     1      20.135  37.890  83.193  1.00  0.00     0.063 C 
ATOM      2  C   UNL     1      19.810  37.239  84.495  1.00  0.00     0.038 C 
ATOM      3  O   UNL     1      20.723  36.709  85.180  1.00  0.00    -0.550 OA
ATOM      4  O   UNL     1      18.508  37.263  84.979  1.00  0.00    -0.550 OA
ENDROOT
TORSDOF 0
ENDMDL
MODEL 8
REMARK VINA RESULT:    -2.462     19.245     19.749
REMARK INTER + INTRA:          -2.462
REMARK INTER:                  -2.462
REMARK INTRA:                   0.000
REMARK UNBOUND:                 0.000
REMARK SMILES CC(=O)[O-]
REMARK SMILES IDX 1 1 2 2 3 3 4 4
REMARK H PARENT
REMARK Flexibility Score: inf
ROOT
ATOM      1  C   UNL     1      21.365  36.010  86.439  1.00  0.00     0.063 C 
ATOM      2  C   UNL     1      20.660  37.104  85.712  1.00  0.00     0.038 C 
ATOM      3  O   UNL     1      20.306  36.941  84.515  1.00  0.00    -0.550 OA
ATOM      4  O   UNL     1      20.346  38.287  86.369  1.00  0.00    -0.550 OA
ENDROOT
TORSDOF 0
ENDMDL
MODEL 9
REMARK VINA RESULT:    -2.447     17.946     18.529
REMARK INTER + INTRA:          -2.447
REMARK INTER:                  -2.447
REMARK INTRA:                   0.000
REMARK UNBOUND:                 0.000
REMARK SMILES CC(=O)[O-]
REMARK SMILES IDX 1 1 2 2 3 3 4 4
REMARK H PARENT
REMARK Flexibility Score: inf
ROOT
ATOM      1  C   UNL     1      17.280  37.085  86.523  1.00  0.00     0.063 C 
ATOM      2  C   UNL     1      17.902  37.456  85.219  1.00  0.00     0.038 C 
ATOM      3  O   UNL     1      17.264  38.160  84.394  1.00  0.00    -0.550 OA
ATOM      4  O   UNL     1      19.205  37.069  84.935  1.00  0.00    -0.550 OA
ENDROOT
TORSDOF 0
ENDMDL
