MODEL 1
REMARK VINA RESULT:    -6.938      0.000      0.000
REMARK INTER + INTRA:          -7.546
REMARK INTER:                  -7.546
REMARK INTRA:                   0.000
REMARK UNBOUND:                 0.000
REMARK SMILES Cc1cc(O)c2c(c1)C(=O)c1cc(O)cc(O)c1C2=O
REMARK SMILES IDX 1 1 2 2 8 3 7 4 6 5 4 6 3 7 19 8 20 9 18 10 11 11 9 12 10 13
REMARK SMILES IDX 12 14 13 15 15 16 16 17 5 18 17 20 14 22
REMARK H PARENT 5 19 17 21 14 23
REMARK Flexibility Score: inf
ROOT
ATOM      1  C   UNL     1     -34.353   4.823  81.842  1.00  0.00     0.044 C 
ATOM      2  C   UNL     1     -35.840   4.634  81.760  1.00  0.00    -0.047 A 
ATOM      3  C   UNL     1     -36.422   4.130  80.592  1.00  0.00     0.016 A 
ATOM      4  C   UNL     1     -37.807   3.907  80.520  1.00  0.00     0.038 A 
ATOM      5  C   UNL     1     -38.621   4.168  81.646  1.00  0.00     0.076 A 
ATOM      6  C   UNL     1     -38.032   4.722  82.812  1.00  0.00     0.127 A 
ATOM      7  C   UNL     1     -36.648   4.916  82.865  1.00  0.00     0.050 A 
ATOM      8  C   UNL     1     -40.054   3.782  81.579  1.00  0.00     0.201 C 
ATOM      9  O   UNL     1     -40.662   3.449  82.631  1.00  0.00    -0.288 OA
ATOM     10  C   UNL     1     -40.712   3.607  80.258  1.00  0.00     0.076 A 
ATOM     11  C   UNL     1     -39.894   3.347  79.136  1.00  0.00     0.041 A 
ATOM     12  C   UNL     1     -38.419   3.403  79.267  1.00  0.00     0.194 C 
ATOM     13  O   UNL     1     -37.686   3.046  78.305  1.00  0.00    -0.289 OA
ATOM     14  C   UNL     1     -40.484   3.039  77.898  1.00  0.00     0.059 A 
ATOM     15  C   UNL     1     -41.875   3.005  77.764  1.00  0.00     0.120 A 
ATOM     16  C   UNL     1     -42.684   3.302  78.860  1.00  0.00     0.093 A 
ATOM     17  C   UNL     1     -42.122   3.629  80.098  1.00  0.00     0.131 A 
ENDROOT
BRANCH   6  18
ATOM     18  O   UNL     1     -38.782   5.122  83.919  1.00  0.00    -0.507 OA
ATOM     19  H   UNL     1     -38.391   5.252  84.842  1.00  0.00     0.293 HD
ENDBRANCH   6  18
BRANCH  17  20
ATOM     20  O   UNL     1     -42.993   4.003  81.123  1.00  0.00    -0.507 OA
ATOM     21  H   UNL     1     -42.739   3.999  82.102  1.00  0.00     0.293 HD
ENDBRANCH  17  20
BRANCH  15  22
ATOM     22  O   UNL     1     -42.463   2.688  76.542  1.00  0.00    -0.508 OA
ATOM     23  H   UNL     1     -42.536   3.370  75.796  1.00  0.00     0.293 HD
ENDBRANCH  15  22
TORSDOF 3
ENDMDL
MODEL 2
REMARK VINA RESULT:    -6.829      1.995      3.028
REMARK INTER + INTRA:          -7.428
REMARK INTER:                  -7.428
REMARK INTRA:                   0.000
REMARK UNBOUND:                 0.000
REMARK SMILES Cc1cc(O)c2c(c1)C(=O)c1cc(O)cc(O)c1C2=O
REMARK SMILES IDX 1 1 2 2 8 3 7 4 6 5 4 6 3 7 19 8 20 9 18 10 11 11 9 12 10 13
REMARK SMILES IDX 12 14 13 15 15 16 16 17 5 18 17 20 14 22
REMARK H PARENT 5 19 17 21 14 23
REMARK Flexibility Score: inf
ROOT
ATOM      1  C   UNL     1     -33.423   5.262  79.498  1.00  0.00     0.044 C 
ATOM      2  C   UNL     1     -34.548   4.848  80.400  1.00  0.00    -0.047 A 
ATOM      3  C   UNL     1     -35.853   4.762  79.904  1.00  0.00     0.016 A 
ATOM      4  C   UNL     1     -36.906   4.333  80.729  1.00  0.00     0.038 A 
ATOM      5  C   UNL     1     -36.644   3.959  82.067  1.00  0.00     0.076 A 
ATOM      6  C   UNL     1     -35.328   4.093  82.577  1.00  0.00     0.127 A 
ATOM      7  C   UNL     1     -34.293   4.503  81.731  1.00  0.00     0.050 A 
ATOM      8  C   UNL     1     -37.755   3.373  82.861  1.00  0.00     0.201 C 
ATOM      9  O   UNL     1     -37.502   2.535  83.768  1.00  0.00    -0.288 OA
ATOM     10  C   UNL     1     -39.163   3.628  82.463  1.00  0.00     0.076 A 
ATOM     11  C   UNL     1     -39.420   4.001  81.125  1.00  0.00     0.041 A 
ATOM     12  C   UNL     1     -38.291   4.274  80.203  1.00  0.00     0.194 C 
ATOM     13  O   UNL     1     -38.511   4.481  78.979  1.00  0.00    -0.289 OA
ATOM     14  C   UNL     1     -40.746   4.117  80.673  1.00  0.00     0.059 A 
ATOM     15  C   UNL     1     -41.814   3.881  81.543  1.00  0.00     0.120 A 
ATOM     16  C   UNL     1     -41.564   3.552  82.875  1.00  0.00     0.093 A 
ATOM     17  C   UNL     1     -40.254   3.450  83.353  1.00  0.00     0.131 A 
ENDROOT
BRANCH   6  18
ATOM     18  O   UNL     1     -35.011   3.863  83.918  1.00  0.00    -0.507 OA
ATOM     19  H   UNL     1     -35.669   3.502  84.594  1.00  0.00     0.293 HD
ENDBRANCH   6  18
BRANCH  17  20
ATOM     20  O   UNL     1     -40.083   3.207  84.718  1.00  0.00    -0.507 OA
ATOM     21  H   UNL     1     -39.219   3.381  85.213  1.00  0.00     0.293 HD
ENDBRANCH  17  20
BRANCH  15  22
ATOM     22  O   UNL     1     -43.130   3.982  81.096  1.00  0.00    -0.508 OA
ATOM     23  H   UNL     1     -43.356   4.407  80.205  1.00  0.00     0.293 HD
ENDBRANCH  15  22
TORSDOF 3
ENDMDL
MODEL 3
REMARK VINA RESULT:    -6.562      2.684      6.094
REMARK INTER + INTRA:          -7.138
REMARK INTER:                  -7.138
REMARK INTRA:                   0.000
REMARK UNBOUND:                 0.000
REMARK SMILES Cc1cc(O)c2c(c1)C(=O)c1cc(O)cc(O)c1C2=O
REMARK SMILES IDX 1 1 2 2 8 3 7 4 6 5 4 6 3 7 19 8 20 9 18 10 11 11 9 12 10 13
REMARK SMILES IDX 12 14 13 15 15 16 16 17 5 18 17 20 14 22
REMARK H PARENT 5 19 17 21 14 23
REMARK Flexibility Score: inf
ROOT
ATOM      1  C   UNL     1     -41.942   3.868  78.325  1.00  0.00     0.044 C 
ATOM      2  C   UNL     1     -40.599   3.923  78.993  1.00  0.00    -0.047 A 
ATOM      3  C   UNL     1     -39.597   4.762  78.491  1.00  0.00     0.016 A 
ATOM      4  C   UNL     1     -38.352   4.854  79.135  1.00  0.00     0.038 A 
ATOM      5  C   UNL     1     -38.114   4.116  80.316  1.00  0.00     0.076 A 
ATOM      6  C   UNL     1     -39.117   3.233  80.794  1.00  0.00     0.127 A 
ATOM      7  C   UNL     1     -40.355   3.173  80.147  1.00  0.00     0.050 A 
ATOM      8  C   UNL     1     -36.842   4.352  81.047  1.00  0.00     0.201 C 
ATOM      9  O   UNL     1     -36.803   4.211  82.298  1.00  0.00    -0.288 OA
ATOM     10  C   UNL     1     -35.677   4.935  80.332  1.00  0.00     0.076 A 
ATOM     11  C   UNL     1     -35.920   5.673  79.152  1.00  0.00     0.041 A 
ATOM     12  C   UNL     1     -37.285   5.721  78.578  1.00  0.00     0.194 C 
ATOM     13  O   UNL     1     -37.534   6.480  77.602  1.00  0.00    -0.289 OA
ATOM     14  C   UNL     1     -34.863   6.355  78.523  1.00  0.00     0.059 A 
ATOM     15  C   UNL     1     -33.570   6.295  79.049  1.00  0.00     0.120 A 
ATOM     16  C   UNL     1     -33.319   5.535  80.190  1.00  0.00     0.093 A 
ATOM     17  C   UNL     1     -34.349   4.832  80.823  1.00  0.00     0.131 A 
ENDROOT
BRANCH   6  18
ATOM     18  O   UNL     1     -38.915   2.379  81.880  1.00  0.00    -0.507 OA
ATOM     19  H   UNL     1     -39.098   1.385  81.852  1.00  0.00     0.293 HD
ENDBRANCH   6  18
BRANCH  17  20
ATOM     20  O   UNL     1     -34.005   4.020  81.906  1.00  0.00    -0.507 OA
ATOM     21  H   UNL     1     -34.674   3.681  82.585  1.00  0.00     0.293 HD
ENDBRANCH  17  20
BRANCH  15  22
ATOM     22  O   UNL     1     -32.522   6.980  78.436  1.00  0.00    -0.508 OA
ATOM     23  H   UNL     1     -32.681   7.832  77.911  1.00  0.00     0.293 HD
ENDBRANCH  15  22
TORSDOF 3
ENDMDL
MODEL 4
REMARK VINA RESULT:    -6.509      1.593      5.565
REMARK INTER + INTRA:          -7.080
REMARK INTER:                  -7.080
REMARK INTRA:                   0.000
REMARK UNBOUND:                 0.000
REMARK SMILES Cc1cc(O)c2c(c1)C(=O)c1cc(O)cc(O)c1C2=O
REMARK SMILES IDX 1 1 2 2 8 3 7 4 6 5 4 6 3 7 19 8 20 9 18 10 11 11 9 12 10 13
REMARK SMILES IDX 12 14 13 15 15 16 16 17 5 18 17 20 14 22
REMARK H PARENT 5 19 17 21 14 23
REMARK Flexibility Score: inf
ROOT
ATOM      1  C   UNL     1     -42.087   2.934  77.277  1.00  0.00     0.044 C 
ATOM      2  C   UNL     1     -41.405   3.238  78.578  1.00  0.00    -0.047 A 
ATOM      3  C   UNL     1     -40.019   3.431  78.618  1.00  0.00     0.016 A 
ATOM      4  C   UNL     1     -39.376   3.759  79.824  1.00  0.00     0.038 A 
ATOM      5  C   UNL     1     -40.136   3.923  81.004  1.00  0.00     0.076 A 
ATOM      6  C   UNL     1     -41.533   3.681  80.967  1.00  0.00     0.127 A 
ATOM      7  C   UNL     1     -42.153   3.374  79.751  1.00  0.00     0.050 A 
ATOM      8  C   UNL     1     -39.441   4.412  82.223  1.00  0.00     0.201 C 
ATOM      9  O   UNL     1     -40.072   5.099  83.070  1.00  0.00    -0.288 OA
ATOM     10  C   UNL     1     -37.969   4.256  82.347  1.00  0.00     0.076 A 
ATOM     11  C   UNL     1     -37.214   4.092  81.165  1.00  0.00     0.041 A 
ATOM     12  C   UNL     1     -37.904   3.931  79.863  1.00  0.00     0.194 C 
ATOM     13  O   UNL     1     -37.238   3.914  78.792  1.00  0.00    -0.289 OA
ATOM     14  C   UNL     1     -35.809   4.080  81.227  1.00  0.00     0.059 A 
ATOM     15  C   UNL     1     -35.154   4.210  82.455  1.00  0.00     0.120 A 
ATOM     16  C   UNL     1     -35.897   4.331  83.629  1.00  0.00     0.093 A 
ATOM     17  C   UNL     1     -37.295   4.327  83.595  1.00  0.00     0.131 A 
ENDROOT
BRANCH   6  18
ATOM     18  O   UNL     1     -42.334   3.700  82.111  1.00  0.00    -0.507 OA
ATOM     19  H   UNL     1     -43.005   4.429  82.312  1.00  0.00     0.293 HD
ENDBRANCH   6  18
BRANCH  17  20
ATOM     20  O   UNL     1     -37.970   4.360  84.817  1.00  0.00    -0.507 OA
ATOM     21  H   UNL     1     -38.477   3.572  85.197  1.00  0.00     0.293 HD
ENDBRANCH  17  20
BRANCH  15  22
ATOM     22  O   UNL     1     -33.762   4.211  82.520  1.00  0.00    -0.508 OA
ATOM     23  H   UNL     1     -33.265   4.729  83.235  1.00  0.00     0.293 HD
ENDBRANCH  15  22
TORSDOF 3
ENDMDL
MODEL 5
REMARK VINA RESULT:    -6.379      3.889      5.003
REMARK INTER + INTRA:          -6.939
REMARK INTER:                  -6.939
REMARK INTRA:                   0.000
REMARK UNBOUND:                 0.000
REMARK SMILES Cc1cc(O)c2c(c1)C(=O)c1cc(O)cc(O)c1C2=O
REMARK SMILES IDX 1 1 2 2 8 3 7 4 6 5 4 6 3 7 19 8 20 9 18 10 11 11 9 12 10 13
REMARK SMILES IDX 12 14 13 15 15 16 16 17 5 18 17 20 14 22
REMARK H PARENT 5 19 17 21 14 23
REMARK Flexibility Score: inf
ROOT
ATOM      1  C   UNL     1     -33.930  10.125  76.902  1.00  0.00     0.044 C 
ATOM      2  C   UNL     1     -34.546   8.870  77.449  1.00  0.00    -0.047 A 
ATOM      3  C   UNL     1     -35.903   8.601  77.234  1.00  0.00     0.016 A 
ATOM      4  C   UNL     1     -36.480   7.409  77.704  1.00  0.00     0.038 A 
ATOM      5  C   UNL     1     -35.679   6.458  78.377  1.00  0.00     0.076 A 
ATOM      6  C   UNL     1     -34.316   6.757  78.632  1.00  0.00     0.127 A 
ATOM      7  C   UNL     1     -33.761   7.941  78.138  1.00  0.00     0.050 A 
ATOM      8  C   UNL     1     -36.290   5.150  78.727  1.00  0.00     0.201 C 
ATOM      9  O   UNL     1     -35.572   4.116  78.778  1.00  0.00    -0.288 OA
ATOM     10  C   UNL     1     -37.768   5.028  78.830  1.00  0.00     0.076 A 
ATOM     11  C   UNL     1     -38.563   5.981  78.155  1.00  0.00     0.041 A 
ATOM     12  C   UNL     1     -37.924   7.146  77.499  1.00  0.00     0.194 C 
ATOM     13  O   UNL     1     -38.613   7.928  76.789  1.00  0.00    -0.289 OA
ATOM     14  C   UNL     1     -39.959   5.822  78.112  1.00  0.00     0.059 A 
ATOM     15  C   UNL     1     -40.568   4.736  78.747  1.00  0.00     0.120 A 
ATOM     16  C   UNL     1     -39.790   3.816  79.448  1.00  0.00     0.093 A 
ATOM     17  C   UNL     1     -38.401   3.963  79.521  1.00  0.00     0.131 A 
ENDROOT
BRANCH   6  18
ATOM     18  O   UNL     1     -33.491   5.928  79.396  1.00  0.00    -0.507 OA
ATOM     19  H   UNL     1     -32.751   5.362  79.004  1.00  0.00     0.293 HD
ENDBRANCH   6  18
BRANCH  17  20
ATOM     20  O   UNL     1     -37.698   3.054  80.316  1.00  0.00    -0.507 OA
ATOM     21  H   UNL     1     -37.971   2.808  81.258  1.00  0.00     0.293 HD
ENDBRANCH  17  20
BRANCH  15  22
ATOM     22  O   UNL     1     -41.951   4.568  78.696  1.00  0.00    -0.508 OA
ATOM     23  H   UNL     1     -42.395   4.056  77.944  1.00  0.00     0.293 HD
ENDBRANCH  15  22
TORSDOF 3
ENDMDL
MODEL 6
REMARK VINA RESULT:    -6.317      2.724      5.644
REMARK INTER + INTRA:          -6.871
REMARK INTER:                  -6.871
REMARK INTRA:                   0.000
REMARK UNBOUND:                 0.000
REMARK SMILES Cc1cc(O)c2c(c1)C(=O)c1cc(O)cc(O)c1C2=O
REMARK SMILES IDX 1 1 2 2 8 3 7 4 6 5 4 6 3 7 19 8 20 9 18 10 11 11 9 12 10 13
REMARK SMILES IDX 12 14 13 15 15 16 16 17 5 18 17 20 14 22
REMARK H PARENT 5 19 17 21 14 23
REMARK Flexibility Score: inf
ROOT
ATOM      1  C   UNL     1     -38.728   2.109  84.904  1.00  0.00     0.044 C 
ATOM      2  C   UNL     1     -38.464   2.797  83.596  1.00  0.00    -0.047 A 
ATOM      3  C   UNL     1     -37.160   3.160  83.242  1.00  0.00     0.016 A 
ATOM      4  C   UNL     1     -36.897   3.765  82.002  1.00  0.00     0.038 A 
ATOM      5  C   UNL     1     -37.952   3.984  81.088  1.00  0.00     0.076 A 
ATOM      6  C   UNL     1     -39.278   3.656  81.471  1.00  0.00     0.127 A 
ATOM      7  C   UNL     1     -39.512   3.038  82.703  1.00  0.00     0.050 A 
ATOM      8  C   UNL     1     -37.613   4.489  79.733  1.00  0.00     0.201 C 
ATOM      9  O   UNL     1     -38.334   4.176  78.749  1.00  0.00    -0.288 OA
ATOM     10  C   UNL     1     -36.327   5.199  79.509  1.00  0.00     0.076 A 
ATOM     11  C   UNL     1     -35.274   4.976  80.425  1.00  0.00     0.041 A 
ATOM     12  C   UNL     1     -35.516   4.175  81.648  1.00  0.00     0.194 C 
ATOM     13  O   UNL     1     -34.553   3.865  82.401  1.00  0.00    -0.289 OA
ATOM     14  C   UNL     1     -34.002   5.518  80.174  1.00  0.00     0.059 A 
ATOM     15  C   UNL     1     -33.774   6.291  79.032  1.00  0.00     0.120 A 
ATOM     16  C   UNL     1     -34.820   6.547  78.147  1.00  0.00     0.093 A 
ATOM     17  C   UNL     1     -36.100   6.035  78.385  1.00  0.00     0.131 A 
ENDROOT
BRANCH   6  18
ATOM     18  O   UNL     1     -40.389   3.954  80.678  1.00  0.00    -0.507 OA
ATOM     19  H   UNL     1     -40.373   4.626  79.924  1.00  0.00     0.293 HD
ENDBRANCH   6  18
BRANCH  17  20
ATOM     20  O   UNL     1     -37.117   6.409  77.504  1.00  0.00    -0.507 OA
ATOM     21  H   UNL     1     -38.041   5.998  77.510  1.00  0.00     0.293 HD
ENDBRANCH  17  20
BRANCH  15  22
ATOM     22  O   UNL     1     -32.511   6.820  78.773  1.00  0.00    -0.508 OA
ATOM     23  H   UNL     1     -32.091   7.511  79.383  1.00  0.00     0.293 HD
ENDBRANCH  15  22
TORSDOF 3
ENDMDL
MODEL 7
REMARK VINA RESULT:    -6.187      8.514     10.626
REMARK INTER + INTRA:          -6.730
REMARK INTER:                  -6.730
REMARK INTRA:                   0.000
REMARK UNBOUND:                 0.000
REMARK SMILES Cc1cc(O)c2c(c1)C(=O)c1cc(O)cc(O)c1C2=O
REMARK SMILES IDX 1 1 2 2 8 3 7 4 6 5 4 6 3 7 19 8 20 9 18 10 11 11 9 12 10 13
REMARK SMILES IDX 12 14 13 15 15 16 16 17 5 18 17 20 14 22
REMARK H PARENT 5 19 17 21 14 23
REMARK Flexibility Score: inf
ROOT
ATOM      1  C   UNL     1     -45.241  -6.603  79.791  1.00  0.00     0.044 C 
ATOM      2  C   UNL     1     -43.855  -6.235  80.234  1.00  0.00    -0.047 A 
ATOM      3  C   UNL     1     -43.668  -5.270  81.230  1.00  0.00     0.016 A 
ATOM      4  C   UNL     1     -42.377  -4.950  81.683  1.00  0.00     0.038 A 
ATOM      5  C   UNL     1     -41.256  -5.625  81.149  1.00  0.00     0.076 A 
ATOM      6  C   UNL     1     -41.449  -6.569  80.107  1.00  0.00     0.127 A 
ATOM      7  C   UNL     1     -42.745  -6.884  79.687  1.00  0.00     0.050 A 
ATOM      8  C   UNL     1     -39.925  -5.365  81.756  1.00  0.00     0.201 C 
ATOM      9  O   UNL     1     -39.050  -6.270  81.758  1.00  0.00    -0.288 OA
ATOM     10  C   UNL     1     -39.695  -4.113  82.523  1.00  0.00     0.076 A 
ATOM     11  C   UNL     1     -40.819  -3.441  83.055  1.00  0.00     0.041 A 
ATOM     12  C   UNL     1     -42.185  -3.904  82.717  1.00  0.00     0.194 C 
ATOM     13  O   UNL     1     -43.186  -3.392  83.289  1.00  0.00    -0.289 OA
ATOM     14  C   UNL     1     -40.636  -2.333  83.901  1.00  0.00     0.059 A 
ATOM     15  C   UNL     1     -39.349  -1.880  84.206  1.00  0.00     0.120 A 
ATOM     16  C   UNL     1     -38.240  -2.515  83.650  1.00  0.00     0.093 A 
ATOM     17  C   UNL     1     -38.396  -3.608  82.790  1.00  0.00     0.131 A 
ENDROOT
BRANCH   6  18
ATOM     18  O   UNL     1     -40.387  -7.187  79.442  1.00  0.00    -0.507 OA
ATOM     19  H   UNL     1     -39.420  -6.922  79.565  1.00  0.00     0.293 HD
ENDBRANCH   6  18
BRANCH  17  20
ATOM     20  O   UNL     1     -37.245  -4.134  82.201  1.00  0.00    -0.507 OA
ATOM     21  H   UNL     1     -36.678  -3.630  81.532  1.00  0.00     0.293 HD
ENDBRANCH  17  20
BRANCH  15  22
ATOM     22  O   UNL     1     -39.163  -0.790  85.053  1.00  0.00    -0.508 OA
ATOM     23  H   UNL     1     -38.477  -0.073  84.851  1.00  0.00     0.293 HD
ENDBRANCH  15  22
TORSDOF 3
ENDMDL
MODEL 8
REMARK VINA RESULT:    -6.161      3.061      5.810
REMARK INTER + INTRA:          -6.701
REMARK INTER:                  -6.701
REMARK INTRA:                   0.000
REMARK UNBOUND:                 0.000
REMARK SMILES Cc1cc(O)c2c(c1)C(=O)c1cc(O)cc(O)c1C2=O
REMARK SMILES IDX 1 1 2 2 8 3 7 4 6 5 4 6 3 7 19 8 20 9 18 10 11 11 9 12 10 13
REMARK SMILES IDX 12 14 13 15 15 16 16 17 5 18 17 20 14 22
REMARK H PARENT 5 19 17 21 14 23
REMARK Flexibility Score: inf
ROOT
ATOM      1  C   UNL     1     -38.618   7.886  75.778  1.00  0.00     0.044 C 
ATOM      2  C   UNL     1     -38.569   7.203  77.113  1.00  0.00    -0.047 A 
ATOM      3  C   UNL     1     -37.337   6.919  77.714  1.00  0.00     0.016 A 
ATOM      4  C   UNL     1     -37.280   6.319  78.983  1.00  0.00     0.038 A 
ATOM      5  C   UNL     1     -38.476   6.024  79.676  1.00  0.00     0.076 A 
ATOM      6  C   UNL     1     -39.721   6.272  79.043  1.00  0.00     0.127 A 
ATOM      7  C   UNL     1     -39.752   6.887  77.787  1.00  0.00     0.050 A 
ATOM      8  C   UNL     1     -38.373   5.528  81.072  1.00  0.00     0.201 C 
ATOM      9  O   UNL     1     -39.289   5.784  81.898  1.00  0.00    -0.288 OA
ATOM     10  C   UNL     1     -37.111   4.898  81.542  1.00  0.00     0.076 A 
ATOM     11  C   UNL     1     -35.918   5.197  80.846  1.00  0.00     0.041 A 
ATOM     12  C   UNL     1     -35.970   5.994  79.597  1.00  0.00     0.194 C 
ATOM     13  O   UNL     1     -34.902   6.372  79.044  1.00  0.00    -0.289 OA
ATOM     14  C   UNL     1     -34.686   4.734  81.340  1.00  0.00     0.059 A 
ATOM     15  C   UNL     1     -34.634   3.965  82.506  1.00  0.00     0.120 A 
ATOM     16  C   UNL     1     -35.813   3.634  83.172  1.00  0.00     0.093 A 
ATOM     17  C   UNL     1     -37.053   4.067  82.690  1.00  0.00     0.131 A 
ENDROOT
BRANCH   6  18
ATOM     18  O   UNL     1     -40.942   5.896  79.606  1.00  0.00    -0.507 OA
ATOM     19  H   UNL     1     -41.837   6.231  79.277  1.00  0.00     0.293 HD
ENDBRANCH   6  18
BRANCH  17  20
ATOM     20  O   UNL     1     -38.195   3.620  83.359  1.00  0.00    -0.507 OA
ATOM     21  H   UNL     1     -39.058   3.378  82.890  1.00  0.00     0.293 HD
ENDBRANCH  17  20
BRANCH  15  22
ATOM     22  O   UNL     1     -33.413   3.515  83.005  1.00  0.00    -0.508 OA
ATOM     23  H   UNL     1     -33.209   2.527  83.092  1.00  0.00     0.293 HD
ENDBRANCH  15  22
TORSDOF 3
ENDMDL
MODEL 9
REMARK VINA RESULT:    -6.130     10.591     12.437
REMARK INTER + INTRA:          -6.667
REMARK INTER:                  -6.667
REMARK INTRA:                   0.000
REMARK UNBOUND:                 0.000
REMARK SMILES Cc1cc(O)c2c(c1)C(=O)c1cc(O)cc(O)c1C2=O
REMARK SMILES IDX 1 1 2 2 8 3 7 4 6 5 4 6 3 7 19 8 20 9 18 10 11 11 9 12 10 13
REMARK SMILES IDX 12 14 13 15 15 16 16 17 5 18 17 20 14 22
REMARK H PARENT 5 19 17 21 14 23
REMARK Flexibility Score: inf
ROOT
ATOM      1  C   UNL     1     -47.825   0.347  72.883  1.00  0.00     0.044 C 
ATOM      2  C   UNL     1     -47.650   1.837  72.928  1.00  0.00    -0.047 A 
ATOM      3  C   UNL     1     -47.544   2.569  71.741  1.00  0.00     0.016 A 
ATOM      4  C   UNL     1     -47.424   3.969  71.771  1.00  0.00     0.038 A 
ATOM      5  C   UNL     1     -47.438   4.650  73.009  1.00  0.00     0.076 A 
ATOM      6  C   UNL     1     -47.500   3.899  74.211  1.00  0.00     0.127 A 
ATOM      7  C   UNL     1     -47.638   2.508  74.155  1.00  0.00     0.050 A 
ATOM      8  C   UNL     1     -47.458   6.135  72.993  1.00  0.00     0.201 C 
ATOM      9  O   UNL     1     -48.024   6.765  73.926  1.00  0.00    -0.288 OA
ATOM     10  C   UNL     1     -46.982   6.867  71.790  1.00  0.00     0.076 A 
ATOM     11  C   UNL     1     -46.970   6.183  70.555  1.00  0.00     0.041 A 
ATOM     12  C   UNL     1     -47.281   4.734  70.509  1.00  0.00     0.194 C 
ATOM     13  O   UNL     1     -47.398   4.148  69.398  1.00  0.00    -0.289 OA
ATOM     14  C   UNL     1     -46.659   6.877  69.373  1.00  0.00     0.059 A 
ATOM     15  C   UNL     1     -46.345   8.239  69.414  1.00  0.00     0.120 A 
ATOM     16  C   UNL     1     -46.316   8.908  70.636  1.00  0.00     0.093 A 
ATOM     17  C   UNL     1     -46.603   8.234  71.828  1.00  0.00     0.131 A 
ENDROOT
BRANCH   6  18
ATOM     18  O   UNL     1     -47.395   4.485  75.474  1.00  0.00    -0.507 OA
ATOM     19  H   UNL     1     -47.862   5.342  75.734  1.00  0.00     0.293 HD
ENDBRANCH   6  18
BRANCH  17  20
ATOM     20  O   UNL     1     -46.465   8.948  73.021  1.00  0.00    -0.507 OA
ATOM     21  H   UNL     1     -47.182   8.992  73.732  1.00  0.00     0.293 HD
ENDBRANCH  17  20
BRANCH  15  22
ATOM     22  O   UNL     1     -46.048   8.934  68.243  1.00  0.00    -0.508 OA
ATOM     23  H   UNL     1     -46.777   9.248  67.614  1.00  0.00     0.293 HD
ENDBRANCH  15  22
TORSDOF 3
ENDMDL
