MODEL 1
REMARK VINA RESULT:    -5.067      0.000      0.000
REMARK INTER + INTRA:          -5.215
REMARK INTER:                  -5.215
REMARK INTRA:                   0.000
REMARK UNBOUND:                 0.000
REMARK SMILES Nc1ncnc2nc[nH]c12
REMARK SMILES IDX 8 1 7 2 6 3 5 4 4 5 3 6 2 7 10 8 9 9 1 11
REMARK H PARENT 9 10 1 12 1 13
REMARK Flexibility Score: inf
ROOT
ATOM      1  C   UNL     1       7.832   9.390  22.675  1.00  0.00     0.199 A 
ATOM      2  N   UNL     1       7.340   8.690  23.734  1.00  0.00    -0.217 NA
ATOM      3  C   UNL     1       6.176   8.225  23.253  1.00  0.00     0.182 A 
ATOM      4  N   UNL     1       5.279   7.454  23.914  1.00  0.00    -0.215 NA
ATOM      5  C   UNL     1       4.142   7.076  23.254  1.00  0.00     0.226 A 
ATOM      6  N   UNL     1       3.925   7.472  21.959  1.00  0.00    -0.217 NA
ATOM      7  C   UNL     1       4.829   8.249  21.290  1.00  0.00     0.152 A 
ATOM      8  C   UNL     1       5.981   8.625  21.975  1.00  0.00     0.127 A 
ATOM      9  N   UNL     1       7.022   9.369  21.584  1.00  0.00    -0.340 N 
ATOM     10  H   UNL     1       7.187   9.830  20.662  1.00  0.00     0.168 HD
ENDROOT
BRANCH   7  11
ATOM     11  N   UNL     1       4.582   8.649  19.942  1.00  0.00    -0.382 N 
ATOM     12  H   UNL     1       5.311   9.137  19.377  1.00  0.00     0.158 HD
ATOM     13  H   UNL     1       3.655   8.455  19.500  1.00  0.00     0.158 HD
ENDBRANCH   7  11
TORSDOF 1
ENDMDL
MODEL 2
REMARK VINA RESULT:    -4.844      0.764      2.848
REMARK INTER + INTRA:          -4.986
REMARK INTER:                  -4.986
REMARK INTRA:                   0.000
REMARK UNBOUND:                 0.000
REMARK SMILES Nc1ncnc2nc[nH]c12
REMARK SMILES IDX 8 1 7 2 6 3 5 4 4 5 3 6 2 7 10 8 9 9 1 11
REMARK H PARENT 9 10 1 12 1 13
REMARK Flexibility Score: inf
ROOT
ATOM      1  C   UNL     1       3.765   6.681  23.474  1.00  0.00     0.199 A 
ATOM      2  N   UNL     1       4.898   7.095  24.107  1.00  0.00    -0.217 NA
ATOM      3  C   UNL     1       5.486   7.856  23.170  1.00  0.00     0.182 A 
ATOM      4  N   UNL     1       6.662   8.518  23.290  1.00  0.00    -0.215 NA
ATOM      5  C   UNL     1       7.102   9.249  22.220  1.00  0.00     0.226 A 
ATOM      6  N   UNL     1       6.367   9.303  21.064  1.00  0.00    -0.217 NA
ATOM      7  C   UNL     1       5.180   8.636  20.942  1.00  0.00     0.152 A 
ATOM      8  C   UNL     1       4.745   7.898  22.039  1.00  0.00     0.127 A 
ATOM      9  N   UNL     1       3.644   7.156  22.208  1.00  0.00    -0.340 N 
ATOM     10  H   UNL     1       2.867   6.977  21.533  1.00  0.00     0.168 HD
ENDROOT
BRANCH   7  11
ATOM     11  N   UNL     1       4.431   8.707  19.728  1.00  0.00    -0.382 N 
ATOM     12  H   UNL     1       4.682   8.125  18.900  1.00  0.00     0.158 HD
ATOM     13  H   UNL     1       3.613   9.352  19.656  1.00  0.00     0.158 HD
ENDBRANCH   7  11
TORSDOF 1
ENDMDL
MODEL 3
REMARK VINA RESULT:    -4.659      0.979      3.733
REMARK INTER + INTRA:          -4.796
REMARK INTER:                  -4.796
REMARK INTRA:                   0.000
REMARK UNBOUND:                 0.000
REMARK SMILES Nc1ncnc2nc[nH]c12
REMARK SMILES IDX 8 1 7 2 6 3 5 4 4 5 3 6 2 7 10 8 9 9 1 11
REMARK H PARENT 9 10 1 12 1 13
REMARK Flexibility Score: inf
ROOT
ATOM      1  C   UNL     1       4.223   6.806  23.504  1.00  0.00     0.199 A 
ATOM      2  N   UNL     1       4.006   7.506  22.357  1.00  0.00    -0.217 NA
ATOM      3  C   UNL     1       5.162   8.173  22.206  1.00  0.00     0.182 A 
ATOM      4  N   UNL     1       5.476   9.028  21.203  1.00  0.00    -0.215 NA
ATOM      5  C   UNL     1       6.711   9.614  21.219  1.00  0.00     0.226 A 
ATOM      6  N   UNL     1       7.600   9.338  22.226  1.00  0.00    -0.217 NA
ATOM      7  C   UNL     1       7.285   8.475  23.238  1.00  0.00     0.152 A 
ATOM      8  C   UNL     1       6.025   7.886  23.208  1.00  0.00     0.127 A 
ATOM      9  N   UNL     1       5.449   7.018  24.048  1.00  0.00    -0.340 N 
ATOM     10  H   UNL     1       5.839   6.595  24.919  1.00  0.00     0.168 HD
ENDROOT
BRANCH   7  11
ATOM     11  N   UNL     1       8.227   8.203  24.276  1.00  0.00    -0.382 N 
ATOM     12  H   UNL     1       8.995   7.508  24.146  1.00  0.00     0.158 HD
ATOM     13  H   UNL     1       8.156   8.703  25.191  1.00  0.00     0.158 HD
ENDBRANCH   7  11
TORSDOF 1
ENDMDL
MODEL 4
REMARK VINA RESULT:    -4.402      1.258      2.994
REMARK INTER + INTRA:          -4.531
REMARK INTER:                  -4.531
REMARK INTRA:                   0.000
REMARK UNBOUND:                 0.000
REMARK SMILES Nc1ncnc2nc[nH]c12
REMARK SMILES IDX 8 1 7 2 6 3 5 4 4 5 3 6 2 7 10 8 9 9 1 11
REMARK H PARENT 9 10 1 12 1 13
REMARK Flexibility Score: inf
ROOT
ATOM      1  C   UNL     1       5.244   8.989  21.128  1.00  0.00     0.199 A 
ATOM      2  N   UNL     1       4.290   8.095  21.508  1.00  0.00    -0.217 NA
ATOM      3  C   UNL     1       4.859   7.506  22.573  1.00  0.00     0.182 A 
ATOM      4  N   UNL     1       4.320   6.525  23.336  1.00  0.00    -0.215 NA
ATOM      5  C   UNL     1       5.055   6.049  24.387  1.00  0.00     0.226 A 
ATOM      6  N   UNL     1       6.301   6.557  24.651  1.00  0.00    -0.217 NA
ATOM      7  C   UNL     1       6.845   7.547  23.883  1.00  0.00     0.152 A 
ATOM      8  C   UNL     1       6.085   8.022  22.818  1.00  0.00     0.127 A 
ATOM      9  N   UNL     1       6.354   8.968  21.910  1.00  0.00    -0.340 N 
ATOM     10  H   UNL     1       7.210   9.558  21.815  1.00  0.00     0.168 HD
ENDROOT
BRANCH   7  11
ATOM     11  N   UNL     1       8.145   8.060  24.178  1.00  0.00    -0.382 N 
ATOM     12  H   UNL     1       8.888   8.112  23.447  1.00  0.00     0.158 HD
ATOM     13  H   UNL     1       8.369   8.394  25.142  1.00  0.00     0.158 HD
ENDBRANCH   7  11
TORSDOF 1
ENDMDL
MODEL 5
REMARK VINA RESULT:    -4.336      1.251      1.823
REMARK INTER + INTRA:          -4.463
REMARK INTER:                  -4.463
REMARK INTRA:                   0.000
REMARK UNBOUND:                 0.000
REMARK SMILES Nc1ncnc2nc[nH]c12
REMARK SMILES IDX 8 1 7 2 6 3 5 4 4 5 3 6 2 7 10 8 9 9 1 11
REMARK H PARENT 9 10 1 12 1 13
REMARK Flexibility Score: inf
ROOT
ATOM      1  C   UNL     1       7.257   9.424  21.861  1.00  0.00     0.199 A 
ATOM      2  N   UNL     1       7.923   8.760  22.845  1.00  0.00    -0.217 NA
ATOM      3  C   UNL     1       6.980   7.931  23.320  1.00  0.00     0.182 A 
ATOM      4  N   UNL     1       7.124   7.036  24.327  1.00  0.00    -0.215 NA
ATOM      5  C   UNL     1       6.041   6.274  24.672  1.00  0.00     0.226 A 
ATOM      6  N   UNL     1       4.848   6.420  24.012  1.00  0.00    -0.217 NA
ATOM      7  C   UNL     1       4.702   7.322  22.996  1.00  0.00     0.152 A 
ATOM      8  C   UNL     1       5.812   8.090  22.656  1.00  0.00     0.127 A 
ATOM      9  N   UNL     1       5.963   9.036  21.721  1.00  0.00    -0.340 N 
ATOM     10  H   UNL     1       5.261   9.399  21.040  1.00  0.00     0.168 HD
ENDROOT
BRANCH   7  11
ATOM     11  N   UNL     1       3.449   7.457  22.322  1.00  0.00    -0.382 N 
ATOM     12  H   UNL     1       3.300   7.064  21.368  1.00  0.00     0.158 HD
ATOM     13  H   UNL     1       2.658   7.959  22.785  1.00  0.00     0.158 HD
ENDBRANCH   7  11
TORSDOF 1
ENDMDL
MODEL 6
REMARK VINA RESULT:    -4.313      1.779      3.532
REMARK INTER + INTRA:          -4.440
REMARK INTER:                  -4.440
REMARK INTRA:                   0.000
REMARK UNBOUND:                 0.000
REMARK SMILES Nc1ncnc2nc[nH]c12
REMARK SMILES IDX 8 1 7 2 6 3 5 4 4 5 3 6 2 7 10 8 9 9 1 11
REMARK H PARENT 9 10 1 12 1 13
REMARK Flexibility Score: inf
ROOT
ATOM      1  C   UNL     1       3.051   4.911  21.186  1.00  0.00     0.199 A 
ATOM      2  N   UNL     1       3.383   4.950  22.506  1.00  0.00    -0.217 NA
ATOM      3  C   UNL     1       4.069   6.101  22.595  1.00  0.00     0.182 A 
ATOM      4  N   UNL     1       4.631   6.622  23.712  1.00  0.00    -0.215 NA
ATOM      5  C   UNL     1       5.293   7.814  23.605  1.00  0.00     0.226 A 
ATOM      6  N   UNL     1       5.380   8.456  22.395  1.00  0.00    -0.217 NA
ATOM      7  C   UNL     1       4.813   7.932  21.268  1.00  0.00     0.152 A 
ATOM      8  C   UNL     1       4.142   6.719  21.393  1.00  0.00     0.127 A 
ATOM      9  N   UNL     1       3.502   5.980  20.479  1.00  0.00    -0.340 N 
ATOM     10  H   UNL     1       3.371   6.169  19.461  1.00  0.00     0.168 HD
ENDROOT
BRANCH   7  11
ATOM     11  N   UNL     1       4.916   8.618  20.020  1.00  0.00    -0.382 N 
ATOM     12  H   UNL     1       4.673   8.150  19.120  1.00  0.00     0.158 HD
ATOM     13  H   UNL     1       5.242   9.611  19.994  1.00  0.00     0.158 HD
ENDBRANCH   7  11
TORSDOF 1
ENDMDL
MODEL 7
REMARK VINA RESULT:    -4.257      2.572      4.484
REMARK INTER + INTRA:          -4.381
REMARK INTER:                  -4.381
REMARK INTRA:                   0.000
REMARK UNBOUND:                 0.000
REMARK SMILES Nc1ncnc2nc[nH]c12
REMARK SMILES IDX 8 1 7 2 6 3 5 4 4 5 3 6 2 7 10 8 9 9 1 11
REMARK H PARENT 9 10 1 12 1 13
REMARK Flexibility Score: inf
ROOT
ATOM      1  C   UNL     1       0.701   6.610  24.026  1.00  0.00     0.199 A 
ATOM      2  N   UNL     1       1.394   6.077  25.069  1.00  0.00    -0.217 NA
ATOM      3  C   UNL     1       2.667   6.197  24.658  1.00  0.00     0.182 A 
ATOM      4  N   UNL     1       3.775   5.813  25.337  1.00  0.00    -0.215 NA
ATOM      5  C   UNL     1       4.993   6.019  24.751  1.00  0.00     0.226 A 
ATOM      6  N   UNL     1       5.081   6.600  23.511  1.00  0.00    -0.217 NA
ATOM      7  C   UNL     1       3.965   6.988  22.826  1.00  0.00     0.152 A 
ATOM      8  C   UNL     1       2.732   6.772  23.435  1.00  0.00     0.127 A 
ATOM      9  N   UNL     1       1.492   7.043  23.010  1.00  0.00    -0.340 N 
ATOM     10  H   UNL     1       1.190   7.485  22.114  1.00  0.00     0.168 HD
ENDROOT
BRANCH   7  11
ATOM     11  N   UNL     1       4.080   7.590  21.536  1.00  0.00    -0.382 N 
ATOM     12  H   UNL     1       3.406   8.317  21.212  1.00  0.00     0.158 HD
ATOM     13  H   UNL     1       4.853   7.305  20.893  1.00  0.00     0.158 HD
ENDBRANCH   7  11
TORSDOF 1
ENDMDL
MODEL 8
REMARK VINA RESULT:    -4.242      1.688      2.628
REMARK INTER + INTRA:          -4.366
REMARK INTER:                  -4.366
REMARK INTRA:                   0.000
REMARK UNBOUND:                 0.000
REMARK SMILES Nc1ncnc2nc[nH]c12
REMARK SMILES IDX 8 1 7 2 6 3 5 4 4 5 3 6 2 7 10 8 9 9 1 11
REMARK H PARENT 9 10 1 12 1 13
REMARK Flexibility Score: inf
ROOT
ATOM      1  C   UNL     1       5.164   8.679  20.771  1.00  0.00     0.199 A 
ATOM      2  N   UNL     1       5.638   8.789  22.042  1.00  0.00    -0.217 NA
ATOM      3  C   UNL     1       5.015   7.777  22.668  1.00  0.00     0.182 A 
ATOM      4  N   UNL     1       5.137   7.437  23.973  1.00  0.00    -0.215 NA
ATOM      5  C   UNL     1       4.418   6.367  24.431  1.00  0.00     0.226 A 
ATOM      6  N   UNL     1       3.598   5.666  23.584  1.00  0.00    -0.217 NA
ATOM      7  C   UNL     1       3.474   6.007  22.267  1.00  0.00     0.152 A 
ATOM      8  C   UNL     1       4.213   7.098  21.816  1.00  0.00     0.127 A 
ATOM      9  N   UNL     1       4.290   7.654  20.601  1.00  0.00    -0.340 N 
ATOM     10  H   UNL     1       3.801   7.375  19.722  1.00  0.00     0.168 HD
ENDROOT
BRANCH   7  11
ATOM     11  N   UNL     1       2.614   5.262  21.404  1.00  0.00    -0.382 N 
ATOM     12  H   UNL     1       2.341   5.623  20.464  1.00  0.00     0.158 HD
ATOM     13  H   UNL     1       2.244   4.334  21.709  1.00  0.00     0.158 HD
ENDBRANCH   7  11
TORSDOF 1
ENDMDL
MODEL 9
REMARK VINA RESULT:    -4.098      2.032      2.768
REMARK INTER + INTRA:          -4.218
REMARK INTER:                  -4.218
REMARK INTRA:                   0.000
REMARK UNBOUND:                 0.000
REMARK SMILES Nc1ncnc2nc[nH]c12
REMARK SMILES IDX 8 1 7 2 6 3 5 4 4 5 3 6 2 7 10 8 9 9 1 11
REMARK H PARENT 9 10 1 12 1 13
REMARK Flexibility Score: inf
ROOT
ATOM      1  C   UNL     1       5.243   9.005  21.135  1.00  0.00     0.199 A 
ATOM      2  N   UNL     1       5.007   8.282  22.264  1.00  0.00    -0.217 NA
ATOM      3  C   UNL     1       4.450   7.163  21.775  1.00  0.00     0.182 A 
ATOM      4  N   UNL     1       4.020   6.095  22.490  1.00  0.00    -0.215 NA
ATOM      5  C   UNL     1       3.476   5.040  21.811  1.00  0.00     0.226 A 
ATOM      6  N   UNL     1       3.374   5.071  20.443  1.00  0.00    -0.217 NA
ATOM      7  C   UNL     1       3.808   6.147  19.720  1.00  0.00     0.152 A 
ATOM      8  C   UNL     1       4.359   7.213  20.426  1.00  0.00     0.127 A 
ATOM      9  N   UNL     1       4.857   8.377  19.995  1.00  0.00    -0.340 N 
ATOM     10  H   UNL     1       4.937   8.731  19.016  1.00  0.00     0.168 HD
ENDROOT
BRANCH   7  11
ATOM     11  N   UNL     1       3.691   6.157  18.297  1.00  0.00    -0.382 N 
ATOM     12  H   UNL     1       4.345   6.709  17.701  1.00  0.00     0.158 HD
ATOM     13  H   UNL     1       2.937   5.604  17.830  1.00  0.00     0.158 HD
ENDBRANCH   7  11
TORSDOF 1
ENDMDL
