MODEL 1
REMARK VINA RESULT:    37.643      0.000      0.000
REMARK INTER + INTRA:          45.332
REMARK INTER:                  45.345
REMARK INTRA:                  -0.014
REMARK UNBOUND:                -0.014
REMARK SMILES Oc1cc(O)c2c(c1)O[C@@H](c1ccc(O)c(O)c1)[C@H](O)C2
REMARK SMILES IDX 21 1 19 2 10 3 9 4 7 5 8 6 2 7 3 8 4 9 6 10 20 11 11 13
REMARK SMILES IDX 18 14 12 15 16 16 13 17 14 18 17 19 15 21 5 23 1 25
REMARK H PARENT 20 12 17 20 15 22 5 24 1 26
REMARK Flexibility Score: inf
ROOT
ATOM      1  C   UNL     1       9.210  70.475   6.642  1.00  0.00     0.079 C 
ATOM      2  C   UNL     1       9.409  69.111   7.328  1.00  0.00     0.164 C 
ATOM      3  C   UNL     1       8.546  68.046   6.632  1.00  0.00     0.232 C 
ATOM      4  O   UNL     1       8.867  67.993   5.242  1.00  0.00    -0.482 OA
ATOM      5  C   UNL     1       9.145  69.144   4.496  1.00  0.00     0.131 A 
ATOM      6  C   UNL     1       9.265  69.039   3.109  1.00  0.00     0.093 A 
ATOM      7  C   UNL     1       9.526  70.171   2.335  1.00  0.00     0.122 A 
ATOM      8  C   UNL     1       9.657  71.420   2.954  1.00  0.00     0.092 A 
ATOM      9  C   UNL     1       9.540  71.544   4.343  1.00  0.00     0.126 A 
ATOM     10  C   UNL     1       9.319  70.391   5.134  1.00  0.00     0.039 A 
ENDROOT
BRANCH   2  11
ATOM     11  O   UNL     1       9.050  69.202   8.682  1.00  0.00    -0.389 OA
ATOM     12  H   UNL     1       9.709  68.659   9.189  1.00  0.00     0.211 HD
ENDBRANCH   2  11
BRANCH   3  13
ATOM     13  C   UNL     1       8.753  66.683   7.252  1.00  0.00    -0.001 A 
ATOM     14  C   UNL     1       9.904  66.420   8.011  1.00  0.00     0.057 A 
ATOM     15  C   UNL     1       7.826  65.653   7.038  1.00  0.00     0.012 A 
ATOM     16  C   UNL     1      10.126  65.154   8.569  1.00  0.00     0.157 A 
ATOM     17  C   UNL     1       8.036  64.388   7.590  1.00  0.00     0.050 A 
ATOM     18  C   UNL     1       9.177  64.125   8.357  1.00  0.00     0.157 A 
BRANCH  16  19
ATOM     19  O   UNL     1      11.289  64.964   9.316  1.00  0.00    -0.504 OA
ATOM     20  H   UNL     1      11.622  65.610  10.016  1.00  0.00     0.293 HD
ENDBRANCH  16  19
BRANCH  18  21
ATOM     21  O   UNL     1       9.326  62.840   8.883  1.00  0.00    -0.504 OA
ATOM     22  H   UNL     1       8.557  62.210   9.058  1.00  0.00     0.293 HD
ENDBRANCH  18  21
ENDBRANCH   3  13
BRANCH   9  23
ATOM     23  O   UNL     1       9.635  72.822   4.899  1.00  0.00    -0.507 OA
ATOM     24  H   UNL     1       9.309  73.657   4.430  1.00  0.00     0.293 HD
ENDBRANCH   9  23
BRANCH   7  25
ATOM     25  O   UNL     1       9.644  70.048   0.952  1.00  0.00    -0.508 OA
ATOM     26  H   UNL     1       9.496  69.161   0.485  1.00  0.00     0.293 HD
ENDBRANCH   7  25
TORSDOF 6
ENDMDL
MODEL 2
REMARK VINA RESULT:    37.808      9.088     10.139
REMARK INTER + INTRA:          45.531
REMARK INTER:                  45.670
REMARK INTRA:                  -0.139
REMARK UNBOUND:                -0.014
REMARK SMILES Oc1cc(O)c2c(c1)O[C@@H](c1ccc(O)c(O)c1)[C@H](O)C2
REMARK SMILES IDX 21 1 19 2 10 3 9 4 7 5 8 6 2 7 3 8 4 9 6 10 20 11 11 13
REMARK SMILES IDX 18 14 12 15 16 16 13 17 14 18 17 19 15 21 5 23 1 25
REMARK H PARENT 20 12 17 20 15 22 5 24 1 26
REMARK Flexibility Score: inf
ROOT
ATOM      1  C   UNL     1       9.120  75.783   2.567  1.00  0.00     0.079 C 
ATOM      2  C   UNL     1       9.712  76.683   3.667  1.00  0.00     0.164 C 
ATOM      3  C   UNL     1      11.085  76.143   4.102  1.00  0.00     0.232 C 
ATOM      4  O   UNL     1      11.949  76.050   2.969  1.00  0.00    -0.482 OA
ATOM      5  C   UNL     1      11.493  75.633   1.714  1.00  0.00     0.131 A 
ATOM      6  C   UNL     1      12.425  75.385   0.703  1.00  0.00     0.093 A 
ATOM      7  C   UNL     1      12.002  74.953  -0.555  1.00  0.00     0.122 A 
ATOM      8  C   UNL     1      10.638  74.759  -0.801  1.00  0.00     0.092 A 
ATOM      9  C   UNL     1       9.690  75.003   0.200  1.00  0.00     0.126 A 
ATOM     10  C   UNL     1      10.112  75.483   1.464  1.00  0.00     0.039 A 
ENDROOT
BRANCH   2  11
ATOM     11  O   UNL     1       8.845  76.719   4.771  1.00  0.00    -0.389 OA
ATOM     12  H   UNL     1       9.416  76.685   5.583  1.00  0.00     0.211 HD
ENDBRANCH   2  11
BRANCH   3  13
ATOM     13  C   UNL     1      11.715  77.031   5.149  1.00  0.00    -0.001 A 
ATOM     14  C   UNL     1      11.407  76.852   6.507  1.00  0.00     0.057 A 
ATOM     15  C   UNL     1      12.576  78.075   4.776  1.00  0.00     0.012 A 
ATOM     16  C   UNL     1      11.961  77.686   7.487  1.00  0.00     0.157 A 
ATOM     17  C   UNL     1      13.133  78.910   5.745  1.00  0.00     0.050 A 
ATOM     18  C   UNL     1      12.839  78.727   7.101  1.00  0.00     0.157 A 
BRANCH  16  19
ATOM     19  O   UNL     1      11.615  77.447   8.818  1.00  0.00    -0.504 OA
ATOM     20  H   UNL     1      11.361  76.540   9.182  1.00  0.00     0.293 HD
ENDBRANCH  16  19
BRANCH  18  21
ATOM     21  O   UNL     1      13.432  79.595   8.020  1.00  0.00    -0.504 OA
ATOM     22  H   UNL     1      13.904  80.450   7.764  1.00  0.00     0.293 HD
ENDBRANCH  18  21
ENDBRANCH   3  13
BRANCH   9  23
ATOM     23  O   UNL     1       8.348  74.748  -0.090  1.00  0.00    -0.507 OA
ATOM     24  H   UNL     1       7.729  74.250   0.537  1.00  0.00     0.293 HD
ENDBRANCH   9  23
BRANCH   7  25
ATOM     25  O   UNL     1      12.945  74.711  -1.552  1.00  0.00    -0.508 OA
ATOM     26  H   UNL     1      13.566  75.441  -1.882  1.00  0.00     0.293 HD
ENDBRANCH   7  25
TORSDOF 6
ENDMDL
MODEL 3
REMARK VINA RESULT:    38.751      3.680      6.323
REMARK INTER + INTRA:          46.666
REMARK INTER:                  46.878
REMARK INTRA:                  -0.212
REMARK UNBOUND:                -0.014
REMARK SMILES Oc1cc(O)c2c(c1)O[C@@H](c1ccc(O)c(O)c1)[C@H](O)C2
REMARK SMILES IDX 21 1 19 2 10 3 9 4 7 5 8 6 2 7 3 8 4 9 6 10 20 11 11 13
REMARK SMILES IDX 18 14 12 15 16 16 13 17 14 18 17 19 15 21 5 23 1 25
REMARK H PARENT 20 12 17 20 15 22 5 24 1 26
REMARK Flexibility Score: inf
ROOT
ATOM      1  C   UNL     1      12.318  74.497   5.519  1.00  0.00     0.079 C 
ATOM      2  C   UNL     1      11.840  73.079   5.155  1.00  0.00     0.164 C 
ATOM      3  C   UNL     1      10.403  72.867   5.658  1.00  0.00     0.232 C 
ATOM      4  O   UNL     1       9.546  73.872   5.116  1.00  0.00    -0.482 OA
ATOM      5  C   UNL     1       9.956  75.201   4.967  1.00  0.00     0.131 A 
ATOM      6  C   UNL     1       9.010  76.165   4.608  1.00  0.00     0.093 A 
ATOM      7  C   UNL     1       9.384  77.502   4.467  1.00  0.00     0.122 A 
ATOM      8  C   UNL     1      10.712  77.880   4.695  1.00  0.00     0.092 A 
ATOM      9  C   UNL     1      11.673  76.927   5.055  1.00  0.00     0.126 A 
ATOM     10  C   UNL     1      11.306  75.564   5.156  1.00  0.00     0.039 A 
ENDROOT
BRANCH   2  11
ATOM     11  O   UNL     1      12.692  72.126   5.735  1.00  0.00    -0.389 OA
ATOM     12  H   UNL     1      12.150  71.306   5.875  1.00  0.00     0.211 HD
ENDBRANCH   2  11
BRANCH   3  13
ATOM     13  C   UNL     1       9.887  71.499   5.276  1.00  0.00    -0.001 A 
ATOM     14  C   UNL     1      10.247  70.926   4.046  1.00  0.00     0.057 A 
ATOM     15  C   UNL     1       9.004  70.808   6.120  1.00  0.00     0.012 A 
ATOM     16  C   UNL     1       9.754  69.672   3.665  1.00  0.00     0.157 A 
ATOM     17  C   UNL     1       8.508  69.557   5.749  1.00  0.00     0.050 A 
ATOM     18  C   UNL     1       8.875  68.977   4.529  1.00  0.00     0.157 A 
BRANCH  16  19
ATOM     19  O   UNL     1      10.157  69.160   2.430  1.00  0.00    -0.504 OA
ATOM     20  H   UNL     1       9.782  69.463   1.543  1.00  0.00     0.293 HD
ENDBRANCH  16  19
BRANCH  18  21
ATOM     21  O   UNL     1       8.345  67.722   4.220  1.00  0.00    -0.504 OA
ATOM     22  H   UNL     1       8.261  67.362   3.280  1.00  0.00     0.293 HD
ENDBRANCH  18  21
ENDBRANCH   3  13
BRANCH   9  23
ATOM     23  O   UNL     1      12.972  77.371   5.314  1.00  0.00    -0.507 OA
ATOM     24  H   UNL     1      13.201  78.013   6.063  1.00  0.00     0.293 HD
ENDBRANCH   9  23
BRANCH   7  25
ATOM     25  O   UNL     1       8.428  78.450   4.107  1.00  0.00    -0.508 OA
ATOM     26  H   UNL     1       8.188  78.619   3.137  1.00  0.00     0.293 HD
ENDBRANCH   7  25
TORSDOF 6
ENDMDL
MODEL 4
REMARK VINA RESULT:    40.624      4.744      9.319
REMARK INTER + INTRA:          48.923
REMARK INTER:                  49.263
REMARK INTRA:                  -0.339
REMARK UNBOUND:                -0.014
REMARK SMILES Oc1cc(O)c2c(c1)O[C@@H](c1ccc(O)c(O)c1)[C@H](O)C2
REMARK SMILES IDX 21 1 19 2 10 3 9 4 7 5 8 6 2 7 3 8 4 9 6 10 20 11 11 13
REMARK SMILES IDX 18 14 12 15 16 16 13 17 14 18 17 19 15 21 5 23 1 25
REMARK H PARENT 20 12 17 20 15 22 5 24 1 26
REMARK Flexibility Score: inf
ROOT
ATOM      1  C   UNL     1       8.957  73.356   5.141  1.00  0.00     0.079 C 
ATOM      2  C   UNL     1       9.642  74.700   4.829  1.00  0.00     0.164 C 
ATOM      3  C   UNL     1      10.894  74.864   5.706  1.00  0.00     0.232 C 
ATOM      4  O   UNL     1      11.775  73.759   5.505  1.00  0.00    -0.482 OA
ATOM      5  C   UNL     1      11.307  72.451   5.340  1.00  0.00     0.131 A 
ATOM      6  C   UNL     1      12.226  71.399   5.337  1.00  0.00     0.093 A 
ATOM      7  C   UNL     1      11.788  70.081   5.190  1.00  0.00     0.122 A 
ATOM      8  C   UNL     1      10.421  69.814   5.054  1.00  0.00     0.092 A 
ATOM      9  C   UNL     1       9.487  70.857   5.055  1.00  0.00     0.126 A 
ATOM     10  C   UNL     1       9.931  72.197   5.160  1.00  0.00     0.039 A 
ENDROOT
BRANCH   2  11
ATOM     11  O   UNL     1       8.750  75.757   5.071  1.00  0.00    -0.389 OA
ATOM     12  H   UNL     1       9.102  76.545   4.580  1.00  0.00     0.211 HD
ENDBRANCH   2  11
BRANCH   3  13
ATOM     13  C   UNL     1      11.616  76.154   5.391  1.00  0.00    -0.001 A 
ATOM     14  C   UNL     1      11.924  77.061   6.417  1.00  0.00     0.057 A 
ATOM     15  C   UNL     1      11.945  76.482   4.067  1.00  0.00     0.012 A 
ATOM     16  C   UNL     1      12.568  78.273   6.137  1.00  0.00     0.157 A 
ATOM     17  C   UNL     1      12.587  77.687   3.778  1.00  0.00     0.050 A 
ATOM     18  C   UNL     1      12.907  78.589   4.799  1.00  0.00     0.157 A 
BRANCH  16  19
ATOM     19  O   UNL     1      12.847  79.126   7.206  1.00  0.00    -0.504 OA
ATOM     20  H   UNL     1      12.541  80.086   7.257  1.00  0.00     0.293 HD
ENDBRANCH  16  19
BRANCH  18  21
ATOM     21  O   UNL     1      13.552  79.775   4.443  1.00  0.00    -0.504 OA
ATOM     22  H   UNL     1      14.481  80.025   4.749  1.00  0.00     0.293 HD
ENDBRANCH  18  21
ENDBRANCH   3  13
BRANCH   9  23
ATOM     23  O   UNL     1       8.133  70.525   4.963  1.00  0.00    -0.507 OA
ATOM     24  H   UNL     1       7.700  70.190   4.112  1.00  0.00     0.293 HD
ENDBRANCH   9  23
BRANCH   7  25
ATOM     25  O   UNL     1      12.719  69.044   5.187  1.00  0.00    -0.508 OA
ATOM     26  H   UNL     1      13.711  69.222   5.286  1.00  0.00     0.293 HD
ENDBRANCH   7  25
TORSDOF 6
ENDMDL
