MODEL 1
REMARK VINA RESULT:    -4.983      0.000      0.000
REMARK INTER + INTRA:          -4.983
REMARK INTER:                  -4.983
REMARK INTRA:                   0.000
REMARK UNBOUND:                 0.000
REMARK SMILES CC(C)=C1CC[C@H](C)CC1=O
REMARK SMILES IDX 8 1 7 2 6 3 5 4 4 5 2 6 1 7 3 8 10 9 11 10 9 11
REMARK H PARENT
REMARK Flexibility Score: inf
ROOT
ATOM      1  C   UNL     1     -23.977  14.420 -31.246  1.00  0.00     0.008 C 
ATOM      2  C   UNL     1     -25.084  13.398 -30.964  1.00  0.00    -0.006 C 
ATOM      3  C   UNL     1     -24.751  12.570 -29.713  1.00  0.00     0.008 C 
ATOM      4  C   UNL     1     -25.797  11.474 -29.474  1.00  0.00     0.039 C 
ATOM      5  C   UNL     1     -27.218  12.018 -29.453  1.00  0.00    -0.006 C 
ATOM      6  C   UNL     1     -28.186  11.448 -28.675  1.00  0.00    -0.070 C 
ATOM      7  C   UNL     1     -27.889  10.240 -27.816  1.00  0.00     0.039 C 
ATOM      8  C   UNL     1     -29.585  12.014 -28.603  1.00  0.00     0.039 C 
ATOM      9  C   UNL     1     -27.511  13.125 -30.412  1.00  0.00     0.159 C 
ATOM     10  O   UNL     1     -28.651  13.258 -30.931  1.00  0.00    -0.295 OA
ATOM     11  C   UNL     1     -26.435  14.105 -30.781  1.00  0.00     0.084 C 
ENDROOT
TORSDOF 0
ENDMDL
MODEL 2
REMARK VINA RESULT:    -4.827      1.832      2.619
REMARK INTER + INTRA:          -4.827
REMARK INTER:                  -4.827
REMARK INTRA:                   0.000
REMARK UNBOUND:                 0.000
REMARK SMILES CC(C)=C1CC[C@H](C)CC1=O
REMARK SMILES IDX 8 1 7 2 6 3 5 4 4 5 2 6 1 7 3 8 10 9 11 10 9 11
REMARK H PARENT
REMARK Flexibility Score: inf
ROOT
ATOM      1  C   UNL     1     -23.499  13.484 -30.504  1.00  0.00     0.008 C 
ATOM      2  C   UNL     1     -24.918  13.113 -30.060  1.00  0.00    -0.006 C 
ATOM      3  C   UNL     1     -25.962  13.883 -30.884  1.00  0.00     0.008 C 
ATOM      4  C   UNL     1     -27.385  13.601 -30.385  1.00  0.00     0.039 C 
ATOM      5  C   UNL     1     -27.690  12.112 -30.300  1.00  0.00    -0.006 C 
ATOM      6  C   UNL     1     -28.951  11.633 -30.514  1.00  0.00    -0.070 C 
ATOM      7  C   UNL     1     -30.101  12.564 -30.825  1.00  0.00     0.039 C 
ATOM      8  C   UNL     1     -29.254  10.152 -30.489  1.00  0.00     0.039 C 
ATOM      9  C   UNL     1     -26.564  11.236 -29.860  1.00  0.00     0.159 C 
ATOM     10  O   UNL     1     -26.772  10.187 -29.195  1.00  0.00    -0.295 OA
ATOM     11  C   UNL     1     -25.148  11.601 -30.203  1.00  0.00     0.084 C 
ENDROOT
TORSDOF 0
ENDMDL
MODEL 3
REMARK VINA RESULT:    -4.800      1.673      3.288
REMARK INTER + INTRA:          -4.800
REMARK INTER:                  -4.800
REMARK INTRA:                   0.000
REMARK UNBOUND:                 0.000
REMARK SMILES CC(C)=C1CC[C@H](C)CC1=O
REMARK SMILES IDX 8 1 7 2 6 3 5 4 4 5 2 6 1 7 3 8 10 9 11 10 9 11
REMARK H PARENT
REMARK Flexibility Score: inf
ROOT
ATOM      1  C   UNL     1     -24.340   9.897 -28.571  1.00  0.00     0.008 C 
ATOM      2  C   UNL     1     -25.370  11.021 -28.729  1.00  0.00    -0.006 C 
ATOM      3  C   UNL     1     -25.081  11.844 -29.995  1.00  0.00     0.008 C 
ATOM      4  C   UNL     1     -26.040  13.036 -30.116  1.00  0.00     0.039 C 
ATOM      5  C   UNL     1     -27.501  12.623 -30.008  1.00  0.00    -0.006 C 
ATOM      6  C   UNL     1     -28.480  13.296 -30.681  1.00  0.00    -0.070 C 
ATOM      7  C   UNL     1     -28.155  14.492 -31.547  1.00  0.00     0.039 C 
ATOM      8  C   UNL     1     -29.927  12.861 -30.627  1.00  0.00     0.039 C 
ATOM      9  C   UNL     1     -27.803  11.525 -29.042  1.00  0.00     0.159 C 
ATOM     10  O   UNL     1     -28.896  11.484 -28.418  1.00  0.00    -0.295 OA
ATOM     11  C   UNL     1     -26.792  10.443 -28.793  1.00  0.00     0.084 C 
ENDROOT
TORSDOF 0
ENDMDL
MODEL 4
REMARK VINA RESULT:    -4.755      9.999     12.072
REMARK INTER + INTRA:          -4.755
REMARK INTER:                  -4.755
REMARK INTRA:                   0.000
REMARK UNBOUND:                 0.000
REMARK SMILES CC(C)=C1CC[C@H](C)CC1=O
REMARK SMILES IDX 8 1 7 2 6 3 5 4 4 5 2 6 1 7 3 8 10 9 11 10 9 11
REMARK H PARENT
REMARK Flexibility Score: inf
ROOT
ATOM      1  C   UNL     1     -11.499  13.868 -32.105  1.00  0.00     0.008 C 
ATOM      2  C   UNL     1     -13.001  13.610 -31.946  1.00  0.00    -0.006 C 
ATOM      3  C   UNL     1     -13.262  12.136 -31.595  1.00  0.00     0.008 C 
ATOM      4  C   UNL     1     -14.766  11.835 -31.532  1.00  0.00     0.039 C 
ATOM      5  C   UNL     1     -15.515  12.795 -30.619  1.00  0.00    -0.006 C 
ATOM      6  C   UNL     1     -16.618  12.395 -29.920  1.00  0.00    -0.070 C 
ATOM      7  C   UNL     1     -17.152  10.986 -30.040  1.00  0.00     0.039 C 
ATOM      8  C   UNL     1     -17.337  13.322 -28.967  1.00  0.00     0.039 C 
ATOM      9  C   UNL     1     -15.043  14.212 -30.627  1.00  0.00     0.159 C 
ATOM     10  O   UNL     1     -15.841  15.170 -30.446  1.00  0.00    -0.295 OA
ATOM     11  C   UNL     1     -13.592  14.520 -30.858  1.00  0.00     0.084 C 
ENDROOT
TORSDOF 0
ENDMDL
MODEL 5
REMARK VINA RESULT:    -4.596      1.772      3.541
REMARK INTER + INTRA:          -4.596
REMARK INTER:                  -4.596
REMARK INTRA:                   0.000
REMARK UNBOUND:                 0.000
REMARK SMILES CC(C)=C1CC[C@H](C)CC1=O
REMARK SMILES IDX 8 1 7 2 6 3 5 4 4 5 2 6 1 7 3 8 10 9 11 10 9 11
REMARK H PARENT
REMARK Flexibility Score: inf
ROOT
ATOM      1  C   UNL     1     -25.218   9.876 -27.354  1.00  0.00     0.008 C 
ATOM      2  C   UNL     1     -26.026  10.395 -28.547  1.00  0.00    -0.006 C 
ATOM      3  C   UNL     1     -27.510  10.544 -28.172  1.00  0.00     0.008 C 
ATOM      4  C   UNL     1     -28.352  10.966 -29.383  1.00  0.00     0.039 C 
ATOM      5  C   UNL     1     -27.798  12.202 -30.077  1.00  0.00    -0.006 C 
ATOM      6  C   UNL     1     -28.622  13.097 -30.698  1.00  0.00    -0.070 C 
ATOM      7  C   UNL     1     -30.119  12.887 -30.737  1.00  0.00     0.039 C 
ATOM      8  C   UNL     1     -28.089  14.357 -31.341  1.00  0.00     0.039 C 
ATOM      9  C   UNL     1     -26.310  12.310 -30.137  1.00  0.00     0.159 C 
ATOM     10  O   UNL     1     -25.731  12.866 -31.108  1.00  0.00    -0.295 OA
ATOM     11  C   UNL     1     -25.470  11.744 -29.028  1.00  0.00     0.084 C 
ENDROOT
TORSDOF 0
ENDMDL
MODEL 6
REMARK VINA RESULT:    -4.517     10.396     12.587
REMARK INTER + INTRA:          -4.517
REMARK INTER:                  -4.517
REMARK INTRA:                   0.000
REMARK UNBOUND:                 0.000
REMARK SMILES CC(C)=C1CC[C@H](C)CC1=O
REMARK SMILES IDX 8 1 7 2 6 3 5 4 4 5 2 6 1 7 3 8 10 9 11 10 9 11
REMARK H PARENT
REMARK Flexibility Score: inf
ROOT
ATOM      1  C   UNL     1     -11.721  14.003 -32.820  1.00  0.00     0.008 C 
ATOM      2  C   UNL     1     -12.640  13.719 -31.627  1.00  0.00    -0.006 C 
ATOM      3  C   UNL     1     -13.901  14.596 -31.695  1.00  0.00     0.008 C 
ATOM      4  C   UNL     1     -14.785  14.400 -30.456  1.00  0.00     0.039 C 
ATOM      5  C   UNL     1     -15.105  12.935 -30.194  1.00  0.00    -0.006 C 
ATOM      6  C   UNL     1     -16.289  12.558 -29.627  1.00  0.00    -0.070 C 
ATOM      7  C   UNL     1     -17.323  13.582 -29.218  1.00  0.00     0.039 C 
ATOM      8  C   UNL     1     -16.642  11.103 -29.415  1.00  0.00     0.039 C 
ATOM      9  C   UNL     1     -14.011  11.962 -30.485  1.00  0.00     0.159 C 
ATOM     10  O   UNL     1     -13.878  10.904 -29.813  1.00  0.00    -0.295 OA
ATOM     11  C   UNL     1     -13.036  12.235 -31.594  1.00  0.00     0.084 C 
ENDROOT
TORSDOF 0
ENDMDL
MODEL 7
REMARK VINA RESULT:    -4.466      8.567     10.420
REMARK INTER + INTRA:          -4.466
REMARK INTER:                  -4.466
REMARK INTRA:                   0.000
REMARK UNBOUND:                 0.000
REMARK SMILES CC(C)=C1CC[C@H](C)CC1=O
REMARK SMILES IDX 8 1 7 2 6 3 5 4 4 5 2 6 1 7 3 8 10 9 11 10 9 11
REMARK H PARENT
REMARK Flexibility Score: inf
ROOT
ATOM      1  C   UNL     1     -13.357  14.265 -30.865  1.00  0.00     0.008 C 
ATOM      2  C   UNL     1     -14.451  13.197 -30.971  1.00  0.00    -0.006 C 
ATOM      3  C   UNL     1     -14.568  12.411 -29.655  1.00  0.00     0.008 C 
ATOM      4  C   UNL     1     -15.587  11.270 -29.775  1.00  0.00     0.039 C 
ATOM      5  C   UNL     1     -16.937  11.746 -30.294  1.00  0.00    -0.006 C 
ATOM      6  C   UNL     1     -18.100  11.145 -29.903  1.00  0.00    -0.070 C 
ATOM      7  C   UNL     1     -18.092   9.969 -28.953  1.00  0.00     0.039 C 
ATOM      8  C   UNL     1     -19.449  11.644 -30.368  1.00  0.00     0.039 C 
ATOM      9  C   UNL     1     -16.900  12.818 -31.333  1.00  0.00     0.159 C 
ATOM     10  O   UNL     1     -17.774  12.886 -32.237  1.00  0.00    -0.295 OA
ATOM     11  C   UNL     1     -15.801  13.842 -31.318  1.00  0.00     0.084 C 
ENDROOT
TORSDOF 0
ENDMDL
MODEL 8
REMARK VINA RESULT:    -4.463      9.274     11.293
REMARK INTER + INTRA:          -4.463
REMARK INTER:                  -4.463
REMARK INTRA:                   0.000
REMARK UNBOUND:                 0.000
REMARK SMILES CC(C)=C1CC[C@H](C)CC1=O
REMARK SMILES IDX 8 1 7 2 6 3 5 4 4 5 2 6 1 7 3 8 10 9 11 10 9 11
REMARK H PARENT
REMARK Flexibility Score: inf
ROOT
ATOM      1  C   UNL     1     -12.932  13.254 -32.828  1.00  0.00     0.008 C 
ATOM      2  C   UNL     1     -14.200  13.173 -31.971  1.00  0.00    -0.006 C 
ATOM      3  C   UNL     1     -15.377  12.630 -32.796  1.00  0.00     0.008 C 
ATOM      4  C   UNL     1     -16.679  12.638 -31.984  1.00  0.00     0.039 C 
ATOM      5  C   UNL     1     -16.533  11.936 -30.642  1.00  0.00    -0.006 C 
ATOM      6  C   UNL     1     -17.581  11.272 -30.071  1.00  0.00    -0.070 C 
ATOM      7  C   UNL     1     -18.936  11.223 -30.740  1.00  0.00     0.039 C 
ATOM      8  C   UNL     1     -17.433  10.523 -28.766  1.00  0.00     0.039 C 
ATOM      9  C   UNL     1     -15.225  12.116 -29.945  1.00  0.00     0.159 C 
ATOM     10  O   UNL     1     -15.149  12.140 -28.688  1.00  0.00    -0.295 OA
ATOM     11  C   UNL     1     -13.964  12.280 -30.743  1.00  0.00     0.084 C 
ENDROOT
TORSDOF 0
ENDMDL
MODEL 9
REMARK VINA RESULT:    -4.456      1.791      4.652
REMARK INTER + INTRA:          -4.456
REMARK INTER:                  -4.456
REMARK INTRA:                   0.000
REMARK UNBOUND:                 0.000
REMARK SMILES CC(C)=C1CC[C@H](C)CC1=O
REMARK SMILES IDX 8 1 7 2 6 3 5 4 4 5 2 6 1 7 3 8 10 9 11 10 9 11
REMARK H PARENT
REMARK Flexibility Score: inf
ROOT
ATOM      1  C   UNL     1     -27.846   9.875 -27.479  1.00  0.00     0.008 C 
ATOM      2  C   UNL     1     -27.247  10.671 -28.643  1.00  0.00    -0.006 C 
ATOM      3  C   UNL     1     -27.839  12.089 -28.691  1.00  0.00     0.008 C 
ATOM      4  C   UNL     1     -27.327  12.867 -29.910  1.00  0.00     0.039 C 
ATOM      5  C   UNL     1     -25.808  12.864 -30.007  1.00  0.00    -0.006 C 
ATOM      6  C   UNL     1     -25.129  13.922 -30.543  1.00  0.00    -0.070 C 
ATOM      7  C   UNL     1     -25.861  15.132 -31.078  1.00  0.00     0.039 C 
ATOM      8  C   UNL     1     -23.619  13.956 -30.593  1.00  0.00     0.039 C 
ATOM      9  C   UNL     1     -25.125  11.602 -29.594  1.00  0.00     0.159 C 
ATOM     10  O   UNL     1     -24.053  11.227 -30.140  1.00  0.00    -0.295 OA
ATOM     11  C   UNL     1     -25.718  10.746 -28.512  1.00  0.00     0.084 C 
ENDROOT
TORSDOF 0
ENDMDL
