MODEL 1
REMARK VINA RESULT:    -4.549      0.000      0.000
REMARK INTER + INTRA:          -5.013
REMARK INTER:                  -4.815
REMARK INTRA:                  -0.198
REMARK UNBOUND:                -0.198
REMARK SMILES C=C(C)[C@@H]1CC=C(C)C(=O)C1
REMARK SMILES IDX 8 1 7 2 6 3 5 4 4 5 11 6 9 7 10 8 2 9 1 10 3 11
REMARK H PARENT
REMARK Flexibility Score: inf
ROOT
ATOM      1  C   UNL     1      13.473  -9.851  12.669  1.00  0.00     0.048 C 
ATOM      2  C   UNL     1      14.926  -9.517  12.477  1.00  0.00    -0.012 C 
ATOM      3  C   UNL     1      15.306  -8.235  12.378  1.00  0.00    -0.019 C 
ATOM      4  C   UNL     1      16.737  -7.830  12.152  1.00  0.00     0.036 C 
ATOM      5  C   UNL     1      17.760  -8.829  12.736  1.00  0.00     0.025 C 
ATOM      6  C   UNL     1      17.406 -10.287  12.376  1.00  0.00     0.089 C 
ATOM      7  C   UNL     1      15.944 -10.591  12.552  1.00  0.00     0.158 C 
ATOM      8  O   UNL     1      15.588 -11.787  12.727  1.00  0.00    -0.295 OA
ENDROOT
BRANCH   5   9
ATOM      9  C   UNL     1      18.005  -8.622  14.232  1.00  0.00    -0.077 C 
ATOM     10  C   UNL     1      18.542  -9.576  15.010  1.00  0.00     0.008 C 
ATOM     11  C   UNL     1      17.638  -7.308  14.876  1.00  0.00     0.039 C 
ENDBRANCH   5   9
TORSDOF 1
ENDMDL
MODEL 2
REMARK VINA RESULT:    -4.340      2.142      4.169
REMARK INTER + INTRA:          -4.792
REMARK INTER:                  -4.575
REMARK INTRA:                  -0.217
REMARK UNBOUND:                -0.198
REMARK SMILES C=C(C)[C@@H]1CC=C(C)C(=O)C1
REMARK SMILES IDX 8 1 7 2 6 3 5 4 4 5 11 6 9 7 10 8 2 9 1 10 3 11
REMARK H PARENT
REMARK Flexibility Score: inf
ROOT
ATOM      1  C   UNL     1      17.278  -6.535  15.963  1.00  0.00     0.048 C 
ATOM      2  C   UNL     1      17.116  -6.984  14.537  1.00  0.00    -0.012 C 
ATOM      3  C   UNL     1      17.949  -7.905  14.032  1.00  0.00    -0.019 C 
ATOM      4  C   UNL     1      17.866  -8.376  12.605  1.00  0.00     0.036 C 
ATOM      5  C   UNL     1      16.440  -8.313  12.018  1.00  0.00     0.025 C 
ATOM      6  C   UNL     1      15.753  -6.967  12.325  1.00  0.00     0.089 C 
ATOM      7  C   UNL     1      15.948  -6.525  13.749  1.00  0.00     0.158 C 
ATOM      8  O   UNL     1      15.122  -5.720  14.256  1.00  0.00    -0.295 OA
ENDROOT
BRANCH   5   9
ATOM      9  C   UNL     1      15.586  -9.524  12.400  1.00  0.00    -0.077 C 
ATOM     10  C   UNL     1      14.258  -9.437  12.584  1.00  0.00     0.008 C 
ATOM     11  C   UNL     1      16.237 -10.873  12.581  1.00  0.00     0.039 C 
ENDBRANCH   5   9
TORSDOF 1
ENDMDL
MODEL 3
REMARK VINA RESULT:    -4.248      2.053      3.177
REMARK INTER + INTRA:          -4.695
REMARK INTER:                  -4.513
REMARK INTRA:                  -0.182
REMARK UNBOUND:                -0.198
REMARK SMILES C=C(C)[C@@H]1CC=C(C)C(=O)C1
REMARK SMILES IDX 8 1 7 2 6 3 5 4 4 5 11 6 9 7 10 8 2 9 1 10 3 11
REMARK H PARENT
REMARK Flexibility Score: inf
ROOT
ATOM      1  C   UNL     1      14.759  -5.731  14.867  1.00  0.00     0.048 C 
ATOM      2  C   UNL     1      15.789  -6.335  13.953  1.00  0.00    -0.012 C 
ATOM      3  C   UNL     1      17.090  -6.242  14.264  1.00  0.00    -0.019 C 
ATOM      4  C   UNL     1      18.175  -6.794  13.380  1.00  0.00     0.036 C 
ATOM      5  C   UNL     1      17.731  -8.018  12.551  1.00  0.00     0.025 C 
ATOM      6  C   UNL     1      16.363  -7.787  11.876  1.00  0.00     0.089 C 
ATOM      7  C   UNL     1      15.357  -7.160  12.800  1.00  0.00     0.158 C 
ATOM      8  O   UNL     1      14.130  -7.312  12.557  1.00  0.00    -0.295 OA
ENDROOT
BRANCH   5   9
ATOM      9  C   UNL     1      17.798  -9.327  13.341  1.00  0.00    -0.077 C 
ATOM     10  C   UNL     1      18.511  -9.446  14.473  1.00  0.00     0.008 C 
ATOM     11  C   UNL     1      17.043 -10.537  12.850  1.00  0.00     0.039 C 
ENDBRANCH   5   9
TORSDOF 1
ENDMDL
MODEL 4
REMARK VINA RESULT:    -4.115      2.047      4.195
REMARK INTER + INTRA:          -4.554
REMARK INTER:                  -4.421
REMARK INTRA:                  -0.133
REMARK UNBOUND:                -0.198
REMARK SMILES C=C(C)[C@@H]1CC=C(C)C(=O)C1
REMARK SMILES IDX 8 1 7 2 6 3 5 4 4 5 11 6 9 7 10 8 2 9 1 10 3 11
REMARK H PARENT
REMARK Flexibility Score: inf
ROOT
ATOM      1  C   UNL     1      18.697  -9.654  15.213  1.00  0.00     0.048 C 
ATOM      2  C   UNL     1      18.061  -8.736  14.207  1.00  0.00    -0.012 C 
ATOM      3  C   UNL     1      17.842  -9.168  12.957  1.00  0.00    -0.019 C 
ATOM      4  C   UNL     1      17.240  -8.293  11.891  1.00  0.00     0.036 C 
ATOM      5  C   UNL     1      16.282  -7.217  12.446  1.00  0.00     0.025 C 
ATOM      6  C   UNL     1      16.888  -6.483  13.660  1.00  0.00     0.089 C 
ATOM      7  C   UNL     1      17.540  -7.417  14.640  1.00  0.00     0.158 C 
ATOM      8  O   UNL     1      17.676  -7.048  15.837  1.00  0.00    -0.295 OA
ENDROOT
BRANCH   5   9
ATOM      9  C   UNL     1      14.875  -7.754  12.709  1.00  0.00    -0.077 C 
ATOM     10  C   UNL     1      13.938  -7.031  13.347  1.00  0.00     0.008 C 
ATOM     11  C   UNL     1      14.503  -9.141  12.246  1.00  0.00     0.039 C 
ENDBRANCH   5   9
TORSDOF 1
ENDMDL
MODEL 5
REMARK VINA RESULT:    -4.051      1.913      2.880
REMARK INTER + INTRA:          -4.486
REMARK INTER:                  -4.271
REMARK INTRA:                  -0.215
REMARK UNBOUND:                -0.198
REMARK SMILES C=C(C)[C@@H]1CC=C(C)C(=O)C1
REMARK SMILES IDX 8 1 7 2 6 3 5 4 4 5 11 6 9 7 10 8 2 9 1 10 3 11
REMARK H PARENT
REMARK Flexibility Score: inf
ROOT
ATOM      1  C   UNL     1      16.110 -10.626  12.600  1.00  0.00     0.048 C 
ATOM      2  C   UNL     1      16.492  -9.172  12.629  1.00  0.00    -0.012 C 
ATOM      3  C   UNL     1      15.640  -8.251  12.155  1.00  0.00    -0.019 C 
ATOM      4  C   UNL     1      15.971  -6.784  12.123  1.00  0.00     0.036 C 
ATOM      5  C   UNL     1      16.937  -6.345  13.244  1.00  0.00     0.025 C 
ATOM      6  C   UNL     1      18.138  -7.305  13.373  1.00  0.00     0.089 C 
ATOM      7  C   UNL     1      17.736  -8.752  13.317  1.00  0.00     0.158 C 
ATOM      8  O   UNL     1      18.495  -9.616  13.832  1.00  0.00    -0.295 OA
ENDROOT
BRANCH   5   9
ATOM      9  C   UNL     1      16.227  -6.090  14.575  1.00  0.00    -0.077 C 
ATOM     10  C   UNL     1      14.932  -5.736  14.641  1.00  0.00     0.008 C 
ATOM     11  C   UNL     1      16.987  -6.235  15.870  1.00  0.00     0.039 C 
ENDBRANCH   5   9
TORSDOF 1
ENDMDL
MODEL 6
REMARK VINA RESULT:    -3.669      2.192      3.729
REMARK INTER + INTRA:          -4.082
REMARK INTER:                  -4.035
REMARK INTRA:                  -0.047
REMARK UNBOUND:                -0.198
REMARK SMILES C=C(C)[C@@H]1CC=C(C)C(=O)C1
REMARK SMILES IDX 8 1 7 2 6 3 5 4 4 5 11 6 9 7 10 8 2 9 1 10 3 11
REMARK H PARENT
REMARK Flexibility Score: inf
ROOT
ATOM      1  C   UNL     1      18.492  -9.597  15.241  1.00  0.00     0.048 C 
ATOM      2  C   UNL     1      17.883  -8.446  14.488  1.00  0.00    -0.012 C 
ATOM      3  C   UNL     1      17.750  -7.255  15.089  1.00  0.00    -0.019 C 
ATOM      4  C   UNL     1      17.120  -6.071  14.408  1.00  0.00     0.036 C 
ATOM      5  C   UNL     1      17.300  -6.074  12.875  1.00  0.00     0.025 C 
ATOM      6  C   UNL     1      16.979  -7.453  12.264  1.00  0.00     0.089 C 
ATOM      7  C   UNL     1      17.576  -8.590  13.045  1.00  0.00     0.158 C 
ATOM      8  O   UNL     1      17.779  -9.689  12.464  1.00  0.00    -0.295 OA
ENDROOT
BRANCH   5   9
ATOM      9  C   UNL     1      18.658  -5.523  12.435  1.00  0.00    -0.077 C 
ATOM     10  C   UNL     1      19.600  -6.300  11.875  1.00  0.00     0.008 C 
ATOM     11  C   UNL     1      18.971  -4.060  12.626  1.00  0.00     0.039 C 
ENDBRANCH   5   9
TORSDOF 1
ENDMDL
MODEL 7
REMARK VINA RESULT:    -3.392      2.589      3.431
REMARK INTER + INTRA:          -3.788
REMARK INTER:                  -3.748
REMARK INTRA:                  -0.040
REMARK UNBOUND:                -0.198
REMARK SMILES C=C(C)[C@@H]1CC=C(C)C(=O)C1
REMARK SMILES IDX 8 1 7 2 6 3 5 4 4 5 11 6 9 7 10 8 2 9 1 10 3 11
REMARK H PARENT
REMARK Flexibility Score: inf
ROOT
ATOM      1  C   UNL     1      14.019  -7.999  12.053  1.00  0.00     0.048 C 
ATOM      2  C   UNL     1      15.366  -7.840  12.703  1.00  0.00    -0.012 C 
ATOM      3  C   UNL     1      16.414  -8.537  12.241  1.00  0.00    -0.019 C 
ATOM      4  C   UNL     1      17.780  -8.453  12.863  1.00  0.00     0.036 C 
ATOM      5  C   UNL     1      18.073  -7.089  13.524  1.00  0.00     0.025 C 
ATOM      6  C   UNL     1      16.899  -6.616  14.406  1.00  0.00     0.089 C 
ATOM      7  C   UNL     1      15.562  -6.806  13.747  1.00  0.00     0.158 C 
ATOM      8  O   UNL     1      14.591  -6.097  14.123  1.00  0.00    -0.295 OA
ENDROOT
BRANCH   5   9
ATOM      9  C   UNL     1      18.535  -6.030  12.521  1.00  0.00    -0.077 C 
ATOM     10  C   UNL     1      19.710  -6.117  11.875  1.00  0.00     0.008 C 
ATOM     11  C   UNL     1      17.657  -4.838  12.232  1.00  0.00     0.039 C 
ENDBRANCH   5   9
TORSDOF 1
ENDMDL
MODEL 8
REMARK VINA RESULT:    -3.171      3.292      4.452
REMARK INTER + INTRA:          -3.555
REMARK INTER:                  -3.753
REMARK INTRA:                   0.198
REMARK UNBOUND:                -0.198
REMARK SMILES C=C(C)[C@@H]1CC=C(C)C(=O)C1
REMARK SMILES IDX 8 1 7 2 6 3 5 4 4 5 11 6 9 7 10 8 2 9 1 10 3 11
REMARK H PARENT
REMARK Flexibility Score: inf
ROOT
ATOM      1  C   UNL     1      13.197  -4.722  14.405  1.00  0.00     0.048 C 
ATOM      2  C   UNL     1      14.621  -5.143  14.171  1.00  0.00    -0.012 C 
ATOM      3  C   UNL     1      15.305  -5.750  15.151  1.00  0.00    -0.019 C 
ATOM      4  C   UNL     1      16.742  -6.168  14.997  1.00  0.00     0.036 C 
ATOM      5  C   UNL     1      17.131  -6.513  13.544  1.00  0.00     0.025 C 
ATOM      6  C   UNL     1      16.627  -5.448  12.548  1.00  0.00     0.089 C 
ATOM      7  C   UNL     1      15.210  -5.024  12.816  1.00  0.00     0.158 C 
ATOM      8  O   UNL     1      14.535  -4.525  11.876  1.00  0.00    -0.295 OA
ENDROOT
BRANCH   5   9
ATOM      9  C   UNL     1      16.741  -7.938  13.146  1.00  0.00    -0.077 C 
ATOM     10  C   UNL     1      15.476  -8.281  12.854  1.00  0.00     0.008 C 
ATOM     11  C   UNL     1      17.799  -9.011  13.074  1.00  0.00     0.039 C 
ENDBRANCH   5   9
TORSDOF 1
ENDMDL
MODEL 9
REMARK VINA RESULT:    -3.115      3.125      4.173
REMARK INTER + INTRA:          -3.496
REMARK INTER:                  -3.671
REMARK INTRA:                   0.175
REMARK UNBOUND:                -0.198
REMARK SMILES C=C(C)[C@@H]1CC=C(C)C(=O)C1
REMARK SMILES IDX 8 1 7 2 6 3 5 4 4 5 11 6 9 7 10 8 2 9 1 10 3 11
REMARK H PARENT
REMARK Flexibility Score: inf
ROOT
ATOM      1  C   UNL     1      14.128  -5.398  14.739  1.00  0.00     0.048 C 
ATOM      2  C   UNL     1      15.269  -6.174  14.143  1.00  0.00    -0.012 C 
ATOM      3  C   UNL     1      15.197  -6.591  12.870  1.00  0.00    -0.019 C 
ATOM      4  C   UNL     1      16.286  -7.400  12.220  1.00  0.00     0.036 C 
ATOM      5  C   UNL     1      17.691  -7.114  12.792  1.00  0.00     0.025 C 
ATOM      6  C   UNL     1      17.689  -7.102  14.335  1.00  0.00     0.089 C 
ATOM      7  C   UNL     1      16.527  -6.341  14.910  1.00  0.00     0.158 C 
ATOM      8  O   UNL     1      16.620  -5.877  16.077  1.00  0.00    -0.295 OA
ENDROOT
BRANCH   5   9
ATOM      9  C   UNL     1      18.339  -5.870  12.182  1.00  0.00    -0.077 C 
ATOM     10  C   UNL     1      17.638  -4.759  11.903  1.00  0.00     0.008 C 
ATOM     11  C   UNL     1      19.816  -5.869  11.875  1.00  0.00     0.039 C 
ENDBRANCH   5   9
TORSDOF 1
ENDMDL
