MODEL 1
REMARK VINA RESULT:    -2.881      0.000      0.000
REMARK INTER + INTRA:          -3.400
REMARK INTER:                  -3.386
REMARK INTRA:                  -0.013
REMARK UNBOUND:                -0.013
REMARK SMILES O=c1c(O)c(-c2ccc(O)cc2)oc2cc(O)cc(O)c12
REMARK SMILES IDX 5 1 3 2 2 3 1 4 21 5 19 6 18 7 16 8 15 9 14 10 13 11 6 12
REMARK SMILES IDX 7 13 8 14 9 15 12 16 11 17 10 18 4 20 20 22 17 24
REMARK H PARENT 10 19 4 21 20 23 17 25
REMARK Flexibility Score: inf
ROOT
ATOM      1  C   UNL     1      20.545 -15.092   2.837  1.00  0.00     0.180 A 
ATOM      2  C   UNL     1      20.350 -14.306   1.684  1.00  0.00     0.208 A 
ATOM      3  C   UNL     1      20.193 -14.946   0.445  1.00  0.00     0.238 A 
ATOM      4  O   UNL     1      20.029 -14.253  -0.595  1.00  0.00    -0.285 OA
ATOM      5  C   UNL     1      20.212 -16.355   0.381  1.00  0.00     0.111 A 
ATOM      6  C   UNL     1      20.056 -17.077  -0.828  1.00  0.00     0.134 A 
ATOM      7  C   UNL     1      20.078 -18.480  -0.806  1.00  0.00     0.093 A 
ATOM      8  C   UNL     1      20.250 -19.173   0.394  1.00  0.00     0.123 A 
ATOM      9  C   UNL     1      20.404 -18.465   1.591  1.00  0.00     0.094 A 
ATOM     10  C   UNL     1      20.388 -17.067   1.591  1.00  0.00     0.146 A 
ATOM     11  O   UNL     1      20.541 -16.419   2.740  1.00  0.00    -0.452 OA
ENDROOT
BRANCH   1  12
ATOM     12  C   UNL     1      20.737 -14.490   4.176  1.00  0.00     0.021 A 
ATOM     13  C   UNL     1      19.981 -14.965   5.261  1.00  0.00     0.016 A 
ATOM     14  C   UNL     1      20.162 -14.427   6.539  1.00  0.00     0.047 A 
ATOM     15  C   UNL     1      21.112 -13.419   6.751  1.00  0.00     0.115 A 
ATOM     16  C   UNL     1      21.703 -13.493   4.400  1.00  0.00     0.016 A 
ATOM     17  C   UNL     1      21.882 -12.957   5.679  1.00  0.00     0.047 A 
BRANCH  15  18
ATOM     18  O   UNL     1      21.301 -12.875   8.019  1.00  0.00    -0.508 OA
ATOM     19  H   UNL     1      22.140 -12.357   8.253  1.00  0.00     0.293 HD
ENDBRANCH  15  18
ENDBRANCH   1  12
BRANCH   2  20
ATOM     20  O   UNL     1      20.286 -12.914   1.782  1.00  0.00    -0.502 OA
ATOM     21  H   UNL     1      21.098 -12.347   1.998  1.00  0.00     0.293 HD
ENDBRANCH   2  20
BRANCH   6  22
ATOM     22  O   UNL     1      19.882 -16.415  -2.043  1.00  0.00    -0.507 OA
ATOM     23  H   UNL     1      20.497 -16.577  -2.831  1.00  0.00     0.293 HD
ENDBRANCH   6  22
BRANCH   8  24
ATOM     24  O   UNL     1      20.266 -20.565   0.387  1.00  0.00    -0.508 OA
ATOM     25  H   UNL     1      19.755 -21.105   1.076  1.00  0.00     0.293 HD
ENDBRANCH   8  24
TORSDOF 5
ENDMDL
MODEL 2
REMARK VINA RESULT:    -2.694      1.577      6.669
REMARK INTER + INTRA:          -3.180
REMARK INTER:                  -3.704
REMARK INTRA:                   0.524
REMARK UNBOUND:                -0.013
REMARK SMILES O=c1c(O)c(-c2ccc(O)cc2)oc2cc(O)cc(O)c12
REMARK SMILES IDX 5 1 3 2 2 3 1 4 21 5 19 6 18 7 16 8 15 9 14 10 13 11 6 12
REMARK SMILES IDX 7 13 8 14 9 15 12 16 11 17 10 18 4 20 20 22 17 24
REMARK H PARENT 10 19 4 21 20 23 17 25
REMARK Flexibility Score: inf
ROOT
ATOM      1  C   UNL     1      20.179 -17.405   1.346  1.00  0.00     0.180 A 
ATOM      2  C   UNL     1      20.370 -16.109   0.826  1.00  0.00     0.208 A 
ATOM      3  C   UNL     1      20.404 -15.021   1.712  1.00  0.00     0.238 A 
ATOM      4  O   UNL     1      20.564 -13.856   1.258  1.00  0.00    -0.285 OA
ATOM      5  C   UNL     1      20.268 -15.247   3.097  1.00  0.00     0.111 A 
ATOM      6  C   UNL     1      20.295 -14.205   4.057  1.00  0.00     0.134 A 
ATOM      7  C   UNL     1      20.162 -14.513   5.420  1.00  0.00     0.093 A 
ATOM      8  C   UNL     1      20.003 -15.835   5.841  1.00  0.00     0.123 A 
ATOM      9  C   UNL     1      19.976 -16.867   4.897  1.00  0.00     0.094 A 
ATOM     10  C   UNL     1      20.105 -16.582   3.534  1.00  0.00     0.146 A 
ATOM     11  O   UNL     1      20.070 -17.581   2.659  1.00  0.00    -0.452 OA
ENDROOT
BRANCH   1  12
ATOM     12  C   UNL     1      20.113 -18.600   0.473  1.00  0.00     0.021 A 
ATOM     13  C   UNL     1      19.974 -18.435  -0.915  1.00  0.00     0.016 A 
ATOM     14  C   UNL     1      19.932 -19.548  -1.759  1.00  0.00     0.047 A 
ATOM     15  C   UNL     1      20.046 -20.840  -1.229  1.00  0.00     0.115 A 
ATOM     16  C   UNL     1      20.247 -19.898   0.997  1.00  0.00     0.016 A 
ATOM     17  C   UNL     1      20.206 -21.010   0.150  1.00  0.00     0.047 A 
BRANCH  15  18
ATOM     18  O   UNL     1      20.006 -21.956  -2.060  1.00  0.00    -0.508 OA
ATOM     19  H   UNL     1      19.682 -21.891  -3.019  1.00  0.00     0.293 HD
ENDBRANCH  15  18
ENDBRANCH   1  12
BRANCH   2  20
ATOM     20  O   UNL     1      20.552 -15.919  -0.546  1.00  0.00    -0.502 OA
ATOM     21  H   UNL     1      20.345 -15.039  -1.004  1.00  0.00     0.293 HD
ENDBRANCH   2  20
BRANCH   6  22
ATOM     22  O   UNL     1      20.453 -12.875   3.669  1.00  0.00    -0.507 OA
ATOM     23  H   UNL     1      21.060 -12.611   2.902  1.00  0.00     0.293 HD
ENDBRANCH   6  22
BRANCH   8  24
ATOM     24  O   UNL     1      19.875 -16.112   7.199  1.00  0.00    -0.508 OA
ATOM     25  H   UNL     1      20.135 -17.014   7.583  1.00  0.00     0.293 HD
ENDBRANCH   8  24
TORSDOF 5
ENDMDL
MODEL 3
REMARK VINA RESULT:    -2.017      1.797      6.774
REMARK INTER + INTRA:          -2.384
REMARK INTER:                  -2.814
REMARK INTRA:                   0.430
REMARK UNBOUND:                -0.013
REMARK SMILES O=c1c(O)c(-c2ccc(O)cc2)oc2cc(O)cc(O)c12
REMARK SMILES IDX 5 1 3 2 2 3 1 4 21 5 19 6 18 7 16 8 15 9 14 10 13 11 6 12
REMARK SMILES IDX 7 13 8 14 9 15 12 16 11 17 10 18 4 20 20 22 17 24
REMARK H PARENT 10 19 4 21 20 23 17 25
REMARK Flexibility Score: inf
ROOT
ATOM      1  C   UNL     1      20.306 -17.966   0.608  1.00  0.00     0.180 A 
ATOM      2  C   UNL     1      20.297 -16.740  -0.086  1.00  0.00     0.208 A 
ATOM      3  C   UNL     1      20.179 -15.547   0.644  1.00  0.00     0.238 A 
ATOM      4  O   UNL     1      20.160 -14.445   0.033  1.00  0.00    -0.285 OA
ATOM      5  C   UNL     1      20.094 -15.598   2.051  1.00  0.00     0.111 A 
ATOM      6  C   UNL     1      19.977 -14.442   2.861  1.00  0.00     0.134 A 
ATOM      7  C   UNL     1      19.906 -14.576   4.257  1.00  0.00     0.093 A 
ATOM      8  C   UNL     1      19.949 -15.836   4.855  1.00  0.00     0.123 A 
ATOM      9  C   UNL     1      20.065 -16.981   4.060  1.00  0.00     0.094 A 
ATOM     10  C   UNL     1      20.135 -16.870   2.668  1.00  0.00     0.146 A 
ATOM     11  O   UNL     1      20.239 -17.974   1.936  1.00  0.00    -0.452 OA
ENDROOT
BRANCH   1  12
ATOM     12  C   UNL     1      20.408 -19.266  -0.093  1.00  0.00     0.021 A 
ATOM     13  C   UNL     1      20.664 -20.433   0.647  1.00  0.00     0.016 A 
ATOM     14  C   UNL     1      20.742 -21.674   0.009  1.00  0.00     0.047 A 
ATOM     15  C   UNL     1      20.549 -21.767  -1.375  1.00  0.00     0.115 A 
ATOM     16  C   UNL     1      20.195 -19.370  -1.480  1.00  0.00     0.016 A 
ATOM     17  C   UNL     1      20.273 -20.613  -2.116  1.00  0.00     0.047 A 
BRANCH  15  18
ATOM     18  O   UNL     1      20.624 -22.998  -2.022  1.00  0.00    -0.508 OA
ATOM     19  H   UNL     1      20.201 -23.831  -1.627  1.00  0.00     0.293 HD
ENDBRANCH  15  18
ENDBRANCH   1  12
BRANCH   2  20
ATOM     20  O   UNL     1      20.433 -16.716  -1.476  1.00  0.00    -0.502 OA
ATOM     21  H   UNL     1      19.849 -16.137  -2.069  1.00  0.00     0.293 HD
ENDBRANCH   2  20
BRANCH   6  22
ATOM     22  O   UNL     1      19.931 -13.169   2.294  1.00  0.00    -0.507 OA
ATOM     23  H   UNL     1      20.738 -12.556   2.293  1.00  0.00     0.293 HD
ENDBRANCH   6  22
BRANCH   8  24
ATOM     24  O   UNL     1      19.879 -15.940   6.242  1.00  0.00    -0.508 OA
ATOM     25  H   UNL     1      19.026 -15.724   6.747  1.00  0.00     0.293 HD
ENDBRANCH   8  24
TORSDOF 5
ENDMDL
MODEL 4
REMARK VINA RESULT:    -1.786      1.479      3.169
REMARK INTER + INTRA:          -2.113
REMARK INTER:                  -2.029
REMARK INTRA:                  -0.084
REMARK UNBOUND:                -0.013
REMARK SMILES O=c1c(O)c(-c2ccc(O)cc2)oc2cc(O)cc(O)c12
REMARK SMILES IDX 5 1 3 2 2 3 1 4 21 5 19 6 18 7 16 8 15 9 14 10 13 11 6 12
REMARK SMILES IDX 7 13 8 14 9 15 12 16 11 17 10 18 4 20 20 22 17 24
REMARK H PARENT 10 19 4 21 20 23 17 25
REMARK Flexibility Score: inf
ROOT
ATOM      1  C   UNL     1      20.604 -15.339   3.614  1.00  0.00     0.180 A 
ATOM      2  C   UNL     1      20.487 -16.735   3.461  1.00  0.00     0.208 A 
ATOM      3  C   UNL     1      20.286 -17.262   2.175  1.00  0.00     0.238 A 
ATOM      4  O   UNL     1      20.169 -18.508   2.028  1.00  0.00    -0.285 OA
ATOM      5  C   UNL     1      20.227 -16.392   1.068  1.00  0.00     0.111 A 
ATOM      6  C   UNL     1      20.031 -16.843  -0.261  1.00  0.00     0.134 A 
ATOM      7  C   UNL     1      19.992 -15.913  -1.312  1.00  0.00     0.093 A 
ATOM      8  C   UNL     1      20.145 -14.548  -1.062  1.00  0.00     0.123 A 
ATOM      9  C   UNL     1      20.339 -14.097   0.248  1.00  0.00     0.094 A 
ATOM     10  C   UNL     1      20.378 -15.007   1.309  1.00  0.00     0.146 A 
ATOM     11  O   UNL     1      20.559 -14.551   2.544  1.00  0.00    -0.452 OA
ENDROOT
BRANCH   1  12
ATOM     12  C   UNL     1      20.799 -14.707   4.939  1.00  0.00     0.021 A 
ATOM     13  C   UNL     1      21.956 -14.999   5.680  1.00  0.00     0.016 A 
ATOM     14  C   UNL     1      22.171 -14.397   6.923  1.00  0.00     0.047 A 
ATOM     15  C   UNL     1      21.241 -13.482   7.433  1.00  0.00     0.115 A 
ATOM     16  C   UNL     1      19.879 -13.772   5.447  1.00  0.00     0.016 A 
ATOM     17  C   UNL     1      20.097 -13.170   6.691  1.00  0.00     0.047 A 
BRANCH  15  18
ATOM     18  O   UNL     1      21.444 -12.875   8.670  1.00  0.00    -0.508 OA
ATOM     19  H   UNL     1      20.694 -12.395   9.154  1.00  0.00     0.293 HD
ENDBRANCH  15  18
ENDBRANCH   1  12
BRANCH   2  20
ATOM     20  O   UNL     1      20.600 -17.578   4.569  1.00  0.00    -0.502 OA
ATOM     21  H   UNL     1      20.127 -18.473   4.620  1.00  0.00     0.293 HD
ENDBRANCH   2  20
BRANCH   6  22
ATOM     22  O   UNL     1      19.875 -18.200  -0.543  1.00  0.00    -0.507 OA
ATOM     23  H   UNL     1      19.953 -18.561  -1.486  1.00  0.00     0.293 HD
ENDBRANCH   6  22
BRANCH   8  24
ATOM     24  O   UNL     1      20.105 -13.648  -2.124  1.00  0.00    -0.508 OA
ATOM     25  H   UNL     1      20.795 -13.672  -2.866  1.00  0.00     0.293 HD
ENDBRANCH   8  24
TORSDOF 5
ENDMDL
MODEL 5
REMARK VINA RESULT:    -1.548      2.467      6.570
REMARK INTER + INTRA:          -1.833
REMARK INTER:                  -1.904
REMARK INTRA:                   0.070
REMARK UNBOUND:                -0.013
REMARK SMILES O=c1c(O)c(-c2ccc(O)cc2)oc2cc(O)cc(O)c12
REMARK SMILES IDX 5 1 3 2 2 3 1 4 21 5 19 6 18 7 16 8 15 9 14 10 13 11 6 12
REMARK SMILES IDX 7 13 8 14 9 15 12 16 11 17 10 18 4 20 20 22 17 24
REMARK H PARENT 10 19 4 21 20 23 17 25
REMARK Flexibility Score: inf
ROOT
ATOM      1  C   UNL     1      20.527 -19.288   0.860  1.00  0.00     0.180 A 
ATOM      2  C   UNL     1      20.315 -19.009  -0.505  1.00  0.00     0.208 A 
ATOM      3  C   UNL     1      20.167 -17.672  -0.908  1.00  0.00     0.238 A 
ATOM      4  O   UNL     1      19.966 -17.410  -2.125  1.00  0.00    -0.285 OA
ATOM      5  C   UNL     1      20.254 -16.642   0.050  1.00  0.00     0.111 A 
ATOM      6  C   UNL     1      20.120 -15.270  -0.275  1.00  0.00     0.134 A 
ATOM      7  C   UNL     1      20.227 -14.302   0.737  1.00  0.00     0.093 A 
ATOM      8  C   UNL     1      20.466 -14.678   2.060  1.00  0.00     0.123 A 
ATOM      9  C   UNL     1      20.600 -16.032   2.387  1.00  0.00     0.094 A 
ATOM     10  C   UNL     1      20.493 -17.011   1.395  1.00  0.00     0.146 A 
ATOM     11  O   UNL     1      20.619 -18.290   1.733  1.00  0.00    -0.452 OA
ENDROOT
BRANCH   1  12
ATOM     12  C   UNL     1      20.674 -20.673   1.365  1.00  0.00     0.021 A 
ATOM     13  C   UNL     1      21.591 -21.540   0.746  1.00  0.00     0.016 A 
ATOM     14  C   UNL     1      21.762 -22.844   1.220  1.00  0.00     0.047 A 
ATOM     15  C   UNL     1      21.032 -23.292   2.329  1.00  0.00     0.115 A 
ATOM     16  C   UNL     1      19.960 -21.122   2.490  1.00  0.00     0.016 A 
ATOM     17  C   UNL     1      20.135 -22.427   2.963  1.00  0.00     0.047 A 
BRANCH  15  18
ATOM     18  O   UNL     1      21.195 -24.588   2.810  1.00  0.00    -0.508 OA
ATOM     19  H   UNL     1      21.469 -24.766   3.771  1.00  0.00     0.293 HD
ENDBRANCH  15  18
ENDBRANCH   1  12
BRANCH   2  20
ATOM     20  O   UNL     1      20.283 -20.045  -1.441  1.00  0.00    -0.502 OA
ATOM     21  H   UNL     1      21.047 -20.703  -1.548  1.00  0.00     0.293 HD
ENDBRANCH   2  20
BRANCH   6  22
ATOM     22  O   UNL     1      19.881 -14.862  -1.587  1.00  0.00    -0.507 OA
ATOM     23  H   UNL     1      19.051 -15.150  -2.092  1.00  0.00     0.293 HD
ENDBRANCH   6  22
BRANCH   8  24
ATOM     24  O   UNL     1      20.570 -13.698   3.044  1.00  0.00    -0.508 OA
ATOM     25  H   UNL     1      20.467 -12.713   2.824  1.00  0.00     0.293 HD
ENDBRANCH   8  24
TORSDOF 5
ENDMDL
MODEL 6
REMARK VINA RESULT:    -1.402      2.260      6.914
REMARK INTER + INTRA:          -1.661
REMARK INTER:                  -1.644
REMARK INTRA:                  -0.017
REMARK UNBOUND:                -0.013
REMARK SMILES O=c1c(O)c(-c2ccc(O)cc2)oc2cc(O)cc(O)c12
REMARK SMILES IDX 5 1 3 2 2 3 1 4 21 5 19 6 18 7 16 8 15 9 14 10 13 11 6 12
REMARK SMILES IDX 7 13 8 14 9 15 12 16 11 17 10 18 4 20 20 22 17 24
REMARK H PARENT 10 19 4 21 20 23 17 25
REMARK Flexibility Score: inf
ROOT
ATOM      1  C   UNL     1      21.124 -16.025   3.934  1.00  0.00     0.180 A 
ATOM      2  C   UNL     1      20.663 -14.715   4.168  1.00  0.00     0.208 A 
ATOM      3  C   UNL     1      21.022 -14.072   5.363  1.00  0.00     0.238 A 
ATOM      4  O   UNL     1      20.607 -12.903   5.588  1.00  0.00    -0.285 OA
ATOM      5  C   UNL     1      21.849 -14.739   6.291  1.00  0.00     0.111 A 
ATOM      6  C   UNL     1      22.259 -14.160   7.516  1.00  0.00     0.134 A 
ATOM      7  C   UNL     1      23.091 -14.885   8.384  1.00  0.00     0.093 A 
ATOM      8  C   UNL     1      23.519 -16.172   8.051  1.00  0.00     0.123 A 
ATOM      9  C   UNL     1      23.117 -16.749   6.841  1.00  0.00     0.094 A 
ATOM     10  C   UNL     1      22.286 -16.043   5.965  1.00  0.00     0.146 A 
ATOM     11  O   UNL     1      21.915 -16.616   4.825  1.00  0.00    -0.452 OA
ENDROOT
BRANCH   1  12
ATOM     12  C   UNL     1      20.773 -16.775   2.707  1.00  0.00     0.021 A 
ATOM     13  C   UNL     1      21.091 -16.232   1.450  1.00  0.00     0.016 A 
ATOM     14  C   UNL     1      20.789 -16.933   0.279  1.00  0.00     0.047 A 
ATOM     15  C   UNL     1      20.181 -18.193   0.349  1.00  0.00     0.115 A 
ATOM     16  C   UNL     1      20.181 -18.050   2.770  1.00  0.00     0.016 A 
ATOM     17  C   UNL     1      19.882 -18.749   1.596  1.00  0.00     0.047 A 
BRANCH  15  18
ATOM     18  O   UNL     1      19.876 -18.900  -0.811  1.00  0.00    -0.508 OA
ATOM     19  H   UNL     1      18.917 -19.036  -1.112  1.00  0.00     0.293 HD
ENDBRANCH  15  18
ENDBRANCH   1  12
BRANCH   2  20
ATOM     20  O   UNL     1      19.886 -14.059   3.209  1.00  0.00    -0.502 OA
ATOM     21  H   UNL     1      20.263 -13.764   2.315  1.00  0.00     0.293 HD
ENDBRANCH   2  20
BRANCH   6  22
ATOM     22  O   UNL     1      21.849 -12.876   7.878  1.00  0.00    -0.507 OA
ATOM     23  H   UNL     1      21.673 -12.625   8.843  1.00  0.00     0.293 HD
ENDBRANCH   6  22
BRANCH   8  24
ATOM     24  O   UNL     1      24.345 -16.869   8.929  1.00  0.00    -0.508 OA
ATOM     25  H   UNL     1      24.556 -16.512   9.855  1.00  0.00     0.293 HD
ENDBRANCH   8  24
TORSDOF 5
ENDMDL
MODEL 7
REMARK VINA RESULT:    -0.109     22.095     22.872
REMARK INTER + INTRA:          -0.142
REMARK INTER:                  -0.715
REMARK INTRA:                   0.573
REMARK UNBOUND:                -0.013
REMARK SMILES O=c1c(O)c(-c2ccc(O)cc2)oc2cc(O)cc(O)c12
REMARK SMILES IDX 5 1 3 2 2 3 1 4 21 5 19 6 18 7 16 8 15 9 14 10 13 11 6 12
REMARK SMILES IDX 7 13 8 14 9 15 12 16 11 17 10 18 4 20 20 22 17 24
REMARK H PARENT 10 19 4 21 20 23 17 25
REMARK Flexibility Score: inf
ROOT
ATOM      1  C   UNL     1      32.929 -30.940  13.377  1.00  0.00     0.180 A 
ATOM      2  C   UNL     1      33.468 -29.639  13.400  1.00  0.00     0.208 A 
ATOM      3  C   UNL     1      34.412 -29.279  12.425  1.00  0.00     0.238 A 
ATOM      4  O   UNL     1      34.909 -28.120  12.442  1.00  0.00    -0.285 OA
ATOM      5  C   UNL     1      34.784 -30.213  11.437  1.00  0.00     0.111 A 
ATOM      6  C   UNL     1      35.725 -29.927  10.417  1.00  0.00     0.134 A 
ATOM      7  C   UNL     1      36.036 -30.910   9.464  1.00  0.00     0.093 A 
ATOM      8  C   UNL     1      35.427 -32.165   9.508  1.00  0.00     0.123 A 
ATOM      9  C   UNL     1      34.496 -32.452  10.513  1.00  0.00     0.094 A 
ATOM     10  C   UNL     1      34.175 -31.489  11.474  1.00  0.00     0.146 A 
ATOM     11  O   UNL     1      33.292 -31.789  12.420  1.00  0.00    -0.452 OA
ENDROOT
BRANCH   1  12
ATOM     12  C   UNL     1      31.943 -31.401  14.381  1.00  0.00     0.021 A 
ATOM     13  C   UNL     1      31.435 -30.487  15.320  1.00  0.00     0.016 A 
ATOM     14  C   UNL     1      30.487 -30.894  16.263  1.00  0.00     0.047 A 
ATOM     15  C   UNL     1      30.022 -32.215  16.269  1.00  0.00     0.115 A 
ATOM     16  C   UNL     1      31.456 -32.721  14.380  1.00  0.00     0.016 A 
ATOM     17  C   UNL     1      30.507 -33.125  15.324  1.00  0.00     0.047 A 
BRANCH  15  18
ATOM     18  O   UNL     1      29.077 -32.633  17.203  1.00  0.00    -0.508 OA
ATOM     19  H   UNL     1      28.086 -32.637  16.988  1.00  0.00     0.293 HD
ENDBRANCH  15  18
ENDBRANCH   1  12
BRANCH   2  20
ATOM     20  O   UNL     1      33.045 -28.717  14.360  1.00  0.00    -0.502 OA
ATOM     21  H   UNL     1      32.351 -28.005  14.160  1.00  0.00     0.293 HD
ENDBRANCH   2  20
BRANCH   6  22
ATOM     22  O   UNL     1      36.350 -28.683  10.345  1.00  0.00    -0.507 OA
ATOM     23  H   UNL     1      36.557 -28.141  11.175  1.00  0.00     0.293 HD
ENDBRANCH   6  22
BRANCH   8  24
ATOM     24  O   UNL     1      35.752 -33.120   8.549  1.00  0.00    -0.508 OA
ATOM     25  H   UNL     1      36.368 -32.903   7.773  1.00  0.00     0.293 HD
ENDBRANCH   8  24
TORSDOF 5
ENDMDL
MODEL 8
REMARK VINA RESULT:    -0.056     21.969     23.358
REMARK INTER + INTRA:          -0.080
REMARK INTER:                  -0.391
REMARK INTRA:                   0.311
REMARK UNBOUND:                -0.013
REMARK SMILES O=c1c(O)c(-c2ccc(O)cc2)oc2cc(O)cc(O)c12
REMARK SMILES IDX 5 1 3 2 2 3 1 4 21 5 19 6 18 7 16 8 15 9 14 10 13 11 6 12
REMARK SMILES IDX 7 13 8 14 9 15 12 16 11 17 10 18 4 20 20 22 17 24
REMARK H PARENT 10 19 4 21 20 23 17 25
REMARK Flexibility Score: inf
ROOT
ATOM      1  C   UNL     1      34.590 -31.155  10.735  1.00  0.00     0.180 A 
ATOM      2  C   UNL     1      34.798 -29.837  11.187  1.00  0.00     0.208 A 
ATOM      3  C   UNL     1      34.142 -29.407  12.351  1.00  0.00     0.238 A 
ATOM      4  O   UNL     1      34.313 -28.227  12.759  1.00  0.00    -0.285 OA
ATOM      5  C   UNL     1      33.310 -30.304  13.053  1.00  0.00     0.111 A 
ATOM      6  C   UNL     1      32.616 -29.950  14.236  1.00  0.00     0.134 A 
ATOM      7  C   UNL     1      31.812 -30.903  14.881  1.00  0.00     0.093 A 
ATOM      8  C   UNL     1      31.689 -32.197  14.369  1.00  0.00     0.123 A 
ATOM      9  C   UNL     1      32.372 -32.551  13.201  1.00  0.00     0.094 A 
ATOM     10  C   UNL     1      33.176 -31.616  12.542  1.00  0.00     0.146 A 
ATOM     11  O   UNL     1      33.810 -31.977  11.431  1.00  0.00    -0.452 OA
ENDROOT
BRANCH   1  12
ATOM     12  C   UNL     1      35.231 -31.675   9.506  1.00  0.00     0.021 A 
ATOM     13  C   UNL     1      34.555 -32.625   8.723  1.00  0.00     0.016 A 
ATOM     14  C   UNL     1      35.131 -33.114   7.547  1.00  0.00     0.047 A 
ATOM     15  C   UNL     1      36.384 -32.646   7.130  1.00  0.00     0.115 A 
ATOM     16  C   UNL     1      36.480 -31.195   9.071  1.00  0.00     0.016 A 
ATOM     17  C   UNL     1      37.054 -31.685   7.893  1.00  0.00     0.047 A 
BRANCH  15  18
ATOM     18  O   UNL     1      36.969 -33.125   5.960  1.00  0.00    -0.508 OA
ATOM     19  H   UNL     1      36.880 -34.096   5.683  1.00  0.00     0.293 HD
ENDBRANCH  15  18
ENDBRANCH   1  12
BRANCH   2  20
ATOM     20  O   UNL     1      35.668 -28.985  10.501  1.00  0.00    -0.502 OA
ATOM     21  H   UNL     1      35.341 -28.316   9.813  1.00  0.00     0.293 HD
ENDBRANCH   2  20
BRANCH   6  22
ATOM     22  O   UNL     1      32.718 -28.667  14.773  1.00  0.00    -0.507 OA
ATOM     23  H   UNL     1      32.541 -28.484  15.753  1.00  0.00     0.293 HD
ENDBRANCH   6  22
BRANCH   8  24
ATOM     24  O   UNL     1      30.887 -33.123  15.030  1.00  0.00    -0.508 OA
ATOM     25  H   UNL     1      30.902 -34.107  14.786  1.00  0.00     0.293 HD
ENDBRANCH   8  24
TORSDOF 5
ENDMDL
