MODEL 1
REMARK VINA RESULT:    -7.532      0.000      0.000
REMARK INTER + INTRA:          -8.901
REMARK INTER:                  -9.073
REMARK INTRA:                   0.172
REMARK UNBOUND:                 0.172
REMARK SMILES O=c1c(O)c(-c2ccc(O)c(O)c2)oc2cc(O)cc(O)c12
REMARK SMILES IDX 5 1 3 2 2 3 1 4 22 5 20 6 19 7 17 8 16 9 15 10 14 11 6 12
REMARK SMILES IDX 7 13 8 14 9 15 13 16 11 17 10 18 12 20 4 22 21 24 18 26
REMARK H PARENT 10 19 12 21 4 23 21 25 18 27
REMARK Flexibility Score: inf
ROOT
ATOM      1  C   UNL     1      49.882  31.733  63.820  1.00  0.00     0.180 A 
ATOM      2  C   UNL     1      50.844  31.526  64.825  1.00  0.00     0.208 A 
ATOM      3  C   UNL     1      50.416  31.353  66.151  1.00  0.00     0.238 A 
ATOM      4  O   UNL     1      51.277  31.114  67.037  1.00  0.00    -0.285 OA
ATOM      5  C   UNL     1      49.035  31.407  66.459  1.00  0.00     0.111 A 
ATOM      6  C   UNL     1      48.492  31.285  67.773  1.00  0.00     0.134 A 
ATOM      7  C   UNL     1      47.104  31.221  67.944  1.00  0.00     0.093 A 
ATOM      8  C   UNL     1      46.238  31.341  66.858  1.00  0.00     0.123 A 
ATOM      9  C   UNL     1      46.757  31.520  65.575  1.00  0.00     0.094 A 
ATOM     10  C   UNL     1      48.139  31.550  65.368  1.00  0.00     0.146 A 
ATOM     11  O   UNL     1      48.591  31.712  64.130  1.00  0.00    -0.452 OA
ENDROOT
BRANCH   1  12
ATOM     12  C   UNL     1      50.256  31.948  62.404  1.00  0.00     0.025 A 
ATOM     13  C   UNL     1      51.313  31.236  61.810  1.00  0.00     0.016 A 
ATOM     14  C   UNL     1      51.664  31.472  60.478  1.00  0.00     0.051 A 
ATOM     15  C   UNL     1      50.977  32.429  59.725  1.00  0.00     0.157 A 
ATOM     16  C   UNL     1      49.582  32.923  61.650  1.00  0.00     0.062 A 
ATOM     17  C   UNL     1      49.932  33.161  60.313  1.00  0.00     0.158 A 
BRANCH  15  18
ATOM     18  O   UNL     1      51.348  32.642  58.397  1.00  0.00    -0.504 OA
ATOM     19  H   UNL     1      50.686  32.947  57.695  1.00  0.00     0.293 HD
ENDBRANCH  15  18
BRANCH  17  20
ATOM     20  O   UNL     1      49.248  34.121  59.570  1.00  0.00    -0.504 OA
ATOM     21  H   UNL     1      49.698  34.977  59.264  1.00  0.00     0.293 HD
ENDBRANCH  17  20
ENDBRANCH   1  12
BRANCH   2  22
ATOM     22  O   UNL     1      52.199  31.455  64.495  1.00  0.00    -0.502 OA
ATOM     23  H   UNL     1      52.819  30.758  64.891  1.00  0.00     0.293 HD
ENDBRANCH   2  22
BRANCH   6  24
ATOM     24  O   UNL     1      49.266  31.251  68.937  1.00  0.00    -0.507 OA
ATOM     25  H   UNL     1      50.261  31.414  68.971  1.00  0.00     0.293 HD
ENDBRANCH   6  24
BRANCH   8  26
ATOM     26  O   UNL     1      44.862  31.288  67.067  1.00  0.00    -0.508 OA
ATOM     27  H   UNL     1      44.400  30.430  67.344  1.00  0.00     0.293 HD
ENDBRANCH   8  26
TORSDOF 6
ENDMDL
MODEL 2
REMARK VINA RESULT:    -7.447      2.258      7.222
REMARK INTER + INTRA:          -8.799
REMARK INTER:                  -8.484
REMARK INTRA:                  -0.314
REMARK UNBOUND:                 0.172
REMARK SMILES O=c1c(O)c(-c2ccc(O)c(O)c2)oc2cc(O)cc(O)c12
REMARK SMILES IDX 5 1 3 2 2 3 1 4 22 5 20 6 19 7 17 8 16 9 15 10 14 11 6 12
REMARK SMILES IDX 7 13 8 14 9 15 13 16 11 17 10 18 12 20 4 22 21 24 18 26
REMARK H PARENT 10 19 12 21 4 23 21 25 18 27
REMARK Flexibility Score: inf
ROOT
ATOM      1  C   UNL     1      48.856  30.099  64.217  1.00  0.00     0.180 A 
ATOM      2  C   UNL     1      48.734  28.834  63.616  1.00  0.00     0.208 A 
ATOM      3  C   UNL     1      49.334  28.614  62.366  1.00  0.00     0.238 A 
ATOM      4  O   UNL     1      49.268  27.463  61.859  1.00  0.00    -0.285 OA
ATOM      5  C   UNL     1      50.033  29.664  61.724  1.00  0.00     0.111 A 
ATOM      6  C   UNL     1      50.644  29.565  60.439  1.00  0.00     0.134 A 
ATOM      7  C   UNL     1      51.421  30.627  59.959  1.00  0.00     0.093 A 
ATOM      8  C   UNL     1      51.554  31.808  60.687  1.00  0.00     0.123 A 
ATOM      9  C   UNL     1      50.911  31.939  61.919  1.00  0.00     0.094 A 
ATOM     10  C   UNL     1      50.160  30.883  62.441  1.00  0.00     0.146 A 
ATOM     11  O   UNL     1      49.573  31.045  63.621  1.00  0.00    -0.452 OA
ENDROOT
BRANCH   1  12
ATOM     12  C   UNL     1      48.231  30.416  65.521  1.00  0.00     0.025 A 
ATOM     13  C   UNL     1      46.869  30.752  65.618  1.00  0.00     0.016 A 
ATOM     14  C   UNL     1      46.306  31.070  66.856  1.00  0.00     0.051 A 
ATOM     15  C   UNL     1      47.093  31.071  68.012  1.00  0.00     0.157 A 
ATOM     16  C   UNL     1      49.023  30.438  66.681  1.00  0.00     0.062 A 
ATOM     17  C   UNL     1      48.459  30.757  67.925  1.00  0.00     0.158 A 
BRANCH  15  18
ATOM     18  O   UNL     1      46.503  31.391  69.235  1.00  0.00    -0.504 OA
ATOM     19  H   UNL     1      45.548  31.720  69.302  1.00  0.00     0.293 HD
ENDBRANCH  15  18
BRANCH  17  20
ATOM     20  O   UNL     1      49.251  30.762  69.073  1.00  0.00    -0.504 OA
ATOM     21  H   UNL     1      50.178  30.351  69.080  1.00  0.00     0.293 HD
ENDBRANCH  17  20
ENDBRANCH   1  12
BRANCH   2  22
ATOM     22  O   UNL     1      48.059  27.805  64.277  1.00  0.00    -0.502 OA
ATOM     23  H   UNL     1      48.106  26.840  63.971  1.00  0.00     0.293 HD
ENDBRANCH   2  22
BRANCH   6  24
ATOM     24  O   UNL     1      50.498  28.464  59.588  1.00  0.00    -0.507 OA
ATOM     25  H   UNL     1      49.622  28.153  59.196  1.00  0.00     0.293 HD
ENDBRANCH   6  24
BRANCH   8  26
ATOM     26  O   UNL     1      52.322  32.850  60.172  1.00  0.00    -0.508 OA
ATOM     27  H   UNL     1      52.042  33.353  59.338  1.00  0.00     0.293 HD
ENDBRANCH   8  26
TORSDOF 6
ENDMDL
MODEL 3
REMARK VINA RESULT:    -7.398      2.127      2.230
REMARK INTER + INTRA:          -8.741
REMARK INTER:                  -8.519
REMARK INTRA:                  -0.222
REMARK UNBOUND:                 0.172
REMARK SMILES O=c1c(O)c(-c2ccc(O)c(O)c2)oc2cc(O)cc(O)c12
REMARK SMILES IDX 5 1 3 2 2 3 1 4 22 5 20 6 19 7 17 8 16 9 15 10 14 11 6 12
REMARK SMILES IDX 7 13 8 14 9 15 13 16 11 17 10 18 12 20 4 22 21 24 18 26
REMARK H PARENT 10 19 12 21 4 23 21 25 18 27
REMARK Flexibility Score: inf
ROOT
ATOM      1  C   UNL     1      51.075  31.402  64.567  1.00  0.00     0.180 A 
ATOM      2  C   UNL     1      51.913  32.094  65.459  1.00  0.00     0.208 A 
ATOM      3  C   UNL     1      51.799  31.840  66.836  1.00  0.00     0.238 A 
ATOM      4  O   UNL     1      52.589  32.422  67.624  1.00  0.00    -0.285 OA
ATOM      5  C   UNL     1      50.838  30.911  67.304  1.00  0.00     0.111 A 
ATOM      6  C   UNL     1      50.609  30.607  68.679  1.00  0.00     0.134 A 
ATOM      7  C   UNL     1      49.725  29.575  69.020  1.00  0.00     0.093 A 
ATOM      8  C   UNL     1      49.013  28.884  68.040  1.00  0.00     0.123 A 
ATOM      9  C   UNL     1      49.186  29.214  66.696  1.00  0.00     0.094 A 
ATOM     10  C   UNL     1      50.089  30.213  66.322  1.00  0.00     0.146 A 
ATOM     11  O   UNL     1      50.230  30.488  65.031  1.00  0.00    -0.452 OA
ENDROOT
BRANCH   1  12
ATOM     12  C   UNL     1      51.119  31.633  63.105  1.00  0.00     0.025 A 
ATOM     13  C   UNL     1      52.210  31.205  62.328  1.00  0.00     0.016 A 
ATOM     14  C   UNL     1      52.240  31.454  60.954  1.00  0.00     0.051 A 
ATOM     15  C   UNL     1      51.193  32.146  60.338  1.00  0.00     0.157 A 
ATOM     16  C   UNL     1      50.079  32.346  62.486  1.00  0.00     0.062 A 
ATOM     17  C   UNL     1      50.107  32.597  61.106  1.00  0.00     0.158 A 
BRANCH  15  18
ATOM     18  O   UNL     1      51.250  32.380  58.964  1.00  0.00    -0.504 OA
ATOM     19  H   UNL     1      50.835  33.199  58.539  1.00  0.00     0.293 HD
ENDBRANCH  15  18
BRANCH  17  20
ATOM     20  O   UNL     1      49.063  33.293  60.499  1.00  0.00    -0.504 OA
ATOM     21  H   UNL     1      48.885  33.221  59.504  1.00  0.00     0.293 HD
ENDBRANCH  17  20
ENDBRANCH   1  12
BRANCH   2  22
ATOM     22  O   UNL     1      52.869  32.990  64.973  1.00  0.00    -0.502 OA
ATOM     23  H   UNL     1      53.012  33.906  65.383  1.00  0.00     0.293 HD
ENDBRANCH   2  22
BRANCH   6  24
ATOM     24  O   UNL     1      51.198  31.299  69.741  1.00  0.00    -0.507 OA
ATOM     25  H   UNL     1      50.697  31.877  70.399  1.00  0.00     0.293 HD
ENDBRANCH   6  24
BRANCH   8  26
ATOM     26  O   UNL     1      48.130  27.874  68.417  1.00  0.00    -0.508 OA
ATOM     27  H   UNL     1      48.219  27.397  69.306  1.00  0.00     0.293 HD
ENDBRANCH   8  26
TORSDOF 6
ENDMDL
MODEL 4
REMARK VINA RESULT:    -7.284      4.386      6.330
REMARK INTER + INTRA:          -8.603
REMARK INTER:                  -8.329
REMARK INTRA:                  -0.274
REMARK UNBOUND:                 0.172
REMARK SMILES O=c1c(O)c(-c2ccc(O)c(O)c2)oc2cc(O)cc(O)c12
REMARK SMILES IDX 5 1 3 2 2 3 1 4 22 5 20 6 19 7 17 8 16 9 15 10 14 11 6 12
REMARK SMILES IDX 7 13 8 14 9 15 13 16 11 17 10 18 12 20 4 22 21 24 18 26
REMARK H PARENT 10 19 12 21 4 23 21 25 18 27
REMARK Flexibility Score: inf
ROOT
ATOM      1  C   UNL     1      49.328  31.466  67.995  1.00  0.00     0.180 A 
ATOM      2  C   UNL     1      50.571  31.757  67.407  1.00  0.00     0.208 A 
ATOM      3  C   UNL     1      51.712  31.069  67.852  1.00  0.00     0.238 A 
ATOM      4  O   UNL     1      52.812  31.293  67.283  1.00  0.00    -0.285 OA
ATOM      5  C   UNL     1      51.599  30.113  68.890  1.00  0.00     0.111 A 
ATOM      6  C   UNL     1      52.694  29.388  69.447  1.00  0.00     0.134 A 
ATOM      7  C   UNL     1      52.447  28.372  70.379  1.00  0.00     0.093 A 
ATOM      8  C   UNL     1      51.154  28.102  70.824  1.00  0.00     0.123 A 
ATOM      9  C   UNL     1      50.082  28.846  70.331  1.00  0.00     0.094 A 
ATOM     10  C   UNL     1      50.292  29.840  69.372  1.00  0.00     0.146 A 
ATOM     11  O   UNL     1      49.243  30.518  68.921  1.00  0.00    -0.452 OA
ENDROOT
BRANCH   1  12
ATOM     12  C   UNL     1      48.086  32.166  67.597  1.00  0.00     0.025 A 
ATOM     13  C   UNL     1      47.834  33.492  67.992  1.00  0.00     0.016 A 
ATOM     14  C   UNL     1      46.644  34.125  67.624  1.00  0.00     0.051 A 
ATOM     15  C   UNL     1      45.683  33.443  66.872  1.00  0.00     0.157 A 
ATOM     16  C   UNL     1      47.109  31.477  66.859  1.00  0.00     0.062 A 
ATOM     17  C   UNL     1      45.913  32.111  66.489  1.00  0.00     0.158 A 
BRANCH  15  18
ATOM     18  O   UNL     1      44.505  34.101  66.518  1.00  0.00    -0.504 OA
ATOM     19  H   UNL     1      44.004  34.694  67.167  1.00  0.00     0.293 HD
ENDBRANCH  15  18
BRANCH  17  20
ATOM     20  O   UNL     1      44.957  31.423  65.744  1.00  0.00    -0.504 OA
ATOM     21  H   UNL     1      45.178  31.016  64.843  1.00  0.00     0.293 HD
ENDBRANCH  17  20
ENDBRANCH   1  12
BRANCH   2  22
ATOM     22  O   UNL     1      50.657  32.687  66.368  1.00  0.00    -0.502 OA
ATOM     23  H   UNL     1      50.227  33.604  66.423  1.00  0.00     0.293 HD
ENDBRANCH   2  22
BRANCH   6  24
ATOM     24  O   UNL     1      54.035  29.641  69.140  1.00  0.00    -0.507 OA
ATOM     25  H   UNL     1      54.512  29.295  68.322  1.00  0.00     0.293 HD
ENDBRANCH   6  24
BRANCH   8  26
ATOM     26  O   UNL     1      50.948  27.095  71.765  1.00  0.00    -0.508 OA
ATOM     27  H   UNL     1      50.743  26.143  71.486  1.00  0.00     0.293 HD
ENDBRANCH   8  26
TORSDOF 6
ENDMDL
MODEL 5
REMARK VINA RESULT:    -7.263      2.736      6.516
REMARK INTER + INTRA:          -8.578
REMARK INTER:                  -8.439
REMARK INTRA:                  -0.139
REMARK UNBOUND:                 0.172
REMARK SMILES O=c1c(O)c(-c2ccc(O)c(O)c2)oc2cc(O)cc(O)c12
REMARK SMILES IDX 5 1 3 2 2 3 1 4 22 5 20 6 19 7 17 8 16 9 15 10 14 11 6 12
REMARK SMILES IDX 7 13 8 14 9 15 13 16 11 17 10 18 12 20 4 22 21 24 18 26
REMARK H PARENT 10 19 12 21 4 23 21 25 18 27
REMARK Flexibility Score: inf
ROOT
ATOM      1  C   UNL     1      48.878  31.376  64.171  1.00  0.00     0.180 A 
ATOM      2  C   UNL     1      49.551  32.077  63.155  1.00  0.00     0.208 A 
ATOM      3  C   UNL     1      49.996  31.374  62.024  1.00  0.00     0.238 A 
ATOM      4  O   UNL     1      50.549  32.017  61.093  1.00  0.00    -0.285 OA
ATOM      5  C   UNL     1      49.780  29.978  61.930  1.00  0.00     0.111 A 
ATOM      6  C   UNL     1      50.225  29.160  60.850  1.00  0.00     0.134 A 
ATOM      7  C   UNL     1      49.840  27.814  60.799  1.00  0.00     0.093 A 
ATOM      8  C   UNL     1      49.085  27.242  61.821  1.00  0.00     0.123 A 
ATOM      9  C   UNL     1      48.695  28.019  62.913  1.00  0.00     0.094 A 
ATOM     10  C   UNL     1      49.032  29.374  62.974  1.00  0.00     0.146 A 
ATOM     11  O   UNL     1      48.632  30.079  64.025  1.00  0.00    -0.452 OA
ENDROOT
BRANCH   1  12
ATOM     12  C   UNL     1      48.400  32.042  65.404  1.00  0.00     0.025 A 
ATOM     13  C   UNL     1      49.289  32.699  66.273  1.00  0.00     0.016 A 
ATOM     14  C   UNL     1      48.819  33.301  67.443  1.00  0.00     0.051 A 
ATOM     15  C   UNL     1      47.461  33.244  67.771  1.00  0.00     0.157 A 
ATOM     16  C   UNL     1      47.040  31.969  65.748  1.00  0.00     0.062 A 
ATOM     17  C   UNL     1      46.566  32.572  66.922  1.00  0.00     0.158 A 
BRANCH  15  18
ATOM     18  O   UNL     1      47.021  33.855  68.945  1.00  0.00    -0.504 OA
ATOM     19  H   UNL     1      46.349  33.415  69.562  1.00  0.00     0.293 HD
ENDBRANCH  15  18
BRANCH  17  20
ATOM     20  O   UNL     1      45.212  32.506  67.247  1.00  0.00    -0.504 OA
ATOM     21  H   UNL     1      44.569  31.920  66.725  1.00  0.00     0.293 HD
ENDBRANCH  17  20
ENDBRANCH   1  12
BRANCH   2  22
ATOM     22  O   UNL     1      49.734  33.458  63.258  1.00  0.00    -0.502 OA
ATOM     23  H   UNL     1      50.636  33.899  63.118  1.00  0.00     0.293 HD
ENDBRANCH   2  22
BRANCH   6  24
ATOM     24  O   UNL     1      51.061  29.609  59.823  1.00  0.00    -0.507 OA
ATOM     25  H   UNL     1      51.844  30.232  59.950  1.00  0.00     0.293 HD
ENDBRANCH   6  24
BRANCH   8  26
ATOM     26  O   UNL     1      48.734  25.896  61.745  1.00  0.00    -0.508 OA
ATOM     27  H   UNL     1      49.233  25.188  62.271  1.00  0.00     0.293 HD
ENDBRANCH   8  26
TORSDOF 6
ENDMDL
MODEL 6
REMARK VINA RESULT:    -7.224      2.414      2.844
REMARK INTER + INTRA:          -8.531
REMARK INTER:                  -8.373
REMARK INTRA:                  -0.158
REMARK UNBOUND:                 0.172
REMARK SMILES O=c1c(O)c(-c2ccc(O)c(O)c2)oc2cc(O)cc(O)c12
REMARK SMILES IDX 5 1 3 2 2 3 1 4 22 5 20 6 19 7 17 8 16 9 15 10 14 11 6 12
REMARK SMILES IDX 7 13 8 14 9 15 13 16 11 17 10 18 12 20 4 22 21 24 18 26
REMARK H PARENT 10 19 12 21 4 23 21 25 18 27
REMARK Flexibility Score: inf
ROOT
ATOM      1  C   UNL     1      49.882  30.812  63.746  1.00  0.00     0.180 A 
ATOM      2  C   UNL     1      50.966  31.196  64.554  1.00  0.00     0.208 A 
ATOM      3  C   UNL     1      50.719  31.958  65.708  1.00  0.00     0.238 A 
ATOM      4  O   UNL     1      51.687  32.251  66.456  1.00  0.00    -0.285 OA
ATOM      5  C   UNL     1      49.394  32.342  66.029  1.00  0.00     0.111 A 
ATOM      6  C   UNL     1      49.033  33.147  67.149  1.00  0.00     0.134 A 
ATOM      7  C   UNL     1      47.679  33.354  67.443  1.00  0.00     0.093 A 
ATOM      8  C   UNL     1      46.677  32.842  66.621  1.00  0.00     0.123 A 
ATOM      9  C   UNL     1      47.021  32.103  65.488  1.00  0.00     0.094 A 
ATOM     10  C   UNL     1      48.361  31.848  65.189  1.00  0.00     0.146 A 
ATOM     11  O   UNL     1      48.645  31.131  64.108  1.00  0.00    -0.452 OA
ENDROOT
BRANCH   1  12
ATOM     12  C   UNL     1      50.065  30.030  62.502  1.00  0.00     0.025 A 
ATOM     13  C   UNL     1      50.820  30.531  61.427  1.00  0.00     0.016 A 
ATOM     14  C   UNL     1      50.960  29.785  60.254  1.00  0.00     0.051 A 
ATOM     15  C   UNL     1      50.339  28.539  60.129  1.00  0.00     0.157 A 
ATOM     16  C   UNL     1      49.425  28.787  62.365  1.00  0.00     0.062 A 
ATOM     17  C   UNL     1      49.564  28.037  61.189  1.00  0.00     0.158 A 
BRANCH  15  18
ATOM     18  O   UNL     1      50.497  27.816  58.947  1.00  0.00    -0.504 OA
ATOM     19  H   UNL     1      49.888  27.949  58.149  1.00  0.00     0.293 HD
ENDBRANCH  15  18
BRANCH  17  20
ATOM     20  O   UNL     1      48.936  26.798  61.069  1.00  0.00    -0.504 OA
ATOM     21  H   UNL     1      49.317  25.966  61.504  1.00  0.00     0.293 HD
ENDBRANCH  17  20
ENDBRANCH   1  12
BRANCH   2  22
ATOM     22  O   UNL     1      52.262  30.788  64.231  1.00  0.00    -0.502 OA
ATOM     23  H   UNL     1      52.451  30.086  63.524  1.00  0.00     0.293 HD
ENDBRANCH   2  22
BRANCH   6  24
ATOM     24  O   UNL     1      49.957  33.784  67.984  1.00  0.00    -0.507 OA
ATOM     25  H   UNL     1      50.443  34.638  67.756  1.00  0.00     0.293 HD
ENDBRANCH   6  24
BRANCH   8  26
ATOM     26  O   UNL     1      45.341  33.082  66.934  1.00  0.00    -0.508 OA
ATOM     27  H   UNL     1      45.068  33.464  67.833  1.00  0.00     0.293 HD
ENDBRANCH   8  26
TORSDOF 6
ENDMDL
MODEL 7
REMARK VINA RESULT:    -6.968      1.867      2.337
REMARK INTER + INTRA:          -8.223
REMARK INTER:                  -7.901
REMARK INTRA:                  -0.322
REMARK UNBOUND:                 0.172
REMARK SMILES O=c1c(O)c(-c2ccc(O)c(O)c2)oc2cc(O)cc(O)c12
REMARK SMILES IDX 5 1 3 2 2 3 1 4 22 5 20 6 19 7 17 8 16 9 15 10 14 11 6 12
REMARK SMILES IDX 7 13 8 14 9 15 13 16 11 17 10 18 12 20 4 22 21 24 18 26
REMARK H PARENT 10 19 12 21 4 23 21 25 18 27
REMARK Flexibility Score: inf
ROOT
ATOM      1  C   UNL     1      49.305  31.154  63.752  1.00  0.00     0.180 A 
ATOM      2  C   UNL     1      49.210  29.805  64.134  1.00  0.00     0.208 A 
ATOM      3  C   UNL     1      48.714  29.492  65.411  1.00  0.00     0.238 A 
ATOM      4  O   UNL     1      48.580  28.281  65.726  1.00  0.00    -0.285 OA
ATOM      5  C   UNL     1      48.336  30.532  66.295  1.00  0.00     0.111 A 
ATOM      6  C   UNL     1      47.860  30.332  67.624  1.00  0.00     0.134 A 
ATOM      7  C   UNL     1      47.391  31.426  68.362  1.00  0.00     0.093 A 
ATOM      8  C   UNL     1      47.443  32.719  67.844  1.00  0.00     0.123 A 
ATOM      9  C   UNL     1      47.963  32.933  66.567  1.00  0.00     0.094 A 
ATOM     10  C   UNL     1      48.404  31.857  65.792  1.00  0.00     0.146 A 
ATOM     11  O   UNL     1      48.881  32.104  64.579  1.00  0.00    -0.452 OA
ENDROOT
BRANCH   1  12
ATOM     12  C   UNL     1      49.840  31.564  62.434  1.00  0.00     0.025 A 
ATOM     13  C   UNL     1      48.997  31.735  61.322  1.00  0.00     0.016 A 
ATOM     14  C   UNL     1      49.527  32.100  60.082  1.00  0.00     0.051 A 
ATOM     15  C   UNL     1      50.904  32.285  59.929  1.00  0.00     0.157 A 
ATOM     16  C   UNL     1      51.226  31.731  62.271  1.00  0.00     0.062 A 
ATOM     17  C   UNL     1      51.760  32.097  61.027  1.00  0.00     0.158 A 
BRANCH  15  18
ATOM     18  O   UNL     1      51.405  32.650  58.679  1.00  0.00    -0.504 OA
ATOM     19  H   UNL     1      52.383  32.544  58.439  1.00  0.00     0.293 HD
ENDBRANCH  15  18
BRANCH  17  20
ATOM     20  O   UNL     1      53.135  32.273  60.879  1.00  0.00    -0.504 OA
ATOM     21  H   UNL     1      53.771  32.168  61.662  1.00  0.00     0.293 HD
ENDBRANCH  17  20
ENDBRANCH   1  12
BRANCH   2  22
ATOM     22  O   UNL     1      49.567  28.794  63.238  1.00  0.00    -0.502 OA
ATOM     23  H   UNL     1      50.534  28.571  63.028  1.00  0.00     0.293 HD
ENDBRANCH   2  22
BRANCH   6  24
ATOM     24  O   UNL     1      47.851  29.092  68.272  1.00  0.00    -0.507 OA
ATOM     25  H   UNL     1      48.664  28.644  68.665  1.00  0.00     0.293 HD
ENDBRANCH   6  24
BRANCH   8  26
ATOM     26  O   UNL     1      46.983  33.786  68.613  1.00  0.00    -0.508 OA
ATOM     27  H   UNL     1      46.897  33.715  69.620  1.00  0.00     0.293 HD
ENDBRANCH   8  26
TORSDOF 6
ENDMDL
MODEL 8
REMARK VINA RESULT:    -6.881      3.209      6.692
REMARK INTER + INTRA:          -8.118
REMARK INTER:                  -7.794
REMARK INTRA:                  -0.323
REMARK UNBOUND:                 0.172
REMARK SMILES O=c1c(O)c(-c2ccc(O)c(O)c2)oc2cc(O)cc(O)c12
REMARK SMILES IDX 5 1 3 2 2 3 1 4 22 5 20 6 19 7 17 8 16 9 15 10 14 11 6 12
REMARK SMILES IDX 7 13 8 14 9 15 13 16 11 17 10 18 12 20 4 22 21 24 18 26
REMARK H PARENT 10 19 12 21 4 23 21 25 18 27
REMARK Flexibility Score: inf
ROOT
ATOM      1  C   UNL     1      51.127  32.388  67.629  1.00  0.00     0.180 A 
ATOM      2  C   UNL     1      51.469  32.361  66.265  1.00  0.00     0.208 A 
ATOM      3  C   UNL     1      50.465  32.107  65.316  1.00  0.00     0.238 A 
ATOM      4  O   UNL     1      50.768  32.139  64.095  1.00  0.00    -0.285 OA
ATOM      5  C   UNL     1      49.137  31.866  65.743  1.00  0.00     0.111 A 
ATOM      6  C   UNL     1      48.050  31.558  64.872  1.00  0.00     0.134 A 
ATOM      7  C   UNL     1      46.752  31.469  65.392  1.00  0.00     0.093 A 
ATOM      8  C   UNL     1      46.512  31.609  66.757  1.00  0.00     0.123 A 
ATOM      9  C   UNL     1      47.577  31.851  67.627  1.00  0.00     0.094 A 
ATOM     10  C   UNL     1      48.878  31.983  67.133  1.00  0.00     0.146 A 
ATOM     11  O   UNL     1      49.860  32.224  67.993  1.00  0.00    -0.452 OA
ENDROOT
BRANCH   1  12
ATOM     12  C   UNL     1      52.133  32.624  68.689  1.00  0.00     0.025 A 
ATOM     13  C   UNL     1      52.447  33.924  69.124  1.00  0.00     0.016 A 
ATOM     14  C   UNL     1      53.416  34.125  70.109  1.00  0.00     0.051 A 
ATOM     15  C   UNL     1      54.096  33.037  70.664  1.00  0.00     0.157 A 
ATOM     16  C   UNL     1      52.833  31.535  69.234  1.00  0.00     0.062 A 
ATOM     17  C   UNL     1      53.807  31.735  70.224  1.00  0.00     0.158 A 
BRANCH  15  18
ATOM     18  O   UNL     1      55.058  33.268  71.648  1.00  0.00    -0.504 OA
ATOM     19  H   UNL     1      55.246  34.194  72.011  1.00  0.00     0.293 HD
ENDBRANCH  15  18
BRANCH  17  20
ATOM     20  O   UNL     1      54.486  30.646  70.768  1.00  0.00    -0.504 OA
ATOM     21  H   UNL     1      54.679  30.584  71.762  1.00  0.00     0.293 HD
ENDBRANCH  17  20
ENDBRANCH   1  12
BRANCH   2  22
ATOM     22  O   UNL     1      52.782  32.623  65.865  1.00  0.00    -0.502 OA
ATOM     23  H   UNL     1      53.242  32.097  65.131  1.00  0.00     0.293 HD
ENDBRANCH   2  22
BRANCH   6  24
ATOM     24  O   UNL     1      48.192  31.307  63.504  1.00  0.00    -0.507 OA
ATOM     25  H   UNL     1      48.271  30.389  63.093  1.00  0.00     0.293 HD
ENDBRANCH   6  24
BRANCH   8  26
ATOM     26  O   UNL     1      45.211  31.498  67.242  1.00  0.00    -0.508 OA
ATOM     27  H   UNL     1      45.017  31.450  68.235  1.00  0.00     0.293 HD
ENDBRANCH   8  26
TORSDOF 6
ENDMDL
MODEL 9
REMARK VINA RESULT:    -5.148      1.546      6.466
REMARK INTER + INTRA:          -6.030
REMARK INTER:                  -5.810
REMARK INTRA:                  -0.220
REMARK UNBOUND:                 0.172
REMARK SMILES O=c1c(O)c(-c2ccc(O)c(O)c2)oc2cc(O)cc(O)c12
REMARK SMILES IDX 5 1 3 2 2 3 1 4 22 5 20 6 19 7 17 8 16 9 15 10 14 11 6 12
REMARK SMILES IDX 7 13 8 14 9 15 13 16 11 17 10 18 12 20 4 22 21 24 18 26
REMARK H PARENT 10 19 12 21 4 23 21 25 18 27
REMARK Flexibility Score: inf
ROOT
ATOM      1  C   UNL     1      49.337  32.203  64.745  1.00  0.00     0.180 A 
ATOM      2  C   UNL     1      50.383  31.464  65.324  1.00  0.00     0.208 A 
ATOM      3  C   UNL     1      51.439  31.025  64.509  1.00  0.00     0.238 A 
ATOM      4  O   UNL     1      52.399  30.412  65.043  1.00  0.00    -0.285 OA
ATOM      5  C   UNL     1      51.428  31.316  63.123  1.00  0.00     0.111 A 
ATOM      6  C   UNL     1      52.424  30.887  62.197  1.00  0.00     0.134 A 
ATOM      7  C   UNL     1      52.380  31.344  60.873  1.00  0.00     0.093 A 
ATOM      8  C   UNL     1      51.340  32.159  60.427  1.00  0.00     0.123 A 
ATOM      9  C   UNL     1      50.328  32.536  61.311  1.00  0.00     0.094 A 
ATOM     10  C   UNL     1      50.365  32.127  62.646  1.00  0.00     0.146 A 
ATOM     11  O   UNL     1      49.387  32.516  63.455  1.00  0.00    -0.452 OA
ENDROOT
BRANCH   1  12
ATOM     12  C   UNL     1      48.178  32.678  65.534  1.00  0.00     0.025 A 
ATOM     13  C   UNL     1      48.310  33.708  66.482  1.00  0.00     0.016 A 
ATOM     14  C   UNL     1      47.207  34.125  67.232  1.00  0.00     0.051 A 
ATOM     15  C   UNL     1      45.962  33.513  67.059  1.00  0.00     0.157 A 
ATOM     16  C   UNL     1      46.930  32.052  65.378  1.00  0.00     0.062 A 
ATOM     17  C   UNL     1      45.822  32.468  66.129  1.00  0.00     0.158 A 
BRANCH  15  18
ATOM     18  O   UNL     1      44.879  33.951  67.820  1.00  0.00    -0.504 OA
ATOM     19  H   UNL     1      44.756  34.923  68.073  1.00  0.00     0.293 HD
ENDBRANCH  15  18
BRANCH  17  20
ATOM     20  O   UNL     1      44.585  31.849  65.956  1.00  0.00    -0.504 OA
ATOM     21  H   UNL     1      44.499  30.840  65.906  1.00  0.00     0.293 HD
ENDBRANCH  17  20
ENDBRANCH   1  12
BRANCH   2  22
ATOM     22  O   UNL     1      50.385  31.207  66.697  1.00  0.00    -0.502 OA
ATOM     23  H   UNL     1      51.242  31.112  67.231  1.00  0.00     0.293 HD
ENDBRANCH   2  22
BRANCH   6  24
ATOM     24  O   UNL     1      53.455  29.998  62.515  1.00  0.00    -0.507 OA
ATOM     25  H   UNL     1      53.333  29.010  62.677  1.00  0.00     0.293 HD
ENDBRANCH   6  24
BRANCH   8  26
ATOM     26  O   UNL     1      51.320  32.582  59.100  1.00  0.00    -0.508 OA
ATOM     27  H   UNL     1      52.091  32.390  58.471  1.00  0.00     0.293 HD
ENDBRANCH   8  26
TORSDOF 6
ENDMDL
