MODEL 1
REMARK VINA RESULT:    -5.102      0.000      0.000
REMARK INTER + INTRA:          -5.368
REMARK INTER:                  -5.400
REMARK INTRA:                   0.032
REMARK UNBOUND:                 0.032
REMARK SMILES CC(C)[C@@H]1CC[C@@H](C)[C@H]2C=C[C@@H](C)C[C@@H]21
REMARK SMILES IDX 8 1 7 2 6 3 5 4 4 5 15 6 9 7 10 8 11 9 12 10 14 11 13 12
REMARK SMILES IDX 2 13 1 14 3 15
REMARK H PARENT
REMARK Flexibility Score: inf
ROOT
ATOM      1  C   UNL     1     138.020 132.861 134.026  1.00  0.00     0.008 C 
ATOM      2  C   UNL     1     138.842 132.613 135.307  1.00  0.00    -0.007 C 
ATOM      3  C   UNL     1     137.977 132.004 136.427  1.00  0.00     0.004 C 
ATOM      4  C   UNL     1     137.025 133.030 137.068  1.00  0.00     0.004 C 
ATOM      5  C   UNL     1     137.760 134.282 137.625  1.00  0.00    -0.005 C 
ATOM      6  C   UNL     1     138.602 134.899 136.455  1.00  0.00    -0.000 C 
ATOM      7  C   UNL     1     139.584 133.870 135.833  1.00  0.00     0.018 C 
ATOM      8  C   UNL     1     140.465 134.485 134.765  1.00  0.00    -0.027 C 
ATOM      9  C   UNL     1     140.717 135.803 134.698  1.00  0.00    -0.028 C 
ATOM     10  C   UNL     1     140.019 136.825 135.567  1.00  0.00     0.008 C 
ATOM     11  C   UNL     1     139.360 136.190 136.810  1.00  0.00     0.012 C 
ATOM     12  C   UNL     1     139.016 137.624 134.725  1.00  0.00     0.012 C 
ENDROOT
BRANCH   5  13
ATOM     13  C   UNL     1     138.550 134.051 138.979  1.00  0.00    -0.014 C 
ATOM     14  C   UNL     1     138.685 135.359 139.789  1.00  0.00     0.007 C 
ATOM     15  C   UNL     1     137.908 133.014 139.927  1.00  0.00     0.007 C 
ENDBRANCH   5  13
TORSDOF 1
ENDMDL
MODEL 2
REMARK VINA RESULT:    -5.092      5.502      7.296
REMARK INTER + INTRA:          -5.357
REMARK INTER:                  -5.373
REMARK INTRA:                   0.016
REMARK UNBOUND:                 0.032
REMARK SMILES CC(C)[C@@H]1CC[C@@H](C)[C@H]2C=C[C@@H](C)C[C@@H]21
REMARK SMILES IDX 8 1 7 2 6 3 5 4 4 5 15 6 9 7 10 8 11 9 12 10 14 11 13 12
REMARK SMILES IDX 2 13 1 14 3 15
REMARK H PARENT
REMARK Flexibility Score: inf
ROOT
ATOM      1  C   UNL     1     134.667 139.882 133.983  1.00  0.00     0.008 C 
ATOM      2  C   UNL     1     133.879 140.137 135.284  1.00  0.00    -0.007 C 
ATOM      3  C   UNL     1     134.772 140.753 136.377  1.00  0.00     0.004 C 
ATOM      4  C   UNL     1     135.742 139.731 136.998  1.00  0.00     0.004 C 
ATOM      5  C   UNL     1     135.023 138.481 137.581  1.00  0.00    -0.005 C 
ATOM      6  C   UNL     1     134.150 137.858 136.437  1.00  0.00    -0.000 C 
ATOM      7  C   UNL     1     133.152 138.882 135.836  1.00  0.00     0.018 C 
ATOM      8  C   UNL     1     132.243 138.261 134.795  1.00  0.00    -0.027 C 
ATOM      9  C   UNL     1     131.991 136.943 134.741  1.00  0.00    -0.028 C 
ATOM     10  C   UNL     1     132.712 135.926 135.597  1.00  0.00     0.008 C 
ATOM     11  C   UNL     1     133.403 136.569 136.819  1.00  0.00     0.012 C 
ATOM     12  C   UNL     1     133.693 135.123 134.733  1.00  0.00     0.012 C 
ENDROOT
BRANCH   5  13
ATOM     13  C   UNL     1     134.269 138.720 138.955  1.00  0.00    -0.014 C 
ATOM     14  C   UNL     1     134.178 137.421 139.787  1.00  0.00     0.007 C 
ATOM     15  C   UNL     1     134.920 139.780 139.869  1.00  0.00     0.007 C 
ENDBRANCH   5  13
TORSDOF 1
ENDMDL
MODEL 3
REMARK VINA RESULT:    -5.089      3.727      5.183
REMARK INTER + INTRA:          -5.354
REMARK INTER:                  -5.370
REMARK INTRA:                   0.016
REMARK UNBOUND:                 0.032
REMARK SMILES CC(C)[C@@H]1CC[C@@H](C)[C@H]2C=C[C@@H](C)C[C@@H]21
REMARK SMILES IDX 8 1 7 2 6 3 5 4 4 5 15 6 9 7 10 8 11 9 12 10 14 11 13 12
REMARK SMILES IDX 2 13 1 14 3 15
REMARK H PARENT
REMARK Flexibility Score: inf
ROOT
ATOM      1  C   UNL     1     132.799 134.625 134.009  1.00  0.00     0.008 C 
ATOM      2  C   UNL     1     132.570 133.806 135.296  1.00  0.00    -0.007 C 
ATOM      3  C   UNL     1     131.944 134.665 136.411  1.00  0.00     0.004 C 
ATOM      4  C   UNL     1     132.952 135.642 137.044  1.00  0.00     0.004 C 
ATOM      5  C   UNL     1     134.220 134.937 137.604  1.00  0.00    -0.005 C 
ATOM      6  C   UNL     1     134.852 134.100 136.438  1.00  0.00    -0.000 C 
ATOM      7  C   UNL     1     133.843 133.094 135.824  1.00  0.00     0.018 C 
ATOM      8  C   UNL     1     134.474 132.218 134.761  1.00  0.00    -0.027 C 
ATOM      9  C   UNL     1     135.797 131.994 134.693  1.00  0.00    -0.028 C 
ATOM     10  C   UNL     1     136.806 132.718 135.555  1.00  0.00     0.008 C 
ATOM     11  C   UNL     1     136.158 133.371 136.796  1.00  0.00     0.012 C 
ATOM     12  C   UNL     1     137.582 133.732 134.706  1.00  0.00     0.012 C 
ENDROOT
BRANCH   5  13
ATOM     13  C   UNL     1     134.007 134.151 138.963  1.00  0.00    -0.014 C 
ATOM     14  C   UNL     1     135.313 134.069 139.784  1.00  0.00     0.007 C 
ATOM     15  C   UNL     1     132.941 134.763 139.899  1.00  0.00     0.007 C 
ENDBRANCH   5  13
TORSDOF 1
ENDMDL
MODEL 4
REMARK VINA RESULT:    -5.052      3.624      5.143
REMARK INTER + INTRA:          -5.315
REMARK INTER:                  -5.303
REMARK INTRA:                  -0.012
REMARK UNBOUND:                 0.032
REMARK SMILES CC(C)[C@@H]1CC[C@@H](C)[C@H]2C=C[C@@H](C)C[C@@H]21
REMARK SMILES IDX 8 1 7 2 6 3 5 4 4 5 15 6 9 7 10 8 11 9 12 10 14 11 13 12
REMARK SMILES IDX 2 13 1 14 3 15
REMARK H PARENT
REMARK Flexibility Score: inf
ROOT
ATOM      1  C   UNL     1     139.805 137.750 134.314  1.00  0.00     0.008 C 
ATOM      2  C   UNL     1     140.018 138.672 135.532  1.00  0.00    -0.007 C 
ATOM      3  C   UNL     1     140.524 137.886 136.756  1.00  0.00     0.004 C 
ATOM      4  C   UNL     1     139.421 137.036 137.414  1.00  0.00     0.004 C 
ATOM      5  C   UNL     1     138.174 137.868 137.830  1.00  0.00    -0.005 C 
ATOM      6  C   UNL     1     137.663 138.627 136.557  1.00  0.00    -0.000 C 
ATOM      7  C   UNL     1     138.769 139.507 135.916  1.00  0.00     0.018 C 
ATOM      8  C   UNL     1     138.255 140.315 134.740  1.00  0.00    -0.027 C 
ATOM      9  C   UNL     1     136.956 140.612 134.573  1.00  0.00    -0.028 C 
ATOM     10  C   UNL     1     135.856 140.036 135.436  1.00  0.00     0.008 C 
ATOM     11  C   UNL     1     136.391 139.465 136.767  1.00  0.00     0.012 C 
ATOM     12  C   UNL     1     135.061 138.995 134.637  1.00  0.00     0.012 C 
ENDROOT
BRANCH   5  13
ATOM     13  C   UNL     1     138.365 138.765 139.122  1.00  0.00    -0.014 C 
ATOM     14  C   UNL     1     137.037 138.947 139.889  1.00  0.00     0.007 C 
ATOM     15  C   UNL     1     139.386 138.213 140.142  1.00  0.00     0.007 C 
ENDBRANCH   5  13
TORSDOF 1
ENDMDL
MODEL 5
REMARK VINA RESULT:    -5.037      1.431      2.561
REMARK INTER + INTRA:          -5.299
REMARK INTER:                  -5.198
REMARK INTRA:                  -0.101
REMARK UNBOUND:                 0.032
REMARK SMILES CC(C)[C@@H]1CC[C@@H](C)[C@H]2C=C[C@@H](C)C[C@@H]21
REMARK SMILES IDX 8 1 7 2 6 3 5 4 4 5 15 6 9 7 10 8 11 9 12 10 14 11 13 12
REMARK SMILES IDX 2 13 1 14 3 15
REMARK H PARENT
REMARK Flexibility Score: inf
ROOT
ATOM      1  C   UNL     1     138.685 136.412 133.108  1.00  0.00     0.008 C 
ATOM      2  C   UNL     1     139.314 135.216 133.849  1.00  0.00    -0.007 C 
ATOM      3  C   UNL     1     138.387 133.985 133.830  1.00  0.00     0.004 C 
ATOM      4  C   UNL     1     137.190 134.129 134.787  1.00  0.00     0.004 C 
ATOM      5  C   UNL     1     137.611 134.418 136.255  1.00  0.00    -0.005 C 
ATOM      6  C   UNL     1     138.523 135.694 136.245  1.00  0.00    -0.000 C 
ATOM      7  C   UNL     1     139.746 135.533 135.305  1.00  0.00     0.018 C 
ATOM      8  C   UNL     1     140.680 136.725 135.362  1.00  0.00    -0.027 C 
ATOM      9  C   UNL     1     140.723 137.567 136.407  1.00  0.00    -0.028 C 
ATOM     10  C   UNL     1     139.736 137.519 137.552  1.00  0.00     0.008 C 
ATOM     11  C   UNL     1     138.993 136.167 137.631  1.00  0.00     0.012 C 
ATOM     12  C   UNL     1     138.769 138.705 137.454  1.00  0.00     0.012 C 
ENDROOT
BRANCH   5  13
ATOM     13  C   UNL     1     138.194 133.175 137.045  1.00  0.00    -0.014 C 
ATOM     14  C   UNL     1     137.591 133.067 138.463  1.00  0.00     0.007 C 
ATOM     15  C   UNL     1     137.953 131.810 136.363  1.00  0.00     0.007 C 
ENDBRANCH   5  13
TORSDOF 1
ENDMDL
MODEL 6
REMARK VINA RESULT:    -5.035      5.157      7.116
REMARK INTER + INTRA:          -5.297
REMARK INTER:                  -5.210
REMARK INTRA:                  -0.086
REMARK UNBOUND:                 0.032
REMARK SMILES CC(C)[C@@H]1CC[C@@H](C)[C@H]2C=C[C@@H](C)C[C@@H]21
REMARK SMILES IDX 8 1 7 2 6 3 5 4 4 5 15 6 9 7 10 8 11 9 12 10 14 11 13 12
REMARK SMILES IDX 2 13 1 14 3 15
REMARK H PARENT
REMARK Flexibility Score: inf
ROOT
ATOM      1  C   UNL     1     133.726 136.125 133.118  1.00  0.00     0.008 C 
ATOM      2  C   UNL     1     133.107 137.315 133.880  1.00  0.00    -0.007 C 
ATOM      3  C   UNL     1     133.991 138.572 133.783  1.00  0.00     0.004 C 
ATOM      4  C   UNL     1     135.252 138.482 134.663  1.00  0.00     0.004 C 
ATOM      5  C   UNL     1     134.935 138.205 136.160  1.00  0.00    -0.005 C 
ATOM      6  C   UNL     1     134.065 136.902 136.228  1.00  0.00    -0.000 C 
ATOM      7  C   UNL     1     132.780 137.009 135.366  1.00  0.00     0.018 C 
ATOM      8  C   UNL     1     131.890 135.790 135.501  1.00  0.00    -0.027 C 
ATOM      9  C   UNL     1     131.941 134.965 136.559  1.00  0.00    -0.028 C 
ATOM     10  C   UNL     1     132.997 135.064 137.637  1.00  0.00     0.008 C 
ATOM     11  C   UNL     1     133.700 136.438 137.648  1.00  0.00     0.012 C 
ATOM     12  C   UNL     1     133.993 133.906 137.495  1.00  0.00     0.012 C 
ENDROOT
BRANCH   5  13
ATOM     13  C   UNL     1     134.364 139.444 136.966  1.00  0.00    -0.014 C 
ATOM     14  C   UNL     1     134.936 139.501 138.400  1.00  0.00     0.007 C 
ATOM     15  C   UNL     1     134.656 140.818 136.324  1.00  0.00     0.007 C 
ENDBRANCH   5  13
TORSDOF 1
ENDMDL
MODEL 7
REMARK VINA RESULT:    -5.017      3.840      6.034
REMARK INTER + INTRA:          -5.278
REMARK INTER:                  -5.189
REMARK INTRA:                  -0.089
REMARK UNBOUND:                 0.032
REMARK SMILES CC(C)[C@@H]1CC[C@@H](C)[C@H]2C=C[C@@H](C)C[C@@H]21
REMARK SMILES IDX 8 1 7 2 6 3 5 4 4 5 15 6 9 7 10 8 11 9 12 10 14 11 13 12
REMARK SMILES IDX 2 13 1 14 3 15
REMARK H PARENT
REMARK Flexibility Score: inf
ROOT
ATOM      1  C   UNL     1     136.104 138.994 133.043  1.00  0.00     0.008 C 
ATOM      2  C   UNL     1     137.288 139.606 133.819  1.00  0.00    -0.007 C 
ATOM      3  C   UNL     1     138.538 138.709 133.746  1.00  0.00     0.004 C 
ATOM      4  C   UNL     1     138.422 137.455 134.633  1.00  0.00     0.004 C 
ATOM      5  C   UNL     1     138.125 137.784 136.124  1.00  0.00    -0.005 C 
ATOM      6  C   UNL     1     136.830 138.668 136.166  1.00  0.00    -0.000 C 
ATOM      7  C   UNL     1     136.964 139.946 135.298  1.00  0.00     0.018 C 
ATOM      8  C   UNL     1     135.752 140.849 135.409  1.00  0.00    -0.027 C 
ATOM      9  C   UNL     1     134.910 140.814 136.454  1.00  0.00    -0.028 C 
ATOM     10  C   UNL     1     134.982 139.764 137.541  1.00  0.00     0.008 C 
ATOM     11  C   UNL     1     136.349 139.047 137.577  1.00  0.00     0.012 C 
ATOM     12  C   UNL     1     133.816 138.778 137.387  1.00  0.00     0.012 C 
ENDROOT
BRANCH   5  13
ATOM     13  C   UNL     1     139.357 138.348 136.945  1.00  0.00    -0.014 C 
ATOM     14  C   UNL     1     139.400 137.767 138.376  1.00  0.00     0.007 C 
ATOM     15  C   UNL     1     140.737 138.059 136.314  1.00  0.00     0.007 C 
ENDBRANCH   5  13
TORSDOF 1
ENDMDL
MODEL 8
REMARK VINA RESULT:    -4.942      2.734      4.623
REMARK INTER + INTRA:          -5.198
REMARK INTER:                  -5.095
REMARK INTRA:                  -0.103
REMARK UNBOUND:                 0.032
REMARK SMILES CC(C)[C@@H]1CC[C@@H](C)[C@H]2C=C[C@@H](C)C[C@@H]21
REMARK SMILES IDX 8 1 7 2 6 3 5 4 4 5 15 6 9 7 10 8 11 9 12 10 14 11 13 12
REMARK SMILES IDX 2 13 1 14 3 15
REMARK H PARENT
REMARK Flexibility Score: inf
ROOT
ATOM      1  C   UNL     1     137.493 133.180 133.303  1.00  0.00     0.008 C 
ATOM      2  C   UNL     1     136.221 132.535 133.891  1.00  0.00    -0.007 C 
ATOM      3  C   UNL     1     134.946 133.244 133.396  1.00  0.00     0.004 C 
ATOM      4  C   UNL     1     134.730 134.614 134.064  1.00  0.00     0.004 C 
ATOM      5  C   UNL     1     134.694 134.539 135.617  1.00  0.00    -0.005 C 
ATOM      6  C   UNL     1     136.018 133.846 136.090  1.00  0.00    -0.000 C 
ATOM      7  C   UNL     1     136.215 132.451 135.440  1.00  0.00     0.018 C 
ATOM      8  C   UNL     1     137.445 131.738 135.964  1.00  0.00    -0.027 C 
ATOM      9  C   UNL     1     138.007 132.029 137.149  1.00  0.00    -0.028 C 
ATOM     10  C   UNL     1     137.581 133.203 138.001  1.00  0.00     0.008 C 
ATOM     11  C   UNL     1     136.184 133.735 137.616  1.00  0.00     0.012 C 
ATOM     12  C   UNL     1     138.653 134.300 137.946  1.00  0.00     0.012 C 
ENDROOT
BRANCH   5  13
ATOM     13  C   UNL     1     133.360 133.942 136.229  1.00  0.00    -0.014 C 
ATOM     14  C   UNL     1     132.833 134.807 137.396  1.00  0.00     0.007 C 
ATOM     15  C   UNL     1     132.196 133.807 135.224  1.00  0.00     0.007 C 
ENDBRANCH   5  13
TORSDOF 1
ENDMDL
MODEL 9
REMARK VINA RESULT:    -4.741      4.377      6.875
REMARK INTER + INTRA:          -4.986
REMARK INTER:                  -4.883
REMARK INTRA:                  -0.103
REMARK UNBOUND:                 0.032
REMARK SMILES CC(C)[C@@H]1CC[C@@H](C)[C@H]2C=C[C@@H](C)C[C@@H]21
REMARK SMILES IDX 8 1 7 2 6 3 5 4 4 5 15 6 9 7 10 8 11 9 12 10 14 11 13 12
REMARK SMILES IDX 2 13 1 14 3 15
REMARK H PARENT
REMARK Flexibility Score: inf
ROOT
ATOM      1  C   UNL     1     135.156 139.874 132.593  1.00  0.00     0.008 C 
ATOM      2  C   UNL     1     135.858 140.506 133.812  1.00  0.00    -0.007 C 
ATOM      3  C   UNL     1     137.386 140.320 133.746  1.00  0.00     0.004 C 
ATOM      4  C   UNL     1     137.823 138.878 134.065  1.00  0.00     0.004 C 
ATOM      5  C   UNL     1     137.313 138.375 135.445  1.00  0.00    -0.005 C 
ATOM      6  C   UNL     1     135.754 138.545 135.467  1.00  0.00    -0.000 C 
ATOM      7  C   UNL     1     135.320 140.006 135.178  1.00  0.00     0.018 C 
ATOM      8  C   UNL     1     133.820 140.195 135.290  1.00  0.00    -0.027 C 
ATOM      9  C   UNL     1     133.033 139.372 136.001  1.00  0.00    -0.028 C 
ATOM     10  C   UNL     1     133.526 138.083 136.620  1.00  0.00     0.008 C 
ATOM     11  C   UNL     1     135.064 138.042 136.746  1.00  0.00     0.012 C 
ATOM     12  C   UNL     1     132.978 136.886 135.831  1.00  0.00     0.012 C 
ENDROOT
BRANCH   5  13
ATOM     13  C   UNL     1     138.077 138.968 136.700  1.00  0.00    -0.014 C 
ATOM     14  C   UNL     1     138.431 137.866 137.723  1.00  0.00     0.007 C 
ATOM     15  C   UNL     1     139.399 139.693 136.364  1.00  0.00     0.007 C 
ENDBRANCH   5  13
TORSDOF 1
ENDMDL
