MODEL 1
REMARK VINA RESULT:    -5.649      0.000      0.000
REMARK INTER + INTRA:          -4.271
REMARK INTER:                  -6.970
REMARK INTRA:                   2.698
REMARK UNBOUND:                 2.698
REMARK SMILES C=C1CC[C@@H]2[C@@H]([C@H]3[C@H](C)CC[C@H]13)C2(C)C
REMARK SMILES IDX 3 1 2 2 1 3 12 4 9 5 8 6 10 7 7 8 11 9 4 11 5 12 6 13 13 14
REMARK SMILES IDX 14 16 15 17
REMARK H PARENT
REMARK Flexibility Score: 80.00
ROOT
ATOM      1  C   UNL     1      -2.217 -13.446   9.243  1.00  0.00     0.031 C 
ENDROOT
BRANCH   1   2
ATOM      2  C   UNL     1      -2.074 -14.793   8.526  1.00  0.00    -0.074 C 
ATOM      3  C   UNL     1      -0.890 -15.124   7.983  1.00  0.00     0.008 C 
BRANCH   2   4
ATOM      4  C   UNL     1      -3.202 -15.810   8.710  1.00  0.00     0.018 C 
ATOM      5  C   UNL     1      -3.884 -18.945  10.668  1.00  0.00     0.008 C 
ATOM      6  C   UNL     1      -4.158 -17.677   9.852  1.00  0.00    -0.010 C 
ATOM      7  C   UNL     1      -4.249 -17.959   8.335  1.00  0.00     0.004 C 
ATOM      8  C   UNL     1      -3.045 -16.637   9.989  1.00  0.00     0.003 CG0
ATOM      9  C   UNL     1      -3.457 -16.850   7.624  1.00  0.00     0.008 C 
ATOM     10  G   UNL     1      -3.196 -15.683  11.188  1.00  0.00     0.000 G0
ENDBRANCH   2   4
ENDBRANCH   1   2
BRANCH   1  11
ATOM     11  C   UNL     1      -2.038 -13.496  10.795  1.00  0.00     0.009 C 
BRANCH  11  12
ATOM     12  C   UNL     1      -1.848 -14.930  11.316  1.00  0.00    -0.001 C 
ATOM     13  C   UNL     1      -3.207 -15.678  11.192  1.00  0.00     0.002 CG0
ATOM     14  C   UNL     1      -2.465 -15.615  12.528  1.00  0.00    -0.029 C 
ATOM     15  G   UNL     1      -3.029 -16.641  10.003  1.00  0.00     0.000 G0
ATOM     16  C   UNL     1      -1.768 -16.894  13.003  1.00  0.00     0.011 C 
ATOM     17  C   UNL     1      -3.046 -14.695  13.607  1.00  0.00     0.011 C 
ENDBRANCH  11  12
ENDBRANCH   1  11
TORSDOF 0
ENDMDL
MODEL 2
REMARK VINA RESULT:    -5.531      1.514      4.109
REMARK INTER + INTRA:          -4.126
REMARK INTER:                  -6.895
REMARK INTRA:                   2.769
REMARK UNBOUND:                 2.698
REMARK SMILES C=C1CC[C@@H]2[C@@H]([C@H]3[C@H](C)CC[C@H]13)C2(C)C
REMARK SMILES IDX 3 1 2 2 1 3 12 4 9 5 8 6 10 7 7 8 11 9 4 11 5 12 6 13 13 14
REMARK SMILES IDX 14 16 15 17
REMARK H PARENT
REMARK Flexibility Score: 80.00
ROOT
ATOM      1  C   UNL     1      -4.148 -15.070   6.150  1.00  0.00     0.031 C 
ENDROOT
BRANCH   1   2
ATOM      2  C   UNL     1      -4.190 -14.115   7.348  1.00  0.00    -0.074 C 
ATOM      3  C   UNL     1      -5.349 -13.512   7.664  1.00  0.00     0.008 C 
BRANCH   2   4
ATOM      4  C   UNL     1      -2.984 -14.113   8.289  1.00  0.00     0.018 C 
ATOM      5  C   UNL     1      -2.027 -15.492  11.651  1.00  0.00     0.008 C 
ATOM      6  C   UNL     1      -1.866 -14.909  10.244  1.00  0.00    -0.010 C 
ATOM      7  C   UNL     1      -1.782 -13.366  10.252  1.00  0.00     0.004 C 
ATOM      8  C   UNL     1      -3.054 -15.229   9.335  1.00  0.00     0.003 CG0
ATOM      9  C   UNL     1      -2.669 -12.862   9.102  1.00  0.00     0.008 C 
ATOM     10  G   UNL     1      -2.955 -16.576   8.594  1.00  0.00     0.000 G0
ENDBRANCH   2   4
ENDBRANCH   1   2
BRANCH   1  11
ATOM     11  C   UNL     1      -4.350 -16.581   6.498  1.00  0.00     0.009 C 
BRANCH  11  12
ATOM     12  C   UNL     1      -4.379 -16.834   8.014  1.00  0.00    -0.001 C 
ATOM     13  C   UNL     1      -2.954 -16.570   8.580  1.00  0.00     0.002 CG0
ATOM     14  C   UNL     1      -3.668 -17.899   8.837  1.00  0.00    -0.029 C 
ATOM     15  G   UNL     1      -3.059 -15.227   9.326  1.00  0.00     0.000 G0
ATOM     16  C   UNL     1      -4.218 -18.137  10.246  1.00  0.00     0.011 C 
ATOM     17  C   UNL     1      -3.159 -19.124   8.069  1.00  0.00     0.011 C 
ENDBRANCH  11  12
ENDBRANCH   1  11
TORSDOF 0
ENDMDL
MODEL 3
REMARK VINA RESULT:    -5.411      1.198      3.781
REMARK INTER + INTRA:          -3.978
REMARK INTER:                  -6.698
REMARK INTRA:                   2.719
REMARK UNBOUND:                 2.698
REMARK SMILES C=C1CC[C@@H]2[C@@H]([C@H]3[C@H](C)CC[C@H]13)C2(C)C
REMARK SMILES IDX 3 1 2 2 1 3 12 4 9 5 8 6 10 7 7 8 11 9 4 11 5 12 6 13 13 14
REMARK SMILES IDX 14 16 15 17
REMARK H PARENT
REMARK Flexibility Score: 80.00
ROOT
ATOM      1  C   UNL     1      -0.475 -14.857   9.111  1.00  0.00     0.031 C 
ENDROOT
BRANCH   1   2
ATOM      2  C   UNL     1      -1.368 -14.120  10.115  1.00  0.00    -0.074 C 
ATOM      3  C   UNL     1      -1.746 -12.857   9.852  1.00  0.00     0.008 C 
BRANCH   2   4
ATOM      4  C   UNL     1      -2.013 -14.952  11.226  1.00  0.00     0.018 C 
ATOM      5  C   UNL     1      -5.353 -16.468  12.039  1.00  0.00     0.008 C 
ATOM      6  C   UNL     1      -3.840 -16.233  12.076  1.00  0.00    -0.010 C 
ATOM      7  C   UNL     1      -3.425 -15.225  13.171  1.00  0.00     0.004 C 
ATOM      8  C   UNL     1      -3.305 -15.634  10.773  1.00  0.00     0.003 CG0
ATOM      9  C   UNL     1      -2.388 -14.281  12.543  1.00  0.00     0.008 C 
ATOM     10  G   UNL     1      -2.940 -16.667   9.690  1.00  0.00     0.000 G0
ENDBRANCH   2   4
ENDBRANCH   1   2
BRANCH   1  11
ATOM     11  C   UNL     1      -1.234 -15.754   8.080  1.00  0.00     0.009 C 
BRANCH  11  12
ATOM     12  C   UNL     1      -2.740 -15.841   8.377  1.00  0.00    -0.001 C 
ATOM     13  C   UNL     1      -2.933 -16.668   9.681  1.00  0.00     0.002 CG0
ATOM     14  C   UNL     1      -3.660 -17.053   8.392  1.00  0.00    -0.029 C 
ATOM     15  G   UNL     1      -3.308 -15.635  10.761  1.00  0.00     0.000 G0
ATOM     16  C   UNL     1      -5.162 -16.758   8.320  1.00  0.00     0.011 C 
ATOM     17  C   UNL     1      -3.157 -18.299   7.652  1.00  0.00     0.011 C 
ENDBRANCH  11  12
ENDBRANCH   1  11
TORSDOF 0
ENDMDL
MODEL 4
REMARK VINA RESULT:    -5.111      1.509      3.370
REMARK INTER + INTRA:          -3.608
REMARK INTER:                  -6.328
REMARK INTRA:                   2.720
REMARK UNBOUND:                 2.698
REMARK SMILES C=C1CC[C@@H]2[C@@H]([C@H]3[C@H](C)CC[C@H]13)C2(C)C
REMARK SMILES IDX 3 1 2 2 1 3 12 4 9 5 8 6 10 7 7 8 11 9 4 11 5 12 6 13 13 14
REMARK SMILES IDX 14 16 15 17
REMARK H PARENT
REMARK Flexibility Score: 80.00
ROOT
ATOM      1  C   UNL     1      -2.367 -14.730  11.394  1.00  0.00     0.031 C 
ENDROOT
BRANCH   1   2
ATOM      2  C   UNL     1      -2.251 -14.153   9.978  1.00  0.00    -0.074 C 
ATOM      3  C   UNL     1      -1.031 -13.900   9.472  1.00  0.00     0.008 C 
BRANCH   2   4
ATOM      4  C   UNL     1      -3.511 -14.159   9.111  1.00  0.00     0.018 C 
ATOM      5  C   UNL     1      -4.971 -16.136   6.269  1.00  0.00     0.008 C 
ATOM      6  C   UNL     1      -4.909 -15.194   7.475  1.00  0.00    -0.010 C 
ATOM      7  C   UNL     1      -4.719 -13.717   7.062  1.00  0.00     0.004 C 
ATOM      8  C   UNL     1      -3.726 -15.495   8.397  1.00  0.00     0.003 CG0
ATOM      9  C   UNL     1      -3.665 -13.119   8.006  1.00  0.00     0.008 C 
ATOM     10  G   UNL     1      -4.001 -16.565   9.472  1.00  0.00     0.000 G0
ENDBRANCH   2   4
ENDBRANCH   1   2
BRANCH   1  11
ATOM     11  C   UNL     1      -2.513 -16.284  11.469  1.00  0.00     0.009 C 
BRANCH  11  12
ATOM     12  C   UNL     1      -2.623 -16.929  10.077  1.00  0.00    -0.001 C 
ATOM     13  C   UNL     1      -4.012 -16.563   9.478  1.00  0.00     0.002 CG0
ATOM     14  C   UNL     1      -3.561 -18.021   9.582  1.00  0.00    -0.029 C 
ATOM     15  G   UNL     1      -3.718 -15.509   8.395  1.00  0.00     0.000 G0
ATOM     16  C   UNL     1      -3.149 -18.721   8.283  1.00  0.00     0.011 C 
ATOM     17  C   UNL     1      -4.229 -18.884  10.659  1.00  0.00     0.011 C 
ENDBRANCH  11  12
ENDBRANCH   1  11
TORSDOF 0
ENDMDL
MODEL 5
REMARK VINA RESULT:    -4.787      1.668      3.709
REMARK INTER + INTRA:          -3.208
REMARK INTER:                  -5.953
REMARK INTRA:                   2.744
REMARK UNBOUND:                 2.698
REMARK SMILES C=C1CC[C@@H]2[C@@H]([C@H]3[C@H](C)CC[C@H]13)C2(C)C
REMARK SMILES IDX 3 1 2 2 1 3 12 4 9 5 8 6 10 7 7 8 11 9 4 11 5 12 6 13 13 14
REMARK SMILES IDX 14 16 15 17
REMARK H PARENT
REMARK Flexibility Score: 80.00
ROOT
ATOM      1  C   UNL     1      -3.025 -17.581  11.090  1.00  0.00     0.031 C 
ENDROOT
BRANCH   1   2
ATOM      2  C   UNL     1      -4.378 -17.137  10.524  1.00  0.00    -0.074 C 
ATOM      3  C   UNL     1      -5.360 -16.788  11.372  1.00  0.00     0.008 C 
BRANCH   2   4
ATOM      4  C   UNL     1      -4.451 -16.844   9.024  1.00  0.00     0.018 C 
ATOM      5  C   UNL     1      -4.480 -13.871   6.727  1.00  0.00     0.008 C 
ATOM      6  C   UNL     1      -4.314 -15.322   7.189  1.00  0.00    -0.010 C 
ATOM      7  C   UNL     1      -5.610 -16.147   7.018  1.00  0.00     0.004 C 
ATOM      8  C   UNL     1      -3.978 -15.431   8.678  1.00  0.00     0.003 CG0
ATOM      9  C   UNL     1      -5.786 -16.977   8.299  1.00  0.00     0.008 C 
ATOM     10  G   UNL     1      -2.476 -15.342   9.008  1.00  0.00     0.000 G0
ENDBRANCH   2   4
ENDBRANCH   1   2
BRANCH   1  11
ATOM     11  C   UNL     1      -1.954 -16.449  11.219  1.00  0.00     0.009 C 
BRANCH  11  12
ATOM     12  C   UNL     1      -2.410 -15.136  10.563  1.00  0.00    -0.001 C 
ATOM     13  C   UNL     1      -2.465 -15.353   9.022  1.00  0.00     0.002 CG0
ATOM     14  C   UNL     1      -1.655 -14.204   9.625  1.00  0.00    -0.029 C 
ATOM     15  G   UNL     1      -3.965 -15.438   8.682  1.00  0.00     0.000 G0
ATOM     16  C   UNL     1      -2.228 -12.791   9.478  1.00  0.00     0.011 C 
ATOM     17  C   UNL     1      -0.129 -14.343   9.610  1.00  0.00     0.011 C 
ENDBRANCH  11  12
ENDBRANCH   1  11
TORSDOF 0
ENDMDL
MODEL 6
REMARK VINA RESULT:    -4.748      1.154      3.466
REMARK INTER + INTRA:          -3.160
REMARK INTER:                  -5.897
REMARK INTRA:                   2.737
REMARK UNBOUND:                 2.698
REMARK SMILES C=C1CC[C@@H]2[C@@H]([C@H]3[C@H](C)CC[C@H]13)C2(C)C
REMARK SMILES IDX 3 1 2 2 1 3 12 4 9 5 8 6 10 7 7 8 11 9 4 11 5 12 6 13 13 14
REMARK SMILES IDX 14 16 15 17
REMARK H PARENT
REMARK Flexibility Score: 80.00
ROOT
ATOM      1  C   UNL     1      -3.977 -18.238   9.238  1.00  0.00     0.031 C 
ENDROOT
BRANCH   1   2
ATOM      2  C   UNL     1      -4.433 -16.843   8.796  1.00  0.00    -0.074 C 
ATOM      3  C   UNL     1      -5.740 -16.534   8.851  1.00  0.00     0.008 C 
BRANCH   2   4
ATOM      4  C   UNL     1      -3.351 -15.783   8.583  1.00  0.00     0.018 C 
ATOM      5  C   UNL     1      -1.899 -12.829  10.395  1.00  0.00     0.008 C 
ATOM      6  C   UNL     1      -2.004 -13.987   9.399  1.00  0.00    -0.010 C 
ATOM      7  C   UNL     1      -2.600 -13.547   8.043  1.00  0.00     0.004 C 
ATOM      8  C   UNL     1      -2.931 -15.102   9.888  1.00  0.00     0.003 CG0
ATOM      9  C   UNL     1      -3.615 -14.624   7.627  1.00  0.00     0.008 C 
ATOM     10  G   UNL     1      -2.254 -16.162  10.776  1.00  0.00     0.000 G0
ENDBRANCH   2   4
ENDBRANCH   1   2
BRANCH   1  11
ATOM     11  C   UNL     1      -3.511 -18.345  10.726  1.00  0.00     0.009 C 
BRANCH  11  12
ATOM     12  C   UNL     1      -3.437 -16.972  11.416  1.00  0.00    -0.001 C 
ATOM     13  C   UNL     1      -2.259 -16.173  10.786  1.00  0.00     0.002 CG0
ATOM     14  C   UNL     1      -2.345 -16.385  12.299  1.00  0.00    -0.029 C 
ATOM     15  G   UNL     1      -2.927 -15.109   9.895  1.00  0.00     0.000 G0
ATOM     16  C   UNL     1      -2.748 -15.179  13.154  1.00  0.00     0.011 C 
ATOM     17  C   UNL     1      -1.362 -17.384  12.920  1.00  0.00     0.011 C 
ENDBRANCH  11  12
ENDBRANCH   1  11
TORSDOF 0
ENDMDL
MODEL 7
REMARK VINA RESULT:    -4.565      1.561      4.690
REMARK INTER + INTRA:          -2.935
REMARK INTER:                  -5.693
REMARK INTRA:                   2.758
REMARK UNBOUND:                 2.698
REMARK SMILES C=C1CC[C@@H]2[C@@H]([C@H]3[C@H](C)CC[C@H]13)C2(C)C
REMARK SMILES IDX 3 1 2 2 1 3 12 4 9 5 8 6 10 7 7 8 11 9 4 11 5 12 6 13 13 14
REMARK SMILES IDX 14 16 15 17
REMARK H PARENT
REMARK Flexibility Score: 80.00
ROOT
ATOM      1  C   UNL     1      -5.878 -16.909  10.069  1.00  0.00     0.031 C 
ENDROOT
BRANCH   1   2
ATOM      2  C   UNL     1      -4.558 -17.028  10.838  1.00  0.00    -0.074 C 
ATOM      3  C   UNL     1      -3.961 -18.229  10.932  1.00  0.00     0.008 C 
BRANCH   2   4
ATOM      4  C   UNL     1      -3.845 -15.729  11.218  1.00  0.00     0.018 C 
ATOM      5  C   UNL     1      -0.960 -13.640  10.022  1.00  0.00     0.008 C 
ATOM      6  C   UNL     1      -2.261 -14.007  10.743  1.00  0.00    -0.010 C 
ATOM      7  C   UNL     1      -2.018 -14.479  12.194  1.00  0.00     0.004 C 
ATOM      8  C   UNL     1      -2.998 -15.168  10.074  1.00  0.00     0.003 CG0
ATOM      9  C   UNL     1      -2.905 -15.714  12.419  1.00  0.00     0.008 C 
ATOM     10  G   UNL     1      -3.952 -14.758   8.937  1.00  0.00     0.000 G0
ENDBRANCH   2   4
ENDBRANCH   1   2
BRANCH   1  11
ATOM     11  C   UNL     1      -5.739 -16.495   8.568  1.00  0.00     0.009 C 
BRANCH  11  12
ATOM     12  C   UNL     1      -4.297 -16.106   8.201  1.00  0.00    -0.001 C 
ATOM     13  C   UNL     1      -3.951 -14.773   8.926  1.00  0.00     0.002 CG0
ATOM     14  C   UNL     1      -3.783 -14.910   7.412  1.00  0.00    -0.029 C 
ATOM     15  G   UNL     1      -3.000 -15.173  10.070  1.00  0.00     0.000 G0
ATOM     16  C   UNL     1      -2.354 -15.024   6.873  1.00  0.00     0.011 C 
ATOM     17  C   UNL     1      -4.806 -14.187   6.528  1.00  0.00     0.011 C 
ENDBRANCH  11  12
ENDBRANCH   1  11
TORSDOF 0
ENDMDL
MODEL 8
REMARK VINA RESULT:    -3.875      1.727      2.784
REMARK INTER + INTRA:          -2.083
REMARK INTER:                  -4.812
REMARK INTRA:                   2.729
REMARK UNBOUND:                 2.698
REMARK SMILES C=C1CC[C@@H]2[C@@H]([C@H]3[C@H](C)CC[C@H]13)C2(C)C
REMARK SMILES IDX 3 1 2 2 1 3 12 4 9 5 8 6 10 7 7 8 11 9 4 11 5 12 6 13 13 14
REMARK SMILES IDX 14 16 15 17
REMARK H PARENT
REMARK Flexibility Score: 80.00
ROOT
ATOM      1  C   UNL     1      -4.852 -13.879   7.269  1.00  0.00     0.031 C 
ENDROOT
BRANCH   1   2
ATOM      2  C   UNL     1      -4.647 -15.397   7.233  1.00  0.00    -0.074 C 
ATOM      3  C   UNL     1      -4.253 -15.978   6.086  1.00  0.00     0.008 C 
BRANCH   2   4
ATOM      4  C   UNL     1      -4.628 -16.136   8.572  1.00  0.00     0.018 C 
ATOM      5  C   UNL     1      -2.116 -17.625  10.938  1.00  0.00     0.008 C 
ATOM      6  C   UNL     1      -3.439 -17.037  10.438  1.00  0.00    -0.010 C 
ATOM      7  C   UNL     1      -4.415 -18.124   9.934  1.00  0.00     0.004 C 
ATOM      8  C   UNL     1      -3.253 -16.099   9.244  1.00  0.00     0.003 CG0
ATOM      9  C   UNL     1      -5.026 -17.607   8.622  1.00  0.00     0.008 C 
ATOM     10  G   UNL     1      -2.948 -14.635   9.614  1.00  0.00     0.000 G0
ENDBRANCH   2   4
ENDBRANCH   1   2
BRANCH   1  11
ATOM     11  C   UNL     1      -3.639 -13.056   7.810  1.00  0.00     0.009 C 
BRANCH  11  12
ATOM     12  C   UNL     1      -2.492 -13.957   8.297  1.00  0.00    -0.001 C 
ATOM     13  C   UNL     1      -2.936 -14.638   9.624  1.00  0.00     0.002 CG0
ATOM     14  C   UNL     1      -1.630 -13.846   9.547  1.00  0.00    -0.029 C 
ATOM     15  G   UNL     1      -3.232 -16.102   9.245  1.00  0.00     0.000 G0
ATOM     16  C   UNL     1      -0.324 -14.646   9.536  1.00  0.00     0.011 C 
ATOM     17  C   UNL     1      -1.604 -12.476  10.235  1.00  0.00     0.011 C 
ENDBRANCH  11  12
ENDBRANCH   1  11
TORSDOF 0
ENDMDL
MODEL 9
REMARK VINA RESULT:    -3.758      1.199      4.355
REMARK INTER + INTRA:          -1.938
REMARK INTER:                  -4.607
REMARK INTRA:                   2.669
REMARK UNBOUND:                 2.698
REMARK SMILES C=C1CC[C@@H]2[C@@H]([C@H]3[C@H](C)CC[C@H]13)C2(C)C
REMARK SMILES IDX 3 1 2 2 1 3 12 4 9 5 8 6 10 7 7 8 11 9 4 11 5 12 6 13 13 14
REMARK SMILES IDX 14 16 15 17
REMARK H PARENT
REMARK Flexibility Score: 80.00
ROOT
ATOM      1  C   UNL     1      -4.805 -15.752  12.252  1.00  0.00     0.031 C 
ENDROOT
BRANCH   1   2
ATOM      2  C   UNL     1      -3.293 -15.503  12.206  1.00  0.00    -0.074 C 
ATOM      3  C   UNL     1      -2.483 -16.246  12.979  1.00  0.00     0.008 C 
BRANCH   2   4
ATOM      4  C   UNL     1      -2.760 -14.619  11.077  1.00  0.00     0.018 C 
ATOM      5  C   UNL     1      -0.979 -15.003   7.791  1.00  0.00     0.008 C 
ATOM      6  C   UNL     1      -1.829 -14.363   8.893  1.00  0.00    -0.010 C 
ATOM      7  C   UNL     1      -0.987 -13.506   9.865  1.00  0.00     0.004 C 
ATOM      8  C   UNL     1      -2.516 -15.400   9.784  1.00  0.00     0.003 CG0
ATOM      9  C   UNL     1      -1.470 -13.833  11.286  1.00  0.00     0.008 C 
ATOM     10  G   UNL     1      -3.880 -15.894   9.266  1.00  0.00     0.000 G0
ENDBRANCH   2   4
ENDBRANCH   1   2
BRANCH   1  11
ATOM     11  C   UNL     1      -5.360 -16.686  11.129  1.00  0.00     0.009 C 
BRANCH  11  12
ATOM     12  C   UNL     1      -4.271 -17.111  10.131  1.00  0.00    -0.001 C 
ATOM     13  C   UNL     1      -3.897 -15.877   9.260  1.00  0.00     0.002 CG0
ATOM     14  C   UNL     1      -4.322 -17.195   8.612  1.00  0.00    -0.029 C 
ATOM     15  G   UNL     1      -2.518 -15.424   9.776  1.00  0.00     0.000 G0
ATOM     16  C   UNL     1      -3.226 -18.035   7.948  1.00  0.00     0.011 C 
ATOM     17  C   UNL     1      -5.718 -17.244   7.980  1.00  0.00     0.011 C 
ENDBRANCH  11  12
ENDBRANCH   1  11
TORSDOF 0
ENDMDL
