MODEL 1
REMARK VINA RESULT:    -3.179      0.000      0.000
REMARK INTER + INTRA:          -9.314
REMARK INTER:                  -6.152
REMARK INTRA:                  -3.162
REMARK UNBOUND:                -3.162
REMARK SMILES CCCCCCCCCCCCCCCCCC(=O)[O-]
REMARK SMILES IDX 10 1 11 2 12 3 13 4 14 5 15 6 16 7 17 8 18 9 19 10 20 11
REMARK SMILES IDX 9 12 8 13 7 14 6 15 5 16 4 17 3 18 2 19 1 20
REMARK H PARENT
REMARK Flexibility Score: inf
ROOT
ATOM      1  C   UNL     1      19.848  18.094  16.983  1.00  0.00     0.000 C 
ENDROOT
BRANCH   1   2
ATOM      2  C   UNL     1      20.568  17.926  18.334  1.00  0.00     0.000 C 
BRANCH   2   3
ATOM      3  C   UNL     1      21.042  16.484  18.583  1.00  0.00     0.000 C 
BRANCH   3   4
ATOM      4  C   UNL     1      20.584  15.940  19.946  1.00  0.00     0.000 C 
BRANCH   4   5
ATOM      5  C   UNL     1      19.278  15.136  19.855  1.00  0.00     0.000 C 
BRANCH   5   6
ATOM      6  C   UNL     1      18.235  15.671  20.846  1.00  0.00     0.000 C 
BRANCH   6   7
ATOM      7  C   UNL     1      17.397  16.791  20.211  1.00  0.00     0.006 C 
BRANCH   7   8
ATOM      8  C   UNL     1      17.206  17.982  21.159  1.00  0.00     0.053 C 
BRANCH   8   9
ATOM      9  C   UNL     1      18.305  18.989  21.016  1.00  0.00     0.041 C 
ATOM     10  O   UNL     1      18.202  19.926  20.181  1.00  0.00    -0.550 OA
ATOM     11  O   UNL     1      19.459  18.874  21.781  1.00  0.00    -0.550 OA
ENDBRANCH   8   9
ENDBRANCH   7   8
ENDBRANCH   6   7
ENDBRANCH   5   6
ENDBRANCH   4   5
ENDBRANCH   3   4
ENDBRANCH   2   3
ENDBRANCH   1   2
BRANCH   1  12
ATOM     12  C   UNL     1      18.313  18.222  17.066  1.00  0.00     0.000 C 
BRANCH  12  13
ATOM     13  C   UNL     1      17.526  17.254  16.164  1.00  0.00    -0.000 C 
BRANCH  13  14
ATOM     14  C   UNL     1      17.388  15.822  16.714  1.00  0.00    -0.000 C 
BRANCH  14  15
ATOM     15  C   UNL     1      17.756  14.726  15.691  1.00  0.00    -0.000 C 
BRANCH  15  16
ATOM     16  C   UNL     1      19.214  14.835  15.209  1.00  0.00    -0.000 C 
BRANCH  16  17
ATOM     17  C   UNL     1      20.188  14.039  16.091  1.00  0.00    -0.000 C 
BRANCH  17  18
ATOM     18  C   UNL     1      19.535  12.796  16.721  1.00  0.00    -0.000 C 
BRANCH  18  19
ATOM     19  C   UNL     1      20.410  12.160  17.811  1.00  0.00    -0.003 C 
ATOM     20  C   UNL     1      21.780  12.826  17.932  1.00  0.00     0.004 C 
ENDBRANCH  18  19
ENDBRANCH  17  18
ENDBRANCH  16  17
ENDBRANCH  15  16
ENDBRANCH  14  15
ENDBRANCH  13  14
ENDBRANCH  12  13
ENDBRANCH   1  12
TORSDOF 16
ENDMDL
MODEL 2
REMARK VINA RESULT:    -3.152     12.362     15.032
REMARK INTER + INTRA:          -9.262
REMARK INTER:                  -6.852
REMARK INTRA:                  -2.410
REMARK UNBOUND:                -3.162
REMARK SMILES CCCCCCCCCCCCCCCCCC(=O)[O-]
REMARK SMILES IDX 10 1 11 2 12 3 13 4 14 5 15 6 16 7 17 8 18 9 19 10 20 11
REMARK SMILES IDX 9 12 8 13 7 14 6 15 5 16 4 17 3 18 2 19 1 20
REMARK H PARENT
REMARK Flexibility Score: inf
ROOT
ATOM      1  C   UNL     1      24.103   7.560  27.103  1.00  0.00     0.000 C 
ENDROOT
BRANCH   1   2
ATOM      2  C   UNL     1      25.158   8.599  27.526  1.00  0.00     0.000 C 
BRANCH   2   3
ATOM      3  C   UNL     1      26.216   8.853  26.439  1.00  0.00     0.000 C 
BRANCH   3   4
ATOM      4  C   UNL     1      27.450   9.594  26.980  1.00  0.00     0.000 C 
BRANCH   4   5
ATOM      5  C   UNL     1      28.771   8.976  26.499  1.00  0.00     0.000 C 
BRANCH   5   6
ATOM      6  C   UNL     1      29.875   9.157  27.549  1.00  0.00     0.000 C 
BRANCH   6   7
ATOM      7  C   UNL     1      29.374   9.996  28.734  1.00  0.00     0.006 C 
BRANCH   7   8
ATOM      8  C   UNL     1      30.488  10.849  29.354  1.00  0.00     0.053 C 
BRANCH   8   9
ATOM      9  C   UNL     1      29.956  12.119  29.943  1.00  0.00     0.041 C 
ATOM     10  O   UNL     1      30.694  12.844  30.660  1.00  0.00    -0.550 OA
ATOM     11  O   UNL     1      28.632  12.484  29.728  1.00  0.00    -0.550 OA
ENDBRANCH   8   9
ENDBRANCH   7   8
ENDBRANCH   6   7
ENDBRANCH   5   6
ENDBRANCH   4   5
ENDBRANCH   3   4
ENDBRANCH   2   3
ENDBRANCH   1   2
BRANCH   1  12
ATOM     12  C   UNL     1      24.185   6.204  27.835  1.00  0.00     0.000 C 
BRANCH  12  13
ATOM     13  C   UNL     1      25.361   6.060  28.816  1.00  0.00    -0.000 C 
BRANCH  13  14
ATOM     14  C   UNL     1      26.399   4.988  28.432  1.00  0.00    -0.000 C 
BRANCH  14  15
ATOM     15  C   UNL     1      27.472   5.490  27.441  1.00  0.00    -0.000 C 
BRANCH  15  16
ATOM     16  C   UNL     1      27.183   5.063  25.991  1.00  0.00    -0.000 C 
BRANCH  16  17
ATOM     17  C   UNL     1      27.913   5.938  24.961  1.00  0.00    -0.000 C 
BRANCH  17  18
ATOM     18  C   UNL     1      27.089   6.154  23.680  1.00  0.00    -0.000 C 
BRANCH  18  19
ATOM     19  C   UNL     1      25.576   6.130  23.942  1.00  0.00    -0.003 C 
ATOM     20  C   UNL     1      24.790   6.978  22.944  1.00  0.00     0.004 C 
ENDBRANCH  18  19
ENDBRANCH  17  18
ENDBRANCH  16  17
ENDBRANCH  15  16
ENDBRANCH  14  15
ENDBRANCH  13  14
ENDBRANCH  12  13
ENDBRANCH   1  12
TORSDOF 16
ENDMDL
MODEL 3
REMARK VINA RESULT:    -3.119      1.865      3.419
REMARK INTER + INTRA:          -9.198
REMARK INTER:                  -6.398
REMARK INTRA:                  -2.801
REMARK UNBOUND:                -3.162
REMARK SMILES CCCCCCCCCCCCCCCCCC(=O)[O-]
REMARK SMILES IDX 10 1 11 2 12 3 13 4 14 5 15 6 16 7 17 8 18 9 19 10 20 11
REMARK SMILES IDX 9 12 8 13 7 14 6 15 5 16 4 17 3 18 2 19 1 20
REMARK H PARENT
REMARK Flexibility Score: inf
ROOT
ATOM      1  C   UNL     1      17.497  14.860  15.487  1.00  0.00     0.000 C 
ENDROOT
BRANCH   1   2
ATOM      2  C   UNL     1      16.891  15.717  16.614  1.00  0.00     0.000 C 
BRANCH   2   3
ATOM      3  C   UNL     1      17.444  17.152  16.636  1.00  0.00     0.000 C 
BRANCH   3   4
ATOM      4  C   UNL     1      17.868  17.598  18.045  1.00  0.00     0.000 C 
BRANCH   4   5
ATOM      5  C   UNL     1      17.381  16.641  19.143  1.00  0.00     0.000 C 
BRANCH   5   6
ATOM      6  C   UNL     1      17.701  17.197  20.536  1.00  0.00     0.000 C 
BRANCH   6   7
ATOM      7  C   UNL     1      17.866  16.062  21.558  1.00  0.00     0.006 C 
BRANCH   7   8
ATOM      8  C   UNL     1      19.278  15.464  21.539  1.00  0.00     0.053 C 
BRANCH   8   9
ATOM      9  C   UNL     1      19.954  15.589  22.869  1.00  0.00     0.041 C 
ATOM     10  O   UNL     1      19.868  16.660  23.527  1.00  0.00    -0.550 OA
ATOM     11  O   UNL     1      20.708  14.534  23.370  1.00  0.00    -0.550 OA
ENDBRANCH   8   9
ENDBRANCH   7   8
ENDBRANCH   6   7
ENDBRANCH   5   6
ENDBRANCH   4   5
ENDBRANCH   3   4
ENDBRANCH   2   3
ENDBRANCH   1   2
BRANCH   1  12
ATOM     12  C   UNL     1      18.018  15.648  14.268  1.00  0.00     0.000 C 
BRANCH  12  13
ATOM     13  C   UNL     1      19.524  15.497  13.985  1.00  0.00    -0.000 C 
BRANCH  13  14
ATOM     14  C   UNL     1      20.359  16.768  14.226  1.00  0.00    -0.000 C 
BRANCH  14  15
ATOM     15  C   UNL     1      20.981  16.843  15.638  1.00  0.00    -0.000 C 
BRANCH  15  16
ATOM     16  C   UNL     1      21.149  15.456  16.283  1.00  0.00    -0.000 C 
BRANCH  16  17
ATOM     17  C   UNL     1      20.793  15.453  17.778  1.00  0.00    -0.000 C 
BRANCH  17  18
ATOM     18  C   UNL     1      19.935  14.240  18.178  1.00  0.00    -0.000 C 
BRANCH  18  19
ATOM     19  C   UNL     1      20.146  13.037  17.248  1.00  0.00    -0.003 C 
ATOM     20  C   UNL     1      20.638  11.795  17.990  1.00  0.00     0.004 C 
ENDBRANCH  18  19
ENDBRANCH  17  18
ENDBRANCH  16  17
ENDBRANCH  15  16
ENDBRANCH  14  15
ENDBRANCH  13  14
ENDBRANCH  12  13
ENDBRANCH   1  12
TORSDOF 16
ENDMDL
MODEL 4
REMARK VINA RESULT:    -3.115      2.647      5.381
REMARK INTER + INTRA:          -9.190
REMARK INTER:                  -6.540
REMARK INTRA:                  -2.650
REMARK UNBOUND:                -3.162
REMARK SMILES CCCCCCCCCCCCCCCCCC(=O)[O-]
REMARK SMILES IDX 10 1 11 2 12 3 13 4 14 5 15 6 16 7 17 8 18 9 19 10 20 11
REMARK SMILES IDX 9 12 8 13 7 14 6 15 5 16 4 17 3 18 2 19 1 20
REMARK H PARENT
REMARK Flexibility Score: inf
ROOT
ATOM      1  C   UNL     1      17.739  17.351  16.453  1.00  0.00     0.000 C 
ENDROOT
BRANCH   1   2
ATOM      2  C   UNL     1      17.000  16.034  16.153  1.00  0.00     0.000 C 
BRANCH   2   3
ATOM      3  C   UNL     1      17.577  15.288  14.938  1.00  0.00     0.000 C 
BRANCH   3   4
ATOM      4  C   UNL     1      18.981  14.722  15.206  1.00  0.00     0.000 C 
BRANCH   4   5
ATOM      5  C   UNL     1      18.964  13.524  16.169  1.00  0.00     0.000 C 
BRANCH   5   6
ATOM      6  C   UNL     1      19.868  13.783  17.381  1.00  0.00     0.000 C 
BRANCH   6   7
ATOM      7  C   UNL     1      20.783  12.579  17.652  1.00  0.00     0.006 C 
BRANCH   7   8
ATOM      8  C   UNL     1      21.310  12.563  19.092  1.00  0.00     0.053 C 
BRANCH   8   9
ATOM      9  C   UNL     1      22.749  12.974  19.163  1.00  0.00     0.041 C 
ATOM     10  O   UNL     1      23.457  12.985  18.122  1.00  0.00    -0.550 OA
ATOM     11  O   UNL     1      23.316  13.314  20.385  1.00  0.00    -0.550 OA
ENDBRANCH   8   9
ENDBRANCH   7   8
ENDBRANCH   6   7
ENDBRANCH   5   6
ENDBRANCH   4   5
ENDBRANCH   3   4
ENDBRANCH   2   3
ENDBRANCH   1   2
BRANCH   1  12
ATOM     12  C   UNL     1      17.742  17.782  17.934  1.00  0.00     0.000 C 
BRANCH  12  13
ATOM     13  C   UNL     1      17.498  16.648  18.946  1.00  0.00    -0.000 C 
BRANCH  13  14
ATOM     14  C   UNL     1      17.304  17.109  20.403  1.00  0.00    -0.000 C 
BRANCH  14  15
ATOM     15  C   UNL     1      17.944  16.164  21.443  1.00  0.00    -0.000 C 
BRANCH  15  16
ATOM     16  C   UNL     1      18.905  15.146  20.804  1.00  0.00    -0.000 C 
BRANCH  16  17
ATOM     17  C   UNL     1      20.374  15.412  21.167  1.00  0.00    -0.000 C 
BRANCH  17  18
ATOM     18  C   UNL     1      20.920  16.696  20.517  1.00  0.00    -0.000 C 
BRANCH  18  19
ATOM     19  C   UNL     1      21.764  16.410  19.267  1.00  0.00    -0.003 C 
ATOM     20  C   UNL     1      21.269  17.165  18.034  1.00  0.00     0.004 C 
ENDBRANCH  18  19
ENDBRANCH  17  18
ENDBRANCH  16  17
ENDBRANCH  15  16
ENDBRANCH  14  15
ENDBRANCH  13  14
ENDBRANCH  12  13
ENDBRANCH   1  12
TORSDOF 16
ENDMDL
MODEL 5
REMARK VINA RESULT:    -3.102      2.922      5.126
REMARK INTER + INTRA:          -9.166
REMARK INTER:                  -6.676
REMARK INTRA:                  -2.490
REMARK UNBOUND:                -3.162
REMARK SMILES CCCCCCCCCCCCCCCCCC(=O)[O-]
REMARK SMILES IDX 10 1 11 2 12 3 13 4 14 5 15 6 16 7 17 8 18 9 19 10 20 11
REMARK SMILES IDX 9 12 8 13 7 14 6 15 5 16 4 17 3 18 2 19 1 20
REMARK H PARENT
REMARK Flexibility Score: inf
ROOT
ATOM      1  C   UNL     1      20.017  12.682  17.547  1.00  0.00     0.000 C 
ENDROOT
BRANCH   1   2
ATOM      2  C   UNL     1      21.550  12.808  17.479  1.00  0.00     0.000 C 
BRANCH   2   3
ATOM      3  C   UNL     1      22.112  13.819  18.492  1.00  0.00     0.000 C 
BRANCH   3   4
ATOM      4  C   UNL     1      21.364  15.162  18.462  1.00  0.00     0.000 C 
BRANCH   4   5
ATOM      5  C   UNL     1      20.960  15.648  19.863  1.00  0.00     0.000 C 
BRANCH   5   6
ATOM      6  C   UNL     1      20.000  14.656  20.532  1.00  0.00     0.000 C 
BRANCH   6   7
ATOM      7  C   UNL     1      20.548  14.188  21.888  1.00  0.00     0.006 C 
BRANCH   7   8
ATOM      8  C   UNL     1      21.013  12.727  21.854  1.00  0.00     0.053 C 
BRANCH   8   9
ATOM      9  C   UNL     1      21.348  12.217  23.222  1.00  0.00     0.041 C 
ATOM     10  O   UNL     1      20.961  12.842  24.244  1.00  0.00    -0.550 OA
ATOM     11  O   UNL     1      22.118  11.069  23.367  1.00  0.00    -0.550 OA
ENDBRANCH   8   9
ENDBRANCH   7   8
ENDBRANCH   6   7
ENDBRANCH   5   6
ENDBRANCH   4   5
ENDBRANCH   3   4
ENDBRANCH   2   3
ENDBRANCH   1   2
BRANCH   1  12
ATOM     12  C   UNL     1      19.272  12.979  16.228  1.00  0.00     0.000 C 
BRANCH  12  13
ATOM     13  C   UNL     1      19.883  14.102  15.371  1.00  0.00    -0.000 C 
BRANCH  13  14
ATOM     14  C   UNL     1      18.994  15.349  15.206  1.00  0.00    -0.000 C 
BRANCH  14  15
ATOM     15  C   UNL     1      17.486  15.062  15.376  1.00  0.00    -0.000 C 
BRANCH  15  16
ATOM     16  C   UNL     1      16.854  15.883  16.514  1.00  0.00    -0.000 C 
BRANCH  16  17
ATOM     17  C   UNL     1      17.822  16.114  17.684  1.00  0.00    -0.000 C 
BRANCH  17  18
ATOM     18  C   UNL     1      17.620  17.483  18.357  1.00  0.00    -0.000 C 
BRANCH  18  19
ATOM     19  C   UNL     1      18.256  18.631  17.560  1.00  0.00    -0.003 C 
ATOM     20  C   UNL     1      19.750  18.424  17.316  1.00  0.00     0.004 C 
ENDBRANCH  18  19
ENDBRANCH  17  18
ENDBRANCH  16  17
ENDBRANCH  15  16
ENDBRANCH  14  15
ENDBRANCH  13  14
ENDBRANCH  12  13
ENDBRANCH   1  12
TORSDOF 16
ENDMDL
MODEL 6
REMARK VINA RESULT:    -3.099      2.084      2.683
REMARK INTER + INTRA:          -9.161
REMARK INTER:                  -7.116
REMARK INTRA:                  -2.045
REMARK UNBOUND:                -3.162
REMARK SMILES CCCCCCCCCCCCCCCCCC(=O)[O-]
REMARK SMILES IDX 10 1 11 2 12 3 13 4 14 5 15 6 16 7 17 8 18 9 19 10 20 11
REMARK SMILES IDX 9 12 8 13 7 14 6 15 5 16 4 17 3 18 2 19 1 20
REMARK H PARENT
REMARK Flexibility Score: inf
ROOT
ATOM      1  C   UNL     1      18.042  17.522  17.730  1.00  0.00     0.000 C 
ENDROOT
BRANCH   1   2
ATOM      2  C   UNL     1      17.742  16.551  18.886  1.00  0.00     0.000 C 
BRANCH   2   3
ATOM      3  C   UNL     1      18.986  15.776  19.354  1.00  0.00     0.000 C 
BRANCH   3   4
ATOM      4  C   UNL     1      18.833  15.221  20.780  1.00  0.00     0.000 C 
BRANCH   4   5
ATOM      5  C   UNL     1      19.607  16.042  21.823  1.00  0.00     0.000 C 
BRANCH   5   6
ATOM      6  C   UNL     1      18.644  16.803  22.744  1.00  0.00     0.000 C 
BRANCH   6   7
ATOM      7  C   UNL     1      17.196  16.336  22.535  1.00  0.00     0.006 C 
BRANCH   7   8
ATOM      8  C   UNL     1      16.380  16.374  23.833  1.00  0.00     0.053 C 
BRANCH   8   9
ATOM      9  C   UNL     1      15.864  17.749  24.126  1.00  0.00     0.041 C 
ATOM     10  O   UNL     1      15.647  18.105  25.314  1.00  0.00    -0.550 OA
ATOM     11  O   UNL     1      15.591  18.627  23.084  1.00  0.00    -0.550 OA
ENDBRANCH   8   9
ENDBRANCH   7   8
ENDBRANCH   6   7
ENDBRANCH   5   6
ENDBRANCH   4   5
ENDBRANCH   3   4
ENDBRANCH   2   3
ENDBRANCH   1   2
BRANCH   1  12
ATOM     12  C   UNL     1      17.678  17.005  16.323  1.00  0.00     0.000 C 
BRANCH  12  13
ATOM     13  C   UNL     1      16.887  15.684  16.297  1.00  0.00    -0.000 C 
BRANCH  13  14
ATOM     14  C   UNL     1      17.654  14.481  15.715  1.00  0.00    -0.000 C 
BRANCH  14  15
ATOM     15  C   UNL     1      19.136  14.783  15.402  1.00  0.00    -0.000 C 
BRANCH  15  16
ATOM     16  C   UNL     1      20.103  13.944  16.257  1.00  0.00    -0.000 C 
BRANCH  16  17
ATOM     17  C   UNL     1      19.422  12.721  16.889  1.00  0.00    -0.000 C 
BRANCH  17  18
ATOM     18  C   UNL     1      20.381  11.899  17.768  1.00  0.00    -0.000 C 
BRANCH  18  19
ATOM     19  C   UNL     1      21.533  12.745  18.331  1.00  0.00    -0.003 C 
ATOM     20  C   UNL     1      21.499  12.850  19.855  1.00  0.00     0.004 C 
ENDBRANCH  18  19
ENDBRANCH  17  18
ENDBRANCH  16  17
ENDBRANCH  15  16
ENDBRANCH  14  15
ENDBRANCH  13  14
ENDBRANCH  12  13
ENDBRANCH   1  12
TORSDOF 16
ENDMDL
MODEL 7
REMARK VINA RESULT:    -3.097      1.596      3.523
REMARK INTER + INTRA:          -9.156
REMARK INTER:                  -5.941
REMARK INTRA:                  -3.215
REMARK UNBOUND:                -3.162
REMARK SMILES CCCCCCCCCCCCCCCCCC(=O)[O-]
REMARK SMILES IDX 10 1 11 2 12 3 13 4 14 5 15 6 16 7 17 8 18 9 19 10 20 11
REMARK SMILES IDX 9 12 8 13 7 14 6 15 5 16 4 17 3 18 2 19 1 20
REMARK H PARENT
REMARK Flexibility Score: inf
ROOT
ATOM      1  C   UNL     1      20.089  13.884  15.779  1.00  0.00     0.000 C 
ENDROOT
BRANCH   1   2
ATOM      2  C   UNL     1      20.913  13.702  17.067  1.00  0.00     0.000 C 
BRANCH   2   3
ATOM      3  C   UNL     1      20.043  13.668  18.334  1.00  0.00     0.000 C 
BRANCH   3   4
ATOM      4  C   UNL     1      20.470  14.720  19.370  1.00  0.00     0.000 C 
BRANCH   4   5
ATOM      5  C   UNL     1      19.311  15.166  20.275  1.00  0.00     0.000 C 
BRANCH   5   6
ATOM      6  C   UNL     1      19.712  16.384  21.118  1.00  0.00     0.000 C 
BRANCH   6   7
ATOM      7  C   UNL     1      18.750  17.558  20.882  1.00  0.00     0.006 C 
BRANCH   7   8
ATOM      8  C   UNL     1      17.280  17.135  20.989  1.00  0.00     0.053 C 
BRANCH   8   9
ATOM      9  C   UNL     1      16.771  17.237  22.393  1.00  0.00     0.041 C 
ATOM     10  O   UNL     1      16.708  16.211  23.121  1.00  0.00    -0.550 OA
ATOM     11  O   UNL     1      16.335  18.460  22.889  1.00  0.00    -0.550 OA
ENDBRANCH   8   9
ENDBRANCH   7   8
ENDBRANCH   6   7
ENDBRANCH   5   6
ENDBRANCH   4   5
ENDBRANCH   3   4
ENDBRANCH   2   3
ENDBRANCH   1   2
BRANCH   1  12
ATOM     12  C   UNL     1      18.560  13.776  15.955  1.00  0.00     0.000 C 
BRANCH  12  13
ATOM     13  C   UNL     1      17.746  14.927  15.337  1.00  0.00    -0.000 C 
BRANCH  13  14
ATOM     14  C   UNL     1      16.818  15.665  16.320  1.00  0.00    -0.000 C 
BRANCH  14  15
ATOM     15  C   UNL     1      17.569  16.386  17.460  1.00  0.00    -0.000 C 
BRANCH  15  16
ATOM     16  C   UNL     1      17.782  17.883  17.173  1.00  0.00    -0.000 C 
BRANCH  16  17
ATOM     17  C   UNL     1      19.247  18.314  17.336  1.00  0.00    -0.000 C 
BRANCH  17  18
ATOM     18  C   UNL     1      20.203  17.509  16.438  1.00  0.00    -0.000 C 
BRANCH  18  19
ATOM     19  C   UNL     1      21.607  17.372  17.046  1.00  0.00    -0.003 C 
ATOM     20  C   UNL     1      21.726  18.041  18.415  1.00  0.00     0.004 C 
ENDBRANCH  18  19
ENDBRANCH  17  18
ENDBRANCH  16  17
ENDBRANCH  15  16
ENDBRANCH  14  15
ENDBRANCH  13  14
ENDBRANCH  12  13
ENDBRANCH   1  12
TORSDOF 16
ENDMDL
MODEL 8
REMARK VINA RESULT:    -3.060      1.715      3.622
REMARK INTER + INTRA:          -9.083
REMARK INTER:                  -6.004
REMARK INTRA:                  -3.079
REMARK UNBOUND:                -3.162
REMARK SMILES CCCCCCCCCCCCCCCCCC(=O)[O-]
REMARK SMILES IDX 10 1 11 2 12 3 13 4 14 5 15 6 16 7 17 8 18 9 19 10 20 11
REMARK SMILES IDX 9 12 8 13 7 14 6 15 5 16 4 17 3 18 2 19 1 20
REMARK H PARENT
REMARK Flexibility Score: inf
ROOT
ATOM      1  C   UNL     1      17.016  15.384  16.120  1.00  0.00     0.000 C 
ENDROOT
BRANCH   1   2
ATOM      2  C   UNL     1      17.334  16.384  17.247  1.00  0.00     0.000 C 
BRANCH   2   3
ATOM      3  C   UNL     1      18.041  17.652  16.739  1.00  0.00     0.000 C 
BRANCH   3   4
ATOM      4  C   UNL     1      18.168  18.731  17.827  1.00  0.00     0.000 C 
BRANCH   4   5
ATOM      5  C   UNL     1      18.897  18.226  19.081  1.00  0.00     0.000 C 
BRANCH   5   6
ATOM      6  C   UNL     1      18.115  18.586  20.351  1.00  0.00     0.000 C 
BRANCH   6   7
ATOM      7  C   UNL     1      17.138  17.463  20.733  1.00  0.00     0.006 C 
BRANCH   7   8
ATOM      8  C   UNL     1      17.835  16.102  20.847  1.00  0.00     0.053 C 
BRANCH   8   9
ATOM      9  C   UNL     1      18.667  16.004  22.089  1.00  0.00     0.041 C 
ATOM     10  O   UNL     1      19.832  15.530  22.036  1.00  0.00    -0.550 OA
ATOM     11  O   UNL     1      18.143  16.407  23.311  1.00  0.00    -0.550 OA
ENDBRANCH   8   9
ENDBRANCH   7   8
ENDBRANCH   6   7
ENDBRANCH   5   6
ENDBRANCH   4   5
ENDBRANCH   3   4
ENDBRANCH   2   3
ENDBRANCH   1   2
BRANCH   1  12
ATOM     12  C   UNL     1      18.020  15.371  14.949  1.00  0.00     0.000 C 
BRANCH  12  13
ATOM     13  C   UNL     1      19.272  14.502  15.169  1.00  0.00    -0.000 C 
BRANCH  13  14
ATOM     14  C   UNL     1      19.102  13.370  16.200  1.00  0.00    -0.000 C 
BRANCH  14  15
ATOM     15  C   UNL     1      20.234  13.313  17.250  1.00  0.00    -0.000 C 
BRANCH  15  16
ATOM     16  C   UNL     1      19.950  14.203  18.473  1.00  0.00    -0.000 C 
BRANCH  16  17
ATOM     17  C   UNL     1      21.062  15.232  18.726  1.00  0.00    -0.000 C 
BRANCH  17  18
ATOM     18  C   UNL     1      21.838  15.590  17.446  1.00  0.00    -0.000 C 
BRANCH  18  19
ATOM     19  C   UNL     1      21.737  17.081  17.094  1.00  0.00    -0.003 C 
ATOM     20  C   UNL     1      21.574  17.326  15.595  1.00  0.00     0.004 C 
ENDBRANCH  18  19
ENDBRANCH  17  18
ENDBRANCH  16  17
ENDBRANCH  15  16
ENDBRANCH  14  15
ENDBRANCH  13  14
ENDBRANCH  12  13
ENDBRANCH   1  12
TORSDOF 16
ENDMDL
MODEL 9
REMARK VINA RESULT:    -3.019      2.575      4.368
REMARK INTER + INTRA:          -9.005
REMARK INTER:                  -6.141
REMARK INTRA:                  -2.864
REMARK UNBOUND:                -3.162
REMARK SMILES CCCCCCCCCCCCCCCCCC(=O)[O-]
REMARK SMILES IDX 10 1 11 2 12 3 13 4 14 5 15 6 16 7 17 8 18 9 19 10 20 11
REMARK SMILES IDX 9 12 8 13 7 14 6 15 5 16 4 17 3 18 2 19 1 20
REMARK H PARENT
REMARK Flexibility Score: inf
ROOT
ATOM      1  C   UNL     1      19.350  18.255  17.551  1.00  0.00     0.000 C 
ENDROOT
BRANCH   1   2
ATOM      2  C   UNL     1      17.910  18.084  18.066  1.00  0.00     0.000 C 
BRANCH   2   3
ATOM      3  C   UNL     1      17.736  16.840  18.954  1.00  0.00     0.000 C 
BRANCH   3   4
ATOM      4  C   UNL     1      17.360  17.198  20.402  1.00  0.00     0.000 C 
BRANCH   4   5
ATOM      5  C   UNL     1      17.948  16.217  21.427  1.00  0.00     0.000 C 
BRANCH   5   6
ATOM      6  C   UNL     1      18.853  15.185  20.742  1.00  0.00     0.000 C 
BRANCH   6   7
ATOM      7  C   UNL     1      20.281  15.243  21.305  1.00  0.00     0.006 C 
BRANCH   7   8
ATOM      8  C   UNL     1      21.055  13.942  21.063  1.00  0.00     0.053 C 
BRANCH   8   9
ATOM      9  C   UNL     1      21.120  13.095  22.297  1.00  0.00     0.041 C 
ATOM     10  O   UNL     1      21.159  11.840  22.203  1.00  0.00    -0.550 OA
ATOM     11  O   UNL     1      21.103  13.691  23.552  1.00  0.00    -0.550 OA
ENDBRANCH   8   9
ENDBRANCH   7   8
ENDBRANCH   6   7
ENDBRANCH   5   6
ENDBRANCH   4   5
ENDBRANCH   3   4
ENDBRANCH   2   3
ENDBRANCH   1   2
BRANCH   1  12
ATOM     12  C   UNL     1      20.387  17.286  18.158  1.00  0.00     0.000 C 
BRANCH  12  13
ATOM     13  C   UNL     1      21.126  16.398  17.141  1.00  0.00    -0.000 C 
BRANCH  13  14
ATOM     14  C   UNL     1      21.202  14.906  17.519  1.00  0.00    -0.000 C 
BRANCH  14  15
ATOM     15  C   UNL     1      19.853  14.165  17.391  1.00  0.00    -0.000 C 
BRANCH  15  16
ATOM     16  C   UNL     1      19.339  14.120  15.941  1.00  0.00    -0.000 C 
BRANCH  16  17
ATOM     17  C   UNL     1      17.808  14.212  15.854  1.00  0.00    -0.000 C 
BRANCH  17  18
ATOM     18  C   UNL     1      17.322  15.620  15.467  1.00  0.00    -0.000 C 
BRANCH  18  19
ATOM     19  C   UNL     1      18.290  16.335  14.513  1.00  0.00    -0.003 C 
ATOM     20  C   UNL     1      18.063  15.958  13.049  1.00  0.00     0.004 C 
ENDBRANCH  18  19
ENDBRANCH  17  18
ENDBRANCH  16  17
ENDBRANCH  15  16
ENDBRANCH  14  15
ENDBRANCH  13  14
ENDBRANCH  12  13
ENDBRANCH   1  12
TORSDOF 16
ENDMDL
