MODEL 1
REMARK VINA RESULT:     5.935      0.000      0.000
REMARK INTER + INTRA:           5.935
REMARK INTER:                   5.935
REMARK INTRA:                   0.000
REMARK UNBOUND:                 0.000
REMARK SMILES C=C1CCC[C@]2(C)CC(=O)C(=C(C)C)C[C@H]12
REMARK SMILES IDX 13 1 12 2 11 3 15 4 16 5 2 6 1 7 3 8 4 9 5 10 6 11 8 12 9 13
REMARK SMILES IDX 10 14 7 15 14 16
REMARK H PARENT
REMARK Flexibility Score: inf
ROOT
ATOM      1  C   UNL     1      -1.934  14.746   4.138  1.00  0.00     0.039 C 
ATOM      2  C   UNL     1      -3.379  14.975   4.520  1.00  0.00    -0.070 C 
ATOM      3  C   UNL     1      -3.940  14.317   5.577  1.00  0.00    -0.006 C 
ATOM      4  C   UNL     1      -3.173  13.277   6.378  1.00  0.00     0.047 C 
ATOM      5  C   UNL     1      -3.598  13.282   7.868  1.00  0.00     0.025 C 
ATOM      6  C   UNL     1      -2.777  12.237   8.615  1.00  0.00    -0.073 C 
ATOM      7  C   UNL     1      -1.578  12.563   9.125  1.00  0.00     0.008 C 
ATOM      8  C   UNL     1      -3.245  10.804   8.717  1.00  0.00     0.031 C 
ATOM      9  C   UNL     1      -4.667  10.623   8.186  1.00  0.00     0.005 C 
ATOM     10  C   UNL     1      -5.562  11.750   8.702  1.00  0.00     0.008 C 
ATOM     11  C   UNL     1      -5.168  13.137   8.102  1.00  0.00    -0.018 C 
ATOM     12  C   UNL     1      -5.970  13.344   6.780  1.00  0.00     0.088 C 
ATOM     13  C   UNL     1      -5.374  14.436   5.948  1.00  0.00     0.159 C 
ATOM     14  O   UNL     1      -6.078  15.430   5.628  1.00  0.00    -0.295 OA
ATOM     15  C   UNL     1      -5.625  14.225   9.106  1.00  0.00     0.012 C 
ATOM     16  C   UNL     1      -4.175  15.929   3.661  1.00  0.00     0.039 C 
ENDROOT
TORSDOF 0
ENDMDL
