MODEL 1
REMARK VINA RESULT:    -3.134      0.000      0.000
REMARK INTER + INTRA:          -4.227
REMARK INTER:                  -4.050
REMARK INTRA:                  -0.177
REMARK UNBOUND:                -0.177
REMARK SMILES CCCCCCC(=O)[O-]
REMARK SMILES IDX 5 1 6 2 7 3 8 4 9 5 4 6 3 7 2 8 1 9
REMARK H PARENT
REMARK Flexibility Score: inf
ROOT
ATOM      1  C   UNL     1      33.382  11.742  22.733  1.00  0.00     0.006 C 
ENDROOT
BRANCH   1   2
ATOM      2  C   UNL     1      32.061  11.093  23.177  1.00  0.00     0.053 C 
BRANCH   2   3
ATOM      3  C   UNL     1      31.875   9.732  22.581  1.00  0.00     0.041 C 
ATOM      4  O   UNL     1      30.901   9.015  22.931  1.00  0.00    -0.550 OA
ATOM      5  O   UNL     1      32.759   9.267  21.616  1.00  0.00    -0.550 OA
ENDBRANCH   2   3
ENDBRANCH   1   2
BRANCH   1   6
ATOM      6  C   UNL     1      34.592  11.394  23.621  1.00  0.00     0.000 C 
BRANCH   6   7
ATOM      7  C   UNL     1      35.908  11.314  22.828  1.00  0.00    -0.000 C 
BRANCH   7   8
ATOM      8  C   UNL     1      36.284   9.870  22.458  1.00  0.00    -0.003 C 
ATOM      9  C   UNL     1      37.565   9.397  23.146  1.00  0.00     0.004 C 
ENDBRANCH   7   8
ENDBRANCH   6   7
ENDBRANCH   1   6
TORSDOF 5
ENDMDL
MODEL 2
REMARK VINA RESULT:    -3.125      1.237      2.278
REMARK INTER + INTRA:          -4.215
REMARK INTER:                  -3.921
REMARK INTRA:                  -0.294
REMARK UNBOUND:                -0.177
REMARK SMILES CCCCCCC(=O)[O-]
REMARK SMILES IDX 5 1 6 2 7 3 8 4 9 5 4 6 3 7 2 8 1 9
REMARK H PARENT
REMARK Flexibility Score: inf
ROOT
ATOM      1  C   UNL     1      32.051  10.213  23.384  1.00  0.00     0.006 C 
ENDROOT
BRANCH   1   2
ATOM      2  C   UNL     1      31.086   9.323  22.583  1.00  0.00     0.053 C 
BRANCH   2   3
ATOM      3  C   UNL     1      31.813   8.343  21.716  1.00  0.00     0.041 C 
ATOM      4  O   UNL     1      32.864   8.687  21.115  1.00  0.00    -0.550 OA
ATOM      5  O   UNL     1      31.349   7.039  21.598  1.00  0.00    -0.550 OA
ENDBRANCH   2   3
ENDBRANCH   1   2
BRANCH   1   6
ATOM      6  C   UNL     1      32.268  11.615  22.786  1.00  0.00     0.000 C 
BRANCH   6   7
ATOM      7  C   UNL     1      33.738  11.885  22.421  1.00  0.00    -0.000 C 
BRANCH   7   8
ATOM      8  C   UNL     1      34.719  11.230  23.408  1.00  0.00    -0.003 C 
ATOM      9  C   UNL     1      35.822  10.436  22.709  1.00  0.00     0.004 C 
ENDBRANCH   7   8
ENDBRANCH   6   7
ENDBRANCH   1   6
TORSDOF 5
ENDMDL
MODEL 3
REMARK VINA RESULT:    -3.028      2.830      4.584
REMARK INTER + INTRA:          -4.091
REMARK INTER:                  -3.874
REMARK INTRA:                  -0.217
REMARK UNBOUND:                -0.177
REMARK SMILES CCCCCCC(=O)[O-]
REMARK SMILES IDX 5 1 6 2 7 3 8 4 9 5 4 6 3 7 2 8 1 9
REMARK H PARENT
REMARK Flexibility Score: inf
ROOT
ATOM      1  C   UNL     1      34.483  11.327  23.225  1.00  0.00     0.006 C 
ENDROOT
BRANCH   1   2
ATOM      2  C   UNL     1      35.497  10.541  22.377  1.00  0.00     0.053 C 
BRANCH   2   3
ATOM      3  C   UNL     1      36.873  10.582  22.965  1.00  0.00     0.041 C 
ATOM      4  O   UNL     1      37.339   9.574  23.558  1.00  0.00    -0.550 OA
ATOM      5  O   UNL     1      37.655  11.722  22.828  1.00  0.00    -0.550 OA
ENDBRANCH   2   3
ENDBRANCH   1   2
BRANCH   1   6
ATOM      6  C   UNL     1      33.062  11.379  22.633  1.00  0.00     0.000 C 
BRANCH   6   7
ATOM      7  C   UNL     1      32.026  10.655  23.510  1.00  0.00    -0.000 C 
BRANCH   7   8
ATOM      8  C   UNL     1      31.308   9.523  22.758  1.00  0.00    -0.003 C 
ATOM      9  C   UNL     1      32.206   8.829  21.733  1.00  0.00     0.004 C 
ENDBRANCH   7   8
ENDBRANCH   6   7
ENDBRANCH   1   6
TORSDOF 5
ENDMDL
MODEL 4
REMARK VINA RESULT:    -2.998      2.051      3.178
REMARK INTER + INTRA:          -4.051
REMARK INTER:                  -3.796
REMARK INTRA:                  -0.256
REMARK UNBOUND:                -0.177
REMARK SMILES CCCCCCC(=O)[O-]
REMARK SMILES IDX 5 1 6 2 7 3 8 4 9 5 4 6 3 7 2 8 1 9
REMARK H PARENT
REMARK Flexibility Score: inf
ROOT
ATOM      1  C   UNL     1      31.440   9.151  22.503  1.00  0.00     0.006 C 
ENDROOT
BRANCH   1   2
ATOM      2  C   UNL     1      32.379   8.618  21.408  1.00  0.00     0.053 C 
BRANCH   2   3
ATOM      3  C   UNL     1      31.903   7.315  20.845  1.00  0.00     0.041 C 
ATOM      4  O   UNL     1      31.649   6.349  21.611  1.00  0.00    -0.550 OA
ATOM      5  O   UNL     1      31.708   7.177  19.477  1.00  0.00    -0.550 OA
ENDBRANCH   2   3
ENDBRANCH   1   2
BRANCH   1   6
ATOM      6  C   UNL     1      31.981  10.374  23.266  1.00  0.00     0.000 C 
BRANCH   6   7
ATOM      7  C   UNL     1      32.396  11.524  22.332  1.00  0.00    -0.000 C 
BRANCH   7   8
ATOM      8  C   UNL     1      33.782  12.091  22.677  1.00  0.00    -0.003 C 
ATOM      9  C   UNL     1      34.715  11.047  23.291  1.00  0.00     0.004 C 
ENDBRANCH   7   8
ENDBRANCH   6   7
ENDBRANCH   1   6
TORSDOF 5
ENDMDL
MODEL 5
REMARK VINA RESULT:    -2.932      1.754      3.820
REMARK INTER + INTRA:          -3.966
REMARK INTER:                  -3.625
REMARK INTRA:                  -0.341
REMARK UNBOUND:                -0.177
REMARK SMILES CCCCCCC(=O)[O-]
REMARK SMILES IDX 5 1 6 2 7 3 8 4 9 5 4 6 3 7 2 8 1 9
REMARK H PARENT
REMARK Flexibility Score: inf
ROOT
ATOM      1  C   UNL     1      35.562  10.314  22.381  1.00  0.00     0.006 C 
ENDROOT
BRANCH   1   2
ATOM      2  C   UNL     1      34.914   9.871  21.059  1.00  0.00     0.053 C 
BRANCH   2   3
ATOM      3  C   UNL     1      34.786   8.382  20.967  1.00  0.00     0.041 C 
ATOM      4  O   UNL     1      35.775   7.645  21.218  1.00  0.00    -0.550 OA
ATOM      5  O   UNL     1      33.565   7.807  20.636  1.00  0.00    -0.550 OA
ENDBRANCH   2   3
ENDBRANCH   1   2
BRANCH   1   6
ATOM      6  C   UNL     1      34.600  11.016  23.358  1.00  0.00     0.000 C 
BRANCH   6   7
ATOM      7  C   UNL     1      33.253  11.380  22.710  1.00  0.00    -0.000 C 
BRANCH   7   8
ATOM      8  C   UNL     1      32.054  10.813  23.487  1.00  0.00    -0.003 C 
ATOM      9  C   UNL     1      31.417   9.607  22.798  1.00  0.00     0.004 C 
ENDBRANCH   7   8
ENDBRANCH   6   7
ENDBRANCH   1   6
TORSDOF 5
ENDMDL
MODEL 6
REMARK VINA RESULT:    -2.824      2.320      4.432
REMARK INTER + INTRA:          -3.826
REMARK INTER:                  -3.590
REMARK INTRA:                  -0.236
REMARK UNBOUND:                -0.177
REMARK SMILES CCCCCCC(=O)[O-]
REMARK SMILES IDX 5 1 6 2 7 3 8 4 9 5 4 6 3 7 2 8 1 9
REMARK H PARENT
REMARK Flexibility Score: inf
ROOT
ATOM      1  C   UNL     1      32.336  10.321  22.174  1.00  0.00     0.006 C 
ENDROOT
BRANCH   1   2
ATOM      2  C   UNL     1      33.396  10.900  23.125  1.00  0.00     0.053 C 
BRANCH   2   3
ATOM      3  C   UNL     1      34.789  10.630  22.645  1.00  0.00     0.041 C 
ATOM      4  O   UNL     1      35.726  11.412  22.951  1.00  0.00    -0.550 OA
ATOM      5  O   UNL     1      35.057   9.496  21.889  1.00  0.00    -0.550 OA
ENDBRANCH   2   3
ENDBRANCH   1   2
BRANCH   1   6
ATOM      6  C   UNL     1      31.230   9.508  22.873  1.00  0.00     0.000 C 
BRANCH   6   7
ATOM      7  C   UNL     1      30.878   8.213  22.120  1.00  0.00    -0.000 C 
BRANCH   7   8
ATOM      8  C   UNL     1      32.014   7.744  21.196  1.00  0.00    -0.003 C 
ATOM      9  C   UNL     1      31.514   6.895  20.027  1.00  0.00     0.004 C 
ENDBRANCH   7   8
ENDBRANCH   6   7
ENDBRANCH   1   6
TORSDOF 5
ENDMDL
MODEL 7
REMARK VINA RESULT:    -2.768      1.425      2.041
REMARK INTER + INTRA:          -3.754
REMARK INTER:                  -3.505
REMARK INTRA:                  -0.250
REMARK UNBOUND:                -0.177
REMARK SMILES CCCCCCC(=O)[O-]
REMARK SMILES IDX 5 1 6 2 7 3 8 4 9 5 4 6 3 7 2 8 1 9
REMARK H PARENT
REMARK Flexibility Score: inf
ROOT
ATOM      1  C   UNL     1      33.638   8.969  21.094  1.00  0.00     0.006 C 
ENDROOT
BRANCH   1   2
ATOM      2  C   UNL     1      32.784  10.185  21.489  1.00  0.00     0.053 C 
BRANCH   2   3
ATOM      3  C   UNL     1      31.987   9.932  22.732  1.00  0.00     0.041 C 
ATOM      4  O   UNL     1      32.239  10.572  23.786  1.00  0.00    -0.550 OA
ATOM      5  O   UNL     1      30.944   9.015  22.716  1.00  0.00    -0.550 OA
ENDBRANCH   2   3
ENDBRANCH   1   2
BRANCH   1   6
ATOM      6  C   UNL     1      35.119   9.072  21.500  1.00  0.00     0.000 C 
BRANCH   6   7
ATOM      7  C   UNL     1      35.577  10.525  21.718  1.00  0.00    -0.000 C 
BRANCH   7   8
ATOM      8  C   UNL     1      36.338  10.709  23.041  1.00  0.00    -0.003 C 
ATOM      9  C   UNL     1      37.388   9.623  23.278  1.00  0.00     0.004 C 
ENDBRANCH   7   8
ENDBRANCH   6   7
ENDBRANCH   1   6
TORSDOF 5
ENDMDL
MODEL 8
REMARK VINA RESULT:    -2.661      1.066      1.629
REMARK INTER + INTRA:          -3.616
REMARK INTER:                  -3.422
REMARK INTRA:                  -0.194
REMARK UNBOUND:                -0.177
REMARK SMILES CCCCCCC(=O)[O-]
REMARK SMILES IDX 5 1 6 2 7 3 8 4 9 5 4 6 3 7 2 8 1 9
REMARK H PARENT
REMARK Flexibility Score: inf
ROOT
ATOM      1  C   UNL     1      35.002  11.488  23.295  1.00  0.00     0.006 C 
ENDROOT
BRANCH   1   2
ATOM      2  C   UNL     1      33.607  11.718  22.691  1.00  0.00     0.053 C 
BRANCH   2   3
ATOM      3  C   UNL     1      32.713  10.530  22.874  1.00  0.00     0.041 C 
ATOM      4  O   UNL     1      31.941  10.465  23.866  1.00  0.00    -0.550 OA
ATOM      5  O   UNL     1      32.709   9.511  21.930  1.00  0.00    -0.550 OA
ENDBRANCH   2   3
ENDBRANCH   1   2
BRANCH   1   6
ATOM      6  C   UNL     1      36.079  11.079  22.273  1.00  0.00     0.000 C 
BRANCH   6   7
ATOM      7  C   UNL     1      37.401  10.657  22.937  1.00  0.00    -0.000 C 
BRANCH   7   8
ATOM      8  C   UNL     1      37.497   9.137  23.142  1.00  0.00    -0.003 C 
ATOM      9  C   UNL     1      36.758   8.345  22.063  1.00  0.00     0.004 C 
ENDBRANCH   7   8
ENDBRANCH   6   7
ENDBRANCH   1   6
TORSDOF 5
ENDMDL
