MODEL 1
REMARK VINA RESULT:    -4.015      0.000      0.000
REMARK INTER + INTRA:          -6.862
REMARK INTER:                  -6.127
REMARK INTRA:                  -0.735
REMARK UNBOUND:                -0.735
REMARK SMILES CCCCCCCCCCC(=O)[O-]
REMARK SMILES IDX 7 1 8 2 9 3 10 4 11 5 12 6 13 7 6 8 5 9 4 10 3 11 2 12 1 13
REMARK H PARENT
REMARK Flexibility Score: inf
ROOT
ATOM      1  C   UNL     1      25.813 -13.441  -0.723  1.00  0.00     0.000 C 
ENDROOT
BRANCH   1   2
ATOM      2  C   UNL     1      26.613 -14.124  -1.843  1.00  0.00     0.000 C 
BRANCH   2   3
ATOM      3  C   UNL     1      28.131 -14.080  -1.596  1.00  0.00     0.006 C 
BRANCH   3   4
ATOM      4  C   UNL     1      28.474 -13.550  -0.198  1.00  0.00     0.053 C 
BRANCH   4   5
ATOM      5  C   UNL     1      28.676 -14.661   0.787  1.00  0.00     0.041 C 
ATOM      6  O   UNL     1      28.822 -14.405   2.011  1.00  0.00    -0.550 OA
ATOM      7  O   UNL     1      28.735 -15.978   0.348  1.00  0.00    -0.550 OA
ENDBRANCH   4   5
ENDBRANCH   3   4
ENDBRANCH   2   3
ENDBRANCH   1   2
BRANCH   1   8
ATOM      8  C   UNL     1      24.315 -13.334  -1.049  1.00  0.00     0.000 C 
BRANCH   8   9
ATOM      9  C   UNL     1      23.905 -14.187  -2.262  1.00  0.00    -0.000 C 
BRANCH   9  10
ATOM     10  C   UNL     1      23.084 -15.440  -1.889  1.00  0.00    -0.000 C 
BRANCH  10  11
ATOM     11  C   UNL     1      23.210 -16.550  -2.948  1.00  0.00    -0.000 C 
BRANCH  11  12
ATOM     12  C   UNL     1      24.375 -16.307  -3.920  1.00  0.00    -0.003 C 
ATOM     13  C   UNL     1      25.567 -17.225  -3.651  1.00  0.00     0.004 C 
ENDBRANCH  11  12
ENDBRANCH  10  11
ENDBRANCH   9  10
ENDBRANCH   8   9
ENDBRANCH   1   8
TORSDOF 9
ENDMDL
MODEL 2
REMARK VINA RESULT:    -3.854      2.972      5.905
REMARK INTER + INTRA:          -6.616
REMARK INTER:                  -5.877
REMARK INTRA:                  -0.739
REMARK UNBOUND:                -0.735
REMARK SMILES CCCCCCCCCCC(=O)[O-]
REMARK SMILES IDX 7 1 8 2 9 3 10 4 11 5 12 6 13 7 6 8 5 9 4 10 3 11 2 12 1 13
REMARK H PARENT
REMARK Flexibility Score: inf
ROOT
ATOM      1  C   UNL     1      26.251 -13.430  -0.424  1.00  0.00     0.000 C 
ENDROOT
BRANCH   1   2
ATOM      2  C   UNL     1      24.822 -13.388  -0.988  1.00  0.00     0.000 C 
BRANCH   2   3
ATOM      3  C   UNL     1      24.728 -13.982  -2.404  1.00  0.00     0.006 C 
BRANCH   3   4
ATOM      4  C   UNL     1      23.292 -14.382  -2.769  1.00  0.00     0.053 C 
BRANCH   4   5
ATOM      5  C   UNL     1      23.017 -15.821  -2.458  1.00  0.00     0.041 C 
ATOM      6  O   UNL     1      22.563 -16.150  -1.331  1.00  0.00    -0.550 OA
ATOM      7  O   UNL     1      23.291 -16.803  -3.402  1.00  0.00    -0.550 OA
ENDBRANCH   4   5
ENDBRANCH   3   4
ENDBRANCH   2   3
ENDBRANCH   1   2
BRANCH   1   8
ATOM      8  C   UNL     1      27.282 -13.894  -1.465  1.00  0.00     0.000 C 
BRANCH   8   9
ATOM      9  C   UNL     1      28.380 -14.788  -0.861  1.00  0.00    -0.000 C 
BRANCH   9  10
ATOM     10  C   UNL     1      28.174 -15.096   0.637  1.00  0.00    -0.000 C 
BRANCH  10  11
ATOM     11  C   UNL     1      29.313 -14.532   1.505  1.00  0.00    -0.000 C 
BRANCH  11  12
ATOM     12  C   UNL     1      29.020 -13.111   2.010  1.00  0.00    -0.003 C 
ATOM     13  C   UNL     1      29.774 -12.040   1.223  1.00  0.00     0.004 C 
ENDBRANCH  11  12
ENDBRANCH  10  11
ENDBRANCH   9  10
ENDBRANCH   8   9
ENDBRANCH   1   8
TORSDOF 9
ENDMDL
MODEL 3
REMARK VINA RESULT:    -3.763      1.434      2.165
REMARK INTER + INTRA:          -6.477
REMARK INTER:                  -5.899
REMARK INTRA:                  -0.578
REMARK UNBOUND:                -0.735
REMARK SMILES CCCCCCCCCCC(=O)[O-]
REMARK SMILES IDX 7 1 8 2 9 3 10 4 11 5 12 6 13 7 6 8 5 9 4 10 3 11 2 12 1 13
REMARK H PARENT
REMARK Flexibility Score: inf
ROOT
ATOM      1  C   UNL     1      26.852 -13.841  -1.438  1.00  0.00     0.000 C 
ENDROOT
BRANCH   1   2
ATOM      2  C   UNL     1      28.249 -13.906  -0.799  1.00  0.00     0.000 C 
BRANCH   2   3
ATOM      3  C   UNL     1      28.225 -14.517   0.612  1.00  0.00     0.006 C 
BRANCH   3   4
ATOM      4  C   UNL     1      28.738 -13.536   1.676  1.00  0.00     0.053 C 
BRANCH   4   5
ATOM      5  C   UNL     1      29.992 -12.843   1.239  1.00  0.00     0.041 C 
ATOM      6  O   UNL     1      31.048 -13.501   1.054  1.00  0.00    -0.550 OA
ATOM      7  O   UNL     1      30.001 -11.464   1.067  1.00  0.00    -0.550 OA
ENDBRANCH   4   5
ENDBRANCH   3   4
ENDBRANCH   2   3
ENDBRANCH   1   2
BRANCH   1   8
ATOM      8  C   UNL     1      25.778 -13.348  -0.456  1.00  0.00     0.000 C 
BRANCH   8   9
ATOM      9  C   UNL     1      24.358 -13.403  -1.046  1.00  0.00    -0.000 C 
BRANCH   9  10
ATOM     10  C   UNL     1      24.273 -14.169  -2.384  1.00  0.00    -0.000 C 
BRANCH  10  11
ATOM     11  C   UNL     1      23.191 -15.264  -2.355  1.00  0.00    -0.000 C 
BRANCH  11  12
ATOM     12  C   UNL     1      23.560 -16.478  -3.222  1.00  0.00    -0.003 C 
ATOM     13  C   UNL     1      24.980 -16.392  -3.780  1.00  0.00     0.004 C 
ENDBRANCH  11  12
ENDBRANCH  10  11
ENDBRANCH   9  10
ENDBRANCH   8   9
ENDBRANCH   1   8
TORSDOF 9
ENDMDL
MODEL 4
REMARK VINA RESULT:    -3.732      3.097      6.477
REMARK INTER + INTRA:          -6.430
REMARK INTER:                  -5.925
REMARK INTRA:                  -0.505
REMARK UNBOUND:                -0.735
REMARK SMILES CCCCCCCCCCC(=O)[O-]
REMARK SMILES IDX 7 1 8 2 9 3 10 4 11 5 12 6 13 7 6 8 5 9 4 10 3 11 2 12 1 13
REMARK H PARENT
REMARK Flexibility Score: inf
ROOT
ATOM      1  C   UNL     1      26.819 -13.890  -1.472  1.00  0.00     0.000 C 
ENDROOT
BRANCH   1   2
ATOM      2  C   UNL     1      25.506 -13.482  -0.785  1.00  0.00     0.000 C 
BRANCH   2   3
ATOM      3  C   UNL     1      24.301 -13.531  -1.739  1.00  0.00     0.006 C 
BRANCH   3   4
ATOM      4  C   UNL     1      24.518 -14.515  -2.896  1.00  0.00     0.053 C 
BRANCH   4   5
ATOM      5  C   UNL     1      23.579 -15.681  -2.822  1.00  0.00     0.041 C 
ATOM      6  O   UNL     1      23.603 -16.571  -3.711  1.00  0.00    -0.550 OA
ATOM      7  O   UNL     1      22.656 -15.766  -1.787  1.00  0.00    -0.550 OA
ENDBRANCH   4   5
ENDBRANCH   3   4
ENDBRANCH   2   3
ENDBRANCH   1   2
BRANCH   1   8
ATOM      8  C   UNL     1      28.052 -13.622  -0.594  1.00  0.00     0.000 C 
BRANCH   8   9
ATOM      9  C   UNL     1      27.767 -13.799   0.907  1.00  0.00    -0.000 C 
BRANCH   9  10
ATOM     10  C   UNL     1      29.008 -13.597   1.802  1.00  0.00    -0.000 C 
BRANCH  10  11
ATOM     11  C   UNL     1      30.121 -12.816   1.080  1.00  0.00    -0.000 C 
BRANCH  11  12
ATOM     12  C   UNL     1      30.069 -11.309   1.373  1.00  0.00    -0.003 C 
ATOM     13  C   UNL     1      30.000 -11.003   2.870  1.00  0.00     0.004 C 
ENDBRANCH  11  12
ENDBRANCH  10  11
ENDBRANCH   9  10
ENDBRANCH   8   9
ENDBRANCH   1   8
TORSDOF 9
ENDMDL
MODEL 5
REMARK VINA RESULT:    -3.714      0.821      1.738
REMARK INTER + INTRA:          -6.403
REMARK INTER:                  -5.619
REMARK INTRA:                  -0.785
REMARK UNBOUND:                -0.735
REMARK SMILES CCCCCCCCCCC(=O)[O-]
REMARK SMILES IDX 7 1 8 2 9 3 10 4 11 5 12 6 13 7 6 8 5 9 4 10 3 11 2 12 1 13
REMARK H PARENT
REMARK Flexibility Score: inf
ROOT
ATOM      1  C   UNL     1      26.944 -14.327  -2.002  1.00  0.00     0.000 C 
ENDROOT
BRANCH   1   2
ATOM      2  C   UNL     1      28.448 -14.011  -2.032  1.00  0.00     0.000 C 
BRANCH   2   3
ATOM      3  C   UNL     1      28.925 -13.292  -0.758  1.00  0.00     0.006 C 
BRANCH   3   4
ATOM      4  C   UNL     1      29.957 -14.120   0.020  1.00  0.00     0.053 C 
BRANCH   4   5
ATOM      5  C   UNL     1      29.428 -15.473   0.385  1.00  0.00     0.041 C 
ATOM      6  O   UNL     1      30.053 -16.511   0.044  1.00  0.00    -0.550 OA
ATOM      7  O   UNL     1      28.227 -15.588   1.074  1.00  0.00    -0.550 OA
ENDBRANCH   4   5
ENDBRANCH   3   4
ENDBRANCH   2   3
ENDBRANCH   1   2
BRANCH   1   8
ATOM      8  C   UNL     1      26.193 -13.523  -0.929  1.00  0.00     0.000 C 
BRANCH   8   9
ATOM      9  C   UNL     1      24.671 -13.504  -1.152  1.00  0.00    -0.000 C 
BRANCH   9  10
ATOM     10  C   UNL     1      24.227 -14.199  -2.457  1.00  0.00    -0.000 C 
BRANCH  10  11
ATOM     11  C   UNL     1      23.071 -15.188  -2.221  1.00  0.00    -0.000 C 
BRANCH  11  12
ATOM     12  C   UNL     1      23.333 -16.562  -2.856  1.00  0.00    -0.003 C 
ATOM     13  C   UNL     1      24.461 -16.528  -3.887  1.00  0.00     0.004 C 
ENDBRANCH  11  12
ENDBRANCH  10  11
ENDBRANCH   9  10
ENDBRANCH   8   9
ENDBRANCH   1   8
TORSDOF 9
ENDMDL
MODEL 6
REMARK VINA RESULT:    -3.708      1.157      2.929
REMARK INTER + INTRA:          -6.393
REMARK INTER:                  -5.296
REMARK INTRA:                  -1.097
REMARK UNBOUND:                -0.735
REMARK SMILES CCCCCCCCCCC(=O)[O-]
REMARK SMILES IDX 7 1 8 2 9 3 10 4 11 5 12 6 13 7 6 8 5 9 4 10 3 11 2 12 1 13
REMARK H PARENT
REMARK Flexibility Score: inf
ROOT
ATOM      1  C   UNL     1      25.626 -17.012  -3.782  1.00  0.00     0.000 C 
ENDROOT
BRANCH   1   2
ATOM      2  C   UNL     1      26.562 -15.793  -3.739  1.00  0.00     0.000 C 
BRANCH   2   3
ATOM      3  C   UNL     1      27.627 -15.905  -2.634  1.00  0.00     0.006 C 
BRANCH   3   4
ATOM      4  C   UNL     1      28.016 -14.534  -2.065  1.00  0.00     0.053 C 
BRANCH   4   5
ATOM      5  C   UNL     1      28.120 -14.559  -0.571  1.00  0.00     0.041 C 
ATOM      6  O   UNL     1      27.912 -13.512   0.097  1.00  0.00    -0.550 OA
ATOM      7  O   UNL     1      28.480 -15.731   0.083  1.00  0.00    -0.550 OA
ENDBRANCH   4   5
ENDBRANCH   3   4
ENDBRANCH   2   3
ENDBRANCH   1   2
BRANCH   1   8
ATOM      8  C   UNL     1      24.166 -16.625  -4.066  1.00  0.00     0.000 C 
BRANCH   8   9
ATOM      9  C   UNL     1      23.255 -16.787  -2.836  1.00  0.00    -0.000 C 
BRANCH   9  10
ATOM     10  C   UNL     1      22.951 -15.458  -2.111  1.00  0.00    -0.000 C 
BRANCH  10  11
ATOM     11  C   UNL     1      23.210 -14.236  -3.011  1.00  0.00    -0.000 C 
BRANCH  11  12
ATOM     12  C   UNL     1      24.266 -13.286  -2.424  1.00  0.00    -0.003 C 
ATOM     13  C   UNL     1      24.547 -13.560  -0.947  1.00  0.00     0.004 C 
ENDBRANCH  11  12
ENDBRANCH  10  11
ENDBRANCH   9  10
ENDBRANCH   8   9
ENDBRANCH   1   8
TORSDOF 9
ENDMDL
MODEL 7
REMARK VINA RESULT:    -3.693      2.814      5.107
REMARK INTER + INTRA:          -6.371
REMARK INTER:                  -5.660
REMARK INTRA:                  -0.711
REMARK UNBOUND:                -0.735
REMARK SMILES CCCCCCCCCCC(=O)[O-]
REMARK SMILES IDX 7 1 8 2 9 3 10 4 11 5 12 6 13 7 6 8 5 9 4 10 3 11 2 12 1 13
REMARK H PARENT
REMARK Flexibility Score: inf
ROOT
ATOM      1  C   UNL     1      25.438 -13.126  -0.354  1.00  0.00     0.000 C 
ENDROOT
BRANCH   1   2
ATOM      2  C   UNL     1      24.428 -13.675  -1.375  1.00  0.00     0.000 C 
BRANCH   2   3
ATOM      3  C   UNL     1      25.110 -14.253  -2.627  1.00  0.00     0.006 C 
BRANCH   3   4
ATOM      4  C   UNL     1      24.106 -14.926  -3.574  1.00  0.00     0.053 C 
BRANCH   4   5
ATOM      5  C   UNL     1      24.050 -16.408  -3.367  1.00  0.00     0.041 C 
ATOM      6  O   UNL     1      23.055 -16.932  -2.802  1.00  0.00    -0.550 OA
ATOM      7  O   UNL     1      25.112 -17.208  -3.770  1.00  0.00    -0.550 OA
ENDBRANCH   4   5
ENDBRANCH   3   4
ENDBRANCH   2   3
ENDBRANCH   1   2
BRANCH   1   8
ATOM      8  C   UNL     1      26.874 -13.596  -0.634  1.00  0.00     0.000 C 
BRANCH   8   9
ATOM      9  C   UNL     1      27.769 -13.560   0.617  1.00  0.00    -0.000 C 
BRANCH   9  10
ATOM     10  C   UNL     1      29.024 -14.453   0.506  1.00  0.00    -0.000 C 
BRANCH  10  11
ATOM     11  C   UNL     1      28.667 -15.915   0.185  1.00  0.00    -0.000 C 
BRANCH  11  12
ATOM     12  C   UNL     1      29.319 -16.408  -1.116  1.00  0.00    -0.003 C 
ATOM     13  C   UNL     1      28.323 -16.506  -2.272  1.00  0.00     0.004 C 
ENDBRANCH  11  12
ENDBRANCH  10  11
ENDBRANCH   9  10
ENDBRANCH   8   9
ENDBRANCH   1   8
TORSDOF 9
ENDMDL
MODEL 8
REMARK VINA RESULT:    -3.583      1.258      2.701
REMARK INTER + INTRA:          -6.203
REMARK INTER:                  -5.320
REMARK INTRA:                  -0.884
REMARK UNBOUND:                -0.735
REMARK SMILES CCCCCCCCCCC(=O)[O-]
REMARK SMILES IDX 7 1 8 2 9 3 10 4 11 5 12 6 13 7 6 8 5 9 4 10 3 11 2 12 1 13
REMARK H PARENT
REMARK Flexibility Score: inf
ROOT
ATOM      1  C   UNL     1      27.457 -15.850  -2.810  1.00  0.00     0.000 C 
ENDROOT
BRANCH   1   2
ATOM      2  C   UNL     1      27.918 -14.429  -2.448  1.00  0.00     0.000 C 
BRANCH   2   3
ATOM      3  C   UNL     1      27.203 -13.875  -1.204  1.00  0.00     0.006 C 
BRANCH   3   4
ATOM      4  C   UNL     1      27.722 -14.511   0.093  1.00  0.00     0.053 C 
BRANCH   4   5
ATOM      5  C   UNL     1      28.616 -13.580   0.854  1.00  0.00     0.041 C 
ATOM      6  O   UNL     1      29.216 -12.648   0.257  1.00  0.00    -0.550 OA
ATOM      7  O   UNL     1      28.812 -13.763   2.217  1.00  0.00    -0.550 OA
ENDBRANCH   4   5
ENDBRANCH   3   4
ENDBRANCH   2   3
ENDBRANCH   1   2
BRANCH   1   8
ATOM      8  C   UNL     1      26.450 -15.864  -3.971  1.00  0.00     0.000 C 
BRANCH   8   9
ATOM      9  C   UNL     1      25.334 -16.907  -3.781  1.00  0.00    -0.000 C 
BRANCH   9  10
ATOM     10  C   UNL     1      23.912 -16.329  -3.949  1.00  0.00    -0.000 C 
BRANCH  10  11
ATOM     11  C   UNL     1      23.229 -16.071  -2.594  1.00  0.00    -0.000 C 
BRANCH  11  12
ATOM     12  C   UNL     1      23.607 -14.707  -1.996  1.00  0.00    -0.003 C 
ATOM     13  C   UNL     1      23.666 -13.599  -3.048  1.00  0.00     0.004 C 
ENDBRANCH  11  12
ENDBRANCH  10  11
ENDBRANCH   9  10
ENDBRANCH   8   9
ENDBRANCH   1   8
TORSDOF 9
ENDMDL
MODEL 9
REMARK VINA RESULT:    -3.571      1.907      3.047
REMARK INTER + INTRA:          -6.185
REMARK INTER:                  -5.511
REMARK INTRA:                  -0.674
REMARK UNBOUND:                -0.735
REMARK SMILES CCCCCCCCCCC(=O)[O-]
REMARK SMILES IDX 7 1 8 2 9 3 10 4 11 5 12 6 13 7 6 8 5 9 4 10 3 11 2 12 1 13
REMARK H PARENT
REMARK Flexibility Score: inf
ROOT
ATOM      1  C   UNL     1      28.107 -13.459  -0.835  1.00  0.00     0.000 C 
ENDROOT
BRANCH   1   2
ATOM      2  C   UNL     1      28.707 -14.185   0.380  1.00  0.00     0.000 C 
BRANCH   2   3
ATOM      3  C   UNL     1      28.589 -15.715   0.272  1.00  0.00     0.006 C 
BRANCH   3   4
ATOM      4  C   UNL     1      29.921 -16.372  -0.112  1.00  0.00     0.053 C 
BRANCH   4   5
ATOM      5  C   UNL     1      29.849 -17.040  -1.452  1.00  0.00     0.041 C 
ATOM      6  O   UNL     1      30.369 -18.173  -1.624  1.00  0.00    -0.550 OA
ATOM      7  O   UNL     1      29.233 -16.396  -2.518  1.00  0.00    -0.550 OA
ENDBRANCH   4   5
ENDBRANCH   3   4
ENDBRANCH   2   3
ENDBRANCH   1   2
BRANCH   1   8
ATOM      8  C   UNL     1      26.786 -14.088  -1.305  1.00  0.00     0.000 C 
BRANCH   8   9
ATOM      9  C   UNL     1      25.549 -13.396  -0.706  1.00  0.00    -0.000 C 
BRANCH   9  10
ATOM     10  C   UNL     1      24.266 -13.586  -1.544  1.00  0.00    -0.000 C 
BRANCH  10  11
ATOM     11  C   UNL     1      24.541 -14.336  -2.860  1.00  0.00    -0.000 C 
BRANCH  11  12
ATOM     12  C   UNL     1      23.587 -15.522  -3.072  1.00  0.00    -0.003 C 
ATOM     13  C   UNL     1      22.771 -15.851  -1.822  1.00  0.00     0.004 C 
ENDBRANCH  11  12
ENDBRANCH  10  11
ENDBRANCH   9  10
ENDBRANCH   8   9
ENDBRANCH   1   8
TORSDOF 9
ENDMDL
