MODEL 1
REMARK VINA RESULT:    -6.030      0.000      0.000
REMARK INTER + INTRA:          -6.030
REMARK INTER:                  -6.030
REMARK INTRA:                   0.000
REMARK UNBOUND:                 0.000
REMARK SMILES c1ccc2nc3ccccc3cc2c1
REMARK SMILES IDX 1 1 2 2 3 3 4 4 13 5 14 6 12 7 11 8 10 9 9 10 8 11 7 12 6 13
REMARK SMILES IDX 5 14
REMARK H PARENT
REMARK Flexibility Score: inf
ROOT
ATOM      1  C   UNL     1      11.341  57.451 133.339  1.00  0.00     0.001 A 
ATOM      2  C   UNL     1      11.440  58.646 132.619  1.00  0.00     0.002 A 
ATOM      3  C   UNL     1      10.284  59.331 132.231  1.00  0.00     0.029 A 
ATOM      4  C   UNL     1       9.023  58.822 132.561  1.00  0.00     0.071 A 
ATOM      5  C   UNL     1       8.920  57.614 133.289  1.00  0.00     0.001 A 
ATOM      6  C   UNL     1      10.085  56.933 133.674  1.00  0.00     0.010 A 
ATOM      7  C   UNL     1       7.651  57.118 133.611  1.00  0.00     0.020 A 
ATOM      8  C   UNL     1       6.507  57.821 133.212  1.00  0.00     0.001 A 
ATOM      9  C   UNL     1       5.220  57.351 133.520  1.00  0.00     0.010 A 
ATOM     10  C   UNL     1       4.096  58.073 133.109  1.00  0.00     0.001 A 
ATOM     11  C   UNL     1       4.247  59.264 132.391  1.00  0.00     0.002 A 
ATOM     12  C   UNL     1       5.524  59.740 132.080  1.00  0.00     0.029 A 
ATOM     13  C   UNL     1       6.657  59.025 132.487  1.00  0.00     0.071 A 
ATOM     14  N   UNL     1       7.899  59.487 132.184  1.00  0.00    -0.248 NA
ENDROOT
TORSDOF 0
ENDMDL
MODEL 2
REMARK VINA RESULT:    -6.006      0.109      4.830
REMARK INTER + INTRA:          -6.006
REMARK INTER:                  -6.006
REMARK INTRA:                   0.000
REMARK UNBOUND:                 0.000
REMARK SMILES c1ccc2nc3ccccc3cc2c1
REMARK SMILES IDX 1 1 2 2 3 3 4 4 13 5 14 6 12 7 11 8 10 9 9 10 8 11 7 12 6 13
REMARK SMILES IDX 5 14
REMARK H PARENT
REMARK Flexibility Score: inf
ROOT
ATOM      1  C   UNL     1       4.108  58.087 133.282  1.00  0.00     0.001 A 
ATOM      2  C   UNL     1       4.248  59.275 132.558  1.00  0.00     0.002 A 
ATOM      3  C   UNL     1       5.519  59.734 132.197  1.00  0.00     0.029 A 
ATOM      4  C   UNL     1       6.657  59.005 132.561  1.00  0.00     0.071 A 
ATOM      5  C   UNL     1       6.518  57.803 133.294  1.00  0.00     0.001 A 
ATOM      6  C   UNL     1       5.239  57.351 133.652  1.00  0.00     0.010 A 
ATOM      7  C   UNL     1       7.667  57.085 133.651  1.00  0.00     0.020 A 
ATOM      8  C   UNL     1       8.930  57.564 133.279  1.00  0.00     0.001 A 
ATOM      9  C   UNL     1      10.100  56.868 133.621  1.00  0.00     0.010 A 
ATOM     10  C   UNL     1      11.348  57.369 133.236  1.00  0.00     0.001 A 
ATOM     11  C   UNL     1      11.435  58.561 132.512  1.00  0.00     0.002 A 
ATOM     12  C   UNL     1      10.275  59.262 132.166  1.00  0.00     0.029 A 
ATOM     13  C   UNL     1       9.021  58.770 132.546  1.00  0.00     0.071 A 
ATOM     14  N   UNL     1       7.893  59.450 132.211  1.00  0.00    -0.248 NA
ENDROOT
TORSDOF 0
ENDMDL
MODEL 3
REMARK VINA RESULT:    -5.998      0.815      5.273
REMARK INTER + INTRA:          -5.998
REMARK INTER:                  -5.998
REMARK INTRA:                   0.000
REMARK UNBOUND:                 0.000
REMARK SMILES c1ccc2nc3ccccc3cc2c1
REMARK SMILES IDX 1 1 2 2 3 3 4 4 13 5 14 6 12 7 11 8 10 9 9 10 8 11 7 12 6 13
REMARK SMILES IDX 5 14
REMARK H PARENT
REMARK Flexibility Score: inf
ROOT
ATOM      1  C   UNL     1       4.254  59.438 132.533  1.00  0.00     0.001 A 
ATOM      2  C   UNL     1       4.123  58.162 133.090  1.00  0.00     0.002 A 
ATOM      3  C   UNL     1       5.260  57.407 133.396  1.00  0.00     0.029 A 
ATOM      4  C   UNL     1       6.535  57.926 133.145  1.00  0.00     0.071 A 
ATOM      5  C   UNL     1       6.671  59.216 132.580  1.00  0.00     0.001 A 
ATOM      6  C   UNL     1       5.524  59.966 132.276  1.00  0.00     0.010 A 
ATOM      7  C   UNL     1       7.954  59.721 132.334  1.00  0.00     0.020 A 
ATOM      8  C   UNL     1       9.079  58.947 132.648  1.00  0.00     0.001 A 
ATOM      9  C   UNL     1      10.378  59.424 132.414  1.00  0.00     0.010 A 
ATOM     10  C   UNL     1      11.482  58.630 132.738  1.00  0.00     0.001 A 
ATOM     11  C   UNL     1      11.298  57.361 133.294  1.00  0.00     0.002 A 
ATOM     12  C   UNL     1      10.008  56.876 133.532  1.00  0.00     0.029 A 
ATOM     13  C   UNL     1       8.896  57.663 133.212  1.00  0.00     0.071 A 
ATOM     14  N   UNL     1       7.640  57.193 133.442  1.00  0.00    -0.248 NA
ENDROOT
TORSDOF 0
ENDMDL
MODEL 4
REMARK VINA RESULT:    -5.969      0.830      2.120
REMARK INTER + INTRA:          -5.969
REMARK INTER:                  -5.969
REMARK INTRA:                   0.000
REMARK UNBOUND:                 0.000
REMARK SMILES c1ccc2nc3ccccc3cc2c1
REMARK SMILES IDX 1 1 2 2 3 3 4 4 13 5 14 6 12 7 11 8 10 9 9 10 8 11 7 12 6 13
REMARK SMILES IDX 5 14
REMARK H PARENT
REMARK Flexibility Score: inf
ROOT
ATOM      1  C   UNL     1      11.406  58.465 132.659  1.00  0.00     0.001 A 
ATOM      2  C   UNL     1      11.190  57.216 133.251  1.00  0.00     0.002 A 
ATOM      3  C   UNL     1       9.889  56.779 133.517  1.00  0.00     0.029 A 
ATOM      4  C   UNL     1       8.796  57.590 133.193  1.00  0.00     0.071 A 
ATOM      5  C   UNL     1       9.011  58.854 132.595  1.00  0.00     0.001 A 
ATOM      6  C   UNL     1      10.321  59.284 132.332  1.00  0.00     0.010 A 
ATOM      7  C   UNL     1       7.907  59.655 132.277  1.00  0.00     0.020 A 
ATOM      8  C   UNL     1       6.612  59.196 132.553  1.00  0.00     0.001 A 
ATOM      9  C   UNL     1       5.485  59.974 132.246  1.00  0.00     0.010 A 
ATOM     10  C   UNL     1       4.204  59.492 132.532  1.00  0.00     0.001 A 
ATOM     11  C   UNL     1       4.041  58.236 133.124  1.00  0.00     0.002 A 
ATOM     12  C   UNL     1       5.158  57.453 133.434  1.00  0.00     0.029 A 
ATOM     13  C   UNL     1       6.444  57.926 133.151  1.00  0.00     0.071 A 
ATOM     14  N   UNL     1       7.531  57.166 133.452  1.00  0.00    -0.248 NA
ENDROOT
TORSDOF 0
ENDMDL
MODEL 5
REMARK VINA RESULT:    -5.934      1.861      3.276
REMARK INTER + INTRA:          -5.934
REMARK INTER:                  -5.934
REMARK INTRA:                   0.000
REMARK UNBOUND:                 0.000
REMARK SMILES c1ccc2nc3ccccc3cc2c1
REMARK SMILES IDX 1 1 2 2 3 3 4 4 13 5 14 6 12 7 11 8 10 9 9 10 8 11 7 12 6 13
REMARK SMILES IDX 5 14
REMARK H PARENT
REMARK Flexibility Score: inf
ROOT
ATOM      1  C   UNL     1       9.635  60.729 133.069  1.00  0.00     0.001 A 
ATOM      2  C   UNL     1       9.552  59.432 132.553  1.00  0.00     0.002 A 
ATOM      3  C   UNL     1       8.305  58.865 132.272  1.00  0.00     0.029 A 
ATOM      4  C   UNL     1       7.134  59.594 132.508  1.00  0.00     0.071 A 
ATOM      5  C   UNL     1       7.215  60.906 133.031  1.00  0.00     0.001 A 
ATOM      6  C   UNL     1       8.471  61.466 133.309  1.00  0.00     0.010 A 
ATOM      7  C   UNL     1       6.033  61.622 133.262  1.00  0.00     0.020 A 
ATOM      8  C   UNL     1       4.795  61.033 132.973  1.00  0.00     0.001 A 
ATOM      9  C   UNL     1       3.594  61.725 133.193  1.00  0.00     0.010 A 
ATOM     10  C   UNL     1       2.371  61.113 132.896  1.00  0.00     0.001 A 
ATOM     11  C   UNL     1       2.341  59.814 132.380  1.00  0.00     0.002 A 
ATOM     12  C   UNL     1       3.533  59.117 132.157  1.00  0.00     0.029 A 
ATOM     13  C   UNL     1       4.762  59.720 132.451  1.00  0.00     0.071 A 
ATOM     14  N   UNL     1       5.921  59.043 132.236  1.00  0.00    -0.248 NA
ENDROOT
TORSDOF 0
ENDMDL
MODEL 6
REMARK VINA RESULT:    -5.811      1.651      5.673
REMARK INTER + INTRA:          -5.811
REMARK INTER:                  -5.811
REMARK INTRA:                   0.000
REMARK UNBOUND:                 0.000
REMARK SMILES c1ccc2nc3ccccc3cc2c1
REMARK SMILES IDX 1 1 2 2 3 3 4 4 13 5 14 6 12 7 11 8 10 9 9 10 8 11 7 12 6 13
REMARK SMILES IDX 5 14
REMARK H PARENT
REMARK Flexibility Score: inf
ROOT
ATOM      1  C   UNL     1       2.722  61.018 132.956  1.00  0.00     0.001 A 
ATOM      2  C   UNL     1       2.599  59.651 132.685  1.00  0.00     0.002 A 
ATOM      3  C   UNL     1       3.739  58.854 132.556  1.00  0.00     0.029 A 
ATOM      4  C   UNL     1       5.011  59.421 132.696  1.00  0.00     0.071 A 
ATOM      5  C   UNL     1       5.140  60.803 132.969  1.00  0.00     0.001 A 
ATOM      6  C   UNL     1       3.988  61.595 133.097  1.00  0.00     0.010 A 
ATOM      7  C   UNL     1       6.419  61.355 133.106  1.00  0.00     0.020 A 
ATOM      8  C   UNL     1       7.548  60.537 132.972  1.00  0.00     0.001 A 
ATOM      9  C   UNL     1       8.844  61.060 133.104  1.00  0.00     0.010 A 
ATOM     10  C   UNL     1       9.954  60.220 132.966  1.00  0.00     0.001 A 
ATOM     11  C   UNL     1       9.778  58.859 132.696  1.00  0.00     0.002 A 
ATOM     12  C   UNL     1       8.491  58.329 132.563  1.00  0.00     0.029 A 
ATOM     13  C   UNL     1       7.373  59.161 132.700  1.00  0.00     0.071 A 
ATOM     14  N   UNL     1       6.121  58.646 132.570  1.00  0.00    -0.248 NA
ENDROOT
TORSDOF 0
ENDMDL
MODEL 7
REMARK VINA RESULT:    -5.784      1.690      2.473
REMARK INTER + INTRA:          -5.784
REMARK INTER:                  -5.784
REMARK INTRA:                   0.000
REMARK UNBOUND:                 0.000
REMARK SMILES c1ccc2nc3ccccc3cc2c1
REMARK SMILES IDX 1 1 2 2 3 3 4 4 13 5 14 6 12 7 11 8 10 9 9 10 8 11 7 12 6 13
REMARK SMILES IDX 5 14
REMARK H PARENT
REMARK Flexibility Score: inf
ROOT
ATOM      1  C   UNL     1       9.729  59.096 132.756  1.00  0.00     0.001 A 
ATOM      2  C   UNL     1       9.811  60.473 132.992  1.00  0.00     0.002 A 
ATOM      3  C   UNL     1       8.647  61.239 133.101  1.00  0.00     0.029 A 
ATOM      4  C   UNL     1       7.393  60.631 132.973  1.00  0.00     0.071 A 
ATOM      5  C   UNL     1       7.306  59.240 132.733  1.00  0.00     0.001 A 
ATOM      6  C   UNL     1       8.481  58.479 132.626  1.00  0.00     0.010 A 
ATOM      7  C   UNL     1       6.044  58.647 132.607  1.00  0.00     0.020 A 
ATOM      8  C   UNL     1       4.891  59.434 132.720  1.00  0.00     0.001 A 
ATOM      9  C   UNL     1       3.611  58.870 132.599  1.00  0.00     0.010 A 
ATOM     10  C   UNL     1       2.477  59.680 132.715  1.00  0.00     0.001 A 
ATOM     11  C   UNL     1       2.612  61.051 132.953  1.00  0.00     0.002 A 
ATOM     12  C   UNL     1       3.883  61.622 133.075  1.00  0.00     0.029 A 
ATOM     13  C   UNL     1       5.024  60.821 132.960  1.00  0.00     0.071 A 
ATOM     14  N   UNL     1       6.260  61.375 133.078  1.00  0.00    -0.248 NA
ENDROOT
TORSDOF 0
ENDMDL
MODEL 8
REMARK VINA RESULT:    -5.770      1.629      5.367
REMARK INTER + INTRA:          -5.770
REMARK INTER:                  -5.770
REMARK INTRA:                   0.000
REMARK UNBOUND:                 0.000
REMARK SMILES c1ccc2nc3ccccc3cc2c1
REMARK SMILES IDX 1 1 2 2 3 3 4 4 13 5 14 6 12 7 11 8 10 9 9 10 8 11 7 12 6 13
REMARK SMILES IDX 5 14
REMARK H PARENT
REMARK Flexibility Score: inf
ROOT
ATOM      1  C   UNL     1       2.566  59.750 132.746  1.00  0.00     0.001 A 
ATOM      2  C   UNL     1       2.758  61.124 132.924  1.00  0.00     0.002 A 
ATOM      3  C   UNL     1       4.050  61.648 133.019  1.00  0.00     0.029 A 
ATOM      4  C   UNL     1       5.159  60.798 132.938  1.00  0.00     0.071 A 
ATOM      5  C   UNL     1       4.969  59.408 132.759  1.00  0.00     0.001 A 
ATOM      6  C   UNL     1       3.667  58.892 132.664  1.00  0.00     0.010 A 
ATOM      7  C   UNL     1       6.089  58.570 132.680  1.00  0.00     0.020 A 
ATOM      8  C   UNL     1       7.375  59.117 132.778  1.00  0.00     0.001 A 
ATOM      9  C   UNL     1       8.517  58.305 132.702  1.00  0.00     0.010 A 
ATOM     10  C   UNL     1       9.789  58.877 132.804  1.00  0.00     0.001 A 
ATOM     11  C   UNL     1       9.928  60.258 132.980  1.00  0.00     0.002 A 
ATOM     12  C   UNL     1       8.796  61.075 133.057  1.00  0.00     0.029 A 
ATOM     13  C   UNL     1       7.518  60.512 132.956  1.00  0.00     0.071 A 
ATOM     14  N   UNL     1       6.417  61.306 133.031  1.00  0.00    -0.248 NA
ENDROOT
TORSDOF 0
ENDMDL
MODEL 9
REMARK VINA RESULT:    -5.643      3.781      6.354
REMARK INTER + INTRA:          -5.643
REMARK INTER:                  -5.643
REMARK INTRA:                   0.000
REMARK UNBOUND:                 0.000
REMARK SMILES c1ccc2nc3ccccc3cc2c1
REMARK SMILES IDX 1 1 2 2 3 3 4 4 13 5 14 6 12 7 11 8 10 9 9 10 8 11 7 12 6 13
REMARK SMILES IDX 5 14
REMARK H PARENT
REMARK Flexibility Score: inf
ROOT
ATOM      1  C   UNL     1       5.448  59.583 132.112  1.00  0.00     0.001 A 
ATOM      2  C   UNL     1       5.470  58.481 132.974  1.00  0.00     0.002 A 
ATOM      3  C   UNL     1       4.308  58.090 133.645  1.00  0.00     0.029 A 
ATOM      4  C   UNL     1       3.117  58.800 133.457  1.00  0.00     0.071 A 
ATOM      5  C   UNL     1       3.091  59.915 132.587  1.00  0.00     0.001 A 
ATOM      6  C   UNL     1       4.263  60.300 131.918  1.00  0.00     0.010 A 
ATOM      7  C   UNL     1       1.891  60.615 132.410  1.00  0.00     0.020 A 
ATOM      8  C   UNL     1       0.739  60.205 133.093  1.00  0.00     0.001 A 
ATOM      9  C   UNL     1      -0.479  60.885 132.937  1.00  0.00     0.010 A 
ATOM     10  C   UNL     1      -1.614  60.454 133.631  1.00  0.00     0.001 A 
ATOM     11  C   UNL     1      -1.540  59.346 134.482  1.00  0.00     0.002 A 
ATOM     12  C   UNL     1      -0.332  58.662 134.643  1.00  0.00     0.029 A 
ATOM     13  C   UNL     1       0.810  59.085 133.953  1.00  0.00     0.071 A 
ATOM     14  N   UNL     1       1.986  58.421 134.110  1.00  0.00    -0.248 NA
ENDROOT
TORSDOF 0
ENDMDL
