MODEL 1
REMARK VINA RESULT:    -3.485      0.000      0.000
REMARK INTER + INTRA:          -4.740
REMARK INTER:                  -4.504
REMARK INTRA:                  -0.236
REMARK UNBOUND:                -0.236
REMARK SMILES CCCCCCC(=O)[O-]
REMARK SMILES IDX 5 1 6 2 7 3 8 4 9 5 4 6 3 7 2 8 1 9
REMARK H PARENT
REMARK Flexibility Score: inf
ROOT
ATOM      1  C   UNL     1     -42.869  27.499   0.990  1.00  0.00     0.006 C 
ENDROOT
BRANCH   1   2
ATOM      2  C   UNL     1     -43.420  28.098   2.294  1.00  0.00     0.053 C 
BRANCH   2   3
ATOM      3  C   UNL     1     -44.501  27.247   2.887  1.00  0.00     0.041 C 
ATOM      4  O   UNL     1     -45.701  27.629   2.849  1.00  0.00    -0.550 OA
ATOM      5  O   UNL     1     -44.188  26.017   3.452  1.00  0.00    -0.550 OA
ENDBRANCH   2   3
ENDBRANCH   1   2
BRANCH   1   6
ATOM      6  C   UNL     1     -43.305  28.246  -0.286  1.00  0.00     0.000 C 
BRANCH   6   7
ATOM      7  C   UNL     1     -44.660  27.801  -0.875  1.00  0.00    -0.000 C 
BRANCH   7   8
ATOM      8  C   UNL     1     -44.817  26.281  -1.062  1.00  0.00    -0.003 C 
ATOM      9  C   UNL     1     -45.555  25.913  -2.349  1.00  0.00     0.004 C 
ENDBRANCH   7   8
ENDBRANCH   6   7
ENDBRANCH   1   6
TORSDOF 5
ENDMDL
MODEL 2
REMARK VINA RESULT:    -3.436      3.768      5.414
REMARK INTER + INTRA:          -4.677
REMARK INTER:                  -4.556
REMARK INTRA:                  -0.121
REMARK UNBOUND:                -0.236
REMARK SMILES CCCCCCC(=O)[O-]
REMARK SMILES IDX 5 1 6 2 7 3 8 4 9 5 4 6 3 7 2 8 1 9
REMARK H PARENT
REMARK Flexibility Score: inf
ROOT
ATOM      1  C   UNL     1     -46.646  26.537  -3.601  1.00  0.00     0.006 C 
ENDROOT
BRANCH   1   2
ATOM      2  C   UNL     1     -46.036  27.145  -2.328  1.00  0.00     0.053 C 
BRANCH   2   3
ATOM      3  C   UNL     1     -45.405  26.104  -1.457  1.00  0.00     0.041 C 
ATOM      4  O   UNL     1     -45.684  24.886  -1.621  1.00  0.00    -0.550 OA
ATOM      5  O   UNL     1     -44.483  26.473  -0.486  1.00  0.00    -0.550 OA
ENDBRANCH   2   3
ENDBRANCH   1   2
BRANCH   1   6
ATOM      6  C   UNL     1     -46.317  27.307  -4.895  1.00  0.00     0.000 C 
BRANCH   6   7
ATOM      7  C   UNL     1     -46.173  26.434  -6.159  1.00  0.00    -0.000 C 
BRANCH   7   8
ATOM      8  C   UNL     1     -45.430  27.105  -7.328  1.00  0.00    -0.003 C 
ATOM      9  C   UNL     1     -45.295  28.617  -7.159  1.00  0.00     0.004 C 
ENDBRANCH   7   8
ENDBRANCH   6   7
ENDBRANCH   1   6
TORSDOF 5
ENDMDL
MODEL 3
REMARK VINA RESULT:    -3.435      0.773      1.234
REMARK INTER + INTRA:          -4.675
REMARK INTER:                  -4.521
REMARK INTRA:                  -0.154
REMARK UNBOUND:                -0.236
REMARK SMILES CCCCCCC(=O)[O-]
REMARK SMILES IDX 5 1 6 2 7 3 8 4 9 5 4 6 3 7 2 8 1 9
REMARK H PARENT
REMARK Flexibility Score: inf
ROOT
ATOM      1  C   UNL     1     -43.011  27.369   1.042  1.00  0.00     0.006 C 
ENDROOT
BRANCH   1   2
ATOM      2  C   UNL     1     -43.675  28.180   2.165  1.00  0.00     0.053 C 
BRANCH   2   3
ATOM      3  C   UNL     1     -44.384  27.299   3.147  1.00  0.00     0.041 C 
ATOM      4  O   UNL     1     -44.134  26.065   3.187  1.00  0.00    -0.550 OA
ATOM      5  O   UNL     1     -45.295  27.846   4.043  1.00  0.00    -0.550 OA
ENDBRANCH   2   3
ENDBRANCH   1   2
BRANCH   1   6
ATOM      6  C   UNL     1     -43.619  27.602  -0.356  1.00  0.00     0.000 C 
BRANCH   6   7
ATOM      7  C   UNL     1     -45.022  27.000  -0.569  1.00  0.00    -0.000 C 
BRANCH   7   8
ATOM      8  C   UNL     1     -45.128  25.998  -1.733  1.00  0.00    -0.003 C 
ATOM      9  C   UNL     1     -46.482  25.291  -1.789  1.00  0.00     0.004 C 
ENDBRANCH   7   8
ENDBRANCH   6   7
ENDBRANCH   1   6
TORSDOF 5
ENDMDL
MODEL 4
REMARK VINA RESULT:    -3.335      1.349      2.441
REMARK INTER + INTRA:          -4.546
REMARK INTER:                  -4.109
REMARK INTRA:                  -0.437
REMARK UNBOUND:                -0.236
REMARK SMILES CCCCCCC(=O)[O-]
REMARK SMILES IDX 5 1 6 2 7 3 8 4 9 5 4 6 3 7 2 8 1 9
REMARK H PARENT
REMARK Flexibility Score: inf
ROOT
ATOM      1  C   UNL     1     -42.904  29.100   3.019  1.00  0.00     0.006 C 
ENDROOT
BRANCH   1   2
ATOM      2  C   UNL     1     -44.126  28.642   3.831  1.00  0.00     0.053 C 
BRANCH   2   3
ATOM      3  C   UNL     1     -44.816  27.475   3.194  1.00  0.00     0.041 C 
ATOM      4  O   UNL     1     -44.269  26.340   3.189  1.00  0.00    -0.550 OA
ATOM      5  O   UNL     1     -46.078  27.633   2.635  1.00  0.00    -0.550 OA
ENDBRANCH   2   3
ENDBRANCH   1   2
BRANCH   1   6
ATOM      6  C   UNL     1     -43.249  29.795   1.687  1.00  0.00     0.000 C 
BRANCH   6   7
ATOM      7  C   UNL     1     -42.454  29.298   0.463  1.00  0.00    -0.000 C 
BRANCH   7   8
ATOM      8  C   UNL     1     -42.551  27.785   0.198  1.00  0.00    -0.003 C 
ATOM      9  C   UNL     1     -43.893  27.370  -0.404  1.00  0.00     0.004 C 
ENDBRANCH   7   8
ENDBRANCH   6   7
ENDBRANCH   1   6
TORSDOF 5
ENDMDL
MODEL 5
REMARK VINA RESULT:    -3.212      1.802      3.864
REMARK INTER + INTRA:          -4.387
REMARK INTER:                  -3.994
REMARK INTRA:                  -0.393
REMARK UNBOUND:                -0.236
REMARK SMILES CCCCCCC(=O)[O-]
REMARK SMILES IDX 5 1 6 2 7 3 8 4 9 5 4 6 3 7 2 8 1 9
REMARK H PARENT
REMARK Flexibility Score: inf
ROOT
ATOM      1  C   UNL     1     -42.858  27.987  -0.169  1.00  0.00     0.006 C 
ENDROOT
BRANCH   1   2
ATOM      2  C   UNL     1     -44.303  28.234  -0.631  1.00  0.00     0.053 C 
BRANCH   2   3
ATOM      3  C   UNL     1     -45.175  27.037  -0.405  1.00  0.00     0.041 C 
ATOM      4  O   UNL     1     -44.978  25.978  -1.058  1.00  0.00    -0.550 OA
ATOM      5  O   UNL     1     -46.182  27.079   0.550  1.00  0.00    -0.550 OA
ENDBRANCH   2   3
ENDBRANCH   1   2
BRANCH   1   6
ATOM      6  C   UNL     1     -42.716  27.669   1.333  1.00  0.00     0.000 C 
BRANCH   6   7
ATOM      7  C   UNL     1     -43.076  28.828   2.285  1.00  0.00    -0.000 C 
BRANCH   7   8
ATOM      8  C   UNL     1     -43.913  28.423   3.511  1.00  0.00    -0.003 C 
ATOM      9  C   UNL     1     -44.307  26.947   3.502  1.00  0.00     0.004 C 
ENDBRANCH   7   8
ENDBRANCH   6   7
ENDBRANCH   1   6
TORSDOF 5
ENDMDL
MODEL 6
REMARK VINA RESULT:    -3.200      2.034      3.133
REMARK INTER + INTRA:          -4.372
REMARK INTER:                  -4.258
REMARK INTRA:                  -0.114
REMARK UNBOUND:                -0.236
REMARK SMILES CCCCCCC(=O)[O-]
REMARK SMILES IDX 5 1 6 2 7 3 8 4 9 5 4 6 3 7 2 8 1 9
REMARK H PARENT
REMARK Flexibility Score: inf
ROOT
ATOM      1  C   UNL     1     -44.940  26.413  -1.334  1.00  0.00     0.006 C 
ENDROOT
BRANCH   1   2
ATOM      2  C   UNL     1     -43.980  27.372  -0.613  1.00  0.00     0.053 C 
BRANCH   2   3
ATOM      3  C   UNL     1     -44.055  27.225   0.876  1.00  0.00     0.041 C 
ATOM      4  O   UNL     1     -45.174  27.166   1.451  1.00  0.00    -0.550 OA
ATOM      5  O   UNL     1     -42.890  27.117   1.624  1.00  0.00    -0.550 OA
ENDBRANCH   2   3
ENDBRANCH   1   2
BRANCH   1   6
ATOM      6  C   UNL     1     -46.011  27.112  -2.194  1.00  0.00     0.000 C 
BRANCH   6   7
ATOM      7  C   UNL     1     -46.389  26.376  -3.496  1.00  0.00    -0.000 C 
BRANCH   7   8
ATOM      8  C   UNL     1     -46.401  27.257  -4.758  1.00  0.00    -0.003 C 
ATOM      9  C   UNL     1     -45.991  26.497  -6.019  1.00  0.00     0.004 C 
ENDBRANCH   7   8
ENDBRANCH   6   7
ENDBRANCH   1   6
TORSDOF 5
ENDMDL
MODEL 7
REMARK VINA RESULT:    -3.106      2.358      3.269
REMARK INTER + INTRA:          -4.250
REMARK INTER:                  -4.120
REMARK INTRA:                  -0.130
REMARK UNBOUND:                -0.236
REMARK SMILES CCCCCCC(=O)[O-]
REMARK SMILES IDX 5 1 6 2 7 3 8 4 9 5 4 6 3 7 2 8 1 9
REMARK H PARENT
REMARK Flexibility Score: inf
ROOT
ATOM      1  C   UNL     1     -44.478  27.312   3.847  1.00  0.00     0.006 C 
ENDROOT
BRANCH   1   2
ATOM      2  C   UNL     1     -43.606  28.283   4.657  1.00  0.00     0.053 C 
BRANCH   2   3
ATOM      3  C   UNL     1     -43.370  27.793   6.053  1.00  0.00     0.041 C 
ATOM      4  O   UNL     1     -44.197  27.015   6.599  1.00  0.00    -0.550 OA
ATOM      5  O   UNL     1     -42.221  28.167   6.737  1.00  0.00    -0.550 OA
ENDBRANCH   2   3
ENDBRANCH   1   2
BRANCH   1   6
ATOM      6  C   UNL     1     -44.418  27.524   2.321  1.00  0.00     0.000 C 
BRANCH   6   7
ATOM      7  C   UNL     1     -42.999  27.517   1.714  1.00  0.00    -0.000 C 
BRANCH   7   8
ATOM      8  C   UNL     1     -42.944  27.750   0.194  1.00  0.00    -0.003 C 
ATOM      9  C   UNL     1     -44.141  27.154  -0.544  1.00  0.00     0.004 C 
ENDBRANCH   7   8
ENDBRANCH   6   7
ENDBRANCH   1   6
TORSDOF 5
ENDMDL
MODEL 8
REMARK VINA RESULT:    -3.043      2.893      4.620
REMARK INTER + INTRA:          -4.169
REMARK INTER:                  -3.986
REMARK INTRA:                  -0.183
REMARK UNBOUND:                -0.236
REMARK SMILES CCCCCCC(=O)[O-]
REMARK SMILES IDX 5 1 6 2 7 3 8 4 9 5 4 6 3 7 2 8 1 9
REMARK H PARENT
REMARK Flexibility Score: inf
ROOT
ATOM      1  C   UNL     1     -44.114  26.759  -0.550  1.00  0.00     0.006 C 
ENDROOT
BRANCH   1   2
ATOM      2  C   UNL     1     -45.285  27.173  -1.456  1.00  0.00     0.053 C 
BRANCH   2   3
ATOM      3  C   UNL     1     -45.804  26.022  -2.261  1.00  0.00     0.041 C 
ATOM      4  O   UNL     1     -45.961  24.893  -1.725  1.00  0.00    -0.550 OA
ATOM      5  O   UNL     1     -46.147  26.204  -3.595  1.00  0.00    -0.550 OA
ENDBRANCH   2   3
ENDBRANCH   1   2
BRANCH   1   6
ATOM      6  C   UNL     1     -43.106  27.887  -0.257  1.00  0.00     0.000 C 
BRANCH   6   7
ATOM      7  C   UNL     1     -42.672  28.012   1.218  1.00  0.00    -0.000 C 
BRANCH   7   8
ATOM      8  C   UNL     1     -43.811  28.332   2.203  1.00  0.00    -0.003 C 
ATOM      9  C   UNL     1     -44.172  27.149   3.100  1.00  0.00     0.004 C 
ENDBRANCH   7   8
ENDBRANCH   6   7
ENDBRANCH   1   6
TORSDOF 5
ENDMDL
MODEL 9
REMARK VINA RESULT:    -2.981      3.064      5.725
REMARK INTER + INTRA:          -4.089
REMARK INTER:                  -3.850
REMARK INTRA:                  -0.239
REMARK UNBOUND:                -0.236
REMARK SMILES CCCCCCC(=O)[O-]
REMARK SMILES IDX 5 1 6 2 7 3 8 4 9 5 4 6 3 7 2 8 1 9
REMARK H PARENT
REMARK Flexibility Score: inf
ROOT
ATOM      1  C   UNL     1     -42.973  28.939   3.876  1.00  0.00     0.006 C 
ENDROOT
BRANCH   1   2
ATOM      2  C   UNL     1     -43.789  28.645   2.608  1.00  0.00     0.053 C 
BRANCH   2   3
ATOM      3  C   UNL     1     -43.930  27.175   2.361  1.00  0.00     0.041 C 
ATOM      4  O   UNL     1     -43.602  26.685   1.247  1.00  0.00    -0.550 OA
ATOM      5  O   UNL     1     -44.391  26.340   3.371  1.00  0.00    -0.550 OA
ENDBRANCH   2   3
ENDBRANCH   1   2
BRANCH   1   6
ATOM      6  C   UNL     1     -43.796  29.522   5.042  1.00  0.00     0.000 C 
BRANCH   6   7
ATOM      7  C   UNL     1     -44.133  28.525   6.169  1.00  0.00    -0.000 C 
BRANCH   7   8
ATOM      8  C   UNL     1     -42.913  27.903   6.871  1.00  0.00    -0.003 C 
ATOM      9  C   UNL     1     -42.374  28.771   8.008  1.00  0.00     0.004 C 
ENDBRANCH   7   8
ENDBRANCH   6   7
ENDBRANCH   1   6
TORSDOF 5
ENDMDL
