MODEL 1
REMARK VINA RESULT:    -3.388      0.000      0.000
REMARK INTER + INTRA:          -7.678
REMARK INTER:                  -5.764
REMARK INTRA:                  -1.914
REMARK UNBOUND:                -1.914
REMARK SMILES CCCCCCCCCCCCCC(=O)[O-]
REMARK SMILES IDX 8 1 9 2 10 3 11 4 12 5 13 6 14 7 15 8 16 9 7 10 6 11 5 12
REMARK SMILES IDX 4 13 3 14 2 15 1 16
REMARK H PARENT
REMARK Flexibility Score: inf
ROOT
ATOM      1  C   UNL     1      -5.428   4.269  -1.894  1.00  0.00     0.000 C 
ENDROOT
BRANCH   1   2
ATOM      2  C   UNL     1      -6.231   3.022  -1.496  1.00  0.00     0.000 C 
BRANCH   2   3
ATOM      3  C   UNL     1      -6.968   3.183  -0.154  1.00  0.00     0.000 C 
BRANCH   3   4
ATOM      4  C   UNL     1      -6.998   1.920   0.726  1.00  0.00     0.000 C 
BRANCH   4   5
ATOM      5  C   UNL     1      -6.430   0.681   0.014  1.00  0.00     0.006 C 
BRANCH   5   6
ATOM      6  C   UNL     1      -5.298   0.022   0.813  1.00  0.00     0.053 C 
BRANCH   6   7
ATOM      7  C   UNL     1      -5.406  -1.472   0.801  1.00  0.00     0.041 C 
ATOM      8  O   UNL     1      -6.155  -2.060   1.624  1.00  0.00    -0.550 OA
ATOM      9  O   UNL     1      -4.651  -2.217  -0.096  1.00  0.00    -0.550 OA
ENDBRANCH   6   7
ENDBRANCH   5   6
ENDBRANCH   4   5
ENDBRANCH   3   4
ENDBRANCH   2   3
ENDBRANCH   1   2
BRANCH   1  10
ATOM     10  C   UNL     1      -4.109   4.345  -1.112  1.00  0.00     0.000 C 
BRANCH  10  11
ATOM     11  C   UNL     1      -3.432   2.975  -0.956  1.00  0.00    -0.000 C 
BRANCH  11  12
ATOM     12  C   UNL     1      -3.048   2.666   0.503  1.00  0.00    -0.000 C 
BRANCH  12  13
ATOM     13  C   UNL     1      -3.398   3.831   1.455  1.00  0.00    -0.000 C 
BRANCH  13  14
ATOM     14  C   UNL     1      -4.362   3.433   2.585  1.00  0.00    -0.000 C 
BRANCH  14  15
ATOM     15  C   UNL     1      -5.224   4.604   3.075  1.00  0.00    -0.003 C 
ATOM     16  C   UNL     1      -6.170   4.162   4.188  1.00  0.00     0.004 C 
ENDBRANCH  14  15
ENDBRANCH  13  14
ENDBRANCH  12  13
ENDBRANCH  11  12
ENDBRANCH  10  11
ENDBRANCH   1  10
TORSDOF 12
ENDMDL
MODEL 2
REMARK VINA RESULT:    -3.384      1.805      3.788
REMARK INTER + INTRA:          -7.672
REMARK INTER:                  -5.679
REMARK INTRA:                  -1.993
REMARK UNBOUND:                -1.914
REMARK SMILES CCCCCCCCCCCCCC(=O)[O-]
REMARK SMILES IDX 8 1 9 2 10 3 11 4 12 5 13 6 14 7 15 8 16 9 7 10 6 11 5 12
REMARK SMILES IDX 4 13 3 14 2 15 1 16
REMARK H PARENT
REMARK Flexibility Score: inf
ROOT
ATOM      1  C   UNL     1      -7.099   1.719   0.777  1.00  0.00     0.000 C 
ENDROOT
BRANCH   1   2
ATOM      2  C   UNL     1      -6.363   0.661  -0.059  1.00  0.00     0.000 C 
BRANCH   2   3
ATOM      3  C   UNL     1      -5.234  -0.041   0.718  1.00  0.00     0.000 C 
BRANCH   3   4
ATOM      4  C   UNL     1      -5.284  -1.580   0.688  1.00  0.00     0.000 C 
BRANCH   4   5
ATOM      5  C   UNL     1      -6.714  -2.129   0.549  1.00  0.00     0.006 C 
BRANCH   5   6
ATOM      6  C   UNL     1      -7.354  -2.426   1.911  1.00  0.00     0.053 C 
BRANCH   6   7
ATOM      7  C   UNL     1      -8.389  -1.405   2.273  1.00  0.00     0.041 C 
ATOM      8  O   UNL     1      -8.424  -0.925   3.436  1.00  0.00    -0.550 OA
ATOM      9  O   UNL     1      -9.336  -1.011   1.337  1.00  0.00    -0.550 OA
ENDBRANCH   6   7
ENDBRANCH   5   6
ENDBRANCH   4   5
ENDBRANCH   3   4
ENDBRANCH   2   3
ENDBRANCH   1   2
BRANCH   1  10
ATOM     10  C   UNL     1      -6.476   1.846   2.174  1.00  0.00     0.000 C 
BRANCH  10  11
ATOM     11  C   UNL     1      -6.249   3.307   2.592  1.00  0.00    -0.000 C 
BRANCH  11  12
ATOM     12  C   UNL     1      -4.762   3.633   2.825  1.00  0.00    -0.000 C 
BRANCH  12  13
ATOM     13  C   UNL     1      -4.035   3.998   1.512  1.00  0.00    -0.000 C 
BRANCH  13  14
ATOM     14  C   UNL     1      -3.030   2.930   1.048  1.00  0.00    -0.000 C 
BRANCH  14  15
ATOM     15  C   UNL     1      -3.142   2.616  -0.450  1.00  0.00    -0.003 C 
ATOM     16  C   UNL     1      -4.253   3.433  -1.101  1.00  0.00     0.004 C 
ENDBRANCH  14  15
ENDBRANCH  13  14
ENDBRANCH  12  13
ENDBRANCH  11  12
ENDBRANCH  10  11
ENDBRANCH   1  10
TORSDOF 12
ENDMDL
MODEL 3
REMARK VINA RESULT:    -3.341      1.384      2.133
REMARK INTER + INTRA:          -7.600
REMARK INTER:                  -5.996
REMARK INTRA:                  -1.604
REMARK UNBOUND:                -1.914
REMARK SMILES CCCCCCCCCCCCCC(=O)[O-]
REMARK SMILES IDX 8 1 9 2 10 3 11 4 12 5 13 6 14 7 15 8 16 9 7 10 6 11 5 12
REMARK SMILES IDX 4 13 3 14 2 15 1 16
REMARK H PARENT
REMARK Flexibility Score: inf
ROOT
ATOM      1  C   UNL     1      -6.017   2.038  -0.998  1.00  0.00     0.000 C 
ENDROOT
BRANCH   1   2
ATOM      2  C   UNL     1      -6.999   1.859   0.171  1.00  0.00     0.000 C 
BRANCH   2   3
ATOM      3  C   UNL     1      -6.555   0.775   1.169  1.00  0.00     0.000 C 
BRANCH   3   4
ATOM      4  C   UNL     1      -5.225   0.080   0.825  1.00  0.00     0.000 C 
BRANCH   4   5
ATOM      5  C   UNL     1      -5.384  -1.431   0.585  1.00  0.00     0.006 C 
BRANCH   5   6
ATOM      6  C   UNL     1      -6.619  -2.002   1.294  1.00  0.00     0.053 C 
BRANCH   6   7
ATOM      7  C   UNL     1      -7.492  -2.775   0.354  1.00  0.00     0.041 C 
ATOM      8  O   UNL     1      -8.642  -3.141   0.713  1.00  0.00    -0.550 OA
ATOM      9  O   UNL     1      -7.021  -3.125  -0.905  1.00  0.00    -0.550 OA
ENDBRANCH   6   7
ENDBRANCH   5   6
ENDBRANCH   4   5
ENDBRANCH   3   4
ENDBRANCH   2   3
ENDBRANCH   1   2
BRANCH   1  10
ATOM     10  C   UNL     1      -5.675   3.520  -1.205  1.00  0.00     0.000 C 
BRANCH  10  11
ATOM     11  C   UNL     1      -4.161   3.779  -1.250  1.00  0.00    -0.000 C 
BRANCH  11  12
ATOM     12  C   UNL     1      -3.357   2.729  -0.461  1.00  0.00    -0.000 C 
BRANCH  12  13
ATOM     13  C   UNL     1      -3.181   3.126   1.021  1.00  0.00    -0.000 C 
BRANCH  13  14
ATOM     14  C   UNL     1      -3.472   4.610   1.299  1.00  0.00    -0.000 C 
BRANCH  14  15
ATOM     15  C   UNL     1      -4.699   4.820   2.197  1.00  0.00    -0.003 C 
ATOM     16  C   UNL     1      -5.028   3.553   2.983  1.00  0.00     0.004 C 
ENDBRANCH  14  15
ENDBRANCH  13  14
ENDBRANCH  12  13
ENDBRANCH  11  12
ENDBRANCH  10  11
ENDBRANCH   1  10
TORSDOF 12
ENDMDL
MODEL 4
REMARK VINA RESULT:    -3.317      2.855      5.654
REMARK INTER + INTRA:          -7.558
REMARK INTER:                  -6.088
REMARK INTRA:                  -1.470
REMARK UNBOUND:                -1.914
REMARK SMILES CCCCCCCCCCCCCC(=O)[O-]
REMARK SMILES IDX 8 1 9 2 10 3 11 4 12 5 13 6 14 7 15 8 16 9 7 10 6 11 5 12
REMARK SMILES IDX 4 13 3 14 2 15 1 16
REMARK H PARENT
REMARK Flexibility Score: inf
ROOT
ATOM      1  C   UNL     1      -6.840   1.863   0.405  1.00  0.00     0.000 C 
ENDROOT
BRANCH   1   2
ATOM      2  C   UNL     1      -5.973   1.917  -0.863  1.00  0.00     0.000 C 
BRANCH   2   3
ATOM      3  C   UNL     1      -4.989   3.101  -0.869  1.00  0.00     0.000 C 
BRANCH   3   4
ATOM      4  C   UNL     1      -3.538   2.742  -0.503  1.00  0.00     0.000 C 
BRANCH   4   5
ATOM      5  C   UNL     1      -3.257   2.852   1.006  1.00  0.00     0.006 C 
BRANCH   5   6
ATOM      6  C   UNL     1      -3.653   4.223   1.569  1.00  0.00     0.053 C 
BRANCH   6   7
ATOM      7  C   UNL     1      -4.309   4.103   2.911  1.00  0.00     0.041 C 
ATOM      8  O   UNL     1      -3.969   4.867   3.852  1.00  0.00    -0.550 OA
ATOM      9  O   UNL     1      -5.268   3.123   3.132  1.00  0.00    -0.550 OA
ENDBRANCH   6   7
ENDBRANCH   5   6
ENDBRANCH   4   5
ENDBRANCH   3   4
ENDBRANCH   2   3
ENDBRANCH   1   2
BRANCH   1  10
ATOM     10  C   UNL     1      -6.452   0.666   1.285  1.00  0.00     0.000 C 
BRANCH  10  11
ATOM     11  C   UNL     1      -5.352  -0.202   0.654  1.00  0.00    -0.000 C 
BRANCH  11  12
ATOM     12  C   UNL     1      -5.568  -1.706   0.902  1.00  0.00    -0.000 C 
BRANCH  12  13
ATOM     13  C   UNL     1      -6.398  -2.366  -0.221  1.00  0.00    -0.000 C 
BRANCH  13  14
ATOM     14  C   UNL     1      -7.868  -2.605   0.160  1.00  0.00    -0.000 C 
BRANCH  14  15
ATOM     15  C   UNL     1      -8.844  -2.242  -0.966  1.00  0.00    -0.003 C 
ATOM     16  C   UNL     1      -9.020  -0.730  -1.075  1.00  0.00     0.004 C 
ENDBRANCH  14  15
ENDBRANCH  13  14
ENDBRANCH  12  13
ENDBRANCH  11  12
ENDBRANCH  10  11
ENDBRANCH   1  10
TORSDOF 12
ENDMDL
MODEL 5
REMARK VINA RESULT:    -3.317      3.468      5.083
REMARK INTER + INTRA:          -7.558
REMARK INTER:                  -5.796
REMARK INTRA:                  -1.762
REMARK UNBOUND:                -1.914
REMARK SMILES CCCCCCCCCCCCCC(=O)[O-]
REMARK SMILES IDX 8 1 9 2 10 3 11 4 12 5 13 6 14 7 15 8 16 9 7 10 6 11 5 12
REMARK SMILES IDX 4 13 3 14 2 15 1 16
REMARK H PARENT
REMARK Flexibility Score: inf
ROOT
ATOM      1  C   UNL     1      -6.071   2.472  -1.187  1.00  0.00     0.000 C 
ENDROOT
BRANCH   1   2
ATOM      2  C   UNL     1      -6.649   3.889  -1.054  1.00  0.00     0.000 C 
BRANCH   2   3
ATOM      3  C   UNL     1      -5.701   4.979  -1.587  1.00  0.00     0.000 C 
BRANCH   3   4
ATOM      4  C   UNL     1      -4.964   4.619  -2.889  1.00  0.00     0.000 C 
BRANCH   4   5
ATOM      5  C   UNL     1      -3.457   4.393  -2.681  1.00  0.00     0.006 C 
BRANCH   5   6
ATOM      6  C   UNL     1      -2.607   5.331  -3.548  1.00  0.00     0.053 C 
BRANCH   6   7
ATOM      7  C   UNL     1      -1.671   4.569  -4.436  1.00  0.00     0.041 C 
ATOM      8  O   UNL     1      -0.480   4.952  -4.577  1.00  0.00    -0.550 OA
ATOM      9  O   UNL     1      -2.125   3.460  -5.138  1.00  0.00    -0.550 OA
ENDBRANCH   6   7
ENDBRANCH   5   6
ENDBRANCH   4   5
ENDBRANCH   3   4
ENDBRANCH   2   3
ENDBRANCH   1   2
BRANCH   1  10
ATOM     10  C   UNL     1      -6.129   1.727   0.154  1.00  0.00     0.000 C 
BRANCH  10  11
ATOM     11  C   UNL     1      -4.761   1.175   0.586  1.00  0.00    -0.000 C 
BRANCH  11  12
ATOM     12  C   UNL     1      -3.589   2.044   0.094  1.00  0.00    -0.000 C 
BRANCH  12  13
ATOM     13  C   UNL     1      -3.070   2.995   1.194  1.00  0.00    -0.000 C 
BRANCH  13  14
ATOM     14  C   UNL     1      -3.537   4.450   1.020  1.00  0.00    -0.000 C 
BRANCH  14  15
ATOM     15  C   UNL     1      -4.570   4.877   2.072  1.00  0.00    -0.003 C 
ATOM     16  C   UNL     1      -4.709   3.821   3.164  1.00  0.00     0.004 C 
ENDBRANCH  14  15
ENDBRANCH  13  14
ENDBRANCH  12  13
ENDBRANCH  11  12
ENDBRANCH  10  11
ENDBRANCH   1  10
TORSDOF 12
ENDMDL
MODEL 6
REMARK VINA RESULT:    -3.303      1.183      3.538
REMARK INTER + INTRA:          -7.534
REMARK INTER:                  -5.847
REMARK INTRA:                  -1.687
REMARK UNBOUND:                -1.914
REMARK SMILES CCCCCCCCCCCCCC(=O)[O-]
REMARK SMILES IDX 8 1 9 2 10 3 11 4 12 5 13 6 14 7 15 8 16 9 7 10 6 11 5 12
REMARK SMILES IDX 4 13 3 14 2 15 1 16
REMARK H PARENT
REMARK Flexibility Score: inf
ROOT
ATOM      1  C   UNL     1      -6.040   3.591   2.553  1.00  0.00     0.000 C 
ENDROOT
BRANCH   1   2
ATOM      2  C   UNL     1      -6.508   2.155   2.275  1.00  0.00     0.000 C 
BRANCH   2   3
ATOM      3  C   UNL     1      -7.014   1.955   0.835  1.00  0.00     0.000 C 
BRANCH   3   4
ATOM      4  C   UNL     1      -6.274   0.870   0.032  1.00  0.00     0.000 C 
BRANCH   4   5
ATOM      5  C   UNL     1      -5.299   0.049   0.893  1.00  0.00     0.006 C 
BRANCH   5   6
ATOM      6  C   UNL     1      -5.339  -1.446   0.546  1.00  0.00     0.053 C 
BRANCH   6   7
ATOM      7  C   UNL     1      -6.681  -2.046   0.834  1.00  0.00     0.041 C 
ATOM      8  O   UNL     1      -7.255  -2.756  -0.033  1.00  0.00    -0.550 OA
ATOM      9  O   UNL     1      -7.314  -1.791   2.043  1.00  0.00    -0.550 OA
ENDBRANCH   6   7
ENDBRANCH   5   6
ENDBRANCH   4   5
ENDBRANCH   3   4
ENDBRANCH   2   3
ENDBRANCH   1   2
BRANCH   1  10
ATOM     10  C   UNL     1      -4.514   3.650   2.710  1.00  0.00     0.000 C 
BRANCH  10  11
ATOM     11  C   UNL     1      -3.797   4.036   1.407  1.00  0.00    -0.000 C 
BRANCH  11  12
ATOM     12  C   UNL     1      -3.075   2.844   0.752  1.00  0.00    -0.000 C 
BRANCH  12  13
ATOM     13  C   UNL     1      -3.292   2.803  -0.777  1.00  0.00    -0.000 C 
BRANCH  13  14
ATOM     14  C   UNL     1      -4.416   3.733  -1.264  1.00  0.00    -0.000 C 
BRANCH  14  15
ATOM     15  C   UNL     1      -3.898   4.908  -2.104  1.00  0.00    -0.003 C 
ATOM     16  C   UNL     1      -3.006   4.419  -3.241  1.00  0.00     0.004 C 
ENDBRANCH  14  15
ENDBRANCH  13  14
ENDBRANCH  12  13
ENDBRANCH  11  12
ENDBRANCH  10  11
ENDBRANCH   1  10
TORSDOF 12
ENDMDL
MODEL 7
REMARK VINA RESULT:    -3.246      2.513      5.094
REMARK INTER + INTRA:          -7.437
REMARK INTER:                  -5.230
REMARK INTRA:                  -2.207
REMARK UNBOUND:                -1.914
REMARK SMILES CCCCCCCCCCCCCC(=O)[O-]
REMARK SMILES IDX 8 1 9 2 10 3 11 4 12 5 13 6 14 7 15 8 16 9 7 10 6 11 5 12
REMARK SMILES IDX 4 13 3 14 2 15 1 16
REMARK H PARENT
REMARK Flexibility Score: inf
ROOT
ATOM      1  C   UNL     1      -4.549   1.073   0.378  1.00  0.00     0.000 C 
ENDROOT
BRANCH   1   2
ATOM      2  C   UNL     1      -3.621   2.214  -0.064  1.00  0.00     0.000 C 
BRANCH   2   3
ATOM      3  C   UNL     1      -3.127   3.077   1.112  1.00  0.00     0.000 C 
BRANCH   3   4
ATOM      4  C   UNL     1      -3.607   4.539   1.091  1.00  0.00     0.000 C 
BRANCH   4   5
ATOM      5  C   UNL     1      -4.734   4.813   2.102  1.00  0.00     0.006 C 
BRANCH   5   6
ATOM      6  C   UNL     1      -4.926   3.650   3.083  1.00  0.00     0.053 C 
BRANCH   6   7
ATOM      7  C   UNL     1      -6.323   3.603   3.621  1.00  0.00     0.041 C 
ATOM      8  O   UNL     1      -6.529   3.701   4.859  1.00  0.00    -0.550 OA
ATOM      9  O   UNL     1      -7.396   3.412   2.759  1.00  0.00    -0.550 OA
ENDBRANCH   6   7
ENDBRANCH   5   6
ENDBRANCH   4   5
ENDBRANCH   3   4
ENDBRANCH   2   3
ENDBRANCH   1   2
BRANCH   1  10
ATOM     10  C   UNL     1      -6.023   1.457   0.183  1.00  0.00     0.000 C 
BRANCH  10  11
ATOM     11  C   UNL     1      -6.253   2.310  -1.075  1.00  0.00    -0.000 C 
BRANCH  11  12
ATOM     12  C   UNL     1      -6.935   3.654  -0.763  1.00  0.00    -0.000 C 
BRANCH  12  13
ATOM     13  C   UNL     1      -6.229   4.839  -1.459  1.00  0.00    -0.000 C 
BRANCH  13  14
ATOM     14  C   UNL     1      -5.274   4.410  -2.586  1.00  0.00    -0.000 C 
BRANCH  14  15
ATOM     15  C   UNL     1      -3.924   5.137  -2.535  1.00  0.00    -0.003 C 
ATOM     16  C   UNL     1      -2.848   4.353  -3.279  1.00  0.00     0.004 C 
ENDBRANCH  14  15
ENDBRANCH  13  14
ENDBRANCH  12  13
ENDBRANCH  11  12
ENDBRANCH  10  11
ENDBRANCH   1  10
TORSDOF 12
ENDMDL
MODEL 8
REMARK VINA RESULT:    -3.190      3.705      5.321
REMARK INTER + INTRA:          -7.342
REMARK INTER:                  -5.481
REMARK INTRA:                  -1.860
REMARK UNBOUND:                -1.914
REMARK SMILES CCCCCCCCCCCCCC(=O)[O-]
REMARK SMILES IDX 8 1 9 2 10 3 11 4 12 5 13 6 14 7 15 8 16 9 7 10 6 11 5 12
REMARK SMILES IDX 4 13 3 14 2 15 1 16
REMARK H PARENT
REMARK Flexibility Score: inf
ROOT
ATOM      1  C   UNL     1      -8.358   3.240   0.178  1.00  0.00     0.000 C 
ENDROOT
BRANCH   1   2
ATOM      2  C   UNL     1      -7.433   4.373   0.649  1.00  0.00     0.000 C 
BRANCH   2   3
ATOM      3  C   UNL     1      -7.355   4.488   2.183  1.00  0.00     0.000 C 
BRANCH   3   4
ATOM      4  C   UNL     1      -6.546   3.377   2.877  1.00  0.00     0.000 C 
BRANCH   4   5
ATOM      5  C   UNL     1      -6.013   3.798   4.257  1.00  0.00     0.006 C 
BRANCH   5   6
ATOM      6  C   UNL     1      -4.701   4.586   4.154  1.00  0.00     0.053 C 
BRANCH   6   7
ATOM      7  C   UNL     1      -4.715   5.803   5.028  1.00  0.00     0.041 C 
ATOM      8  O   UNL     1      -3.794   6.657   4.939  1.00  0.00    -0.550 OA
ATOM      9  O   UNL     1      -5.723   5.975   5.967  1.00  0.00    -0.550 OA
ENDBRANCH   6   7
ENDBRANCH   5   6
ENDBRANCH   4   5
ENDBRANCH   3   4
ENDBRANCH   2   3
ENDBRANCH   1   2
BRANCH   1  10
ATOM     10  C   UNL     1      -7.820   2.591  -1.105  1.00  0.00     0.000 C 
BRANCH  10  11
ATOM     11  C   UNL     1      -6.348   2.169  -0.985  1.00  0.00    -0.000 C 
BRANCH  11  12
ATOM     12  C   UNL     1      -6.154   0.946  -0.069  1.00  0.00    -0.000 C 
BRANCH  12  13
ATOM     13  C   UNL     1      -4.814   1.001   0.697  1.00  0.00    -0.000 C 
BRANCH  13  14
ATOM     14  C   UNL     1      -3.781   1.947   0.062  1.00  0.00    -0.000 C 
BRANCH  14  15
ATOM     15  C   UNL     1      -3.274   3.019   1.037  1.00  0.00    -0.003 C 
ATOM     16  C   UNL     1      -3.719   4.412   0.602  1.00  0.00     0.004 C 
ENDBRANCH  14  15
ENDBRANCH  13  14
ENDBRANCH  12  13
ENDBRANCH  11  12
ENDBRANCH  10  11
ENDBRANCH   1  10
TORSDOF 12
ENDMDL
MODEL 9
REMARK VINA RESULT:    -3.142      3.472      5.275
REMARK INTER + INTRA:          -7.260
REMARK INTER:                  -5.330
REMARK INTRA:                  -1.930
REMARK UNBOUND:                -1.914
REMARK SMILES CCCCCCCCCCCCCC(=O)[O-]
REMARK SMILES IDX 8 1 9 2 10 3 11 4 12 5 13 6 14 7 15 8 16 9 7 10 6 11 5 12
REMARK SMILES IDX 4 13 3 14 2 15 1 16
REMARK H PARENT
REMARK Flexibility Score: inf
ROOT
ATOM      1  C   UNL     1      -3.621   4.427   1.068  1.00  0.00     0.000 C 
ENDROOT
BRANCH   1   2
ATOM      2  C   UNL     1      -4.576   4.702   2.239  1.00  0.00     0.000 C 
BRANCH   2   3
ATOM      3  C   UNL     1      -6.050   4.797   1.805  1.00  0.00     0.000 C 
BRANCH   3   4
ATOM      4  C   UNL     1      -7.021   3.908   2.602  1.00  0.00     0.000 C 
BRANCH   4   5
ATOM      5  C   UNL     1      -6.350   3.213   3.799  1.00  0.00     0.006 C 
BRANCH   5   6
ATOM      6  C   UNL     1      -7.127   3.430   5.104  1.00  0.00     0.053 C 
BRANCH   6   7
ATOM      7  C   UNL     1      -6.497   4.490   5.955  1.00  0.00     0.041 C 
ATOM      8  O   UNL     1      -5.999   4.191   7.071  1.00  0.00    -0.550 OA
ATOM      9  O   UNL     1      -6.494   5.813   5.531  1.00  0.00    -0.550 OA
ENDBRANCH   6   7
ENDBRANCH   5   6
ENDBRANCH   4   5
ENDBRANCH   3   4
ENDBRANCH   2   3
ENDBRANCH   1   2
BRANCH   1  10
ATOM     10  C   UNL     1      -3.045   3.006   1.151  1.00  0.00     0.000 C 
BRANCH  10  11
ATOM     11  C   UNL     1      -3.671   2.052   0.122  1.00  0.00    -0.000 C 
BRANCH  11  12
ATOM     12  C   UNL     1      -4.815   1.208   0.714  1.00  0.00    -0.000 C 
BRANCH  12  13
ATOM     13  C   UNL     1      -6.121   1.349  -0.098  1.00  0.00    -0.000 C 
BRANCH  13  14
ATOM     14  C   UNL     1      -6.067   2.459  -1.162  1.00  0.00    -0.000 C 
BRANCH  14  15
ATOM     15  C   UNL     1      -7.442   3.072  -1.456  1.00  0.00    -0.003 C 
ATOM     16  C   UNL     1      -7.334   4.575  -1.695  1.00  0.00     0.004 C 
ENDBRANCH  14  15
ENDBRANCH  13  14
ENDBRANCH  12  13
ENDBRANCH  11  12
ENDBRANCH  10  11
ENDBRANCH   1  10
TORSDOF 12
ENDMDL
