MODEL 1
REMARK VINA RESULT:    -5.425      0.000      0.000
REMARK INTER + INTRA:          -6.264
REMARK INTER:                  -6.217
REMARK INTRA:                  -0.046
REMARK UNBOUND:                -0.046
REMARK SMILES O=C([O-])c1cc(O)c(O)c(O)c1
REMARK SMILES IDX 4 1 5 2 12 3 6 4 10 5 8 6 2 7 1 8 3 9 7 10 11 12 9 14
REMARK H PARENT 7 11 11 13 9 15
REMARK Flexibility Score: inf
ROOT
ATOM      1  C   UNL     1      33.237  20.658  13.712  1.00  0.00     0.005 A 
ATOM      2  C   UNL     1      32.044  19.971  13.996  1.00  0.00     0.060 A 
ATOM      3  C   UNL     1      33.828  20.503  12.447  1.00  0.00     0.060 A 
ATOM      4  C   UNL     1      31.451  19.143  13.037  1.00  0.00     0.162 A 
ATOM      5  C   UNL     1      33.240  19.674  11.481  1.00  0.00     0.162 A 
ATOM      6  C   UNL     1      32.048  18.992  11.775  1.00  0.00     0.200 A 
ENDROOT
BRANCH   1   7
ATOM      7  C   UNL     1      33.864  21.535  14.726  1.00  0.00     0.072 C 
ATOM      8  O   UNL     1      35.026  21.294  15.151  1.00  0.00    -0.545 OA
ATOM      9  O   UNL     1      33.180  22.638  15.225  1.00  0.00    -0.545 OA
ENDBRANCH   1   7
BRANCH   4  10
ATOM     10  O   UNL     1      30.267  18.480  13.359  1.00  0.00    -0.504 OA
ATOM     11  H   UNL     1      30.098  18.097  14.283  1.00  0.00     0.293 HD
ENDBRANCH   4  10
BRANCH   5  12
ATOM     12  O   UNL     1      33.838  19.527  10.230  1.00  0.00    -0.504 OA
ATOM     13  H   UNL     1      33.466  18.890   9.535  1.00  0.00     0.293 HD
ENDBRANCH   5  12
BRANCH   6  14
ATOM     14  O   UNL     1      31.449  18.163  10.824  1.00  0.00    -0.502 OA
ATOM     15  H   UNL     1      30.881  17.367  11.084  1.00  0.00     0.293 HD
ENDBRANCH   6  14
TORSDOF 4
ENDMDL
MODEL 2
REMARK VINA RESULT:    -5.418      0.134      2.433
REMARK INTER + INTRA:          -6.256
REMARK INTER:                  -6.209
REMARK INTRA:                  -0.047
REMARK UNBOUND:                -0.046
REMARK SMILES O=C([O-])c1cc(O)c(O)c(O)c1
REMARK SMILES IDX 4 1 5 2 12 3 6 4 10 5 8 6 2 7 1 8 3 9 7 10 11 12 9 14
REMARK H PARENT 7 11 11 13 9 15
REMARK Flexibility Score: inf
ROOT
ATOM      1  C   UNL     1      33.336  20.575  13.704  1.00  0.00     0.005 A 
ATOM      2  C   UNL     1      33.886  20.424  12.420  1.00  0.00     0.060 A 
ATOM      3  C   UNL     1      32.131  19.920  14.011  1.00  0.00     0.060 A 
ATOM      4  C   UNL     1      33.248  19.633  11.458  1.00  0.00     0.162 A 
ATOM      5  C   UNL     1      31.486  19.126  13.052  1.00  0.00     0.162 A 
ATOM      6  C   UNL     1      32.044  18.981  11.771  1.00  0.00     0.200 A 
ENDROOT
BRANCH   1   7
ATOM      7  C   UNL     1      34.011  21.411  14.722  1.00  0.00     0.072 C 
ATOM      8  O   UNL     1      35.214  21.196  15.031  1.00  0.00    -0.545 OA
ATOM      9  O   UNL     1      33.329  22.447  15.350  1.00  0.00    -0.545 OA
ENDBRANCH   1   7
BRANCH   4  10
ATOM     10  O   UNL     1      33.828  19.509  10.196  1.00  0.00    -0.504 OA
ATOM     11  H   UNL     1      33.304  19.184   9.391  1.00  0.00     0.293 HD
ENDBRANCH   4  10
BRANCH   5  12
ATOM     12  O   UNL     1      30.291  18.482  13.369  1.00  0.00    -0.504 OA
ATOM     13  H   UNL     1      29.391  18.898  13.158  1.00  0.00     0.293 HD
ENDBRANCH   5  12
BRANCH   6  14
ATOM     14  O   UNL     1      31.415  18.194  10.805  1.00  0.00    -0.502 OA
ATOM     15  H   UNL     1      31.918  17.795  10.023  1.00  0.00     0.293 HD
ENDBRANCH   6  14
TORSDOF 4
ENDMDL
MODEL 3
REMARK VINA RESULT:    -5.132      1.659      2.603
REMARK INTER + INTRA:          -5.928
REMARK INTER:                  -5.875
REMARK INTRA:                  -0.053
REMARK UNBOUND:                -0.046
REMARK SMILES O=C([O-])c1cc(O)c(O)c(O)c1
REMARK SMILES IDX 4 1 5 2 12 3 6 4 10 5 8 6 2 7 1 8 3 9 7 10 11 12 9 14
REMARK H PARENT 7 11 11 13 9 15
REMARK Flexibility Score: inf
ROOT
ATOM      1  C   UNL     1      33.144  20.978  13.425  1.00  0.00     0.005 A 
ATOM      2  C   UNL     1      33.427  20.157  12.320  1.00  0.00     0.060 A 
ATOM      3  C   UNL     1      31.857  21.527  13.555  1.00  0.00     0.060 A 
ATOM      4  C   UNL     1      32.445  19.887  11.361  1.00  0.00     0.162 A 
ATOM      5  C   UNL     1      30.868  21.261  12.597  1.00  0.00     0.162 A 
ATOM      6  C   UNL     1      31.161  20.440  11.496  1.00  0.00     0.200 A 
ENDROOT
BRANCH   1   7
ATOM      7  C   UNL     1      34.183  21.262  14.441  1.00  0.00     0.072 C 
ATOM      8  O   UNL     1      35.337  20.766  14.333  1.00  0.00    -0.545 OA
ATOM      9  O   UNL     1      33.901  22.081  15.528  1.00  0.00    -0.545 OA
ENDBRANCH   1   7
BRANCH   4  10
ATOM     10  O   UNL     1      32.767  19.067  10.279  1.00  0.00    -0.504 OA
ATOM     11  H   UNL     1      33.112  18.122  10.404  1.00  0.00     0.293 HD
ENDBRANCH   4  10
BRANCH   5  12
ATOM     12  O   UNL     1      29.596  21.814  12.736  1.00  0.00    -0.504 OA
ATOM     13  H   UNL     1      29.329  22.332  13.566  1.00  0.00     0.293 HD
ENDBRANCH   5  12
BRANCH   6  14
ATOM     14  O   UNL     1      30.188  20.166  10.533  1.00  0.00    -0.502 OA
ATOM     15  H   UNL     1      30.349  19.517   9.773  1.00  0.00     0.293 HD
ENDBRANCH   6  14
TORSDOF 4
ENDMDL
MODEL 4
REMARK VINA RESULT:    -5.084      1.936      2.723
REMARK INTER + INTRA:          -5.873
REMARK INTER:                  -5.827
REMARK INTRA:                  -0.046
REMARK UNBOUND:                -0.046
REMARK SMILES O=C([O-])c1cc(O)c(O)c(O)c1
REMARK SMILES IDX 4 1 5 2 12 3 6 4 10 5 8 6 2 7 1 8 3 9 7 10 11 12 9 14
REMARK H PARENT 7 11 11 13 9 15
REMARK Flexibility Score: inf
ROOT
ATOM      1  C   UNL     1      33.225  21.227  13.988  1.00  0.00     0.005 A 
ATOM      2  C   UNL     1      32.576  22.272  13.308  1.00  0.00     0.060 A 
ATOM      3  C   UNL     1      32.641  19.949  13.990  1.00  0.00     0.060 A 
ATOM      4  C   UNL     1      31.366  22.048  12.641  1.00  0.00     0.162 A 
ATOM      5  C   UNL     1      31.428  19.717  13.324  1.00  0.00     0.162 A 
ATOM      6  C   UNL     1      30.788  20.769  12.648  1.00  0.00     0.200 A 
ENDROOT
BRANCH   1   7
ATOM      7  C   UNL     1      34.505  21.464  14.692  1.00  0.00     0.072 C 
ATOM      8  O   UNL     1      35.545  20.835  14.358  1.00  0.00    -0.545 OA
ATOM      9  O   UNL     1      34.578  22.385  15.731  1.00  0.00    -0.545 OA
ENDBRANCH   1   7
BRANCH   4  10
ATOM     10  O   UNL     1      30.756  23.113  11.978  1.00  0.00    -0.504 OA
ATOM     11  H   UNL     1      29.823  23.430  12.214  1.00  0.00     0.293 HD
ENDBRANCH   4  10
BRANCH   5  12
ATOM     12  O   UNL     1      30.859  18.445  13.335  1.00  0.00    -0.504 OA
ATOM     13  H   UNL     1      31.342  17.650  13.737  1.00  0.00     0.293 HD
ENDBRANCH   5  12
BRANCH   6  14
ATOM     14  O   UNL     1      29.581  20.554  11.980  1.00  0.00    -0.502 OA
ATOM     15  H   UNL     1      28.730  20.307  12.470  1.00  0.00     0.293 HD
ENDBRANCH   6  14
TORSDOF 4
ENDMDL
MODEL 5
REMARK VINA RESULT:    -5.012      1.831      2.065
REMARK INTER + INTRA:          -5.791
REMARK INTER:                  -5.746
REMARK INTRA:                  -0.045
REMARK UNBOUND:                -0.046
REMARK SMILES O=C([O-])c1cc(O)c(O)c(O)c1
REMARK SMILES IDX 4 1 5 2 12 3 6 4 10 5 8 6 2 7 1 8 3 9 7 10 11 12 9 14
REMARK H PARENT 7 11 11 13 9 15
REMARK Flexibility Score: inf
ROOT
ATOM      1  C   UNL     1      33.171  21.106  13.770  1.00  0.00     0.005 A 
ATOM      2  C   UNL     1      32.482  19.893  13.940  1.00  0.00     0.060 A 
ATOM      3  C   UNL     1      32.727  22.011  12.791  1.00  0.00     0.060 A 
ATOM      4  C   UNL     1      31.369  19.588  13.149  1.00  0.00     0.162 A 
ATOM      5  C   UNL     1      31.613  21.711  11.994  1.00  0.00     0.162 A 
ATOM      6  C   UNL     1      30.930  20.497  12.173  1.00  0.00     0.200 A 
ENDROOT
BRANCH   1   7
ATOM      7  C   UNL     1      34.348  21.429  14.607  1.00  0.00     0.072 C 
ATOM      8  O   UNL     1      34.254  22.259  15.551  1.00  0.00    -0.545 OA
ATOM      9  O   UNL     1      35.575  20.822  14.364  1.00  0.00    -0.545 OA
ENDBRANCH   1   7
BRANCH   4  10
ATOM     10  O   UNL     1      30.712  18.374  13.351  1.00  0.00    -0.504 OA
ATOM     11  H   UNL     1      30.519  18.013  14.278  1.00  0.00     0.293 HD
ENDBRANCH   4  10
BRANCH   5  12
ATOM     12  O   UNL     1      31.184  22.618  11.026  1.00  0.00    -0.504 OA
ATOM     13  H   UNL     1      30.318  22.481  10.517  1.00  0.00     0.293 HD
ENDBRANCH   5  12
BRANCH   6  14
ATOM     14  O   UNL     1      29.819  20.183  11.388  1.00  0.00    -0.502 OA
ATOM     15  H   UNL     1      29.458  19.240  11.317  1.00  0.00     0.293 HD
ENDBRANCH   6  14
TORSDOF 4
ENDMDL
MODEL 6
REMARK VINA RESULT:    -4.985      1.270      4.271
REMARK INTER + INTRA:          -5.759
REMARK INTER:                  -5.709
REMARK INTRA:                  -0.051
REMARK UNBOUND:                -0.046
REMARK SMILES O=C([O-])c1cc(O)c(O)c(O)c1
REMARK SMILES IDX 4 1 5 2 12 3 6 4 10 5 8 6 2 7 1 8 3 9 7 10 11 12 9 14
REMARK H PARENT 7 11 11 13 9 15
REMARK Flexibility Score: inf
ROOT
ATOM      1  C   UNL     1      32.117  20.055  12.615  1.00  0.00     0.005 A 
ATOM      2  C   UNL     1      31.506  21.162  13.228  1.00  0.00     0.060 A 
ATOM      3  C   UNL     1      33.491  19.839  12.812  1.00  0.00     0.060 A 
ATOM      4  C   UNL     1      32.250  22.039  14.024  1.00  0.00     0.162 A 
ATOM      5  C   UNL     1      34.244  20.714  13.609  1.00  0.00     0.162 A 
ATOM      6  C   UNL     1      33.624  21.817  14.217  1.00  0.00     0.200 A 
ENDROOT
BRANCH   1   7
ATOM      7  C   UNL     1      31.329  19.128  11.773  1.00  0.00     0.072 C 
ATOM      8  O   UNL     1      31.873  18.511  10.818  1.00  0.00    -0.545 OA
ATOM      9  O   UNL     1      29.977  18.922  12.024  1.00  0.00    -0.545 OA
ENDBRANCH   1   7
BRANCH   4  10
ATOM     10  O   UNL     1      31.605  23.125  14.616  1.00  0.00    -0.504 OA
ATOM     11  H   UNL     1      31.187  23.067  15.537  1.00  0.00     0.293 HD
ENDBRANCH   4  10
BRANCH   5  12
ATOM     12  O   UNL     1      35.607  20.489  13.796  1.00  0.00    -0.504 OA
ATOM     13  H   UNL     1      36.173  21.103  14.371  1.00  0.00     0.293 HD
ENDBRANCH   5  12
BRANCH   6  14
ATOM     14  O   UNL     1      34.359  22.698  15.014  1.00  0.00    -0.502 OA
ATOM     15  H   UNL     1      34.929  23.435  14.618  1.00  0.00     0.293 HD
ENDBRANCH   6  14
TORSDOF 4
ENDMDL
MODEL 7
REMARK VINA RESULT:    -4.984      1.266      4.749
REMARK INTER + INTRA:          -5.758
REMARK INTER:                  -5.709
REMARK INTRA:                  -0.050
REMARK UNBOUND:                -0.046
REMARK SMILES O=C([O-])c1cc(O)c(O)c(O)c1
REMARK SMILES IDX 4 1 5 2 12 3 6 4 10 5 8 6 2 7 1 8 3 9 7 10 11 12 9 14
REMARK H PARENT 7 11 11 13 9 15
REMARK Flexibility Score: inf
ROOT
ATOM      1  C   UNL     1      32.244  20.112  12.604  1.00  0.00     0.005 A 
ATOM      2  C   UNL     1      33.612  19.917  12.864  1.00  0.00     0.060 A 
ATOM      3  C   UNL     1      31.581  21.189  13.214  1.00  0.00     0.060 A 
ATOM      4  C   UNL     1      34.306  20.782  13.718  1.00  0.00     0.162 A 
ATOM      5  C   UNL     1      32.270  22.060  14.070  1.00  0.00     0.162 A 
ATOM      6  C   UNL     1      33.636  21.857  14.324  1.00  0.00     0.200 A 
ENDROOT
BRANCH   1   7
ATOM      7  C   UNL     1      31.510  19.197  11.701  1.00  0.00     0.072 C 
ATOM      8  O   UNL     1      30.310  18.893  11.935  1.00  0.00    -0.545 OA
ATOM      9  O   UNL     1      32.134  18.662  10.580  1.00  0.00    -0.545 OA
ENDBRANCH   1   7
BRANCH   4  10
ATOM     10  O   UNL     1      35.662  20.554  13.949  1.00  0.00    -0.504 OA
ATOM     11  H   UNL     1      35.995  19.729  14.435  1.00  0.00     0.293 HD
ENDBRANCH   4  10
BRANCH   5  12
ATOM     12  O   UNL     1      31.599  23.125  14.670  1.00  0.00    -0.504 OA
ATOM     13  H   UNL     1      30.607  23.275  14.529  1.00  0.00     0.293 HD
ENDBRANCH   5  12
BRANCH   6  14
ATOM     14  O   UNL     1      34.337  22.714  15.175  1.00  0.00    -0.502 OA
ATOM     15  H   UNL     1      35.249  23.084  14.936  1.00  0.00     0.293 HD
ENDBRANCH   6  14
TORSDOF 4
ENDMDL
MODEL 8
REMARK VINA RESULT:    -4.862     13.485     15.213
REMARK INTER + INTRA:          -5.618
REMARK INTER:                  -5.569
REMARK INTRA:                  -0.049
REMARK UNBOUND:                -0.046
REMARK SMILES O=C([O-])c1cc(O)c(O)c(O)c1
REMARK SMILES IDX 4 1 5 2 12 3 6 4 10 5 8 6 2 7 1 8 3 9 7 10 11 12 9 14
REMARK H PARENT 7 11 11 13 9 15
REMARK Flexibility Score: inf
ROOT
ATOM      1  C   UNL     1      29.344   6.266  12.681  1.00  0.00     0.005 A 
ATOM      2  C   UNL     1      29.816   5.460  11.630  1.00  0.00     0.060 A 
ATOM      3  C   UNL     1      29.852   6.064  13.975  1.00  0.00     0.060 A 
ATOM      4  C   UNL     1      30.777   4.471  11.864  1.00  0.00     0.162 A 
ATOM      5  C   UNL     1      30.816   5.074  14.218  1.00  0.00     0.162 A 
ATOM      6  C   UNL     1      31.280   4.274  13.160  1.00  0.00     0.200 A 
ENDROOT
BRANCH   1   7
ATOM      7  C   UNL     1      28.328   7.313  12.433  1.00  0.00     0.072 C 
ATOM      8  O   UNL     1      27.421   7.538  13.279  1.00  0.00    -0.545 OA
ATOM      9  O   UNL     1      28.360   8.064  11.264  1.00  0.00    -0.545 OA
ENDBRANCH   1   7
BRANCH   4  10
ATOM     10  O   UNL     1      31.218   3.694  10.793  1.00  0.00    -0.504 OA
ATOM     11  H   UNL     1      31.702   4.097   9.999  1.00  0.00     0.293 HD
ENDBRANCH   4  10
BRANCH   5  12
ATOM     12  O   UNL     1      31.311   4.883  15.507  1.00  0.00    -0.504 OA
ATOM     13  H   UNL     1      31.340   5.638  16.182  1.00  0.00     0.293 HD
ENDBRANCH   5  12
BRANCH   6  14
ATOM     14  O   UNL     1      32.239   3.284  13.385  1.00  0.00    -0.502 OA
ATOM     15  H   UNL     1      32.073   2.312  13.160  1.00  0.00     0.293 HD
ENDBRANCH   6  14
TORSDOF 4
ENDMDL
MODEL 9
REMARK VINA RESULT:    -4.835     13.544     15.154
REMARK INTER + INTRA:          -5.587
REMARK INTER:                  -5.539
REMARK INTRA:                  -0.049
REMARK UNBOUND:                -0.046
REMARK SMILES O=C([O-])c1cc(O)c(O)c(O)c1
REMARK SMILES IDX 4 1 5 2 12 3 6 4 10 5 8 6 2 7 1 8 3 9 7 10 11 12 9 14
REMARK H PARENT 7 11 11 13 9 15
REMARK Flexibility Score: inf
ROOT
ATOM      1  C   UNL     1      29.366   6.219  12.723  1.00  0.00     0.005 A 
ATOM      2  C   UNL     1      29.895   5.984  14.004  1.00  0.00     0.060 A 
ATOM      3  C   UNL     1      29.805   5.426  11.648  1.00  0.00     0.060 A 
ATOM      4  C   UNL     1      30.845   4.977  14.211  1.00  0.00     0.162 A 
ATOM      5  C   UNL     1      30.757   4.416  11.848  1.00  0.00     0.162 A 
ATOM      6  C   UNL     1      31.279   4.189  13.133  1.00  0.00     0.200 A 
ENDROOT
BRANCH   1   7
ATOM      7  C   UNL     1      28.362   7.283  12.504  1.00  0.00     0.072 C 
ATOM      8  O   UNL     1      27.399   7.429  13.304  1.00  0.00    -0.545 OA
ATOM      9  O   UNL     1      28.466   8.138  11.413  1.00  0.00    -0.545 OA
ENDBRANCH   1   7
BRANCH   4  10
ATOM     10  O   UNL     1      31.343   4.776  15.498  1.00  0.00    -0.504 OA
ATOM     11  H   UNL     1      31.628   5.547  16.092  1.00  0.00     0.293 HD
ENDBRANCH   4  10
BRANCH   5  12
ATOM     12  O   UNL     1      31.185   3.638  10.774  1.00  0.00    -0.504 OA
ATOM     13  H   UNL     1      31.581   4.056   9.940  1.00  0.00     0.293 HD
ENDBRANCH   5  12
BRANCH   6  14
ATOM     14  O   UNL     1      32.227   3.187  13.349  1.00  0.00    -0.502 OA
ATOM     15  H   UNL     1      32.626   3.010  14.262  1.00  0.00     0.293 HD
ENDBRANCH   6  14
TORSDOF 4
ENDMDL
