MODEL 1
REMARK VINA RESULT:    -3.007      0.000      0.000
REMARK INTER + INTRA:          -4.465
REMARK INTER:                  -4.413
REMARK INTRA:                  -0.052
REMARK UNBOUND:                -0.052
REMARK SMILES O=C([O-])CCCCCCCC(=O)[O-]
REMARK SMILES IDX 7 1 6 2 5 3 4 4 2 5 1 6 3 7 8 8 9 9 10 10 11 11 12 12 13 13
REMARK H PARENT
REMARK Flexibility Score: inf
ROOT
ATOM      1  C   UNL     1      66.749  55.768  10.096  1.00  0.00     0.000 C 
ENDROOT
BRANCH   1   2
ATOM      2  C   UNL     1      67.930  55.249  10.928  1.00  0.00     0.000 C 
BRANCH   2   3
ATOM      3  C   UNL     1      69.097  54.754  10.059  1.00  0.00     0.006 C 
BRANCH   3   4
ATOM      4  C   UNL     1      70.319  54.344  10.889  1.00  0.00     0.053 C 
BRANCH   4   5
ATOM      5  C   UNL     1      71.261  55.499  11.035  1.00  0.00     0.041 C 
ATOM      6  O   UNL     1      70.814  56.672  11.125  1.00  0.00    -0.550 OA
ATOM      7  O   UNL     1      72.628  55.274  11.121  1.00  0.00    -0.550 OA
ENDBRANCH   4   5
ENDBRANCH   3   4
ENDBRANCH   2   3
ENDBRANCH   1   2
BRANCH   1   8
ATOM      8  C   UNL     1      65.896  56.751  10.907  1.00  0.00     0.000 C 
BRANCH   8   9
ATOM      9  C   UNL     1      64.950  57.542   9.995  1.00  0.00     0.006 C 
BRANCH   9  10
ATOM     10  C   UNL     1      63.714  58.017  10.765  1.00  0.00     0.053 C 
BRANCH  10  11
ATOM     11  C   UNL     1      62.471  57.744   9.979  1.00  0.00     0.041 C 
ATOM     12  O   UNL     1      61.974  56.587   9.961  1.00  0.00    -0.550 OA
ATOM     13  O   UNL     1      61.888  58.756   9.226  1.00  0.00    -0.550 OA
ENDBRANCH  10  11
ENDBRANCH   9  10
ENDBRANCH   8   9
ENDBRANCH   1   8
TORSDOF 8
ENDMDL
MODEL 2
REMARK VINA RESULT:    -0.199      2.392      6.904
REMARK INTER + INTRA:          -0.344
REMARK INTER:                  -0.695
REMARK INTRA:                   0.351
REMARK UNBOUND:                -0.052
REMARK SMILES O=C([O-])CCCCCCCC(=O)[O-]
REMARK SMILES IDX 7 1 6 2 5 3 4 4 2 5 1 6 3 7 8 8 9 9 10 10 11 11 12 12 13 13
REMARK H PARENT
REMARK Flexibility Score: inf
ROOT
ATOM      1  C   UNL     1      65.486  58.051   9.596  1.00  0.00     0.000 C 
ENDROOT
BRANCH   1   2
ATOM      2  C   UNL     1      64.056  58.598   9.709  1.00  0.00     0.000 C 
BRANCH   2   3
ATOM      3  C   UNL     1      63.351  58.153  11.001  1.00  0.00     0.006 C 
BRANCH   3   4
ATOM      4  C   UNL     1      62.297  57.066  10.754  1.00  0.00     0.053 C 
BRANCH   4   5
ATOM      5  C   UNL     1      62.021  56.931   9.289  1.00  0.00     0.041 C 
ATOM      6  O   UNL     1      61.875  55.792   8.775  1.00  0.00    -0.550 OA
ATOM      7  O   UNL     1      61.877  58.066   8.501  1.00  0.00    -0.550 OA
ENDBRANCH   4   5
ENDBRANCH   3   4
ENDBRANCH   2   3
ENDBRANCH   1   2
BRANCH   1   8
ATOM      8  C   UNL     1      66.168  58.013  10.969  1.00  0.00     0.000 C 
BRANCH   8   9
ATOM      9  C   UNL     1      67.032  56.754  11.120  1.00  0.00     0.006 C 
BRANCH   9  10
ATOM     10  C   UNL     1      66.323  55.528  10.538  1.00  0.00     0.053 C 
BRANCH  10  11
ATOM     11  C   UNL     1      67.276  54.385  10.408  1.00  0.00     0.041 C 
ATOM     12  O   UNL     1      68.262  54.466   9.628  1.00  0.00    -0.550 OA
ATOM     13  O   UNL     1      67.050  53.207  11.110  1.00  0.00    -0.550 OA
ENDBRANCH  10  11
ENDBRANCH   9  10
ENDBRANCH   8   9
ENDBRANCH   1   8
TORSDOF 8
ENDMDL
