MODEL 1
REMARK VINA RESULT:    -1.271      0.000      0.000
REMARK INTER + INTRA:           2.687
REMARK INTER:                  -1.717
REMARK INTRA:                   4.404
REMARK UNBOUND:                 4.404
REMARK SMILES O=c1c(-c2ccc(O)cc2)coc2c([C@H]3O[C@@H](CO)[C@H](O)[C@@H](O)[C@@H]3O)c(O)ccc12
REMARK SMILES IDX 3 1 11 2 12 3 13 4 30 5 2 6 1 7 29 8 28 9 26 10 14 11 4 12
REMARK SMILES IDX 5 13 6 14 7 15 10 16 9 17 8 18 15 20 24 21 16 22 22 23 17 24
REMARK SMILES IDX 20 25 25 26 23 28 18 30 19 31 21 33 27 35
REMARK H PARENT 8 19 25 27 23 29 19 32 21 34 27 36
REMARK Flexibility Score: inf
ROOT
ATOM      1  C   UNL     1      16.549  -9.326  12.711  1.00  0.00     0.065 A 
ATOM      2  C   UNL     1      16.117  -7.905  12.229  1.00  0.00     0.208 A 
ATOM      3  O   UNL     1      16.138  -6.950  13.149  1.00  0.00    -0.463 OA
ATOM      4  C   UNL     1      16.554  -7.122  14.411  1.00  0.00     0.147 A 
ATOM      5  C   UNL     1      17.327  -8.245  14.800  1.00  0.00     0.066 A 
ATOM      6  C   UNL     1      17.351  -9.367  13.971  1.00  0.00     0.200 A 
ATOM      7  O   UNL     1      18.017 -10.384  14.309  1.00  0.00    -0.288 OA
ATOM      8  C   UNL     1      18.005  -8.225  16.020  1.00  0.00     0.020 A 
ATOM      9  C   UNL     1      18.007  -7.069  16.792  1.00  0.00     0.047 A 
ATOM     10  C   UNL     1      17.188  -6.004  16.454  1.00  0.00     0.125 A 
ATOM     11  C   UNL     1      16.290  -6.120  15.363  1.00  0.00     0.069 A 
ENDROOT
BRANCH   1  12
ATOM     12  C   UNL     1      15.911 -10.760  12.216  1.00  0.00    -0.011 A 
ATOM     13  C   UNL     1      14.510 -10.780  12.021  1.00  0.00     0.013 A 
ATOM     14  C   UNL     1      13.793 -11.985  12.023  1.00  0.00     0.047 A 
ATOM     15  C   UNL     1      14.463 -13.191  12.226  1.00  0.00     0.115 A 
ATOM     16  C   UNL     1      16.597 -11.996  12.236  1.00  0.00     0.013 A 
ATOM     17  C   UNL     1      15.871 -13.208  12.289  1.00  0.00     0.047 A 
BRANCH  15  18
ATOM     18  O   UNL     1      13.735 -14.367  12.485  1.00  0.00    -0.508 OA
ATOM     19  H   UNL     1      13.757 -14.757  13.436  1.00  0.00     0.293 HD
ENDBRANCH  15  18
ENDBRANCH   1  12
BRANCH  11  20
ATOM     20  C   UNL     1      15.121  -5.154  15.144  1.00  0.00     0.188 C 
ATOM     21  C   UNL     1      13.712  -5.808  15.015  1.00  0.00     0.179 C 
ATOM     22  O   UNL     1      15.409  -4.169  14.143  1.00  0.00    -0.362 OA
ATOM     23  C   UNL     1      13.304  -6.156  13.599  1.00  0.00     0.177 C 
ATOM     24  C   UNL     1      14.981  -4.386  12.799  1.00  0.00     0.176 C 
ATOM     25  C   UNL     1      13.552  -4.976  12.660  1.00  0.00     0.177 C 
BRANCH  21  26
ATOM     26  O   UNL     1      12.742  -4.944  15.587  1.00  0.00    -0.387 OA
ATOM     27  H   UNL     1      11.995  -4.876  14.937  1.00  0.00     0.211 HD
ENDBRANCH  21  26
BRANCH  23  28
ATOM     28  O   UNL     1      13.884  -7.362  13.181  1.00  0.00    -0.387 OA
ATOM     29  H   UNL     1      13.238  -7.901  12.674  1.00  0.00     0.211 HD
ENDBRANCH  23  28
BRANCH  24  30
ATOM     30  C   UNL     1      16.038  -5.088  11.875  1.00  0.00     0.191 C 
BRANCH  30  31
ATOM     31  O   UNL     1      17.321  -4.579  12.116  1.00  0.00    -0.394 OA
ATOM     32  H   UNL     1      17.959  -5.342  12.003  1.00  0.00     0.210 HD
ENDBRANCH  30  31
ENDBRANCH  24  30
BRANCH  25  33
ATOM     33  O   UNL     1      12.564  -3.994  12.877  1.00  0.00    -0.388 OA
ATOM     34  H   UNL     1      12.726  -3.220  12.263  1.00  0.00     0.211 HD
ENDBRANCH  25  33
ENDBRANCH  11  20
BRANCH  10  35
ATOM     35  O   UNL     1      17.303  -4.842  17.225  1.00  0.00    -0.507 OA
ATOM     36  H   UNL     1      17.916  -4.765  18.032  1.00  0.00     0.293 HD
ENDBRANCH  10  35
TORSDOF 9
ENDMDL
