MODEL 1
REMARK VINA RESULT:    -3.140      0.000      0.000
REMARK INTER + INTRA:          -4.858
REMARK INTER:                  -4.241
REMARK INTRA:                  -0.617
REMARK UNBOUND:                -0.617
REMARK SMILES CCCCCCC=CC(=O)[O-]
REMARK SMILES IDX 5 1 6 2 7 3 8 4 9 5 10 6 11 7 4 8 3 9 2 10 1 11
REMARK H PARENT
REMARK Flexibility Score: inf
ROOT
ATOM      1  C   UNL     1      -7.533  22.435  13.180  1.00  0.00     0.004 C 
ENDROOT
BRANCH   1   2
ATOM      2  C   UNL     1      -6.608  21.572  12.302  1.00  0.00     0.027 C 
BRANCH   2   3
ATOM      3  C   UNL     1      -6.580  22.028  10.866  1.00  0.00    -0.025 C 
ATOM      4  C   UNL     1      -5.790  22.986  10.355  1.00  0.00     0.020 C 
BRANCH   4   5
ATOM      5  C   UNL     1      -4.745  23.744  11.076  1.00  0.00     0.064 C 
ATOM      6  O   UNL     1      -3.594  23.246  11.179  1.00  0.00    -0.545 OA
ATOM      7  O   UNL     1      -5.001  24.969  11.677  1.00  0.00    -0.545 OA
ENDBRANCH   4   5
ENDBRANCH   2   3
ENDBRANCH   1   2
BRANCH   1   8
ATOM      8  C   UNL     1      -8.665  21.650  13.870  1.00  0.00     0.000 C 
BRANCH   8   9
ATOM      9  C   UNL     1      -8.805  20.214  13.337  1.00  0.00    -0.000 C 
BRANCH   9  10
ATOM     10  C   UNL     1     -10.125  19.993  12.582  1.00  0.00    -0.003 C 
ATOM     11  C   UNL     1     -10.154  20.691  11.222  1.00  0.00     0.004 C 
ENDBRANCH   9  10
ENDBRANCH   8   9
ENDBRANCH   1   8
TORSDOF 6
ENDMDL
MODEL 2
REMARK VINA RESULT:    -2.914      1.501      2.915
REMARK INTER + INTRA:          -4.553
REMARK INTER:                  -4.203
REMARK INTRA:                  -0.350
REMARK UNBOUND:                -0.617
REMARK SMILES CCCCCCC=CC(=O)[O-]
REMARK SMILES IDX 5 1 6 2 7 3 8 4 9 5 10 6 11 7 4 8 3 9 2 10 1 11
REMARK H PARENT
REMARK Flexibility Score: inf
ROOT
ATOM      1  C   UNL     1      -7.944  20.912  12.887  1.00  0.00     0.004 C 
ENDROOT
BRANCH   1   2
ATOM      2  C   UNL     1      -6.676  21.700  12.504  1.00  0.00     0.027 C 
BRANCH   2   3
ATOM      3  C   UNL     1      -6.627  22.043  11.038  1.00  0.00    -0.025 C 
ATOM      4  C   UNL     1      -5.801  22.930  10.460  1.00  0.00     0.020 C 
BRANCH   4   5
ATOM      5  C   UNL     1      -4.732  23.703  11.127  1.00  0.00     0.064 C 
ATOM      6  O   UNL     1      -4.980  24.874  11.515  1.00  0.00    -0.545 OA
ATOM      7  O   UNL     1      -3.452  23.196  11.306  1.00  0.00    -0.545 OA
ENDBRANCH   4   5
ENDBRANCH   2   3
ENDBRANCH   1   2
BRANCH   1   8
ATOM      8  C   UNL     1      -8.763  21.545  14.028  1.00  0.00     0.000 C 
BRANCH   8   9
ATOM      9  C   UNL     1      -8.174  22.879  14.516  1.00  0.00    -0.000 C 
BRANCH   9  10
ATOM     10  C   UNL     1      -8.634  23.241  15.936  1.00  0.00    -0.003 C 
ATOM     11  C   UNL     1      -7.471  23.580  16.868  1.00  0.00     0.004 C 
ENDBRANCH   9  10
ENDBRANCH   8   9
ENDBRANCH   1   8
TORSDOF 6
ENDMDL
MODEL 3
REMARK VINA RESULT:    -2.907      1.654      3.151
REMARK INTER + INTRA:          -4.544
REMARK INTER:                  -4.113
REMARK INTRA:                  -0.431
REMARK UNBOUND:                -0.617
REMARK SMILES CCCCCCC=CC(=O)[O-]
REMARK SMILES IDX 5 1 6 2 7 3 8 4 9 5 10 6 11 7 4 8 3 9 2 10 1 11
REMARK H PARENT
REMARK Flexibility Score: inf
ROOT
ATOM      1  C   UNL     1      -7.096  23.573   9.725  1.00  0.00     0.004 C 
ENDROOT
BRANCH   1   2
ATOM      2  C   UNL     1      -5.953  24.589   9.540  1.00  0.00     0.027 C 
BRANCH   2   3
ATOM      3  C   UNL     1      -4.873  24.087   8.617  1.00  0.00    -0.025 C 
ATOM      4  C   UNL     1      -3.585  23.888   8.940  1.00  0.00     0.020 C 
BRANCH   4   5
ATOM      5  C   UNL     1      -2.976  24.058  10.276  1.00  0.00     0.064 C 
ATOM      6  O   UNL     1      -2.058  24.906  10.423  1.00  0.00    -0.545 OA
ATOM      7  O   UNL     1      -3.354  23.286  11.367  1.00  0.00    -0.545 OA
ENDBRANCH   4   5
ENDBRANCH   2   3
ENDBRANCH   1   2
BRANCH   1   8
ATOM      8  C   UNL     1      -6.626  22.151  10.090  1.00  0.00     0.000 C 
BRANCH   8   9
ATOM      9  C   UNL     1      -6.699  21.868  11.600  1.00  0.00    -0.000 C 
BRANCH   9  10
ATOM     10  C   UNL     1      -8.143  21.722  12.102  1.00  0.00    -0.003 C 
ATOM     11  C   UNL     1      -8.282  20.685  13.217  1.00  0.00     0.004 C 
ENDBRANCH   9  10
ENDBRANCH   8   9
ENDBRANCH   1   8
TORSDOF 6
ENDMDL
MODEL 4
REMARK VINA RESULT:    -2.899      3.245      4.814
REMARK INTER + INTRA:          -4.533
REMARK INTER:                  -4.040
REMARK INTRA:                  -0.493
REMARK UNBOUND:                -0.617
REMARK SMILES CCCCCCC=CC(=O)[O-]
REMARK SMILES IDX 5 1 6 2 7 3 8 4 9 5 10 6 11 7 4 8 3 9 2 10 1 11
REMARK H PARENT
REMARK Flexibility Score: inf
ROOT
ATOM      1  C   UNL     1      -9.245  22.993  15.396  1.00  0.00     0.004 C 
ENDROOT
BRANCH   1   2
ATOM      2  C   UNL     1      -8.886  21.520  15.120  1.00  0.00     0.027 C 
BRANCH   2   3
ATOM      3  C   UNL     1      -9.315  21.065  13.749  1.00  0.00    -0.025 C 
ATOM      4  C   UNL     1      -8.585  21.142  12.625  1.00  0.00     0.020 C 
BRANCH   4   5
ATOM      5  C   UNL     1      -7.194  21.626  12.509  1.00  0.00     0.064 C 
ATOM      6  O   UNL     1      -6.255  20.788  12.512  1.00  0.00    -0.545 OA
ATOM      7  O   UNL     1      -6.883  22.978  12.436  1.00  0.00    -0.545 OA
ENDBRANCH   4   5
ENDBRANCH   2   3
ENDBRANCH   1   2
BRANCH   1   8
ATOM      8  C   UNL     1      -8.035  23.888  15.725  1.00  0.00     0.000 C 
BRANCH   8   9
ATOM      9  C   UNL     1      -7.356  23.509  17.052  1.00  0.00    -0.000 C 
BRANCH   9  10
ATOM     10  C   UNL     1      -8.107  24.060  18.275  1.00  0.00    -0.003 C 
ATOM     11  C   UNL     1      -8.292  25.576  18.223  1.00  0.00     0.004 C 
ENDBRANCH   9  10
ENDBRANCH   8   9
ENDBRANCH   1   8
TORSDOF 6
ENDMDL
MODEL 5
REMARK VINA RESULT:    -2.882      2.873      5.743
REMARK INTER + INTRA:          -4.509
REMARK INTER:                  -3.948
REMARK INTRA:                  -0.561
REMARK UNBOUND:                -0.617
REMARK SMILES CCCCCCC=CC(=O)[O-]
REMARK SMILES IDX 5 1 6 2 7 3 8 4 9 5 10 6 11 7 4 8 3 9 2 10 1 11
REMARK H PARENT
REMARK Flexibility Score: inf
ROOT
ATOM      1  C   UNL     1      -3.550  24.257   9.953  1.00  0.00     0.004 C 
ENDROOT
BRANCH   1   2
ATOM      2  C   UNL     1      -4.490  23.501  10.911  1.00  0.00     0.027 C 
BRANCH   2   3
ATOM      3  C   UNL     1      -5.696  22.931  10.212  1.00  0.00    -0.025 C 
ATOM      4  C   UNL     1      -6.623  22.129  10.760  1.00  0.00     0.020 C 
BRANCH   4   5
ATOM      5  C   UNL     1      -6.688  21.692  12.170  1.00  0.00     0.064 C 
ATOM      6  O   UNL     1      -6.208  20.572  12.483  1.00  0.00    -0.545 OA
ATOM      7  O   UNL     1      -7.295  22.459  13.156  1.00  0.00    -0.545 OA
ENDBRANCH   4   5
ENDBRANCH   2   3
ENDBRANCH   1   2
BRANCH   1   8
ATOM      8  C   UNL     1      -4.122  24.463   8.537  1.00  0.00     0.000 C 
BRANCH   8   9
ATOM      9  C   UNL     1      -3.101  24.150   7.430  1.00  0.00    -0.000 C 
BRANCH   9  10
ATOM     10  C   UNL     1      -3.476  22.899   6.621  1.00  0.00    -0.003 C 
ATOM     11  C   UNL     1      -4.987  22.680   6.533  1.00  0.00     0.004 C 
ENDBRANCH   9  10
ENDBRANCH   8   9
ENDBRANCH   1   8
TORSDOF 6
ENDMDL
MODEL 6
REMARK VINA RESULT:    -2.881      2.616      4.894
REMARK INTER + INTRA:          -4.508
REMARK INTER:                  -3.640
REMARK INTRA:                  -0.868
REMARK UNBOUND:                -0.617
REMARK SMILES CCCCCCC=CC(=O)[O-]
REMARK SMILES IDX 5 1 6 2 7 3 8 4 9 5 10 6 11 7 4 8 3 9 2 10 1 11
REMARK H PARENT
REMARK Flexibility Score: inf
ROOT
ATOM      1  C   UNL     1      -7.990  22.626   9.048  1.00  0.00     0.004 C 
ENDROOT
BRANCH   1   2
ATOM      2  C   UNL     1      -8.873  22.008  10.149  1.00  0.00     0.027 C 
BRANCH   2   3
ATOM      3  C   UNL     1      -8.826  22.788  11.437  1.00  0.00    -0.025 C 
ATOM      4  C   UNL     1      -8.320  22.359  12.604  1.00  0.00     0.020 C 
BRANCH   4   5
ATOM      5  C   UNL     1      -7.651  21.065  12.852  1.00  0.00     0.064 C 
ATOM      6  O   UNL     1      -8.273  20.167  13.477  1.00  0.00    -0.545 OA
ATOM      7  O   UNL     1      -6.343  20.819  12.453  1.00  0.00    -0.545 OA
ENDBRANCH   4   5
ENDBRANCH   2   3
ENDBRANCH   1   2
BRANCH   1   8
ATOM      8  C   UNL     1      -6.505  22.219   9.125  1.00  0.00     0.000 C 
BRANCH   8   9
ATOM      9  C   UNL     1      -5.567  23.421   9.322  1.00  0.00    -0.000 C 
BRANCH   9  10
ATOM     10  C   UNL     1      -5.014  23.507  10.753  1.00  0.00    -0.003 C 
ATOM     11  C   UNL     1      -5.575  24.695  11.536  1.00  0.00     0.004 C 
ENDBRANCH   9  10
ENDBRANCH   8   9
ENDBRANCH   1   8
TORSDOF 6
ENDMDL
MODEL 7
REMARK VINA RESULT:    -2.823      3.060      5.828
REMARK INTER + INTRA:          -4.430
REMARK INTER:                  -3.875
REMARK INTRA:                  -0.554
REMARK UNBOUND:                -0.617
REMARK SMILES CCCCCCC=CC(=O)[O-]
REMARK SMILES IDX 5 1 6 2 7 3 8 4 9 5 10 6 11 7 4 8 3 9 2 10 1 11
REMARK H PARENT
REMARK Flexibility Score: inf
ROOT
ATOM      1  C   UNL     1      -6.823  22.789   7.817  1.00  0.00     0.004 C 
ENDROOT
BRANCH   1   2
ATOM      2  C   UNL     1      -6.826  22.183   9.234  1.00  0.00     0.027 C 
BRANCH   2   3
ATOM      3  C   UNL     1      -5.975  22.964  10.201  1.00  0.00    -0.025 C 
ATOM      4  C   UNL     1      -5.963  22.825  11.536  1.00  0.00     0.020 C 
BRANCH   4   5
ATOM      5  C   UNL     1      -6.731  21.838  12.326  1.00  0.00     0.064 C 
ATOM      6  O   UNL     1      -6.270  20.675  12.459  1.00  0.00    -0.545 OA
ATOM      7  O   UNL     1      -7.962  22.140  12.893  1.00  0.00    -0.545 OA
ENDBRANCH   4   5
ENDBRANCH   2   3
ENDBRANCH   1   2
BRANCH   1   8
ATOM      8  C   UNL     1      -5.740  22.213   6.884  1.00  0.00     0.000 C 
BRANCH   8   9
ATOM      9  C   UNL     1      -4.769  23.287   6.365  1.00  0.00    -0.000 C 
BRANCH   9  10
ATOM     10  C   UNL     1      -3.407  23.239   7.073  1.00  0.00    -0.003 C 
ATOM     11  C   UNL     1      -3.251  24.329   8.134  1.00  0.00     0.004 C 
ENDBRANCH   9  10
ENDBRANCH   8   9
ENDBRANCH   1   8
TORSDOF 6
ENDMDL
MODEL 8
REMARK VINA RESULT:    -2.810      1.274      1.888
REMARK INTER + INTRA:          -4.413
REMARK INTER:                  -4.118
REMARK INTRA:                  -0.294
REMARK UNBOUND:                -0.617
REMARK SMILES CCCCCCC=CC(=O)[O-]
REMARK SMILES IDX 5 1 6 2 7 3 8 4 9 5 10 6 11 7 4 8 3 9 2 10 1 11
REMARK H PARENT
REMARK Flexibility Score: inf
ROOT
ATOM      1  C   UNL     1      -8.038  21.603  13.153  1.00  0.00     0.004 C 
ENDROOT
BRANCH   1   2
ATOM      2  C   UNL     1      -6.653  21.550  12.481  1.00  0.00     0.027 C 
BRANCH   2   3
ATOM      3  C   UNL     1      -6.698  21.942  11.027  1.00  0.00    -0.025 C 
ATOM      4  C   UNL     1      -5.949  22.890  10.440  1.00  0.00     0.020 C 
BRANCH   4   5
ATOM      5  C   UNL     1      -4.888  23.696  11.078  1.00  0.00     0.064 C 
ATOM      6  O   UNL     1      -3.719  23.232  11.131  1.00  0.00    -0.545 OA
ATOM      7  O   UNL     1      -5.144  24.932  11.658  1.00  0.00    -0.545 OA
ENDBRANCH   4   5
ENDBRANCH   2   3
ENDBRANCH   1   2
BRANCH   1   8
ATOM      8  C   UNL     1      -8.735  20.235  13.277  1.00  0.00     0.000 C 
BRANCH   8   9
ATOM      9  C   UNL     1     -10.051  20.305  14.070  1.00  0.00    -0.000 C 
BRANCH   9  10
ATOM     10  C   UNL     1     -10.111  21.526  15.001  1.00  0.00    -0.003 C 
ATOM     11  C   UNL     1     -11.138  21.366  16.123  1.00  0.00     0.004 C 
ENDBRANCH   9  10
ENDBRANCH   8   9
ENDBRANCH   1   8
TORSDOF 6
ENDMDL
MODEL 9
REMARK VINA RESULT:    -2.803      1.962      3.196
REMARK INTER + INTRA:          -4.403
REMARK INTER:                  -4.092
REMARK INTRA:                  -0.310
REMARK UNBOUND:                -0.617
REMARK SMILES CCCCCCC=CC(=O)[O-]
REMARK SMILES IDX 5 1 6 2 7 3 8 4 9 5 10 6 11 7 4 8 3 9 2 10 1 11
REMARK H PARENT
REMARK Flexibility Score: inf
ROOT
ATOM      1  C   UNL     1      -6.865  22.345   9.940  1.00  0.00     0.004 C 
ENDROOT
BRANCH   1   2
ATOM      2  C   UNL     1      -5.964  22.870   8.806  1.00  0.00     0.027 C 
BRANCH   2   3
ATOM      3  C   UNL     1      -5.808  24.368   8.836  1.00  0.00    -0.025 C 
ATOM      4  C   UNL     1      -4.647  25.042   8.846  1.00  0.00     0.020 C 
BRANCH   4   5
ATOM      5  C   UNL     1      -3.290  24.462   8.767  1.00  0.00     0.064 C 
ATOM      6  O   UNL     1      -2.621  24.331   9.825  1.00  0.00    -0.545 OA
ATOM      7  O   UNL     1      -2.712  24.091   7.560  1.00  0.00    -0.545 OA
ENDBRANCH   4   5
ENDBRANCH   2   3
ENDBRANCH   1   2
BRANCH   1   8
ATOM      8  C   UNL     1      -6.271  22.514  11.351  1.00  0.00     0.000 C 
BRANCH   8   9
ATOM      9  C   UNL     1      -6.659  21.371  12.304  1.00  0.00    -0.000 C 
BRANCH   9  10
ATOM     10  C   UNL     1      -7.976  21.646  13.047  1.00  0.00    -0.003 C 
ATOM     11  C   UNL     1      -8.742  20.368  13.390  1.00  0.00     0.004 C 
ENDBRANCH   9  10
ENDBRANCH   8   9
ENDBRANCH   1   8
TORSDOF 6
ENDMDL
