MODEL 1
REMARK VINA RESULT:    -2.946      0.000      0.000
REMARK INTER + INTRA:          -3.317
REMARK INTER:                  -3.290
REMARK INTRA:                  -0.027
REMARK UNBOUND:                -0.027
REMARK SMILES CCCC(=O)[O-]
REMARK SMILES IDX 3 1 4 2 5 3 6 4 2 5 1 6
REMARK H PARENT
REMARK Flexibility Score: inf
ROOT
ATOM      1  C   UNL     1      22.650   6.254  10.250  1.00  0.00     0.052 C 
ENDROOT
BRANCH   1   2
ATOM      2  C   UNL     1      22.899   7.293  11.297  1.00  0.00     0.041 C 
ATOM      3  O   UNL     1      22.136   8.290  11.392  1.00  0.00    -0.550 OA
ATOM      4  O   UNL     1      24.001   7.187  12.135  1.00  0.00    -0.550 OA
ENDBRANCH   1   2
BRANCH   1   5
ATOM      5  C   UNL     1      23.971   5.783   9.637  1.00  0.00     0.003 C 
ATOM      6  C   UNL     1      24.615   6.886   8.802  1.00  0.00     0.004 C 
ENDBRANCH   1   5
TORSDOF 2
ENDMDL
MODEL 2
REMARK VINA RESULT:    -2.879      1.173      1.490
REMARK INTER + INTRA:          -3.243
REMARK INTER:                  -3.205
REMARK INTRA:                  -0.037
REMARK UNBOUND:                -0.027
REMARK SMILES CCCC(=O)[O-]
REMARK SMILES IDX 3 1 4 2 5 3 6 4 2 5 1 6
REMARK H PARENT
REMARK Flexibility Score: inf
ROOT
ATOM      1  C   UNL     1      22.548   6.165  10.203  1.00  0.00     0.052 C 
ENDROOT
BRANCH   1   2
ATOM      2  C   UNL     1      21.682   7.334  10.552  1.00  0.00     0.041 C 
ATOM      3  O   UNL     1      20.584   7.507   9.961  1.00  0.00    -0.550 OA
ATOM      4  O   UNL     1      22.108   8.259  11.496  1.00  0.00    -0.550 OA
ENDBRANCH   1   2
BRANCH   1   5
ATOM      5  C   UNL     1      24.027   6.545  10.306  1.00  0.00     0.003 C 
ATOM      6  C   UNL     1      24.615   6.848   8.931  1.00  0.00     0.004 C 
ENDBRANCH   1   5
TORSDOF 2
ENDMDL
MODEL 3
REMARK VINA RESULT:    -2.849      5.517      6.028
REMARK INTER + INTRA:          -3.209
REMARK INTER:                  -3.159
REMARK INTRA:                  -0.050
REMARK UNBOUND:                -0.027
REMARK SMILES CCCC(=O)[O-]
REMARK SMILES IDX 3 1 4 2 5 3 6 4 2 5 1 6
REMARK H PARENT
REMARK Flexibility Score: inf
ROOT
ATOM      1  C   UNL     1      27.523   5.581  14.142  1.00  0.00     0.052 C 
ENDROOT
BRANCH   1   2
ATOM      2  C   UNL     1      27.086   6.813  13.414  1.00  0.00     0.041 C 
ATOM      3  O   UNL     1      25.914   7.251  13.557  1.00  0.00    -0.550 OA
ATOM      4  O   UNL     1      27.957   7.450  12.540  1.00  0.00    -0.550 OA
ENDBRANCH   1   2
BRANCH   1   5
ATOM      5  C   UNL     1      27.887   5.916  15.590  1.00  0.00     0.003 C 
ATOM      6  C   UNL     1      29.314   6.446  15.692  1.00  0.00     0.004 C 
ENDBRANCH   1   5
TORSDOF 2
ENDMDL
MODEL 4
REMARK VINA RESULT:    -2.800      4.997      6.035
REMARK INTER + INTRA:          -3.154
REMARK INTER:                  -3.149
REMARK INTRA:                  -0.005
REMARK UNBOUND:                -0.027
REMARK SMILES CCCC(=O)[O-]
REMARK SMILES IDX 3 1 4 2 5 3 6 4 2 5 1 6
REMARK H PARENT
REMARK Flexibility Score: inf
ROOT
ATOM      1  C   UNL     1      24.857   6.087  15.549  1.00  0.00     0.052 C 
ENDROOT
BRANCH   1   2
ATOM      2  C   UNL     1      25.992   6.754  14.839  1.00  0.00     0.041 C 
ATOM      3  O   UNL     1      27.117   6.853  15.396  1.00  0.00    -0.550 OA
ATOM      4  O   UNL     1      25.795   7.311  13.582  1.00  0.00    -0.550 OA
ENDBRANCH   1   2
BRANCH   1   5
ATOM      5  C   UNL     1      23.888   7.131  16.110  1.00  0.00     0.003 C 
ATOM      6  C   UNL     1      22.868   6.489  17.046  1.00  0.00     0.004 C 
ENDBRANCH   1   5
TORSDOF 2
ENDMDL
MODEL 5
REMARK VINA RESULT:    -2.772      4.624      5.352
REMARK INTER + INTRA:          -3.123
REMARK INTER:                  -3.109
REMARK INTRA:                  -0.014
REMARK UNBOUND:                -0.027
REMARK SMILES CCCC(=O)[O-]
REMARK SMILES IDX 3 1 4 2 5 3 6 4 2 5 1 6
REMARK H PARENT
REMARK Flexibility Score: inf
ROOT
ATOM      1  C   UNL     1      18.160   6.598   9.199  1.00  0.00     0.052 C 
ENDROOT
BRANCH   1   2
ATOM      2  C   UNL     1      18.951   7.706   9.821  1.00  0.00     0.041 C 
ATOM      3  O   UNL     1      18.377   8.765  10.187  1.00  0.00    -0.550 OA
ATOM      4  O   UNL     1      20.328   7.589   9.952  1.00  0.00    -0.550 OA
ENDBRANCH   1   2
BRANCH   1   5
ATOM      5  C   UNL     1      18.166   6.725   7.674  1.00  0.00     0.003 C 
ATOM      6  C   UNL     1      17.090   7.696   7.198  1.00  0.00     0.004 C 
ENDBRANCH   1   5
TORSDOF 2
ENDMDL
MODEL 6
REMARK VINA RESULT:    -2.758      4.358      5.279
REMARK INTER + INTRA:          -3.107
REMARK INTER:                  -3.102
REMARK INTRA:                  -0.005
REMARK UNBOUND:                -0.027
REMARK SMILES CCCC(=O)[O-]
REMARK SMILES IDX 3 1 4 2 5 3 6 4 2 5 1 6
REMARK H PARENT
REMARK Flexibility Score: inf
ROOT
ATOM      1  C   UNL     1      25.212   6.686  13.743  1.00  0.00     0.052 C 
ENDROOT
BRANCH   1   2
ATOM      2  C   UNL     1      26.477   6.303  13.042  1.00  0.00     0.041 C 
ATOM      3  O   UNL     1      26.658   5.114  12.667  1.00  0.00    -0.550 OA
ATOM      4  O   UNL     1      27.477   7.246  12.845  1.00  0.00    -0.550 OA
ENDBRANCH   1   2
BRANCH   1   5
ATOM      5  C   UNL     1      25.458   6.838  15.246  1.00  0.00     0.003 C 
ATOM      6  C   UNL     1      24.170   7.193  15.982  1.00  0.00     0.004 C 
ENDBRANCH   1   5
TORSDOF 2
ENDMDL
MODEL 7
REMARK VINA RESULT:    -2.739      5.291      6.050
REMARK INTER + INTRA:          -3.086
REMARK INTER:                  -3.016
REMARK INTRA:                  -0.070
REMARK UNBOUND:                -0.027
REMARK SMILES CCCC(=O)[O-]
REMARK SMILES IDX 3 1 4 2 5 3 6 4 2 5 1 6
REMARK H PARENT
REMARK Flexibility Score: inf
ROOT
ATOM      1  C   UNL     1      27.199   5.656  14.105  1.00  0.00     0.052 C 
ENDROOT
BRANCH   1   2
ATOM      2  C   UNL     1      28.064   6.835  13.789  1.00  0.00     0.041 C 
ATOM      3  O   UNL     1      28.882   7.267  14.643  1.00  0.00    -0.550 OA
ATOM      4  O   UNL     1      27.933   7.487  12.570  1.00  0.00    -0.550 OA
ENDBRANCH   1   2
BRANCH   1   5
ATOM      5  C   UNL     1      26.353   5.931  15.350  1.00  0.00     0.003 C 
ATOM      6  C   UNL     1      25.239   6.931  15.050  1.00  0.00     0.004 C 
ENDBRANCH   1   5
TORSDOF 2
ENDMDL
MODEL 8
REMARK VINA RESULT:    -2.726     11.657     12.496
REMARK INTER + INTRA:          -3.071
REMARK INTER:                  -3.034
REMARK INTRA:                  -0.038
REMARK UNBOUND:                -0.027
REMARK SMILES CCCC(=O)[O-]
REMARK SMILES IDX 3 1 4 2 5 3 6 4 2 5 1 6
REMARK H PARENT
REMARK Flexibility Score: inf
ROOT
ATOM      1  C   UNL     1      29.285  -3.769   8.510  1.00  0.00     0.052 C 
ENDROOT
BRANCH   1   2
ATOM      2  C   UNL     1      28.046  -3.176   7.915  1.00  0.00     0.041 C 
ATOM      3  O   UNL     1      27.979  -2.964   6.675  1.00  0.00    -0.550 OA
ATOM      4  O   UNL     1      26.985  -2.814   8.734  1.00  0.00    -0.550 OA
ENDBRANCH   1   2
BRANCH   1   5
ATOM      5  C   UNL     1      29.645  -5.078   7.804  1.00  0.00     0.003 C 
ATOM      6  C   UNL     1      31.022  -4.993   7.153  1.00  0.00     0.004 C 
ENDBRANCH   1   5
TORSDOF 2
ENDMDL
MODEL 9
REMARK VINA RESULT:    -2.654      1.880      2.549
REMARK INTER + INTRA:          -2.990
REMARK INTER:                  -2.949
REMARK INTRA:                  -0.042
REMARK UNBOUND:                -0.027
REMARK SMILES CCCC(=O)[O-]
REMARK SMILES IDX 3 1 4 2 5 3 6 4 2 5 1 6
REMARK H PARENT
REMARK Flexibility Score: inf
ROOT
ATOM      1  C   UNL     1      24.591   5.767  10.789  1.00  0.00     0.052 C 
ENDROOT
BRANCH   1   2
ATOM      2  C   UNL     1      25.458   6.476  11.781  1.00  0.00     0.041 C 
ATOM      3  O   UNL     1      24.990   6.824  12.897  1.00  0.00    -0.550 OA
ATOM      4  O   UNL     1      26.770   6.796  11.456  1.00  0.00    -0.550 OA
ENDBRANCH   1   2
BRANCH   1   5
ATOM      5  C   UNL     1      24.089   6.744   9.723  1.00  0.00     0.003 C 
ATOM      6  C   UNL     1      22.808   7.440  10.174  1.00  0.00     0.004 C 
ENDBRANCH   1   5
TORSDOF 2
ENDMDL
