MODEL 1
REMARK VINA RESULT:    -8.207      0.000      0.000
REMARK INTER + INTRA:         -14.404
REMARK INTER:                 -12.285
REMARK INTRA:                  -2.119
REMARK UNBOUND:                -2.119
REMARK SMILES C=C(CC[C@@H](C(=O)[O-])[C@@H]1[C@@H](O)C[C@]2(C)C3=C(CC[C@]12C)[C@@]1(C)CC[C@H](OC(C)=O)C(C)(C)[C@H]1CC3)C(C)C
REMARK SMILES IDX 4 1 5 2 6 3 7 4 8 5 9 6 10 7 19 8 12 9 13 10 18 11 20 12
REMARK SMILES IDX 14 13 15 14 17 15 16 16 35 17 21 18 34 19 33 20 23 21 22 22
REMARK SMILES IDX 30 23 24 24 25 25 31 26 32 27 11 28 26 30 27 31 29 32 28 33
REMARK SMILES IDX 3 34 2 35 1 36 36 37 37 38 38 39
REMARK H PARENT 11 29
REMARK Flexibility Score: inf
ROOT
ATOM      1  C   UNL     1     141.992 141.942 143.586  1.00  0.00     0.014 C 
ENDROOT
BRANCH   1   2
ATOM      2  C   UNL     1     140.743 141.249 142.985  1.00  0.00     0.042 C 
BRANCH   2   3
ATOM      3  C   UNL     1     140.773 141.275 141.471  1.00  0.00     0.045 C 
ATOM      4  O   UNL     1     139.729 141.569 140.830  1.00  0.00    -0.550 OA
ATOM      5  O   UNL     1     141.943 141.015 140.768  1.00  0.00    -0.550 OA
ENDBRANCH   2   3
BRANCH   2   6
ATOM      6  C   UNL     1     140.405 139.853 143.640  1.00  0.00     0.033 C 
ATOM      7  C   UNL     1     140.481 138.615 142.737  1.00  0.00     0.119 C 
ATOM      8  C   UNL     1     139.026 139.729 144.367  1.00  0.00    -0.017 C 
ATOM      9  C   UNL     1     139.702 137.510 143.468  1.00  0.00     0.043 C 
ATOM     10  C   UNL     1     138.914 138.173 144.642  1.00  0.00    -0.003 C 
ATOM     11  C   UNL     1     137.826 140.250 143.488  1.00  0.00     0.012 C 
ATOM     12  C   UNL     1     139.042 140.581 145.669  1.00  0.00     0.013 C 
ATOM     13  C   UNL     1     139.649 137.763 145.956  1.00  0.00     0.017 C 
ATOM     14  C   UNL     1     137.440 137.677 144.628  1.00  0.00    -0.064 C 
ATOM     15  C   UNL     1     137.100 139.165 142.698  1.00  0.00     0.032 C 
ATOM     16  C   UNL     1     136.590 138.091 143.639  1.00  0.00    -0.064 C 
ATOM     17  C   UNL     1     136.939 136.671 145.650  1.00  0.00     0.032 C 
ATOM     18  C   UNL     1     135.240 137.358 143.337  1.00  0.00    -0.008 C 
ATOM     19  C   UNL     1     135.455 136.863 145.877  1.00  0.00     0.009 C 
ATOM     20  C   UNL     1     134.643 136.572 144.595  1.00  0.00     0.009 C 
ATOM     21  C   UNL     1     135.517 136.411 142.136  1.00  0.00     0.015 C 
ATOM     22  C   UNL     1     134.168 138.385 142.877  1.00  0.00     0.016 C 
ATOM     23  C   UNL     1     134.261 135.042 144.335  1.00  0.00     0.005 C 
ATOM     24  C   UNL     1     136.215 135.129 142.569  1.00  0.00     0.047 C 
ATOM     25  C   UNL     1     135.362 134.261 143.515  1.00  0.00     0.182 C 
ATOM     26  C   UNL     1     132.882 134.996 143.604  1.00  0.00     0.015 C 
ATOM     27  C   UNL     1     134.026 134.284 145.670  1.00  0.00     0.015 C 
BRANCH   7  28
ATOM     28  O   UNL     1     141.815 138.229 142.530  1.00  0.00    -0.393 OA
ATOM     29  H   UNL     1     141.850 137.799 141.636  1.00  0.00     0.210 HD
ENDBRANCH   7  28
BRANCH  25  30
ATOM     30  O   UNL     1     134.782 133.204 142.740  1.00  0.00    -0.462 OA
BRANCH  30  31
ATOM     31  C   UNL     1     135.341 131.929 142.586  1.00  0.00     0.302 C 
ATOM     32  O   UNL     1     134.967 131.159 141.659  1.00  0.00    -0.253 OA
ATOM     33  C   UNL     1     136.409 131.490 143.528  1.00  0.00     0.139 C 
ENDBRANCH  30  31
ENDBRANCH  25  30
ENDBRANCH   2   6
ENDBRANCH   1   2
BRANCH   1  34
ATOM     34  C   UNL     1     142.940 141.033 144.387  1.00  0.00     0.031 C 
BRANCH  34  35
ATOM     35  C   UNL     1     143.329 141.701 145.689  1.00  0.00    -0.075 C 
ATOM     36  C   UNL     1     144.585 142.164 145.841  1.00  0.00     0.008 C 
BRANCH  35  37
ATOM     37  C   UNL     1     142.294 141.864 146.791  1.00  0.00     0.008 C 
ATOM     38  C   UNL     1     142.028 143.344 147.083  1.00  0.00     0.012 C 
ATOM     39  C   UNL     1     142.702 141.114 148.062  1.00  0.00     0.012 C 
ENDBRANCH  35  37
ENDBRANCH  34  35
ENDBRANCH   1  34
TORSDOF 9
ENDMDL
MODEL 2
REMARK VINA RESULT:    -8.189      1.975      9.218
REMARK INTER + INTRA:         -14.378
REMARK INTER:                 -12.288
REMARK INTRA:                  -2.089
REMARK UNBOUND:                -2.119
REMARK SMILES C=C(CC[C@@H](C(=O)[O-])[C@@H]1[C@@H](O)C[C@]2(C)C3=C(CC[C@]12C)[C@@]1(C)CC[C@H](OC(C)=O)C(C)(C)[C@H]1CC3)C(C)C
REMARK SMILES IDX 4 1 5 2 6 3 7 4 8 5 9 6 10 7 19 8 12 9 13 10 18 11 20 12
REMARK SMILES IDX 14 13 15 14 17 15 16 16 35 17 21 18 34 19 33 20 23 21 22 22
REMARK SMILES IDX 30 23 24 24 25 25 31 26 32 27 11 28 26 30 27 31 29 32 28 33
REMARK SMILES IDX 3 34 2 35 1 36 36 37 37 38 38 39
REMARK H PARENT 11 29
REMARK Flexibility Score: inf
ROOT
ATOM      1  C   UNL     1     132.991 133.065 143.572  1.00  0.00     0.014 C 
ENDROOT
BRANCH   1   2
ATOM      2  C   UNL     1     134.236 133.768 142.973  1.00  0.00     0.042 C 
BRANCH   2   3
ATOM      3  C   UNL     1     134.211 133.737 141.459  1.00  0.00     0.045 C 
ATOM      4  O   UNL     1     135.265 133.466 140.823  1.00  0.00    -0.550 OA
ATOM      5  O   UNL     1     133.038 133.968 140.751  1.00  0.00    -0.550 OA
ENDBRANCH   2   3
BRANCH   2   6
ATOM      6  C   UNL     1     134.559 135.168 143.626  1.00  0.00     0.033 C 
ATOM      7  C   UNL     1     134.488 136.402 142.716  1.00  0.00     0.119 C 
ATOM      8  C   UNL     1     135.928 135.302 144.369  1.00  0.00    -0.017 C 
ATOM      9  C   UNL     1     135.253 137.514 143.451  1.00  0.00     0.043 C 
ATOM     10  C   UNL     1     136.029 136.861 144.638  1.00  0.00    -0.003 C 
ATOM     11  C   UNL     1     137.142 134.784 143.507  1.00  0.00     0.012 C 
ATOM     12  C   UNL     1     135.900 134.457 145.675  1.00  0.00     0.013 C 
ATOM     13  C   UNL     1     135.276 137.274 145.940  1.00  0.00     0.017 C 
ATOM     14  C   UNL     1     137.501 137.364 144.640  1.00  0.00    -0.064 C 
ATOM     15  C   UNL     1     137.871 135.868 142.721  1.00  0.00     0.032 C 
ATOM     16  C   UNL     1     138.365 136.949 143.663  1.00  0.00    -0.064 C 
ATOM     17  C   UNL     1     137.984 138.378 145.662  1.00  0.00     0.032 C 
ATOM     18  C   UNL     1     139.715 137.687 143.374  1.00  0.00    -0.008 C 
ATOM     19  C   UNL     1     139.466 138.193 145.910  1.00  0.00     0.009 C 
ATOM     20  C   UNL     1     140.293 138.482 144.636  1.00  0.00     0.009 C 
ATOM     21  C   UNL     1     139.449 138.627 142.165  1.00  0.00     0.015 C 
ATOM     22  C   UNL     1     140.797 136.663 142.933  1.00  0.00     0.016 C 
ATOM     23  C   UNL     1     140.670 140.013 144.373  1.00  0.00     0.005 C 
ATOM     24  C   UNL     1     138.739 139.908 142.583  1.00  0.00     0.047 C 
ATOM     25  C   UNL     1     139.575 140.784 143.536  1.00  0.00     0.182 C 
ATOM     26  C   UNL     1     142.058 140.062 143.658  1.00  0.00     0.015 C 
ATOM     27  C   UNL     1     140.885 140.778 145.708  1.00  0.00     0.015 C 
BRANCH   7  28
ATOM     28  O   UNL     1     133.155 136.780 142.491  1.00  0.00    -0.393 OA
ATOM     29  H   UNL     1     132.977 136.632 141.525  1.00  0.00     0.210 HD
ENDBRANCH   7  28
BRANCH  25  30
ATOM     30  O   UNL     1     140.160 141.841 142.762  1.00  0.00    -0.462 OA
BRANCH  30  31
ATOM     31  C   UNL     1     139.614 143.123 142.623  1.00  0.00     0.302 C 
ATOM     32  O   UNL     1     139.953 143.877 141.670  1.00  0.00    -0.253 OA
ATOM     33  C   UNL     1     138.602 143.589 143.613  1.00  0.00     0.139 C 
ENDBRANCH  30  31
ENDBRANCH  25  30
ENDBRANCH   2   6
ENDBRANCH   1   2
BRANCH   1  34
ATOM     34  C   UNL     1     132.040 133.965 144.381  1.00  0.00     0.031 C 
BRANCH  34  35
ATOM     35  C   UNL     1     131.609 133.261 145.651  1.00  0.00    -0.075 C 
ATOM     36  C   UNL     1     130.360 132.765 145.734  1.00  0.00     0.008 C 
BRANCH  35  37
ATOM     37  C   UNL     1     132.596 133.099 146.796  1.00  0.00     0.008 C 
ATOM     38  C   UNL     1     132.966 131.627 147.002  1.00  0.00     0.012 C 
ATOM     39  C   UNL     1     132.064 133.722 148.090  1.00  0.00     0.012 C 
ENDBRANCH  35  37
ENDBRANCH  34  35
ENDBRANCH   1  34
TORSDOF 9
ENDMDL
MODEL 3
REMARK VINA RESULT:    -8.096      2.323      8.952
REMARK INTER + INTRA:         -14.239
REMARK INTER:                 -12.965
REMARK INTRA:                  -1.274
REMARK UNBOUND:                -2.119
REMARK SMILES C=C(CC[C@@H](C(=O)[O-])[C@@H]1[C@@H](O)C[C@]2(C)C3=C(CC[C@]12C)[C@@]1(C)CC[C@H](OC(C)=O)C(C)(C)[C@H]1CC3)C(C)C
REMARK SMILES IDX 4 1 5 2 6 3 7 4 8 5 9 6 10 7 19 8 12 9 13 10 18 11 20 12
REMARK SMILES IDX 14 13 15 14 17 15 16 16 35 17 21 18 34 19 33 20 23 21 22 22
REMARK SMILES IDX 30 23 24 24 25 25 31 26 32 27 11 28 26 30 27 31 29 32 28 33
REMARK SMILES IDX 3 34 2 35 1 36 36 37 37 38 38 39
REMARK H PARENT 11 29
REMARK Flexibility Score: inf
ROOT
ATOM      1  C   UNL     1     135.461 132.318 142.198  1.00  0.00     0.014 C 
ENDROOT
BRANCH   1   2
ATOM      2  C   UNL     1     134.642 133.579 141.820  1.00  0.00     0.042 C 
BRANCH   2   3
ATOM      3  C   UNL     1     133.232 133.216 141.405  1.00  0.00     0.045 C 
ATOM      4  O   UNL     1     132.703 132.161 141.847  1.00  0.00    -0.550 OA
ATOM      5  O   UNL     1     132.489 134.042 140.570  1.00  0.00    -0.550 OA
ENDBRANCH   2   3
BRANCH   2   6
ATOM      6  C   UNL     1     134.770 134.763 142.857  1.00  0.00     0.033 C 
ATOM      7  C   UNL     1     134.553 136.187 142.329  1.00  0.00     0.119 C 
ATOM      8  C   UNL     1     136.098 134.842 143.678  1.00  0.00    -0.017 C 
ATOM      9  C   UNL     1     135.154 137.126 143.387  1.00  0.00     0.043 C 
ATOM     10  C   UNL     1     135.990 136.259 144.380  1.00  0.00    -0.003 C 
ATOM     11  C   UNL     1     137.382 134.742 142.769  1.00  0.00     0.012 C 
ATOM     12  C   UNL     1     136.160 133.661 144.690  1.00  0.00     0.013 C 
ATOM     13  C   UNL     1     135.170 136.188 145.705  1.00  0.00     0.017 C 
ATOM     14  C   UNL     1     137.384 136.914 144.601  1.00  0.00    -0.064 C 
ATOM     15  C   UNL     1     137.976 136.086 142.360  1.00  0.00     0.032 C 
ATOM     16  C   UNL     1     138.310 136.903 143.594  1.00  0.00    -0.064 C 
ATOM     17  C   UNL     1     137.715 137.643 145.892  1.00  0.00     0.032 C 
ATOM     18  C   UNL     1     139.556 137.850 143.595  1.00  0.00    -0.008 C 
ATOM     19  C   UNL     1     139.204 137.575 146.154  1.00  0.00     0.009 C 
ATOM     20  C   UNL     1     140.006 138.314 145.058  1.00  0.00     0.009 C 
ATOM     21  C   UNL     1     139.189 139.057 142.688  1.00  0.00     0.015 C 
ATOM     22  C   UNL     1     140.770 137.133 142.940  1.00  0.00     0.016 C 
ATOM     23  C   UNL     1     140.184 139.890 145.258  1.00  0.00     0.005 C 
ATOM     24  C   UNL     1     138.312 140.070 143.413  1.00  0.00     0.047 C 
ATOM     25  C   UNL     1     139.012 140.731 144.616  1.00  0.00     0.182 C 
ATOM     26  C   UNL     1     141.565 140.308 144.659  1.00  0.00     0.015 C 
ATOM     27  C   UNL     1     140.276 140.261 146.763  1.00  0.00     0.015 C 
BRANCH   7  28
ATOM     28  O   UNL     1     133.186 136.450 142.150  1.00  0.00    -0.393 OA
ATOM     29  H   UNL     1     132.768 136.409 143.050  1.00  0.00     0.210 HD
ENDBRANCH   7  28
BRANCH  25  30
ATOM     30  O   UNL     1     139.466 142.027 144.203  1.00  0.00    -0.462 OA
BRANCH  30  31
ATOM     31  C   UNL     1     138.815 143.231 144.499  1.00  0.00     0.302 C 
ATOM     32  O   UNL     1     139.114 143.900 145.526  1.00  0.00    -0.253 OA
ATOM     33  C   UNL     1     137.764 143.732 143.569  1.00  0.00     0.139 C 
ENDBRANCH  30  31
ENDBRANCH  25  30
ENDBRANCH   2   6
ENDBRANCH   1   2
BRANCH   1  34
ATOM     34  C   UNL     1     136.068 131.537 141.019  1.00  0.00     0.031 C 
BRANCH  34  35
ATOM     35  C   UNL     1     137.574 131.468 141.158  1.00  0.00    -0.075 C 
ATOM     36  C   UNL     1     138.109 131.082 142.332  1.00  0.00     0.008 C 
BRANCH  35  37
ATOM     37  C   UNL     1     138.457 131.805 139.966  1.00  0.00     0.008 C 
ATOM     38  C   UNL     1     139.940 131.653 140.318  1.00  0.00     0.012 C 
ATOM     39  C   UNL     1     138.157 133.204 139.421  1.00  0.00     0.012 C 
ENDBRANCH  35  37
ENDBRANCH  34  35
ENDBRANCH   1  34
TORSDOF 9
ENDMDL
MODEL 4
REMARK VINA RESULT:    -8.064      2.041      3.645
REMARK INTER + INTRA:         -14.191
REMARK INTER:                 -12.741
REMARK INTRA:                  -1.449
REMARK UNBOUND:                -2.119
REMARK SMILES C=C(CC[C@@H](C(=O)[O-])[C@@H]1[C@@H](O)C[C@]2(C)C3=C(CC[C@]12C)[C@@]1(C)CC[C@H](OC(C)=O)C(C)(C)[C@H]1CC3)C(C)C
REMARK SMILES IDX 4 1 5 2 6 3 7 4 8 5 9 6 10 7 19 8 12 9 13 10 18 11 20 12
REMARK SMILES IDX 14 13 15 14 17 15 16 16 35 17 21 18 34 19 33 20 23 21 22 22
REMARK SMILES IDX 30 23 24 24 25 25 31 26 32 27 11 28 26 30 27 31 29 32 28 33
REMARK SMILES IDX 3 34 2 35 1 36 36 37 37 38 38 39
REMARK H PARENT 11 29
REMARK Flexibility Score: inf
ROOT
ATOM      1  C   UNL     1     139.423 142.590 142.226  1.00  0.00     0.014 C 
ENDROOT
BRANCH   1   2
ATOM      2  C   UNL     1     140.252 141.330 141.865  1.00  0.00     0.042 C 
BRANCH   2   3
ATOM      3  C   UNL     1     141.683 141.690 141.525  1.00  0.00     0.045 C 
ATOM      4  O   UNL     1     142.198 142.731 142.014  1.00  0.00    -0.550 OA
ATOM      5  O   UNL     1     142.457 140.876 140.708  1.00  0.00    -0.550 OA
ENDBRANCH   2   3
BRANCH   2   6
ATOM      6  C   UNL     1     140.067 140.130 142.874  1.00  0.00     0.033 C 
ATOM      7  C   UNL     1     140.251 138.710 142.320  1.00  0.00     0.119 C 
ATOM      8  C   UNL     1     138.720 140.074 143.667  1.00  0.00    -0.017 C 
ATOM      9  C   UNL     1     139.599 137.769 143.346  1.00  0.00     0.043 C 
ATOM     10  C   UNL     1     138.770 138.641 144.341  1.00  0.00    -0.003 C 
ATOM     11  C   UNL     1     137.459 140.233 142.736  1.00  0.00     0.012 C 
ATOM     12  C   UNL     1     138.674 141.235 144.702  1.00  0.00     0.013 C 
ATOM     13  C   UNL     1     139.565 138.659 145.683  1.00  0.00     0.017 C 
ATOM     14  C   UNL     1     137.353 138.025 144.520  1.00  0.00    -0.064 C 
ATOM     15  C   UNL     1     136.832 138.918 142.286  1.00  0.00     0.032 C 
ATOM     16  C   UNL     1     136.449 138.086 143.495  1.00  0.00    -0.064 C 
ATOM     17  C   UNL     1     136.973 137.280 145.788  1.00  0.00     0.032 C 
ATOM     18  C   UNL     1     135.174 137.178 143.452  1.00  0.00    -0.008 C 
ATOM     19  C   UNL     1     135.482 137.389 146.022  1.00  0.00     0.009 C 
ATOM     20  C   UNL     1     134.680 136.698 144.895  1.00  0.00     0.009 C 
ATOM     21  C   UNL     1     135.522 135.979 142.526  1.00  0.00     0.015 C 
ATOM     22  C   UNL     1     133.996 137.946 142.788  1.00  0.00     0.016 C 
ATOM     23  C   UNL     1     134.449 135.125 145.057  1.00  0.00     0.005 C 
ATOM     24  C   UNL     1     136.353 134.925 143.246  1.00  0.00     0.047 C 
ATOM     25  C   UNL     1     135.608 134.261 144.421  1.00  0.00     0.182 C 
ATOM     26  C   UNL     1     133.069 134.762 144.423  1.00  0.00     0.015 C 
ATOM     27  C   UNL     1     134.316 134.725 146.552  1.00  0.00     0.015 C 
BRANCH   7  28
ATOM     28  O   UNL     1     141.612 138.409 142.163  1.00  0.00    -0.393 OA
ATOM     29  H   UNL     1     141.731 137.468 142.457  1.00  0.00     0.210 HD
ENDBRANCH   7  28
BRANCH  25  30
ATOM     30  O   UNL     1     135.124 132.989 143.972  1.00  0.00    -0.462 OA
BRANCH  30  31
ATOM     31  C   UNL     1     135.605 131.751 144.415  1.00  0.00     0.302 C 
ATOM     32  O   UNL     1     134.924 131.024 145.190  1.00  0.00    -0.253 OA
ATOM     33  C   UNL     1     136.938 131.282 143.942  1.00  0.00     0.139 C 
ENDBRANCH  30  31
ENDBRANCH  25  30
ENDBRANCH   2   6
ENDBRANCH   1   2
BRANCH   1  34
ATOM     34  C   UNL     1     138.837 143.368 141.034  1.00  0.00     0.031 C 
BRANCH  34  35
ATOM     35  C   UNL     1     137.326 143.272 141.040  1.00  0.00    -0.075 C 
ATOM     36  C   UNL     1     136.640 143.767 142.088  1.00  0.00     0.008 C 
BRANCH  35  37
ATOM     37  C   UNL     1     136.605 142.648 139.855  1.00  0.00     0.008 C 
ATOM     38  C   UNL     1     135.192 142.202 140.242  1.00  0.00     0.012 C 
ATOM     39  C   UNL     1     137.407 141.489 139.255  1.00  0.00     0.012 C 
ENDBRANCH  35  37
ENDBRANCH  34  35
ENDBRANCH   1  34
TORSDOF 9
ENDMDL
MODEL 5
REMARK VINA RESULT:    -7.916      2.453      4.746
REMARK INTER + INTRA:         -13.968
REMARK INTER:                 -11.562
REMARK INTRA:                  -2.406
REMARK UNBOUND:                -2.119
REMARK SMILES C=C(CC[C@@H](C(=O)[O-])[C@@H]1[C@@H](O)C[C@]2(C)C3=C(CC[C@]12C)[C@@]1(C)CC[C@H](OC(C)=O)C(C)(C)[C@H]1CC3)C(C)C
REMARK SMILES IDX 4 1 5 2 6 3 7 4 8 5 9 6 10 7 19 8 12 9 13 10 18 11 20 12
REMARK SMILES IDX 14 13 15 14 17 15 16 16 35 17 21 18 34 19 33 20 23 21 22 22
REMARK SMILES IDX 30 23 24 24 25 25 31 26 32 27 11 28 26 30 27 31 29 32 28 33
REMARK SMILES IDX 3 34 2 35 1 36 36 37 37 38 38 39
REMARK H PARENT 11 29
REMARK Flexibility Score: inf
ROOT
ATOM      1  C   UNL     1     138.512 141.032 144.660  1.00  0.00     0.014 C 
ENDROOT
BRANCH   1   2
ATOM      2  C   UNL     1     138.847 139.603 144.161  1.00  0.00     0.042 C 
BRANCH   2   3
ATOM      3  C   UNL     1     140.261 139.208 144.531  1.00  0.00     0.045 C 
ATOM      4  O   UNL     1     141.025 138.726 143.652  1.00  0.00    -0.550 OA
ATOM      5  O   UNL     1     140.750 139.397 145.818  1.00  0.00    -0.550 OA
ENDBRANCH   2   3
BRANCH   2   6
ATOM      6  C   UNL     1     137.730 138.533 144.479  1.00  0.00     0.033 C 
ATOM      7  C   UNL     1     138.119 137.358 145.386  1.00  0.00     0.119 C 
ATOM      8  C   UNL     1     137.018 137.871 143.255  1.00  0.00    -0.017 C 
ATOM      9  C   UNL     1     137.041 136.284 145.172  1.00  0.00     0.043 C 
ATOM     10  C   UNL     1     136.195 136.693 143.925  1.00  0.00    -0.003 C 
ATOM     11  C   UNL     1     138.035 137.328 142.180  1.00  0.00     0.012 C 
ATOM     12  C   UNL     1     136.115 138.919 142.543  1.00  0.00     0.013 C 
ATOM     13  C   UNL     1     134.817 137.185 144.466  1.00  0.00     0.017 C 
ATOM     14  C   UNL     1     136.037 135.471 142.975  1.00  0.00    -0.064 C 
ATOM     15  C   UNL     1     138.380 135.849 142.322  1.00  0.00     0.032 C 
ATOM     16  C   UNL     1     137.116 135.014 142.268  1.00  0.00    -0.064 C 
ATOM     17  C   UNL     1     134.723 134.717 142.876  1.00  0.00     0.032 C 
ATOM     18  C   UNL     1     137.139 133.595 141.608  1.00  0.00    -0.008 C 
ATOM     19  C   UNL     1     134.592 134.089 141.505  1.00  0.00     0.009 C 
ATOM     20  C   UNL     1     135.686 133.025 141.262  1.00  0.00     0.009 C 
ATOM     21  C   UNL     1     137.910 132.669 142.589  1.00  0.00     0.015 C 
ATOM     22  C   UNL     1     137.949 133.638 140.282  1.00  0.00     0.016 C 
ATOM     23  C   UNL     1     135.372 131.556 141.810  1.00  0.00     0.005 C 
ATOM     24  C   UNL     1     137.035 132.209 143.747  1.00  0.00     0.047 C 
ATOM     25  C   UNL     1     135.843 131.339 143.301  1.00  0.00     0.182 C 
ATOM     26  C   UNL     1     136.047 130.521 140.854  1.00  0.00     0.015 C 
ATOM     27  C   UNL     1     133.855 131.236 141.732  1.00  0.00     0.015 C 
BRANCH   7  28
ATOM     28  O   UNL     1     138.162 137.759 146.731  1.00  0.00    -0.393 OA
ATOM     29  H   UNL     1     138.264 138.746 146.730  1.00  0.00     0.210 HD
ENDBRANCH   7  28
BRANCH  25  30
ATOM     30  O   UNL     1     136.184 129.967 143.546  1.00  0.00    -0.462 OA
BRANCH  30  31
ATOM     31  C   UNL     1     136.613 129.460 144.778  1.00  0.00     0.302 C 
ATOM     32  O   UNL     1     135.871 129.507 145.798  1.00  0.00    -0.253 OA
ATOM     33  C   UNL     1     137.965 128.840 144.874  1.00  0.00     0.139 C 
ENDBRANCH  30  31
ENDBRANCH  25  30
ENDBRANCH   2   6
ENDBRANCH   1   2
BRANCH   1  34
ATOM     34  C   UNL     1     139.013 142.185 143.773  1.00  0.00     0.031 C 
BRANCH  34  35
ATOM     35  C   UNL     1     138.228 142.228 142.479  1.00  0.00    -0.075 C 
ATOM     36  C   UNL     1     136.916 142.527 142.516  1.00  0.00     0.008 C 
BRANCH  35  37
ATOM     37  C   UNL     1     138.935 141.963 141.159  1.00  0.00     0.008 C 
ATOM     38  C   UNL     1     138.108 141.032 140.267  1.00  0.00     0.012 C 
ATOM     39  C   UNL     1     140.347 141.411 141.377  1.00  0.00     0.012 C 
ENDBRANCH  35  37
ENDBRANCH  34  35
ENDBRANCH   1  34
TORSDOF 9
ENDMDL
MODEL 6
REMARK VINA RESULT:    -7.882      2.515      9.506
REMARK INTER + INTRA:         -13.918
REMARK INTER:                 -11.902
REMARK INTRA:                  -2.016
REMARK UNBOUND:                -2.119
REMARK SMILES C=C(CC[C@@H](C(=O)[O-])[C@@H]1[C@@H](O)C[C@]2(C)C3=C(CC[C@]12C)[C@@]1(C)CC[C@H](OC(C)=O)C(C)(C)[C@H]1CC3)C(C)C
REMARK SMILES IDX 4 1 5 2 6 3 7 4 8 5 9 6 10 7 19 8 12 9 13 10 18 11 20 12
REMARK SMILES IDX 14 13 15 14 17 15 16 16 35 17 21 18 34 19 33 20 23 21 22 22
REMARK SMILES IDX 30 23 24 24 25 25 31 26 32 27 11 28 26 30 27 31 29 32 28 33
REMARK SMILES IDX 3 34 2 35 1 36 36 37 37 38 38 39
REMARK H PARENT 11 29
REMARK Flexibility Score: inf
ROOT
ATOM      1  C   UNL     1     132.991 130.997 145.021  1.00  0.00     0.014 C 
ENDROOT
BRANCH   1   2
ATOM      2  C   UNL     1     133.941 131.878 144.170  1.00  0.00     0.042 C 
BRANCH   2   3
ATOM      3  C   UNL     1     133.706 131.669 142.689  1.00  0.00     0.045 C 
ATOM      4  O   UNL     1     132.527 131.600 142.247  1.00  0.00    -0.550 OA
ATOM      5  O   UNL     1     134.765 131.585 141.794  1.00  0.00    -0.550 OA
ENDBRANCH   2   3
BRANCH   2   6
ATOM      6  C   UNL     1     134.023 133.381 144.647  1.00  0.00     0.033 C 
ATOM      7  C   UNL     1     133.522 134.456 143.673  1.00  0.00     0.119 C 
ATOM      8  C   UNL     1     135.420 133.896 145.121  1.00  0.00    -0.017 C 
ATOM      9  C   UNL     1     134.108 135.786 144.174  1.00  0.00     0.043 C 
ATOM     10  C   UNL     1     135.191 135.459 145.249  1.00  0.00    -0.003 C 
ATOM     11  C   UNL     1     136.572 133.561 144.099  1.00  0.00     0.012 C 
ATOM     12  C   UNL     1     135.797 133.221 146.472  1.00  0.00     0.013 C 
ATOM     13  C   UNL     1     134.576 135.844 146.630  1.00  0.00     0.017 C 
ATOM     14  C   UNL     1     136.486 136.270 144.951  1.00  0.00    -0.064 C 
ATOM     15  C   UNL     1     136.894 134.682 143.116  1.00  0.00     0.032 C 
ATOM     16  C   UNL     1     137.259 135.945 143.870  1.00  0.00    -0.064 C 
ATOM     17  C   UNL     1     136.870 137.475 145.791  1.00  0.00     0.032 C 
ATOM     18  C   UNL     1     138.335 136.924 143.290  1.00  0.00    -0.008 C 
ATOM     19  C   UNL     1     138.373 137.650 145.783  1.00  0.00     0.009 C 
ATOM     20  C   UNL     1     138.899 137.965 144.365  1.00  0.00     0.009 C 
ATOM     21  C   UNL     1     137.670 137.637 142.080  1.00  0.00     0.015 C 
ATOM     22  C   UNL     1     139.546 136.119 142.742  1.00  0.00     0.016 C 
ATOM     23  C   UNL     1     138.859 139.501 143.924  1.00  0.00     0.005 C 
ATOM     24  C   UNL     1     136.753 138.771 142.520  1.00  0.00     0.047 C 
ATOM     25  C   UNL     1     137.497 139.913 143.239  1.00  0.00     0.182 C 
ATOM     26  C   UNL     1     140.068 139.771 142.971  1.00  0.00     0.015 C 
ATOM     27  C   UNL     1     139.093 140.443 145.137  1.00  0.00     0.015 C 
BRANCH   7  28
ATOM     28  O   UNL     1     132.119 134.504 143.661  1.00  0.00    -0.393 OA
ATOM     29  H   UNL     1     131.804 133.566 143.582  1.00  0.00     0.210 HD
ENDBRANCH   7  28
BRANCH  25  30
ATOM     30  O   UNL     1     137.688 140.976 142.296  1.00  0.00    -0.462 OA
BRANCH  30  31
ATOM     31  C   UNL     1     136.795 142.036 142.099  1.00  0.00     0.302 C 
ATOM     32  O   UNL     1     135.793 141.914 141.341  1.00  0.00    -0.253 OA
ATOM     33  C   UNL     1     137.030 143.322 142.815  1.00  0.00     0.139 C 
ENDBRANCH  30  31
ENDBRANCH  25  30
ENDBRANCH   2   6
ENDBRANCH   1   2
BRANCH   1  34
ATOM     34  C   UNL     1     132.830 131.417 146.493  1.00  0.00     0.031 C 
BRANCH  34  35
ATOM     35  C   UNL     1     131.438 131.963 146.731  1.00  0.00    -0.075 C 
ATOM     36  C   UNL     1     130.510 131.841 145.764  1.00  0.00     0.008 C 
BRANCH  35  37
ATOM     37  C   UNL     1     131.101 132.612 148.065  1.00  0.00     0.008 C 
ATOM     38  C   UNL     1     129.628 133.030 148.119  1.00  0.00     0.012 C 
ATOM     39  C   UNL     1     132.024 133.796 148.364  1.00  0.00     0.012 C 
ENDBRANCH  35  37
ENDBRANCH  34  35
ENDBRANCH   1  34
TORSDOF 9
ENDMDL
MODEL 7
REMARK VINA RESULT:    -7.861      2.959      8.971
REMARK INTER + INTRA:         -13.886
REMARK INTER:                 -11.951
REMARK INTRA:                  -1.935
REMARK UNBOUND:                -2.119
REMARK SMILES C=C(CC[C@@H](C(=O)[O-])[C@@H]1[C@@H](O)C[C@]2(C)C3=C(CC[C@]12C)[C@@]1(C)CC[C@H](OC(C)=O)C(C)(C)[C@H]1CC3)C(C)C
REMARK SMILES IDX 4 1 5 2 6 3 7 4 8 5 9 6 10 7 19 8 12 9 13 10 18 11 20 12
REMARK SMILES IDX 14 13 15 14 17 15 16 16 35 17 21 18 34 19 33 20 23 21 22 22
REMARK SMILES IDX 30 23 24 24 25 25 31 26 32 27 11 28 26 30 27 31 29 32 28 33
REMARK SMILES IDX 3 34 2 35 1 36 36 37 37 38 38 39
REMARK H PARENT 11 29
REMARK Flexibility Score: inf
ROOT
ATOM      1  C   UNL     1     136.623 133.734 144.366  1.00  0.00     0.014 C 
ENDROOT
BRANCH   1   2
ATOM      2  C   UNL     1     136.199 135.171 143.967  1.00  0.00     0.042 C 
BRANCH   2   3
ATOM      3  C   UNL     1     134.758 135.445 144.347  1.00  0.00     0.045 C 
ATOM      4  O   UNL     1     133.968 135.927 143.491  1.00  0.00    -0.550 OA
ATOM      5  O   UNL     1     134.276 135.145 145.614  1.00  0.00    -0.550 OA
ENDBRANCH   2   3
BRANCH   2   6
ATOM      6  C   UNL     1     137.240 136.285 144.377  1.00  0.00     0.033 C 
ATOM      7  C   UNL     1     136.723 137.455 145.223  1.00  0.00     0.119 C 
ATOM      8  C   UNL     1     138.045 136.959 143.218  1.00  0.00    -0.017 C 
ATOM      9  C   UNL     1     137.778 138.566 145.099  1.00  0.00     0.043 C 
ATOM     10  C   UNL     1     138.756 138.173 143.947  1.00  0.00    -0.003 C 
ATOM     11  C   UNL     1     137.120 137.451 142.041  1.00  0.00     0.012 C 
ATOM     12  C   UNL     1     139.050 135.936 142.614  1.00  0.00     0.013 C 
ATOM     13  C   UNL     1     140.091 137.739 144.628  1.00  0.00     0.017 C 
ATOM     14  C   UNL     1     138.963 139.389 142.999  1.00  0.00    -0.064 C 
ATOM     15  C   UNL     1     136.711 138.918 142.126  1.00  0.00     0.032 C 
ATOM     16  C   UNL     1     137.944 139.798 142.183  1.00  0.00    -0.064 C 
ATOM     17  C   UNL     1     140.253 140.190 143.017  1.00  0.00     0.032 C 
ATOM     18  C   UNL     1     137.935 141.208 141.502  1.00  0.00    -0.008 C 
ATOM     19  C   UNL     1     140.496 140.806 141.656  1.00  0.00     0.009 C 
ATOM     20  C   UNL     1     139.394 141.827 141.292  1.00  0.00     0.009 C 
ATOM     21  C   UNL     1     137.039 142.116 142.389  1.00  0.00     0.015 C 
ATOM     22  C   UNL     1     137.261 141.119 140.104  1.00  0.00     0.016 C 
ATOM     23  C   UNL     1     139.600 143.313 141.845  1.00  0.00     0.005 C 
ATOM     24  C   UNL     1     137.779 142.622 143.620  1.00  0.00     0.047 C 
ATOM     25  C   UNL     1     138.977 143.530 143.280  1.00  0.00     0.182 C 
ATOM     26  C   UNL     1     138.987 144.311 140.812  1.00  0.00     0.015 C 
ATOM     27  C   UNL     1     141.106 143.687 141.911  1.00  0.00     0.015 C 
BRANCH   7  28
ATOM     28  O   UNL     1     136.562 137.069 146.563  1.00  0.00    -0.393 OA
ATOM     29  H   UNL     1     136.507 136.078 146.569  1.00  0.00     0.210 HD
ENDBRANCH   7  28
BRANCH  25  30
ATOM     30  O   UNL     1     138.566 144.890 143.469  1.00  0.00    -0.462 OA
BRANCH  30  31
ATOM     31  C   UNL     1     138.186 145.445 144.697  1.00  0.00     0.302 C 
ATOM     32  O   UNL     1     138.836 145.202 145.752  1.00  0.00    -0.253 OA
ATOM     33  C   UNL     1     137.004 146.350 144.747  1.00  0.00     0.139 C 
ENDBRANCH  30  31
ENDBRANCH  25  30
ENDBRANCH   2   6
ENDBRANCH   1   2
BRANCH   1  34
ATOM     34  C   UNL     1     136.175 132.616 143.408  1.00  0.00     0.031 C 
BRANCH  34  35
ATOM     35  C   UNL     1     137.383 131.901 142.838  1.00  0.00    -0.075 C 
ATOM     36  C   UNL     1     137.694 130.672 143.291  1.00  0.00     0.008 C 
BRANCH  35  37
ATOM     37  C   UNL     1     138.206 132.567 141.746  1.00  0.00     0.008 C 
ATOM     38  C   UNL     1     137.304 133.264 140.722  1.00  0.00     0.012 C 
ATOM     39  C   UNL     1     139.149 131.570 141.065  1.00  0.00     0.012 C 
ENDBRANCH  35  37
ENDBRANCH  34  35
ENDBRANCH   1  34
TORSDOF 9
ENDMDL
MODEL 8
REMARK VINA RESULT:    -7.840      4.681      8.157
REMARK INTER + INTRA:         -13.854
REMARK INTER:                 -12.395
REMARK INTRA:                  -1.460
REMARK UNBOUND:                -2.119
REMARK SMILES C=C(CC[C@@H](C(=O)[O-])[C@@H]1[C@@H](O)C[C@]2(C)C3=C(CC[C@]12C)[C@@]1(C)CC[C@H](OC(C)=O)C(C)(C)[C@H]1CC3)C(C)C
REMARK SMILES IDX 4 1 5 2 6 3 7 4 8 5 9 6 10 7 19 8 12 9 13 10 18 11 20 12
REMARK SMILES IDX 14 13 15 14 17 15 16 16 35 17 21 18 34 19 33 20 23 21 22 22
REMARK SMILES IDX 30 23 24 24 25 25 31 26 32 27 11 28 26 30 27 31 29 32 28 33
REMARK SMILES IDX 3 34 2 35 1 36 36 37 37 38 38 39
REMARK H PARENT 11 29
REMARK Flexibility Score: inf
ROOT
ATOM      1  C   UNL     1     140.333 142.639 152.442  1.00  0.00     0.014 C 
ENDROOT
BRANCH   1   2
ATOM      2  C   UNL     1     139.668 141.901 151.252  1.00  0.00     0.042 C 
BRANCH   2   3
ATOM      3  C   UNL     1     138.219 141.574 151.547  1.00  0.00     0.045 C 
ATOM      4  O   UNL     1     137.768 140.429 151.273  1.00  0.00    -0.550 OA
ATOM      5  O   UNL     1     137.378 142.501 152.149  1.00  0.00    -0.550 OA
ENDBRANCH   2   3
BRANCH   2   6
ATOM      6  C   UNL     1     139.950 142.564 149.847  1.00  0.00     0.033 C 
ATOM      7  C   UNL     1     138.741 143.090 149.062  1.00  0.00     0.119 C 
ATOM      8  C   UNL     1     140.753 141.710 148.812  1.00  0.00    -0.017 C 
ATOM      9  C   UNL     1     139.219 143.259 147.612  1.00  0.00     0.043 C 
ATOM     10  C   UNL     1     140.604 142.550 147.477  1.00  0.00    -0.003 C 
ATOM     11  C   UNL     1     140.177 140.253 148.648  1.00  0.00     0.012 C 
ATOM     12  C   UNL     1     142.229 141.568 149.284  1.00  0.00     0.013 C 
ATOM     13  C   UNL     1     141.674 143.681 147.381  1.00  0.00     0.017 C 
ATOM     14  C   UNL     1     140.608 141.646 146.210  1.00  0.00    -0.064 C 
ATOM     15  C   UNL     1     139.201 140.083 147.488  1.00  0.00     0.032 C 
ATOM     16  C   UNL     1     139.861 140.500 146.188  1.00  0.00    -0.064 C 
ATOM     17  C   UNL     1     141.362 142.053 144.956  1.00  0.00     0.032 C 
ATOM     18  C   UNL     1     139.511 139.757 144.856  1.00  0.00    -0.008 C 
ATOM     19  C   UNL     1     141.785 140.819 144.188  1.00  0.00     0.009 C 
ATOM     20  C   UNL     1     140.563 140.022 143.680  1.00  0.00     0.009 C 
ATOM     21  C   UNL     1     138.076 140.209 144.467  1.00  0.00     0.015 C 
ATOM     22  C   UNL     1     139.461 138.223 145.099  1.00  0.00     0.016 C 
ATOM     23  C   UNL     1     139.936 140.502 142.289  1.00  0.00     0.005 C 
ATOM     24  C   UNL     1     138.069 141.580 143.804  1.00  0.00     0.047 C 
ATOM     25  C   UNL     1     138.826 141.612 142.462  1.00  0.00     0.182 C 
ATOM     26  C   UNL     1     139.366 139.250 141.549  1.00  0.00     0.015 C 
ATOM     27  C   UNL     1     141.032 141.059 141.340  1.00  0.00     0.015 C 
BRANCH   7  28
ATOM     28  O   UNL     1     138.301 144.315 149.587  1.00  0.00    -0.393 OA
ATOM     29  H   UNL     1     137.937 144.124 150.490  1.00  0.00     0.210 HD
ENDBRANCH   7  28
BRANCH  25  30
ATOM     30  O   UNL     1     137.856 141.546 141.408  1.00  0.00    -0.462 OA
BRANCH  30  31
ATOM     31  C   UNL     1     136.513 141.919 141.537  1.00  0.00     0.302 C 
ATOM     32  O   UNL     1     135.600 141.052 141.622  1.00  0.00    -0.253 OA
ATOM     33  C   UNL     1     136.167 143.368 141.594  1.00  0.00     0.139 C 
ENDBRANCH  30  31
ENDBRANCH  25  30
ENDBRANCH   2   6
ENDBRANCH   1   2
BRANCH   1  34
ATOM     34  C   UNL     1     141.499 141.898 153.120  1.00  0.00     0.031 C 
BRANCH  34  35
ATOM     35  C   UNL     1     141.586 142.286 154.581  1.00  0.00    -0.075 C 
ATOM     36  C   UNL     1     142.222 143.422 154.923  1.00  0.00     0.008 C 
BRANCH  35  37
ATOM     37  C   UNL     1     140.932 141.406 155.635  1.00  0.00     0.008 C 
ATOM     38  C   UNL     1     140.810 139.959 155.147  1.00  0.00     0.012 C 
ATOM     39  C   UNL     1     139.572 141.961 156.067  1.00  0.00     0.012 C 
ENDBRANCH  35  37
ENDBRANCH  34  35
ENDBRANCH   1  34
TORSDOF 9
ENDMDL
MODEL 9
REMARK VINA RESULT:    -7.819      5.371      9.544
REMARK INTER + INTRA:         -13.824
REMARK INTER:                 -12.216
REMARK INTRA:                  -1.608
REMARK UNBOUND:                -2.119
REMARK SMILES C=C(CC[C@@H](C(=O)[O-])[C@@H]1[C@@H](O)C[C@]2(C)C3=C(CC[C@]12C)[C@@]1(C)CC[C@H](OC(C)=O)C(C)(C)[C@H]1CC3)C(C)C
REMARK SMILES IDX 4 1 5 2 6 3 7 4 8 5 9 6 10 7 19 8 12 9 13 10 18 11 20 12
REMARK SMILES IDX 14 13 15 14 17 15 16 16 35 17 21 18 34 19 33 20 23 21 22 22
REMARK SMILES IDX 30 23 24 24 25 25 31 26 32 27 11 28 26 30 27 31 29 32 28 33
REMARK SMILES IDX 3 34 2 35 1 36 36 37 37 38 38 39
REMARK H PARENT 11 29
REMARK Flexibility Score: inf
ROOT
ATOM      1  C   UNL     1     134.749 132.194 152.433  1.00  0.00     0.014 C 
ENDROOT
BRANCH   1   2
ATOM      2  C   UNL     1     135.436 132.965 151.278  1.00  0.00     0.042 C 
BRANCH   2   3
ATOM      3  C   UNL     1     136.886 133.262 151.599  1.00  0.00     0.045 C 
ATOM      4  O   UNL     1     137.339 134.426 151.427  1.00  0.00    -0.550 OA
ATOM      5  O   UNL     1     137.726 132.283 152.116  1.00  0.00    -0.550 OA
ENDBRANCH   2   3
BRANCH   2   6
ATOM      6  C   UNL     1     135.161 132.357 149.847  1.00  0.00     0.033 C 
ATOM      7  C   UNL     1     136.379 131.914 149.025  1.00  0.00     0.119 C 
ATOM      8  C   UNL     1     134.313 133.226 148.862  1.00  0.00    -0.017 C 
ATOM      9  C   UNL     1     135.888 131.794 147.573  1.00  0.00     0.043 C 
ATOM     10  C   UNL     1     134.476 132.454 147.487  1.00  0.00    -0.003 C 
ATOM     11  C   UNL     1     134.832 134.710 148.758  1.00  0.00     0.012 C 
ATOM     12  C   UNL     1     132.839 133.289 149.356  1.00  0.00     0.013 C 
ATOM     13  C   UNL     1     133.449 131.288 147.351  1.00  0.00     0.017 C 
ATOM     14  C   UNL     1     134.422 133.414 146.264  1.00  0.00    -0.064 C 
ATOM     15  C   UNL     1     135.785 134.970 147.597  1.00  0.00     0.032 C 
ATOM     16  C   UNL     1     135.124 134.588 146.287  1.00  0.00    -0.064 C 
ATOM     17  C   UNL     1     133.667 133.037 145.001  1.00  0.00     0.032 C 
ATOM     18  C   UNL     1     135.428 135.404 144.986  1.00  0.00    -0.008 C 
ATOM     19  C   UNL     1     133.188 134.287 144.295  1.00  0.00     0.009 C 
ATOM     20  C   UNL     1     134.373 135.154 143.811  1.00  0.00     0.009 C 
ATOM     21  C   UNL     1     136.874 135.026 144.560  1.00  0.00     0.015 C 
ATOM     22  C   UNL     1     135.424 136.927 145.299  1.00  0.00     0.016 C 
ATOM     23  C   UNL     1     134.998 134.762 142.393  1.00  0.00     0.005 C 
ATOM     24  C   UNL     1     136.924 133.688 143.835  1.00  0.00     0.047 C 
ATOM     25  C   UNL     1     136.152 133.689 142.501  1.00  0.00     0.182 C 
ATOM     26  C   UNL     1     135.511 136.067 141.705  1.00  0.00     0.015 C 
ATOM     27  C   UNL     1     133.912 134.208 141.431  1.00  0.00     0.015 C 
BRANCH   7  28
ATOM     28  O   UNL     1     136.872 130.683 149.487  1.00  0.00    -0.393 OA
ATOM     29  H   UNL     1     136.902 130.077 148.702  1.00  0.00     0.210 HD
ENDBRANCH   7  28
BRANCH  25  30
ATOM     30  O   UNL     1     137.105 133.840 141.441  1.00  0.00    -0.462 OA
BRANCH  30  31
ATOM     31  C   UNL     1     138.277 133.085 141.309  1.00  0.00     0.302 C 
ATOM     32  O   UNL     1     139.414 133.631 141.350  1.00  0.00    -0.253 OA
ATOM     33  C   UNL     1     138.170 131.609 141.137  1.00  0.00     0.139 C 
ENDBRANCH  30  31
ENDBRANCH  25  30
ENDBRANCH   2   6
ENDBRANCH   1   2
BRANCH   1  34
ATOM     34  C   UNL     1     133.518 132.878 153.054  1.00  0.00     0.031 C 
BRANCH  34  35
ATOM     35  C   UNL     1     133.420 132.542 154.527  1.00  0.00    -0.075 C 
ATOM     36  C   UNL     1     132.853 131.379 154.900  1.00  0.00     0.008 C 
BRANCH  35  37
ATOM     37  C   UNL     1     133.988 133.505 155.559  1.00  0.00     0.008 C 
ATOM     38  C   UNL     1     134.067 134.929 155.000  1.00  0.00     0.012 C 
ATOM     39  C   UNL     1     135.350 133.036 156.077  1.00  0.00     0.012 C 
ENDBRANCH  35  37
ENDBRANCH  34  35
ENDBRANCH   1  34
TORSDOF 9
ENDMDL
