MODEL 1
REMARK VINA RESULT:    -4.046      0.000      0.000
REMARK INTER + INTRA:          -4.872
REMARK INTER:                  -4.756
REMARK INTRA:                  -0.116
REMARK UNBOUND:                -0.116
REMARK SMILES O=C([O-])CCC(=O)[O-]
REMARK SMILES IDX 4 1 2 2 1 3 3 4 5 5 6 6 7 7 8 8
REMARK H PARENT
REMARK Flexibility Score: inf
ROOT
ATOM      1  C   UNL     1     -18.119  13.076 -13.891  1.00  0.00     0.059 C 
ENDROOT
BRANCH   1   2
ATOM      2  C   UNL     1     -16.678  12.806 -14.191  1.00  0.00     0.042 C 
ATOM      3  O   UNL     1     -16.346  12.283 -15.287  1.00  0.00    -0.550 OA
ATOM      4  O   UNL     1     -15.697  13.176 -13.279  1.00  0.00    -0.550 OA
ENDBRANCH   1   2
BRANCH   1   5
ATOM      5  C   UNL     1     -18.710  11.944 -13.049  1.00  0.00     0.059 C 
BRANCH   5   6
ATOM      6  C   UNL     1     -19.046  12.435 -11.676  1.00  0.00     0.042 C 
ATOM      7  O   UNL     1     -18.609  13.546 -11.275  1.00  0.00    -0.550 OA
ATOM      8  O   UNL     1     -19.801  11.642 -10.820  1.00  0.00    -0.550 OA
ENDBRANCH   5   6
ENDBRANCH   1   5
TORSDOF 3
ENDMDL
MODEL 2
REMARK VINA RESULT:    -4.014     18.249     19.630
REMARK INTER + INTRA:          -4.834
REMARK INTER:                  -4.714
REMARK INTRA:                  -0.120
REMARK UNBOUND:                -0.116
REMARK SMILES O=C([O-])CCC(=O)[O-]
REMARK SMILES IDX 4 1 2 2 1 3 3 4 5 5 6 6 7 7 8 8
REMARK H PARENT
REMARK Flexibility Score: inf
ROOT
ATOM      1  C   UNL     1     -13.411  -4.108 -21.348  1.00  0.00     0.059 C 
ENDROOT
BRANCH   1   2
ATOM      2  C   UNL     1     -12.490  -3.544 -20.313  1.00  0.00     0.042 C 
ATOM      3  O   UNL     1     -11.242  -3.650 -20.447  1.00  0.00    -0.550 OA
ATOM      4  O   UNL     1     -13.008  -2.857 -19.221  1.00  0.00    -0.550 OA
ENDBRANCH   1   2
BRANCH   1   5
ATOM      5  C   UNL     1     -13.544  -3.143 -22.527  1.00  0.00     0.059 C 
BRANCH   5   6
ATOM      6  C   UNL     1     -12.911  -3.724 -23.752  1.00  0.00     0.042 C 
ATOM      7  O   UNL     1     -12.149  -4.722 -23.660  1.00  0.00    -0.550 OA
ATOM      8  O   UNL     1     -13.124  -3.132 -24.991  1.00  0.00    -0.550 OA
ENDBRANCH   5   6
ENDBRANCH   1   5
TORSDOF 3
ENDMDL
MODEL 3
REMARK VINA RESULT:    -3.984      1.653      2.019
REMARK INTER + INTRA:          -4.798
REMARK INTER:                  -4.679
REMARK INTRA:                  -0.120
REMARK UNBOUND:                -0.116
REMARK SMILES O=C([O-])CCC(=O)[O-]
REMARK SMILES IDX 4 1 2 2 1 3 3 4 5 5 6 6 7 7 8 8
REMARK H PARENT
REMARK Flexibility Score: inf
ROOT
ATOM      1  C   UNL     1     -17.448  13.358 -12.825  1.00  0.00     0.059 C 
ENDROOT
BRANCH   1   2
ATOM      2  C   UNL     1     -16.319  12.844 -13.663  1.00  0.00     0.042 C 
ATOM      3  O   UNL     1     -15.203  12.590 -13.138  1.00  0.00    -0.550 OA
ATOM      4  O   UNL     1     -16.514  12.598 -15.017  1.00  0.00    -0.550 OA
ENDBRANCH   1   2
BRANCH   1   5
ATOM      5  C   UNL     1     -18.559  12.312 -12.727  1.00  0.00     0.059 C 
BRANCH   5   6
ATOM      6  C   UNL     1     -19.813  12.821 -13.365  1.00  0.00     0.042 C 
ATOM      7  O   UNL     1     -19.765  13.769 -14.192  1.00  0.00    -0.550 OA
ATOM      8  O   UNL     1     -21.042  12.280 -13.009  1.00  0.00    -0.550 OA
ENDBRANCH   5   6
ENDBRANCH   1   5
TORSDOF 3
ENDMDL
MODEL 4
REMARK VINA RESULT:    -3.983     18.236     19.396
REMARK INTER + INTRA:          -4.798
REMARK INTER:                  -4.683
REMARK INTRA:                  -0.115
REMARK UNBOUND:                -0.116
REMARK SMILES O=C([O-])CCC(=O)[O-]
REMARK SMILES IDX 4 1 2 2 1 3 3 4 5 5 6 6 7 7 8 8
REMARK H PARENT
REMARK Flexibility Score: inf
ROOT
ATOM      1  C   UNL     1     -13.523  -3.142 -22.457  1.00  0.00     0.059 C 
ENDROOT
BRANCH   1   2
ATOM      2  C   UNL     1     -12.867  -3.843 -23.605  1.00  0.00     0.042 C 
ATOM      3  O   UNL     1     -12.299  -4.953 -23.430  1.00  0.00    -0.550 OA
ATOM      4  O   UNL     1     -12.925  -3.293 -24.879  1.00  0.00    -0.550 OA
ENDBRANCH   1   2
BRANCH   1   5
ATOM      5  C   UNL     1     -13.439  -3.996 -21.191  1.00  0.00     0.059 C 
BRANCH   5   6
ATOM      6  C   UNL     1     -12.406  -3.447 -20.258  1.00  0.00     0.042 C 
ATOM      7  O   UNL     1     -11.185  -3.677 -20.456  1.00  0.00    -0.550 OA
ATOM      8  O   UNL     1     -12.797  -2.719 -19.140  1.00  0.00    -0.550 OA
ENDBRANCH   5   6
ENDBRANCH   1   5
TORSDOF 3
ENDMDL
MODEL 5
REMARK VINA RESULT:    -3.982      1.655      3.833
REMARK INTER + INTRA:          -4.796
REMARK INTER:                  -4.676
REMARK INTRA:                  -0.121
REMARK UNBOUND:                -0.116
REMARK SMILES O=C([O-])CCC(=O)[O-]
REMARK SMILES IDX 4 1 2 2 1 3 3 4 5 5 6 6 7 7 8 8
REMARK H PARENT
REMARK Flexibility Score: inf
ROOT
ATOM      1  C   UNL     1     -18.555  12.317 -12.689  1.00  0.00     0.059 C 
ENDROOT
BRANCH   1   2
ATOM      2  C   UNL     1     -19.799  12.847 -13.330  1.00  0.00     0.042 C 
ATOM      3  O   UNL     1     -19.730  13.775 -14.178  1.00  0.00    -0.550 OA
ATOM      4  O   UNL     1     -21.032  12.283 -13.026  1.00  0.00    -0.550 OA
ENDBRANCH   1   2
BRANCH   1   5
ATOM      5  C   UNL     1     -17.421  13.337 -12.799  1.00  0.00     0.059 C 
BRANCH   5   6
ATOM      6  C   UNL     1     -16.316  12.801 -13.654  1.00  0.00     0.042 C 
ATOM      7  O   UNL     1     -15.181  12.577 -13.157  1.00  0.00    -0.550 OA
ATOM      8  O   UNL     1     -16.526  12.593 -15.011  1.00  0.00    -0.550 OA
ENDBRANCH   5   6
ENDBRANCH   1   5
TORSDOF 3
ENDMDL
MODEL 6
REMARK VINA RESULT:    -3.978      1.669      3.868
REMARK INTER + INTRA:          -4.791
REMARK INTER:                  -4.671
REMARK INTRA:                  -0.121
REMARK UNBOUND:                -0.116
REMARK SMILES O=C([O-])CCC(=O)[O-]
REMARK SMILES IDX 4 1 2 2 1 3 3 4 5 5 6 6 7 7 8 8
REMARK H PARENT
REMARK Flexibility Score: inf
ROOT
ATOM      1  C   UNL     1     -18.562  12.231 -12.841  1.00  0.00     0.059 C 
ENDROOT
BRANCH   1   2
ATOM      2  C   UNL     1     -19.819  12.833 -13.385  1.00  0.00     0.042 C 
ATOM      3  O   UNL     1     -19.764  13.810 -14.177  1.00  0.00    -0.550 OA
ATOM      4  O   UNL     1     -21.052  12.282 -13.056  1.00  0.00    -0.550 OA
ENDBRANCH   1   2
BRANCH   1   5
ATOM      5  C   UNL     1     -17.434  13.264 -12.840  1.00  0.00     0.059 C 
BRANCH   5   6
ATOM      6  C   UNL     1     -16.316  12.816 -13.729  1.00  0.00     0.042 C 
ATOM      7  O   UNL     1     -16.488  12.735 -14.973  1.00  0.00    -0.550 OA
ATOM      8  O   UNL     1     -15.096  12.442 -13.177  1.00  0.00    -0.550 OA
ENDBRANCH   5   6
ENDBRANCH   1   5
TORSDOF 3
ENDMDL
MODEL 7
REMARK VINA RESULT:    -3.971     18.609     19.758
REMARK INTER + INTRA:          -4.784
REMARK INTER:                  -4.756
REMARK INTRA:                  -0.027
REMARK UNBOUND:                -0.116
REMARK SMILES O=C([O-])CCC(=O)[O-]
REMARK SMILES IDX 4 1 2 2 1 3 3 4 5 5 6 6 7 7 8 8
REMARK H PARENT
REMARK Flexibility Score: inf
ROOT
ATOM      1  C   UNL     1     -13.597  -3.489 -21.754  1.00  0.00     0.059 C 
ENDROOT
BRANCH   1   2
ATOM      2  C   UNL     1     -12.565  -3.513 -20.670  1.00  0.00     0.042 C 
ATOM      3  O   UNL     1     -12.883  -3.229 -19.485  1.00  0.00    -0.550 OA
ATOM      4  O   UNL     1     -11.261  -3.896 -20.959  1.00  0.00    -0.550 OA
ENDBRANCH   1   2
BRANCH   1   5
ATOM      5  C   UNL     1     -13.718  -4.867 -22.405  1.00  0.00     0.059 C 
BRANCH   5   6
ATOM      6  C   UNL     1     -15.116  -5.096 -22.886  1.00  0.00     0.042 C 
ATOM      7  O   UNL     1     -15.764  -6.104 -22.499  1.00  0.00    -0.550 OA
ATOM      8  O   UNL     1     -15.688  -4.222 -23.803  1.00  0.00    -0.550 OA
ENDBRANCH   5   6
ENDBRANCH   1   5
TORSDOF 3
ENDMDL
MODEL 8
REMARK VINA RESULT:    -3.967     18.604     19.780
REMARK INTER + INTRA:          -4.778
REMARK INTER:                  -4.751
REMARK INTRA:                  -0.028
REMARK UNBOUND:                -0.116
REMARK SMILES O=C([O-])CCC(=O)[O-]
REMARK SMILES IDX 4 1 2 2 1 3 3 4 5 5 6 6 7 7 8 8
REMARK H PARENT
REMARK Flexibility Score: inf
ROOT
ATOM      1  C   UNL     1     -13.683  -4.821 -22.460  1.00  0.00     0.059 C 
ENDROOT
BRANCH   1   2
ATOM      2  C   UNL     1     -15.074  -5.098 -22.937  1.00  0.00     0.042 C 
ATOM      3  O   UNL     1     -15.711  -6.089 -22.493  1.00  0.00    -0.550 OA
ATOM      4  O   UNL     1     -15.685  -4.234 -23.838  1.00  0.00    -0.550 OA
ENDBRANCH   1   2
BRANCH   1   5
ATOM      5  C   UNL     1     -13.631  -3.489 -21.710  1.00  0.00     0.059 C 
BRANCH   5   6
ATOM      6  C   UNL     1     -12.594  -3.536 -20.633  1.00  0.00     0.042 C 
ATOM      7  O   UNL     1     -12.885  -3.197 -19.456  1.00  0.00    -0.550 OA
ATOM      8  O   UNL     1     -11.291  -3.909 -20.939  1.00  0.00    -0.550 OA
ENDBRANCH   5   6
ENDBRANCH   1   5
TORSDOF 3
ENDMDL
MODEL 9
REMARK VINA RESULT:    -3.429      1.336      2.082
REMARK INTER + INTRA:          -4.147
REMARK INTER:                  -4.108
REMARK INTRA:                  -0.039
REMARK UNBOUND:                -0.116
REMARK SMILES O=C([O-])CCC(=O)[O-]
REMARK SMILES IDX 4 1 2 2 1 3 3 4 5 5 6 6 7 7 8 8
REMARK H PARENT
REMARK Flexibility Score: inf
ROOT
ATOM      1  C   UNL     1     -16.853  12.843 -14.084  1.00  0.00     0.059 C 
ENDROOT
BRANCH   1   2
ATOM      2  C   UNL     1     -16.340  11.950 -15.170  1.00  0.00     0.042 C 
ATOM      3  O   UNL     1     -15.134  11.590 -15.178  1.00  0.00    -0.550 OA
ATOM      4  O   UNL     1     -17.207  11.476 -16.147  1.00  0.00    -0.550 OA
ENDBRANCH   1   2
BRANCH   1   5
ATOM      5  C   UNL     1     -18.381  12.910 -14.125  1.00  0.00     0.059 C 
BRANCH   5   6
ATOM      6  C   UNL     1     -18.941  12.900 -12.737  1.00  0.00     0.042 C 
ATOM      7  O   UNL     1     -19.918  12.159 -12.453  1.00  0.00    -0.550 OA
ATOM      8  O   UNL     1     -18.415  13.746 -11.769  1.00  0.00    -0.550 OA
ENDBRANCH   5   6
ENDBRANCH   1   5
TORSDOF 3
ENDMDL
