MODEL 1
REMARK VINA RESULT:    11.903      0.000      0.000
REMARK INTER + INTRA:          54.750
REMARK INTER:                  18.862
REMARK INTRA:                  35.888
REMARK UNBOUND:                35.888
REMARK SMILES C[C@H]1O[C@@H](O[C@H]2CC[C@@]3(C)[C@H](CC[C@@]4(C)[C@@H]3C=C[C@]35OC[C@@]6(CCC(C)(C)C[C@@H]63)[C@@H](O)C[C@@]45C)[C@@]2(C)CO)[C@H](O)[C@H](O[C@@H]2O[C@@H](CO)[C@@H](O)[C@H](O)[C@@H]2O)[C@H]1O
REMARK SMILES IDX 1 1 2 2 54 3 41 4 39 5 4 6 3 7 55 8 42 10 43 11 52 12 44 13
REMARK SMILES IDX 50 14 45 15 48 16 53 17 51 19 46 21 47 22 49 24 5 26 6 27
REMARK SMILES IDX 7 28 35 29 8 30 11 31 36 32 9 33 12 34 10 35 16 36 13 37
REMARK SMILES IDX 14 38 17 39 15 40 33 41 18 42 19 43 32 44 34 45 29 46 20 47
REMARK SMILES IDX 30 48 22 49 28 50 21 51 23 52 25 53 24 54 26 55 27 56 37 57
REMARK SMILES IDX 38 58 31 60 40 62
REMARK H PARENT 55 9 53 18 51 20 47 23 49 25 38 59 31 61 40 63
REMARK Flexibility Score: inf
ROOT
ATOM      1  C   UNL     1      17.059  33.796  32.664  1.00  0.00     0.041 C 
ATOM      2  C   UNL     1      17.197  34.531  31.356  1.00  0.00     0.150 C 
ATOM      3  C   UNL     1      18.648  34.482  30.747  1.00  0.00     0.175 C 
ATOM      4  C   UNL     1      19.728  35.599  31.222  1.00  0.00     0.186 C 
ATOM      5  C   UNL     1      18.835  36.917  30.948  1.00  0.00     0.202 C 
ATOM      6  C   UNL     1      17.648  36.714  31.972  1.00  0.00     0.282 C 
ATOM      7  O   UNL     1      16.671  35.823  31.441  1.00  0.00    -0.344 OA
ENDROOT
BRANCH   3   8
ATOM      8  O   UNL     1      19.234  33.195  30.807  1.00  0.00    -0.388 OA
ATOM      9  H   UNL     1      19.354  32.931  31.751  1.00  0.00     0.211 HD
ENDBRANCH   3   8
BRANCH   4  10
ATOM     10  O   UNL     1      20.965  34.985  31.662  1.00  0.00    -0.341 OA
BRANCH  10  11
ATOM     11  C   UNL     1      21.748  34.889  30.466  1.00  0.00     0.282 C 
ATOM     12  C   UNL     1      21.203  34.853  28.929  1.00  0.00     0.202 C 
ATOM     13  O   UNL     1      22.989  35.482  30.619  1.00  0.00    -0.341 OA
ATOM     14  C   UNL     1      21.319  36.355  28.289  1.00  0.00     0.179 C 
ATOM     15  C   UNL     1      23.162  36.834  30.088  1.00  0.00     0.178 C 
ATOM     16  C   UNL     1      22.594  37.115  28.633  1.00  0.00     0.177 C 
BRANCH  12  17
ATOM     17  O   UNL     1      20.005  34.269  28.772  1.00  0.00    -0.385 OA
ATOM     18  H   UNL     1      19.539  34.500  29.692  1.00  0.00     0.211 HD
ENDBRANCH  12  17
BRANCH  14  19
ATOM     19  O   UNL     1      20.232  36.985  27.497  1.00  0.00    -0.387 OA
ATOM     20  H   UNL     1      19.462  36.339  27.340  1.00  0.00     0.211 HD
ENDBRANCH  14  19
BRANCH  15  21
ATOM     21  C   UNL     1      24.762  37.098  30.268  1.00  0.00     0.191 C 
BRANCH  21  22
ATOM     22  O   UNL     1      25.712  36.027  30.068  1.00  0.00    -0.394 OA
ATOM     23  H   UNL     1      25.127  35.318  29.609  1.00  0.00     0.210 HD
ENDBRANCH  21  22
ENDBRANCH  15  21
BRANCH  16  24
ATOM     24  O   UNL     1      23.688  36.849  27.737  1.00  0.00    -0.387 OA
ATOM     25  H   UNL     1      23.577  37.406  26.926  1.00  0.00     0.211 HD
ENDBRANCH  16  24
ENDBRANCH  10  11
ENDBRANCH   4  10
BRANCH   6  26
ATOM     26  O   UNL     1      18.202  36.186  33.187  1.00  0.00    -0.346 OA
BRANCH  26  27
ATOM     27  C   UNL     1      18.578  34.897  33.232  1.00  0.00     0.130 C 
ATOM     28  C   UNL     1      20.044  35.014  32.810  1.00  0.00     0.033 C 
ATOM     29  C   UNL     1      18.444  34.276  34.661  1.00  0.00     0.020 C 
ATOM     30  C   UNL     1      20.564  33.657  32.556  1.00  0.00     0.010 C 
ATOM     31  C   UNL     1      19.007  32.821  34.498  1.00  0.00     0.006 C 
ATOM     32  C   UNL     1      16.962  34.261  35.178  1.00  0.00     0.017 C 
ATOM     33  C   UNL     1      20.394  32.690  33.751  1.00  0.00    -0.022 C 
ATOM     34  C   UNL     1      17.846  31.913  33.973  1.00  0.00     0.005 C 
ATOM     35  C   UNL     1      21.541  33.057  34.766  1.00  0.00     0.012 C 
ATOM     36  C   UNL     1      20.662  31.280  33.129  1.00  0.00     0.024 C 
ATOM     37  C   UNL     1      18.108  31.265  32.641  1.00  0.00     0.008 C 
ATOM     38  C   UNL     1      19.422  30.467  32.597  1.00  0.00    -0.017 C 
ATOM     39  C   UNL     1      21.811  30.513  33.655  1.00  0.00    -0.024 C 
ATOM     40  C   UNL     1      19.704  30.340  31.059  1.00  0.00     0.013 C 
ATOM     41  C   UNL     1      19.198  29.003  33.279  1.00  0.00     0.009 C 
ATOM     42  C   UNL     1      21.779  29.199  33.640  1.00  0.00     0.005 C 
ATOM     43  C   UNL     1      20.533  28.536  34.075  1.00  0.00     0.096 C 
ATOM     44  C   UNL     1      18.106  28.831  34.345  1.00  0.00     0.043 C 
ATOM     45  C   UNL     1      18.724  28.072  32.162  1.00  0.00     0.015 C 
ATOM     46  C   UNL     1      20.535  27.026  33.949  1.00  0.00     0.037 C 
ATOM     47  O   UNL     1      20.456  28.695  35.509  1.00  0.00    -0.369 OA
ATOM     48  C   UNL     1      18.008  27.343  34.786  1.00  0.00     0.124 C 
ATOM     49  C   UNL     1      19.461  26.684  35.011  1.00  0.00     0.026 C 
ATOM     50  C   UNL     1      21.962  26.479  34.264  1.00  0.00     0.014 C 
ATOM     51  C   UNL     1      20.038  27.523  36.119  1.00  0.00     0.171 C 
ATOM     52  C   UNL     1      19.412  25.195  35.292  1.00  0.00     0.013 C 
ATOM     53  C   UNL     1      21.920  24.950  34.437  1.00  0.00    -0.035 C 
ATOM     54  C   UNL     1      20.470  24.399  34.473  1.00  0.00     0.007 C 
ATOM     55  C   UNL     1      22.610  24.368  33.158  1.00  0.00     0.011 C 
ATOM     56  C   UNL     1      22.747  24.561  35.696  1.00  0.00     0.011 C 
BRANCH  29  57
ATOM     57  C   UNL     1      19.155  35.081  35.838  1.00  0.00     0.165 C 
BRANCH  57  58
ATOM     58  O   UNL     1      20.579  34.986  35.696  1.00  0.00    -0.396 OA
ATOM     59  H   UNL     1      20.866  35.833  35.223  1.00  0.00     0.210 HD
ENDBRANCH  57  58
ENDBRANCH  29  57
BRANCH  48  60
ATOM     60  O   UNL     1      17.279  27.297  35.994  1.00  0.00    -0.392 OA
ATOM     61  H   UNL     1      17.795  27.755  36.705  1.00  0.00     0.210 HD
ENDBRANCH  48  60
ENDBRANCH  26  27
ENDBRANCH   6  26
BRANCH   5  62
ATOM     62  O   UNL     1      18.573  36.942  29.583  1.00  0.00    -0.385 OA
ATOM     63  H   UNL     1      17.657  37.240  29.477  1.00  0.00     0.211 HD
ENDBRANCH   5  62
TORSDOF 14
ENDMDL
