MODEL 1
REMARK VINA RESULT:    42.958      0.000      0.000
REMARK INTER + INTRA:         115.146
REMARK INTER:                 101.973
REMARK INTRA:                  13.173
REMARK UNBOUND:                13.173
REMARK SMILES O=C(OC[C@H]1O[C@H](OC(=O)c2cc(O)c(O)c(O)c2)[C@H](OC(=O)c2cc(O)c(O)c(O)c2)[C@@H](OC(=O)c2cc(O)c(O)c(O)c2)[C@H]1OC(=O)c1cc(O)c(O)c(O)c1)c1cc(O)c(O)c(O)c1
REMARK SMILES IDX 5 1 46 2 33 3 20 4 7 5 6 6 4 7 3 8 2 9 1 10 59 11 60 12
REMARK SMILES IDX 61 13 67 14 63 15 65 16 62 17 64 19 66 21 47 23 48 24 49 25
REMARK SMILES IDX 50 26 58 27 51 28 56 29 52 30 54 31 57 32 53 34 55 36 34 38
REMARK SMILES IDX 35 39 36 40 37 41 45 42 38 43 43 44 39 45 41 46 44 47 40 49
REMARK SMILES IDX 42 51 8 53 9 54 10 55 11 56 19 57 12 58 17 59 13 60 15 61
REMARK SMILES IDX 18 62 14 64 16 66 21 68 22 69 23 70 24 71 32 72 25 73 30 74
REMARK SMILES IDX 26 75 28 76 31 77 27 79 29 81
REMARK H PARENT 62 18 64 20 66 22 57 33 53 35 55 37 44 48 40 50 42 52 18 63
REMARK H PARENT 14 65 16 67 31 78 27 80 29 82
REMARK Flexibility Score: inf
ROOT
ATOM      1  C   UNL     1      10.848  -0.469  15.572  1.00  0.00     0.205 C 
ATOM      2  C   UNL     1       9.344  -0.541  15.891  1.00  0.00     0.254 C 
ATOM      3  C   UNL     1       9.173  -1.470  17.099  1.00  0.00     0.267 C 
ATOM      4  C   UNL     1      10.006  -0.938  18.280  1.00  0.00     0.290 C 
ATOM      5  C   UNL     1      11.466  -0.714  17.826  1.00  0.00     0.357 C 
ATOM      6  O   UNL     1      11.551   0.105  16.666  1.00  0.00    -0.329 OA
ENDROOT
BRANCH   1   7
ATOM      7  C   UNL     1      11.138   0.349  14.300  1.00  0.00     0.269 C 
BRANCH   7   8
ATOM      8  O   UNL     1      11.174  -0.522  13.174  1.00  0.00    -0.459 OA
BRANCH   8   9
ATOM      9  C   UNL     1      10.929  -0.073  11.870  1.00  0.00     0.338 C 
ATOM     10  O   UNL     1      10.409   1.065  11.683  1.00  0.00    -0.246 OA
BRANCH   9  11
ATOM     11  C   UNL     1      11.246  -0.941  10.717  1.00  0.00     0.067 A 
ATOM     12  C   UNL     1      11.732  -0.385   9.526  1.00  0.00     0.066 A 
ATOM     13  C   UNL     1      11.987  -1.187   8.411  1.00  0.00     0.162 A 
ATOM     14  C   UNL     1      11.021  -2.331  10.788  1.00  0.00     0.066 A 
ATOM     15  C   UNL     1      11.726  -2.576   8.471  1.00  0.00     0.200 A 
ATOM     16  C   UNL     1      11.249  -3.140   9.669  1.00  0.00     0.162 A 
BRANCH  13  17
ATOM     17  O   UNL     1      12.507  -0.567   7.274  1.00  0.00    -0.504 OA
ATOM     18  H   UNL     1      13.306  -0.910   6.769  1.00  0.00     0.293 HD
ENDBRANCH  13  17
BRANCH  15  19
ATOM     19  O   UNL     1      11.923  -3.416   7.370  1.00  0.00    -0.502 OA
ATOM     20  H   UNL     1      12.799  -3.860   7.140  1.00  0.00     0.293 HD
ENDBRANCH  15  19
BRANCH  16  21
ATOM     21  O   UNL     1      10.989  -4.507   9.769  1.00  0.00    -0.504 OA
ATOM     22  H   UNL     1      11.422  -5.086  10.478  1.00  0.00     0.293 HD
ENDBRANCH  16  21
ENDBRANCH   9  11
ENDBRANCH   8   9
ENDBRANCH   7   8
ENDBRANCH   1   7
BRANCH   2  23
ATOM     23  O   UNL     1       8.845   0.754  16.228  1.00  0.00    -0.452 OA
BRANCH  23  24
ATOM     24  C   UNL     1       7.785   1.388  15.565  1.00  0.00     0.338 C 
ATOM     25  O   UNL     1       6.730   1.664  16.193  1.00  0.00    -0.246 OA
BRANCH  24  26
ATOM     26  C   UNL     1       7.927   1.742  14.135  1.00  0.00     0.067 A 
ATOM     27  C   UNL     1       8.113   3.079  13.739  1.00  0.00     0.066 A 
ATOM     28  C   UNL     1       7.821   0.747  13.150  1.00  0.00     0.066 A 
ATOM     29  C   UNL     1       8.177   3.418  12.377  1.00  0.00     0.162 A 
ATOM     30  C   UNL     1       7.895   1.078  11.793  1.00  0.00     0.162 A 
ATOM     31  C   UNL     1       8.071   2.413  11.401  1.00  0.00     0.200 A 
BRANCH  29  32
ATOM     32  O   UNL     1       8.340   4.746  11.992  1.00  0.00    -0.504 OA
ATOM     33  H   UNL     1       7.553   5.383  11.942  1.00  0.00     0.293 HD
ENDBRANCH  29  32
BRANCH  30  34
ATOM     34  O   UNL     1       7.783   0.062  10.847  1.00  0.00    -0.504 OA
ATOM     35  H   UNL     1       6.950  -0.513  10.768  1.00  0.00     0.293 HD
ENDBRANCH  30  34
BRANCH  31  36
ATOM     36  O   UNL     1       8.130   2.722  10.043  1.00  0.00    -0.502 OA
ATOM     37  H   UNL     1       7.531   2.277   9.360  1.00  0.00     0.293 HD
ENDBRANCH  31  36
ENDBRANCH  24  26
ENDBRANCH  23  24
ENDBRANCH   2  23
BRANCH   3  38
ATOM     38  O   UNL     1       7.794  -1.585  17.448  1.00  0.00    -0.450 OA
BRANCH  38  39
ATOM     39  C   UNL     1       7.241  -0.938  18.561  1.00  0.00     0.338 C 
ATOM     40  O   UNL     1       6.463  -1.563  19.333  1.00  0.00    -0.246 OA
BRANCH  39  41
ATOM     41  C   UNL     1       7.582   0.473  18.847  1.00  0.00     0.067 A 
ATOM     42  C   UNL     1       8.899   0.832  19.182  1.00  0.00     0.066 A 
ATOM     43  C   UNL     1       6.595   1.470  18.784  1.00  0.00     0.066 A 
ATOM     44  C   UNL     1       9.226   2.163  19.454  1.00  0.00     0.162 A 
ATOM     45  C   UNL     1       6.908   2.805  19.058  1.00  0.00     0.162 A 
ATOM     46  C   UNL     1       8.237   3.158  19.407  1.00  0.00     0.200 A 
BRANCH  44  47
ATOM     47  O   UNL     1      10.543   2.501  19.771  1.00  0.00    -0.504 OA
ATOM     48  H   UNL     1      11.101   1.935  20.406  1.00  0.00     0.293 HD
ENDBRANCH  44  47
BRANCH  45  49
ATOM     49  O   UNL     1       5.876   3.740  18.976  1.00  0.00    -0.504 OA
ATOM     50  H   UNL     1       5.649   4.398  19.707  1.00  0.00     0.293 HD
ENDBRANCH  45  49
BRANCH  46  51
ATOM     51  O   UNL     1       8.616   4.468  19.716  1.00  0.00    -0.502 OA
ATOM     52  H   UNL     1       8.685   5.210  19.028  1.00  0.00     0.293 HD
ENDBRANCH  46  51
ENDBRANCH  39  41
ENDBRANCH  38  39
ENDBRANCH   3  38
BRANCH   5  53
ATOM     53  O   UNL     1      12.121  -1.964  17.617  1.00  0.00    -0.428 OA
BRANCH  53  54
ATOM     54  C   UNL     1      12.931  -2.579  18.578  1.00  0.00     0.340 C 
ATOM     55  O   UNL     1      12.434  -3.354  19.435  1.00  0.00    -0.246 OA
BRANCH  54  56
ATOM     56  C   UNL     1      14.379  -2.316  18.576  1.00  0.00     0.067 A 
ATOM     57  C   UNL     1      14.916  -1.249  19.306  1.00  0.00     0.066 A 
ATOM     58  C   UNL     1      15.237  -3.149  17.849  1.00  0.00     0.066 A 
ATOM     59  C   UNL     1      16.297  -1.024  19.344  1.00  0.00     0.162 A 
ATOM     60  C   UNL     1      16.615  -2.926  17.849  1.00  0.00     0.162 A 
ATOM     61  C   UNL     1      17.164  -1.873  18.609  1.00  0.00     0.200 A 
BRANCH  59  62
ATOM     62  O   UNL     1      16.756   0.042  20.125  1.00  0.00    -0.504 OA
ATOM     63  H   UNL     1      16.150   0.657  20.657  1.00  0.00     0.293 HD
ENDBRANCH  59  62
BRANCH  60  64
ATOM     64  O   UNL     1      17.424  -3.762  17.079  1.00  0.00    -0.504 OA
ATOM     65  H   UNL     1      18.141  -3.396  16.462  1.00  0.00     0.293 HD
ENDBRANCH  60  64
BRANCH  61  66
ATOM     66  O   UNL     1      18.556  -1.703  18.614  1.00  0.00    -0.502 OA
ATOM     67  H   UNL     1      19.069  -1.248  19.357  1.00  0.00     0.293 HD
ENDBRANCH  61  66
ENDBRANCH  54  56
ENDBRANCH  53  54
ENDBRANCH   5  53
BRANCH   4  68
ATOM     68  O   UNL     1      10.012  -1.889  19.344  1.00  0.00    -0.448 OA
BRANCH  68  69
ATOM     69  C   UNL     1       8.896  -2.632  19.741  1.00  0.00     0.339 C 
ATOM     70  O   UNL     1       7.825  -2.047  20.064  1.00  0.00    -0.246 OA
BRANCH  69  71
ATOM     71  C   UNL     1       8.985  -4.106  19.793  1.00  0.00     0.067 A 
ATOM     72  C   UNL     1       7.837  -4.902  19.683  1.00  0.00     0.066 A 
ATOM     73  C   UNL     1      10.232  -4.733  19.949  1.00  0.00     0.066 A 
ATOM     74  C   UNL     1       7.928  -6.301  19.711  1.00  0.00     0.162 A 
ATOM     75  C   UNL     1      10.334  -6.127  19.975  1.00  0.00     0.162 A 
ATOM     76  C   UNL     1       9.182  -6.918  19.855  1.00  0.00     0.200 A 
BRANCH  74  77
ATOM     77  O   UNL     1       6.779  -7.082  19.586  1.00  0.00    -0.504 OA
ATOM     78  H   UNL     1       6.021  -6.815  18.966  1.00  0.00     0.293 HD
ENDBRANCH  74  77
BRANCH  75  79
ATOM     79  O   UNL     1      11.594  -6.711  20.118  1.00  0.00    -0.504 OA
ATOM     80  H   UNL     1      12.280  -6.363  20.774  1.00  0.00     0.293 HD
ENDBRANCH  75  79
BRANCH  76  81
ATOM     81  O   UNL     1       9.293  -8.310  19.881  1.00  0.00    -0.502 OA
ATOM     82  H   UNL     1       9.121  -8.852  20.714  1.00  0.00     0.293 HD
ENDBRANCH  76  81
ENDBRANCH  69  71
ENDBRANCH  68  69
ENDBRANCH   4  68
TORSDOF 31
ENDMDL
MODEL 2
REMARK VINA RESULT:    45.905      2.921      6.839
REMARK INTER + INTRA:         122.143
REMARK INTER:                 118.176
REMARK INTRA:                   3.967
REMARK UNBOUND:                13.173
REMARK SMILES O=C(OC[C@H]1O[C@H](OC(=O)c2cc(O)c(O)c(O)c2)[C@H](OC(=O)c2cc(O)c(O)c(O)c2)[C@@H](OC(=O)c2cc(O)c(O)c(O)c2)[C@H]1OC(=O)c1cc(O)c(O)c(O)c1)c1cc(O)c(O)c(O)c1
REMARK SMILES IDX 5 1 46 2 33 3 20 4 7 5 6 6 4 7 3 8 2 9 1 10 59 11 60 12
REMARK SMILES IDX 61 13 67 14 63 15 65 16 62 17 64 19 66 21 47 23 48 24 49 25
REMARK SMILES IDX 50 26 58 27 51 28 56 29 52 30 54 31 57 32 53 34 55 36 34 38
REMARK SMILES IDX 35 39 36 40 37 41 45 42 38 43 43 44 39 45 41 46 44 47 40 49
REMARK SMILES IDX 42 51 8 53 9 54 10 55 11 56 19 57 12 58 17 59 13 60 15 61
REMARK SMILES IDX 18 62 14 64 16 66 21 68 22 69 23 70 24 71 32 72 25 73 30 74
REMARK SMILES IDX 26 75 28 76 31 77 27 79 29 81
REMARK H PARENT 62 18 64 20 66 22 57 33 53 35 55 37 44 48 40 50 42 52 18 63
REMARK H PARENT 14 65 16 67 31 78 27 80 29 82
REMARK Flexibility Score: inf
ROOT
ATOM      1  C   UNL     1      10.357  -1.461  12.500  1.00  0.00     0.205 C 
ATOM      2  C   UNL     1       9.327  -0.859  11.527  1.00  0.00     0.254 C 
ATOM      3  C   UNL     1       8.203  -0.246  12.368  1.00  0.00     0.267 C 
ATOM      4  C   UNL     1       8.790   0.800  13.333  1.00  0.00     0.290 C 
ATOM      5  C   UNL     1       9.945   0.168  14.143  1.00  0.00     0.357 C 
ATOM      6  O   UNL     1      10.923  -0.437  13.306  1.00  0.00    -0.329 OA
ENDROOT
BRANCH   1   7
ATOM      7  C   UNL     1      11.485  -2.211  11.768  1.00  0.00     0.269 C 
BRANCH   7   8
ATOM      8  O   UNL     1      11.178  -2.293  10.380  1.00  0.00    -0.459 OA
BRANCH   8   9
ATOM      9  C   UNL     1      11.675  -3.316   9.561  1.00  0.00     0.338 C 
ATOM     10  O   UNL     1      11.834  -4.479  10.032  1.00  0.00    -0.246 OA
BRANCH   9  11
ATOM     11  C   UNL     1      12.041  -3.028   8.159  1.00  0.00     0.067 A 
ATOM     12  C   UNL     1      13.029  -2.077   7.869  1.00  0.00     0.066 A 
ATOM     13  C   UNL     1      13.350  -1.755   6.548  1.00  0.00     0.162 A 
ATOM     14  C   UNL     1      11.373  -3.672   7.099  1.00  0.00     0.066 A 
ATOM     15  C   UNL     1      12.652  -2.376   5.485  1.00  0.00     0.200 A 
ATOM     16  C   UNL     1      11.668  -3.339   5.772  1.00  0.00     0.162 A 
BRANCH  13  17
ATOM     17  O   UNL     1      14.371  -0.828   6.338  1.00  0.00    -0.504 OA
ATOM     18  H   UNL     1      14.212   0.157   6.206  1.00  0.00     0.293 HD
ENDBRANCH  13  17
BRANCH  15  19
ATOM     19  O   UNL     1      12.905  -2.058   4.147  1.00  0.00    -0.502 OA
ATOM     20  H   UNL     1      12.510  -1.266   3.664  1.00  0.00     0.293 HD
ENDBRANCH  15  19
BRANCH  16  21
ATOM     21  O   UNL     1      10.966  -3.979   4.751  1.00  0.00    -0.504 OA
ATOM     22  H   UNL     1      11.087  -4.964   4.550  1.00  0.00     0.293 HD
ENDBRANCH  16  21
ENDBRANCH   9  11
ENDBRANCH   8   9
ENDBRANCH   7   8
ENDBRANCH   1   7
BRANCH   2  23
ATOM     23  O   UNL     1       9.931   0.169  10.740  1.00  0.00    -0.452 OA
BRANCH  23  24
ATOM     24  C   UNL     1      10.533  -0.044   9.492  1.00  0.00     0.338 C 
ATOM     25  O   UNL     1      10.289  -1.099   8.852  1.00  0.00    -0.246 OA
BRANCH  24  26
ATOM     26  C   UNL     1      11.435   0.986   8.932  1.00  0.00     0.067 A 
ATOM     27  C   UNL     1      10.919   2.092   8.231  1.00  0.00     0.066 A 
ATOM     28  C   UNL     1      12.827   0.841   9.048  1.00  0.00     0.066 A 
ATOM     29  C   UNL     1      11.783   3.031   7.643  1.00  0.00     0.162 A 
ATOM     30  C   UNL     1      13.690   1.779   8.473  1.00  0.00     0.162 A 
ATOM     31  C   UNL     1      13.174   2.875   7.767  1.00  0.00     0.200 A 
BRANCH  29  32
ATOM     32  O   UNL     1      11.265   4.111   6.932  1.00  0.00    -0.504 OA
ATOM     33  H   UNL     1      10.834   4.897   7.404  1.00  0.00     0.293 HD
ENDBRANCH  29  32
BRANCH  30  34
ATOM     34  O   UNL     1      15.065   1.598   8.608  1.00  0.00    -0.504 OA
ATOM     35  H   UNL     1      15.527   1.626   9.512  1.00  0.00     0.293 HD
ENDBRANCH  30  34
BRANCH  31  36
ATOM     36  O   UNL     1      14.053   3.791   7.191  1.00  0.00    -0.502 OA
ATOM     37  H   UNL     1      14.742   3.520   6.502  1.00  0.00     0.293 HD
ENDBRANCH  31  36
ENDBRANCH  24  26
ENDBRANCH  23  24
ENDBRANCH   2  23
BRANCH   3  38
ATOM     38  O   UNL     1       7.207   0.331  11.524  1.00  0.00    -0.450 OA
BRANCH  38  39
ATOM     39  C   UNL     1       7.524   1.158  10.438  1.00  0.00     0.338 C 
ATOM     40  O   UNL     1       7.675   0.662   9.289  1.00  0.00    -0.246 OA
BRANCH  39  41
ATOM     41  C   UNL     1       7.663   2.619  10.632  1.00  0.00     0.067 A 
ATOM     42  C   UNL     1       6.712   3.501  10.089  1.00  0.00     0.066 A 
ATOM     43  C   UNL     1       8.743   3.139  11.363  1.00  0.00     0.066 A 
ATOM     44  C   UNL     1       6.840   4.881  10.268  1.00  0.00     0.162 A 
ATOM     45  C   UNL     1       8.884   4.518  11.547  1.00  0.00     0.162 A 
ATOM     46  C   UNL     1       7.928   5.404  10.985  1.00  0.00     0.200 A 
BRANCH  44  47
ATOM     47  O   UNL     1       5.878   5.740   9.733  1.00  0.00    -0.504 OA
ATOM     48  H   UNL     1       6.133   6.631   9.313  1.00  0.00     0.293 HD
ENDBRANCH  44  47
BRANCH  45  49
ATOM     49  O   UNL     1       9.982   4.962  12.284  1.00  0.00    -0.504 OA
ATOM     50  H   UNL     1      10.834   5.315  11.873  1.00  0.00     0.293 HD
ENDBRANCH  45  49
BRANCH  46  51
ATOM     51  O   UNL     1       8.019   6.793  11.109  1.00  0.00    -0.502 OA
ATOM     52  H   UNL     1       7.944   7.433  10.326  1.00  0.00     0.293 HD
ENDBRANCH  46  51
ENDBRANCH  39  41
ENDBRANCH  38  39
ENDBRANCH   3  38
BRANCH   5  53
ATOM     53  O   UNL     1       9.435  -0.770  15.090  1.00  0.00    -0.428 OA
BRANCH  53  54
ATOM     54  C   UNL     1       9.401  -0.529  16.468  1.00  0.00     0.340 C 
ATOM     55  O   UNL     1       8.311  -0.299  17.052  1.00  0.00    -0.246 OA
BRANCH  54  56
ATOM     56  C   UNL     1      10.656  -0.554  17.236  1.00  0.00     0.067 A 
ATOM     57  C   UNL     1      11.058   0.557  17.989  1.00  0.00     0.066 A 
ATOM     58  C   UNL     1      11.454  -1.703  17.231  1.00  0.00     0.066 A 
ATOM     59  C   UNL     1      12.228   0.521  18.758  1.00  0.00     0.162 A 
ATOM     60  C   UNL     1      12.638  -1.751  17.967  1.00  0.00     0.162 A 
ATOM     61  C   UNL     1      13.032  -0.648  18.753  1.00  0.00     0.200 A 
BRANCH  59  62
ATOM     62  O   UNL     1      12.541   1.658  19.509  1.00  0.00    -0.504 OA
ATOM     63  H   UNL     1      12.447   1.716  20.517  1.00  0.00     0.293 HD
ENDBRANCH  59  62
BRANCH  60  64
ATOM     64  O   UNL     1      13.417  -2.907  17.899  1.00  0.00    -0.504 OA
ATOM     65  H   UNL     1      13.713  -3.405  18.733  1.00  0.00     0.293 HD
ENDBRANCH  60  64
BRANCH  61  66
ATOM     66  O   UNL     1      14.209  -0.748  19.509  1.00  0.00    -0.502 OA
ATOM     67  H   UNL     1      14.310  -0.393  20.450  1.00  0.00     0.293 HD
ENDBRANCH  61  66
ENDBRANCH  54  56
ENDBRANCH  53  54
ENDBRANCH   5  53
BRANCH   4  68
ATOM     68  O   UNL     1       7.791   1.238  14.252  1.00  0.00    -0.448 OA
BRANCH  68  69
ATOM     69  C   UNL     1       7.585   2.573  14.613  1.00  0.00     0.339 C 
ATOM     70  O   UNL     1       7.479   3.463  13.724  1.00  0.00    -0.246 OA
BRANCH  69  71
ATOM     71  C   UNL     1       7.509   2.936  16.044  1.00  0.00     0.067 A 
ATOM     72  C   UNL     1       7.168   1.983  17.012  1.00  0.00     0.066 A 
ATOM     73  C   UNL     1       7.787   4.250  16.454  1.00  0.00     0.066 A 
ATOM     74  C   UNL     1       7.118   2.327  18.371  1.00  0.00     0.162 A 
ATOM     75  C   UNL     1       7.743   4.602  17.806  1.00  0.00     0.162 A 
ATOM     76  C   UNL     1       7.409   3.641  18.772  1.00  0.00     0.200 A 
BRANCH  74  77
ATOM     77  O   UNL     1       6.790   1.364  19.327  1.00  0.00    -0.504 OA
ATOM     78  H   UNL     1       7.147   1.416  20.275  1.00  0.00     0.293 HD
ENDBRANCH  74  77
BRANCH  75  79
ATOM     79  O   UNL     1       8.038   5.916  18.174  1.00  0.00    -0.504 OA
ATOM     80  H   UNL     1       7.580   6.712  17.750  1.00  0.00     0.293 HD
ENDBRANCH  75  79
BRANCH  76  81
ATOM     81  O   UNL     1       7.368   4.001  20.120  1.00  0.00    -0.502 OA
ATOM     82  H   UNL     1       6.516   3.987  20.660  1.00  0.00     0.293 HD
ENDBRANCH  76  81
ENDBRANCH  69  71
ENDBRANCH  68  69
ENDBRANCH   4  68
TORSDOF 31
ENDMDL
