MODEL 1
REMARK VINA RESULT:    -4.624      0.000      0.000
REMARK INTER + INTRA:          -5.716
REMARK INTER:                  -5.570
REMARK INTRA:                  -0.147
REMARK UNBOUND:                -0.147
REMARK SMILES [NH3+][C@@H](Cc1cnc[nH]1)C(=O)[O-]
REMARK SMILES IDX 3 1 2 2 1 3 9 7 10 8 11 9 4 10 5 11 8 12 6 13 7 14
REMARK H PARENT 1 4 1 5 1 6 8 15
REMARK Flexibility Score: inf
ROOT
ATOM      1  C   UNL     1     -19.147  -8.370  43.844  1.00  0.00     0.127 C 
ENDROOT
BRANCH   1   2
ATOM      2  C   UNL     1     -20.474  -7.743  43.364  1.00  0.00     0.233 C 
BRANCH   2   3
ATOM      3  N   UNL     1     -20.838  -6.563  44.160  1.00  0.00    -0.350 N 
ATOM      4  H   UNL     1     -21.848  -6.617  44.426  1.00  0.00     0.345 HD
ATOM      5  H   UNL     1     -20.262  -6.501  45.031  1.00  0.00     0.345 HD
ATOM      6  H   UNL     1     -20.694  -5.695  43.594  1.00  0.00     0.345 HD
ENDBRANCH   2   3
BRANCH   2   7
ATOM      7  C   UNL     1     -21.589  -8.758  43.352  1.00  0.00     0.099 C 
ATOM      8  O   UNL     1     -21.328  -9.980  43.505  1.00  0.00    -0.544 OA
ATOM      9  O   UNL     1     -22.913  -8.354  43.226  1.00  0.00    -0.544 OA
ENDBRANCH   2   7
ENDBRANCH   1   2
BRANCH   1  10
ATOM     10  C   UNL     1     -17.994  -8.101  42.918  1.00  0.00     0.041 A 
ATOM     11  C   UNL     1     -17.571  -8.900  41.881  1.00  0.00     0.134 A 
ATOM     12  N   UNL     1     -17.229  -6.998  42.951  1.00  0.00    -0.348 N 
ATOM     13  N   UNL     1     -16.533  -8.304  41.260  1.00  0.00    -0.245 NA
ATOM     14  C   UNL     1     -16.354  -7.150  41.939  1.00  0.00     0.196 A 
ATOM     15  H   UNL     1     -17.299  -6.193  43.612  1.00  0.00     0.167 HD
ENDBRANCH   1  10
TORSDOF 4
ENDMDL
MODEL 2
REMARK VINA RESULT:    -4.605      3.319      4.848
REMARK INTER + INTRA:          -5.694
REMARK INTER:                  -5.523
REMARK INTRA:                  -0.171
REMARK UNBOUND:                -0.147
REMARK SMILES [NH3+][C@@H](Cc1cnc[nH]1)C(=O)[O-]
REMARK SMILES IDX 3 1 2 2 1 3 9 7 10 8 11 9 4 10 5 11 8 12 6 13 7 14
REMARK H PARENT 1 4 1 5 1 6 8 15
REMARK Flexibility Score: inf
ROOT
ATOM      1  C   UNL     1     -17.448  -9.290  43.831  1.00  0.00     0.127 C 
ENDROOT
BRANCH   1   2
ATOM      2  C   UNL     1     -16.838 -10.229  42.769  1.00  0.00     0.233 C 
BRANCH   2   3
ATOM      3  N   UNL     1     -16.264 -11.438  43.376  1.00  0.00    -0.350 N 
ATOM      4  H   UNL     1     -16.774 -11.661  44.262  1.00  0.00     0.345 HD
ATOM      5  H   UNL     1     -16.336 -12.257  42.730  1.00  0.00     0.345 HD
ATOM      6  H   UNL     1     -15.258 -11.275  43.609  1.00  0.00     0.345 HD
ENDBRANCH   2   3
BRANCH   2   7
ATOM      7  C   UNL     1     -15.822  -9.511  41.917  1.00  0.00     0.099 C 
ATOM      8  O   UNL     1     -14.618  -9.878  41.934  1.00  0.00    -0.544 OA
ATOM      9  O   UNL     1     -16.209  -8.479  41.071  1.00  0.00    -0.544 OA
ENDBRANCH   2   7
ENDBRANCH   1   2
BRANCH   1  10
ATOM     10  C   UNL     1     -18.846  -8.849  43.503  1.00  0.00     0.041 A 
ATOM     11  C   UNL     1     -19.747  -9.508  42.698  1.00  0.00     0.134 A 
ATOM     12  N   UNL     1     -19.436  -7.748  43.996  1.00  0.00    -0.348 N 
ATOM     13  N   UNL     1     -20.906  -8.820  42.678  1.00  0.00    -0.245 NA
ATOM     14  C   UNL     1     -20.679  -7.756  43.478  1.00  0.00     0.196 A 
ATOM     15  H   UNL     1     -19.025  -7.041  44.645  1.00  0.00     0.167 HD
ENDBRANCH   1  10
TORSDOF 4
ENDMDL
MODEL 3
REMARK VINA RESULT:    -4.589      4.793      5.656
REMARK INTER + INTRA:          -5.674
REMARK INTER:                  -5.500
REMARK INTRA:                  -0.174
REMARK UNBOUND:                -0.147
REMARK SMILES [NH3+][C@@H](Cc1cnc[nH]1)C(=O)[O-]
REMARK SMILES IDX 3 1 2 2 1 3 9 7 10 8 11 9 4 10 5 11 8 12 6 13 7 14
REMARK H PARENT 1 4 1 5 1 6 8 15
REMARK Flexibility Score: inf
ROOT
ATOM      1  C   UNL     1     -18.005 -13.315  42.490  1.00  0.00     0.127 C 
ENDROOT
BRANCH   1   2
ATOM      2  C   UNL     1     -18.204 -14.436  43.533  1.00  0.00     0.233 C 
BRANCH   2   3
ATOM      3  N   UNL     1     -17.631 -15.710  43.079  1.00  0.00    -0.350 N 
ATOM      4  H   UNL     1     -17.194 -16.206  43.890  1.00  0.00     0.345 HD
ATOM      5  H   UNL     1     -18.363 -16.328  42.661  1.00  0.00     0.345 HD
ATOM      6  H   UNL     1     -16.888 -15.531  42.366  1.00  0.00     0.345 HD
ENDBRANCH   2   3
BRANCH   2   7
ATOM      7  C   UNL     1     -19.658 -14.593  43.901  1.00  0.00     0.099 C 
ATOM      8  O   UNL     1     -20.005 -15.482  44.722  1.00  0.00    -0.544 OA
ATOM      9  O   UNL     1     -20.618 -13.731  43.383  1.00  0.00    -0.544 OA
ENDBRANCH   2   7
ENDBRANCH   1   2
BRANCH   1  10
ATOM     10  C   UNL     1     -17.524 -12.024  43.089  1.00  0.00     0.041 A 
ATOM     11  C   UNL     1     -18.307 -11.009  43.588  1.00  0.00     0.134 A 
ATOM     12  N   UNL     1     -16.234 -11.697  43.264  1.00  0.00    -0.348 N 
ATOM     13  N   UNL     1     -17.512 -10.035  44.073  1.00  0.00    -0.245 NA
ATOM     14  C   UNL     1     -16.258 -10.489  43.859  1.00  0.00     0.196 A 
ATOM     15  H   UNL     1     -15.393 -12.256  43.002  1.00  0.00     0.167 HD
ENDBRANCH   1  10
TORSDOF 4
ENDMDL
MODEL 4
REMARK VINA RESULT:    -4.512      2.834      4.682
REMARK INTER + INTRA:          -5.581
REMARK INTER:                  -5.448
REMARK INTRA:                  -0.133
REMARK UNBOUND:                -0.147
REMARK SMILES [NH3+][C@@H](Cc1cnc[nH]1)C(=O)[O-]
REMARK SMILES IDX 3 1 2 2 1 3 9 7 10 8 11 9 4 10 5 11 8 12 6 13 7 14
REMARK H PARENT 1 4 1 5 1 6 8 15
REMARK Flexibility Score: inf
ROOT
ATOM      1  C   UNL     1     -18.875  -8.735  43.695  1.00  0.00     0.127 C 
ENDROOT
BRANCH   1   2
ATOM      2  C   UNL     1     -17.712  -7.903  43.115  1.00  0.00     0.233 C 
BRANCH   2   3
ATOM      3  N   UNL     1     -17.389  -8.303  41.739  1.00  0.00    -0.350 N 
ATOM      4  H   UNL     1     -18.261  -8.308  41.161  1.00  0.00     0.345 HD
ATOM      5  H   UNL     1     -16.700  -7.647  41.305  1.00  0.00     0.345 HD
ATOM      6  H   UNL     1     -16.988  -9.269  41.734  1.00  0.00     0.345 HD
ENDBRANCH   2   3
BRANCH   2   7
ATOM      7  C   UNL     1     -16.494  -7.967  44.002  1.00  0.00     0.099 C 
ATOM      8  O   UNL     1     -16.171  -9.055  44.547  1.00  0.00    -0.544 OA
ATOM      9  O   UNL     1     -15.690  -6.848  44.183  1.00  0.00    -0.544 OA
ENDBRANCH   2   7
ENDBRANCH   1   2
BRANCH   1  10
ATOM     10  C   UNL     1     -20.228  -8.151  43.402  1.00  0.00     0.041 A 
ATOM     11  C   UNL     1     -21.406  -8.845  43.246  1.00  0.00     0.134 A 
ATOM     12  N   UNL     1     -20.486  -6.838  43.292  1.00  0.00    -0.348 N 
ATOM     13  N   UNL     1     -22.409  -7.970  43.032  1.00  0.00    -0.245 NA
ATOM     14  C   UNL     1     -21.811  -6.760  43.067  1.00  0.00     0.196 A 
ATOM     15  H   UNL     1     -19.809  -6.046  43.370  1.00  0.00     0.167 HD
ENDBRANCH   1  10
TORSDOF 4
ENDMDL
MODEL 5
REMARK VINA RESULT:    -4.507      4.970      6.088
REMARK INTER + INTRA:          -5.576
REMARK INTER:                  -5.443
REMARK INTRA:                  -0.133
REMARK UNBOUND:                -0.147
REMARK SMILES [NH3+][C@@H](Cc1cnc[nH]1)C(=O)[O-]
REMARK SMILES IDX 3 1 2 2 1 3 9 7 10 8 11 9 4 10 5 11 8 12 6 13 7 14
REMARK H PARENT 1 4 1 5 1 6 8 15
REMARK Flexibility Score: inf
ROOT
ATOM      1  C   UNL     1     -17.713 -11.233  42.964  1.00  0.00     0.127 C 
ENDROOT
BRANCH   1   2
ATOM      2  C   UNL     1     -16.265 -10.819  43.302  1.00  0.00     0.233 C 
BRANCH   2   3
ATOM      3  N   UNL     1     -16.167 -10.230  44.645  1.00  0.00    -0.350 N 
ATOM      4  H   UNL     1     -15.370  -9.552  44.673  1.00  0.00     0.345 HD
ATOM      5  H   UNL     1     -17.046  -9.727  44.903  1.00  0.00     0.345 HD
ATOM      6  H   UNL     1     -15.983 -10.980  45.349  1.00  0.00     0.345 HD
ENDBRANCH   2   3
BRANCH   2   7
ATOM      7  C   UNL     1     -15.699  -9.891  42.257  1.00  0.00     0.099 C 
ATOM      8  O   UNL     1     -14.470  -9.926  41.986  1.00  0.00    -0.544 OA
ATOM      9  O   UNL     1     -16.530  -9.030  41.548  1.00  0.00    -0.544 OA
ENDBRANCH   2   7
ENDBRANCH   1   2
BRANCH   1  10
ATOM     10  C   UNL     1     -17.985 -12.692  43.200  1.00  0.00     0.041 A 
ATOM     11  C   UNL     1     -19.213 -13.275  43.410  1.00  0.00     0.134 A 
ATOM     12  N   UNL     1     -17.048 -13.654  43.194  1.00  0.00    -0.348 N 
ATOM     13  N   UNL     1     -19.053 -14.606  43.543  1.00  0.00    -0.245 NA
ATOM     14  C   UNL     1     -17.723 -14.799  43.406  1.00  0.00     0.196 A 
ATOM     15  H   UNL     1     -16.020 -13.542  43.051  1.00  0.00     0.167 HD
ENDBRANCH   1  10
TORSDOF 4
ENDMDL
MODEL 6
REMARK VINA RESULT:    -4.457      3.839      4.909
REMARK INTER + INTRA:          -5.516
REMARK INTER:                  -5.358
REMARK INTRA:                  -0.158
REMARK UNBOUND:                -0.147
REMARK SMILES [NH3+][C@@H](Cc1cnc[nH]1)C(=O)[O-]
REMARK SMILES IDX 3 1 2 2 1 3 9 7 10 8 11 9 4 10 5 11 8 12 6 13 7 14
REMARK H PARENT 1 4 1 5 1 6 8 15
REMARK Flexibility Score: inf
ROOT
ATOM      1  C   UNL     1     -17.230  -9.494  42.478  1.00  0.00     0.127 C 
ENDROOT
BRANCH   1   2
ATOM      2  C   UNL     1     -17.477  -8.403  43.542  1.00  0.00     0.233 C 
BRANCH   2   3
ATOM      3  N   UNL     1     -18.155  -7.230  42.973  1.00  0.00    -0.350 N 
ATOM      4  H   UNL     1     -19.187  -7.312  43.129  1.00  0.00     0.345 HD
ATOM      5  H   UNL     1     -17.816  -6.345  43.414  1.00  0.00     0.345 HD
ATOM      6  H   UNL     1     -17.983  -7.186  41.942  1.00  0.00     0.345 HD
ENDBRANCH   2   3
BRANCH   2   7
ATOM      7  C   UNL     1     -16.197  -8.009  44.235  1.00  0.00     0.099 C 
ATOM      8  O   UNL     1     -15.785  -6.822  44.164  1.00  0.00    -0.544 OA
ATOM      9  O   UNL     1     -15.490  -8.932  44.997  1.00  0.00    -0.544 OA
ENDBRANCH   2   7
ENDBRANCH   1   2
BRANCH   1  10
ATOM     10  C   UNL     1     -17.716 -10.853  42.896  1.00  0.00     0.041 A 
ATOM     11  C   UNL     1     -18.855 -11.131  43.616  1.00  0.00     0.134 A 
ATOM     12  N   UNL     1     -17.115 -12.010  42.577  1.00  0.00    -0.348 N 
ATOM     13  N   UNL     1     -18.971 -12.467  43.759  1.00  0.00    -0.245 NA
ATOM     14  C   UNL     1     -17.895 -12.967  43.114  1.00  0.00     0.196 A 
ATOM     15  H   UNL     1     -16.237 -12.143  42.028  1.00  0.00     0.167 HD
ENDBRANCH   1  10
TORSDOF 4
ENDMDL
MODEL 7
REMARK VINA RESULT:    -4.365      3.168      4.687
REMARK INTER + INTRA:          -5.405
REMARK INTER:                  -5.225
REMARK INTRA:                  -0.180
REMARK UNBOUND:                -0.147
REMARK SMILES [NH3+][C@@H](Cc1cnc[nH]1)C(=O)[O-]
REMARK SMILES IDX 3 1 2 2 1 3 9 7 10 8 11 9 4 10 5 11 8 12 6 13 7 14
REMARK H PARENT 1 4 1 5 1 6 8 15
REMARK Flexibility Score: inf
ROOT
ATOM      1  C   UNL     1     -16.860  -8.655  41.708  1.00  0.00     0.127 C 
ENDROOT
BRANCH   1   2
ATOM      2  C   UNL     1     -15.694  -9.214  42.550  1.00  0.00     0.233 C 
BRANCH   2   3
ATOM      3  N   UNL     1     -15.580 -10.673  42.423  1.00  0.00    -0.350 N 
ATOM      4  H   UNL     1     -16.375 -11.132  42.927  1.00  0.00     0.345 HD
ATOM      5  H   UNL     1     -15.601 -10.969  41.420  1.00  0.00     0.345 HD
ATOM      6  H   UNL     1     -14.687 -10.999  42.857  1.00  0.00     0.345 HD
ENDBRANCH   2   3
BRANCH   2   7
ATOM      7  C   UNL     1     -15.811  -8.800  43.996  1.00  0.00     0.099 C 
ATOM      8  O   UNL     1     -15.908  -9.677  44.893  1.00  0.00    -0.544 OA
ATOM      9  O   UNL     1     -15.760  -7.458  44.355  1.00  0.00    -0.544 OA
ENDBRANCH   2   7
ENDBRANCH   1   2
BRANCH   1  10
ATOM     10  C   UNL     1     -18.173  -8.652  42.437  1.00  0.00     0.041 A 
ATOM     11  C   UNL     1     -19.013  -9.726  42.620  1.00  0.00     0.134 A 
ATOM     12  N   UNL     1     -18.697  -7.586  43.063  1.00  0.00    -0.348 N 
ATOM     13  N   UNL     1     -20.073  -9.338  43.357  1.00  0.00    -0.245 NA
ATOM     14  C   UNL     1     -19.846  -8.030  43.607  1.00  0.00     0.196 A 
ATOM     15  H   UNL     1     -18.301  -6.622  43.121  1.00  0.00     0.167 HD
ENDBRANCH   1  10
TORSDOF 4
ENDMDL
MODEL 8
REMARK VINA RESULT:    -4.362      6.737      7.745
REMARK INTER + INTRA:          -5.401
REMARK INTER:                  -5.260
REMARK INTRA:                  -0.140
REMARK UNBOUND:                -0.147
REMARK SMILES [NH3+][C@@H](Cc1cnc[nH]1)C(=O)[O-]
REMARK SMILES IDX 3 1 2 2 1 3 9 7 10 8 11 9 4 10 5 11 8 12 6 13 7 14
REMARK H PARENT 1 4 1 5 1 6 8 15
REMARK Flexibility Score: inf
ROOT
ATOM      1  C   UNL     1     -19.200 -14.077  44.499  1.00  0.00     0.127 C 
ENDROOT
BRANCH   1   2
ATOM      2  C   UNL     1     -18.341 -13.726  43.265  1.00  0.00     0.233 C 
BRANCH   2   3
ATOM      3  N   UNL     1     -17.014 -14.353  43.329  1.00  0.00    -0.350 N 
ATOM      4  H   UNL     1     -16.353 -13.838  42.702  1.00  0.00     0.345 HD
ATOM      5  H   UNL     1     -16.634 -14.339  44.303  1.00  0.00     0.345 HD
ATOM      6  H   UNL     1     -17.073 -15.343  43.000  1.00  0.00     0.345 HD
ENDBRANCH   2   3
BRANCH   2   7
ATOM      7  C   UNL     1     -18.231 -12.234  43.077  1.00  0.00     0.099 C 
ATOM      8  O   UNL     1     -17.176 -11.737  42.603  1.00  0.00    -0.544 OA
ATOM      9  O   UNL     1     -19.304 -11.401  43.374  1.00  0.00    -0.544 OA
ENDBRANCH   2   7
ENDBRANCH   1   2
BRANCH   1  10
ATOM     10  C   UNL     1     -20.068 -15.286  44.295  1.00  0.00     0.041 A 
ATOM     11  C   UNL     1     -20.635 -15.699  43.111  1.00  0.00     0.134 A 
ATOM     12  N   UNL     1     -20.380 -16.173  45.253  1.00  0.00    -0.348 N 
ATOM     13  N   UNL     1     -21.311 -16.845  43.322  1.00  0.00    -0.245 NA
ATOM     14  C   UNL     1     -21.134 -17.102  44.637  1.00  0.00     0.196 A 
ATOM     15  H   UNL     1     -20.098 -16.151  46.258  1.00  0.00     0.167 HD
ENDBRANCH   1  10
TORSDOF 4
ENDMDL
MODEL 9
REMARK VINA RESULT:    -4.343      3.657      4.301
REMARK INTER + INTRA:          -5.378
REMARK INTER:                  -5.207
REMARK INTRA:                  -0.171
REMARK UNBOUND:                -0.147
REMARK SMILES [NH3+][C@@H](Cc1cnc[nH]1)C(=O)[O-]
REMARK SMILES IDX 3 1 2 2 1 3 9 7 10 8 11 9 4 10 5 11 8 12 6 13 7 14
REMARK H PARENT 1 4 1 5 1 6 8 15
REMARK Flexibility Score: inf
ROOT
ATOM      1  C   UNL     1     -18.302 -10.492  43.708  1.00  0.00     0.127 C 
ENDROOT
BRANCH   1   2
ATOM      2  C   UNL     1     -19.181  -9.820  42.632  1.00  0.00     0.233 C 
BRANCH   2   3
ATOM      3  N   UNL     1     -18.427  -8.827  41.854  1.00  0.00    -0.350 N 
ATOM      4  H   UNL     1     -19.067  -8.354  41.175  1.00  0.00     0.345 HD
ATOM      5  H   UNL     1     -18.000  -8.104  42.476  1.00  0.00     0.345 HD
ATOM      6  H   UNL     1     -17.669  -9.302  41.312  1.00  0.00     0.345 HD
ENDBRANCH   2   3
BRANCH   2   7
ATOM      7  C   UNL     1     -20.423  -9.212  43.234  1.00  0.00     0.099 C 
ATOM      8  O   UNL     1     -20.496  -7.965  43.393  1.00  0.00    -0.544 OA
ATOM      9  O   UNL     1     -21.511 -10.009  43.570  1.00  0.00    -0.544 OA
ENDBRANCH   2   7
ENDBRANCH   1   2
BRANCH   1  10
ATOM     10  C   UNL     1     -18.239 -11.987  43.576  1.00  0.00     0.041 A 
ATOM     11  C   UNL     1     -19.232 -12.882  43.901  1.00  0.00     0.134 A 
ATOM     12  N   UNL     1     -17.197 -12.666  43.070  1.00  0.00    -0.348 N 
ATOM     13  N   UNL     1     -18.816 -14.130  43.607  1.00  0.00    -0.245 NA
ATOM     14  C   UNL     1     -17.574 -13.958  43.104  1.00  0.00     0.196 A 
ATOM     15  H   UNL     1     -16.292 -12.279  42.722  1.00  0.00     0.167 HD
ENDBRANCH   1  10
TORSDOF 4
ENDMDL
