MODEL 1
REMARK VINA RESULT:    -4.773      0.000      0.000
REMARK INTER + INTRA:          -7.297
REMARK INTER:                  -6.447
REMARK INTRA:                  -0.851
REMARK UNBOUND:                -0.851
REMARK SMILES CC(=O)CCC=C(C)CCC=C(C)C
REMARK SMILES IDX 7 1 6 2 8 3 9 4 10 5 11 6 13 7 12 8 14 9 5 10 4 11 2 12 3 13
REMARK SMILES IDX 1 14
REMARK H PARENT
REMARK Flexibility Score: inf
ROOT
ATOM      1  C   UNL     1       2.361  10.696  11.189  1.00  0.00    -0.077 C 
ATOM      2  C   UNL     1       1.811  11.470  10.226  1.00  0.00    -0.028 C 
ATOM      3  C   UNL     1       2.185   9.195  11.205  1.00  0.00     0.039 C 
ENDROOT
BRANCH   1   4
ATOM      4  C   UNL     1       3.160  11.354  12.296  1.00  0.00     0.034 C 
BRANCH   4   5
ATOM      5  C   UNL     1       3.797  10.319  13.235  1.00  0.00     0.032 C 
BRANCH   5   6
ATOM      6  C   UNL     1       3.155  10.334  14.603  1.00  0.00    -0.028 C 
ATOM      7  C   UNL     1       1.960   9.440  16.553  1.00  0.00     0.039 C 
ATOM      8  C   UNL     1       2.610   9.255  15.207  1.00  0.00    -0.080 C 
ATOM      9  C   UNL     1       2.653   7.880  14.583  1.00  0.00     0.039 C 
ENDBRANCH   5   6
ENDBRANCH   4   5
ENDBRANCH   1   4
BRANCH   2  10
ATOM     10  C   UNL     1       1.019  10.943   9.055  1.00  0.00     0.035 C 
BRANCH  10  11
ATOM     11  C   UNL     1       1.718  11.277   7.734  1.00  0.00     0.079 C 
BRANCH  11  12
ATOM     12  C   UNL     1       2.628  10.154   7.313  1.00  0.00     0.130 C 
ATOM     13  O   UNL     1       3.712  10.409   6.810  1.00  0.00    -0.300 OA
ATOM     14  C   UNL     1       2.203   8.727   7.483  1.00  0.00     0.087 C 
ENDBRANCH  11  12
ENDBRANCH  10  11
ENDBRANCH   2  10
TORSDOF 6
ENDMDL
MODEL 2
REMARK VINA RESULT:    -4.526      2.641      6.330
REMARK INTER + INTRA:          -6.965
REMARK INTER:                  -6.082
REMARK INTRA:                  -0.882
REMARK UNBOUND:                -0.851
REMARK SMILES CC(=O)CCC=C(C)CCC=C(C)C
REMARK SMILES IDX 7 1 6 2 8 3 9 4 10 5 11 6 13 7 12 8 14 9 5 10 4 11 2 12 3 13
REMARK SMILES IDX 1 14
REMARK H PARENT
REMARK Flexibility Score: inf
ROOT
ATOM      1  C   UNL     1       2.438  10.713  11.437  1.00  0.00    -0.077 C 
ATOM      2  C   UNL     1       2.253   9.390  11.651  1.00  0.00    -0.028 C 
ATOM      3  C   UNL     1       3.449  11.516  12.223  1.00  0.00     0.039 C 
ENDROOT
BRANCH   1   4
ATOM      4  C   UNL     1       1.594  11.416  10.393  1.00  0.00     0.034 C 
BRANCH   4   5
ATOM      5  C   UNL     1       1.027  10.432   9.358  1.00  0.00     0.032 C 
BRANCH   5   6
ATOM      6  C   UNL     1       1.905  10.339   8.132  1.00  0.00    -0.028 C 
ATOM      7  C   UNL     1       3.392   9.284   6.487  1.00  0.00     0.039 C 
ATOM      8  C   UNL     1       2.502   9.207   7.700  1.00  0.00    -0.080 C 
ATOM      9  C   UNL     1       2.286   7.876   8.381  1.00  0.00     0.039 C 
ENDBRANCH   5   6
ENDBRANCH   4   5
ENDBRANCH   1   4
BRANCH   2  10
ATOM     10  C   UNL     1       3.044   8.566  12.636  1.00  0.00     0.035 C 
BRANCH  10  11
ATOM     11  C   UNL     1       2.392   8.603  14.021  1.00  0.00     0.079 C 
BRANCH  11  12
ATOM     12  C   UNL     1       3.289   9.290  15.014  1.00  0.00     0.130 C 
ATOM     13  O   UNL     1       2.804  10.026  15.862  1.00  0.00    -0.300 OA
ATOM     14  C   UNL     1       4.774   9.099  14.957  1.00  0.00     0.087 C 
ENDBRANCH  11  12
ENDBRANCH  10  11
ENDBRANCH   2  10
TORSDOF 6
ENDMDL
MODEL 3
REMARK VINA RESULT:    -4.451     10.526     12.679
REMARK INTER + INTRA:          -6.862
REMARK INTER:                  -5.939
REMARK INTRA:                  -0.923
REMARK UNBOUND:                -0.851
REMARK SMILES CC(=O)CCC=C(C)CCC=C(C)C
REMARK SMILES IDX 7 1 6 2 8 3 9 4 10 5 11 6 13 7 12 8 14 9 5 10 4 11 2 12 3 13
REMARK SMILES IDX 1 14
REMARK H PARENT
REMARK Flexibility Score: inf
ROOT
ATOM      1  C   UNL     1       4.133  21.407   5.081  1.00  0.00    -0.077 C 
ATOM      2  C   UNL     1       3.107  21.542   4.210  1.00  0.00    -0.028 C 
ATOM      3  C   UNL     1       5.428  20.732   4.691  1.00  0.00     0.039 C 
ENDROOT
BRANCH   1   4
ATOM      4  C   UNL     1       3.974  21.931   6.494  1.00  0.00     0.034 C 
BRANCH   4   5
ATOM      5  C   UNL     1       3.954  20.796   7.527  1.00  0.00     0.032 C 
BRANCH   5   6
ATOM      6  C   UNL     1       2.798  19.850   7.299  1.00  0.00    -0.028 C 
ATOM      7  C   UNL     1       1.668  17.779   6.619  1.00  0.00     0.039 C 
ATOM      8  C   UNL     1       2.921  18.583   6.845  1.00  0.00    -0.080 C 
ATOM      9  C   UNL     1       4.268  17.954   6.581  1.00  0.00     0.039 C 
ENDBRANCH   5   6
ENDBRANCH   4   5
ENDBRANCH   1   4
BRANCH   2  10
ATOM     10  C   UNL     1       3.144  21.093   2.771  1.00  0.00     0.035 C 
BRANCH  10  11
ATOM     11  C   UNL     1       3.807  22.154   1.889  1.00  0.00     0.079 C 
BRANCH  11  12
ATOM     12  C   UNL     1       4.762  21.518   0.915  1.00  0.00     0.130 C 
ATOM     13  O   UNL     1       5.346  22.213   0.096  1.00  0.00    -0.300 OA
ATOM     14  C   UNL     1       4.983  20.036   0.926  1.00  0.00     0.087 C 
ENDBRANCH  11  12
ENDBRANCH  10  11
ENDBRANCH   2  10
TORSDOF 6
ENDMDL
MODEL 4
REMARK VINA RESULT:    -4.415     12.266     15.055
REMARK INTER + INTRA:          -6.814
REMARK INTER:                  -6.096
REMARK INTRA:                  -0.717
REMARK UNBOUND:                -0.851
REMARK SMILES CC(=O)CCC=C(C)CCC=C(C)C
REMARK SMILES IDX 7 1 6 2 8 3 9 4 10 5 11 6 13 7 12 8 14 9 5 10 4 11 2 12 3 13
REMARK SMILES IDX 1 14
REMARK H PARENT
REMARK Flexibility Score: inf
ROOT
ATOM      1  C   UNL     1       4.119  21.095   6.260  1.00  0.00    -0.077 C 
ATOM      2  C   UNL     1       4.193  22.405   5.932  1.00  0.00    -0.028 C 
ATOM      3  C   UNL     1       3.444  20.626   7.528  1.00  0.00     0.039 C 
ENDROOT
BRANCH   1   4
ATOM      4  C   UNL     1       4.748  20.068   5.340  1.00  0.00     0.034 C 
BRANCH   4   5
ATOM      5  C   UNL     1       5.849  20.683   4.463  1.00  0.00     0.032 C 
BRANCH   5   6
ATOM      6  C   UNL     1       5.816  20.135   3.056  1.00  0.00    -0.028 C 
ATOM      7  C   UNL     1       5.058  19.912   0.731  1.00  0.00     0.039 C 
ATOM      8  C   UNL     1       5.013  20.597   2.071  1.00  0.00    -0.080 C 
ATOM      9  C   UNL     1       4.098  21.781   2.273  1.00  0.00     0.039 C 
ENDBRANCH   5   6
ENDBRANCH   4   5
ENDBRANCH   1   4
BRANCH   2  10
ATOM     10  C   UNL     1       3.586  23.524   6.740  1.00  0.00     0.035 C 
BRANCH  10  11
ATOM     11  C   UNL     1       2.726  24.429   5.853  1.00  0.00     0.079 C 
BRANCH  11  12
ATOM     12  C   UNL     1       3.366  25.780   5.689  1.00  0.00     0.130 C 
ATOM     13  O   UNL     1       4.191  25.957   4.804  1.00  0.00    -0.300 OA
ATOM     14  C   UNL     1       3.020  26.903   6.619  1.00  0.00     0.087 C 
ENDBRANCH  11  12
ENDBRANCH  10  11
ENDBRANCH   2  10
TORSDOF 6
ENDMDL
MODEL 5
REMARK VINA RESULT:    -4.354      2.564      6.552
REMARK INTER + INTRA:          -6.732
REMARK INTER:                  -5.879
REMARK INTRA:                  -0.853
REMARK UNBOUND:                -0.851
REMARK SMILES CC(=O)CCC=C(C)CCC=C(C)C
REMARK SMILES IDX 7 1 6 2 8 3 9 4 10 5 11 6 13 7 12 8 14 9 5 10 4 11 2 12 3 13
REMARK SMILES IDX 1 14
REMARK H PARENT
REMARK Flexibility Score: inf
ROOT
ATOM      1  C   UNL     1       2.856   9.850  12.078  1.00  0.00    -0.077 C 
ATOM      2  C   UNL     1       3.826   9.862  13.021  1.00  0.00    -0.028 C 
ATOM      3  C   UNL     1       2.173   8.572  11.650  1.00  0.00     0.039 C 
ENDROOT
BRANCH   1   4
ATOM      4  C   UNL     1       2.456  11.154  11.416  1.00  0.00     0.034 C 
BRANCH   4   5
ATOM      5  C   UNL     1       1.297  10.962  10.427  1.00  0.00     0.032 C 
BRANCH   5   6
ATOM      6  C   UNL     1       1.657  11.441   9.041  1.00  0.00    -0.028 C 
ATOM      7  C   UNL     1       2.344  11.259   6.690  1.00  0.00     0.039 C 
ATOM      8  C   UNL     1       1.952  10.629   8.001  1.00  0.00    -0.080 C 
ATOM      9  C   UNL     1       1.879   9.125   8.113  1.00  0.00     0.039 C 
ENDBRANCH   5   6
ENDBRANCH   4   5
ENDBRANCH   1   4
BRANCH   2  10
ATOM     10  C   UNL     1       4.297   8.644  13.776  1.00  0.00     0.035 C 
BRANCH  10  11
ATOM     11  C   UNL     1       4.035   8.802  15.277  1.00  0.00     0.079 C 
BRANCH  11  12
ATOM     12  C   UNL     1       2.558   8.865  15.557  1.00  0.00     0.130 C 
ATOM     13  O   UNL     1       1.826   7.973  15.154  1.00  0.00    -0.300 OA
ATOM     14  C   UNL     1       1.975  10.026  16.304  1.00  0.00     0.087 C 
ENDBRANCH  11  12
ENDBRANCH  10  11
ENDBRANCH   2  10
TORSDOF 6
ENDMDL
MODEL 6
REMARK VINA RESULT:    -4.297     10.167     12.382
REMARK INTER + INTRA:          -6.655
REMARK INTER:                  -5.546
REMARK INTRA:                  -1.109
REMARK UNBOUND:                -0.851
REMARK SMILES CC(=O)CCC=C(C)CCC=C(C)C
REMARK SMILES IDX 7 1 6 2 8 3 9 4 10 5 11 6 13 7 12 8 14 9 5 10 4 11 2 12 3 13
REMARK SMILES IDX 1 14
REMARK H PARENT
REMARK Flexibility Score: inf
ROOT
ATOM      1  C   UNL     1       3.318  21.968   5.971  1.00  0.00    -0.077 C 
ATOM      2  C   UNL     1       2.665  22.007   4.787  1.00  0.00    -0.028 C 
ATOM      3  C   UNL     1       4.815  22.158   6.063  1.00  0.00     0.039 C 
ENDROOT
BRANCH   1   4
ATOM      4  C   UNL     1       2.531  21.709   7.239  1.00  0.00     0.034 C 
BRANCH   4   5
ATOM      5  C   UNL     1       2.937  20.386   7.905  1.00  0.00     0.032 C 
BRANCH   5   6
ATOM      6  C   UNL     1       2.225  19.206   7.289  1.00  0.00    -0.028 C 
ATOM      7  C   UNL     1       1.981  17.126   6.006  1.00  0.00     0.039 C 
ATOM      8  C   UNL     1       2.835  18.211   6.607  1.00  0.00    -0.080 C 
ATOM      9  C   UNL     1       4.336  18.150   6.452  1.00  0.00     0.039 C 
ENDBRANCH   5   6
ENDBRANCH   4   5
ENDBRANCH   1   4
BRANCH   2  10
ATOM     10  C   UNL     1       3.321  22.285   3.458  1.00  0.00     0.035 C 
BRANCH  10  11
ATOM     11  C   UNL     1       3.636  20.978   2.724  1.00  0.00     0.079 C 
BRANCH  11  12
ATOM     12  C   UNL     1       5.095  20.904   2.367  1.00  0.00     0.130 C 
ATOM     13  O   UNL     1       5.485  21.377   1.310  1.00  0.00    -0.300 OA
ATOM     14  C   UNL     1       6.070  20.234   3.287  1.00  0.00     0.087 C 
ENDBRANCH  11  12
ENDBRANCH  10  11
ENDBRANCH   2  10
TORSDOF 6
ENDMDL
MODEL 7
REMARK VINA RESULT:    -4.214     13.186     15.602
REMARK INTER + INTRA:          -6.542
REMARK INTER:                  -5.863
REMARK INTRA:                  -0.679
REMARK UNBOUND:                -0.851
REMARK SMILES CC(=O)CCC=C(C)CCC=C(C)C
REMARK SMILES IDX 7 1 6 2 8 3 9 4 10 5 11 6 13 7 12 8 14 9 5 10 4 11 2 12 3 13
REMARK SMILES IDX 1 14
REMARK H PARENT
REMARK Flexibility Score: inf
ROOT
ATOM      1  C   UNL     1       3.372  23.114   6.678  1.00  0.00    -0.077 C 
ATOM      2  C   UNL     1       3.541  24.374   6.215  1.00  0.00    -0.028 C 
ATOM      3  C   UNL     1       2.048  22.635   7.226  1.00  0.00     0.039 C 
ENDROOT
BRANCH   1   4
ATOM      4  C   UNL     1       4.549  22.160   6.664  1.00  0.00     0.034 C 
BRANCH   4   5
ATOM      5  C   UNL     1       4.217  20.851   5.932  1.00  0.00     0.032 C 
BRANCH   5   6
ATOM      6  C   UNL     1       4.171  21.043   4.434  1.00  0.00    -0.028 C 
ATOM      7  C   UNL     1       5.011  21.053   2.126  1.00  0.00     0.039 C 
ATOM      8  C   UNL     1       5.190  20.760   3.592  1.00  0.00    -0.080 C 
ATOM      9  C   UNL     1       6.482  20.144   4.076  1.00  0.00     0.039 C 
ENDBRANCH   5   6
ENDBRANCH   4   5
ENDBRANCH   1   4
BRANCH   2  10
ATOM     10  C   UNL     1       2.448  25.411   6.145  1.00  0.00     0.035 C 
BRANCH  10  11
ATOM     11  C   UNL     1       3.041  26.824   6.138  1.00  0.00     0.079 C 
BRANCH  11  12
ATOM     12  C   UNL     1       3.085  27.390   7.531  1.00  0.00     0.130 C 
ATOM     13  O   UNL     1       4.006  28.124   7.858  1.00  0.00    -0.300 OA
ATOM     14  C   UNL     1       2.021  27.042   8.528  1.00  0.00     0.087 C 
ENDBRANCH  11  12
ENDBRANCH  10  11
ENDBRANCH   2  10
TORSDOF 6
ENDMDL
MODEL 8
REMARK VINA RESULT:    -4.201      1.867      2.964
REMARK INTER + INTRA:          -6.525
REMARK INTER:                  -5.802
REMARK INTRA:                  -0.723
REMARK UNBOUND:                -0.851
REMARK SMILES CC(=O)CCC=C(C)CCC=C(C)C
REMARK SMILES IDX 7 1 6 2 8 3 9 4 10 5 11 6 13 7 12 8 14 9 5 10 4 11 2 12 3 13
REMARK SMILES IDX 1 14
REMARK H PARENT
REMARK Flexibility Score: inf
ROOT
ATOM      1  C   UNL     1       1.702   9.008   9.713  1.00  0.00    -0.077 C 
ATOM      2  C   UNL     1       1.964   8.789   8.404  1.00  0.00    -0.028 C 
ATOM      3  C   UNL     1       0.875  10.185  10.177  1.00  0.00     0.039 C 
ENDROOT
BRANCH   1   4
ATOM      4  C   UNL     1       2.270   8.056  10.747  1.00  0.00     0.034 C 
BRANCH   4   5
ATOM      5  C   UNL     1       1.856   8.447  12.174  1.00  0.00     0.032 C 
BRANCH   5   6
ATOM      6  C   UNL     1       3.038   8.469  13.114  1.00  0.00    -0.028 C 
ATOM      7  C   UNL     1       4.966   9.417  14.304  1.00  0.00     0.039 C 
ATOM      8  C   UNL     1       3.784   9.564  13.382  1.00  0.00    -0.080 C 
ATOM      9  C   UNL     1       3.455  10.920  12.805  1.00  0.00     0.039 C 
ENDBRANCH   5   6
ENDBRANCH   4   5
ENDBRANCH   1   4
BRANCH   2  10
ATOM     10  C   UNL     1       1.437   9.639   7.275  1.00  0.00     0.035 C 
BRANCH  10  11
ATOM     11  C   UNL     1       2.392  10.800   6.979  1.00  0.00     0.079 C 
BRANCH  11  12
ATOM     12  C   UNL     1       1.627  12.075   6.753  1.00  0.00     0.130 C 
ATOM     13  O   UNL     1       1.278  12.751   7.711  1.00  0.00    -0.300 OA
ATOM     14  C   UNL     1       1.268  12.510   5.365  1.00  0.00     0.087 C 
ENDBRANCH  11  12
ENDBRANCH  10  11
ENDBRANCH   2  10
TORSDOF 6
ENDMDL
MODEL 9
REMARK VINA RESULT:    -4.191     11.631     15.002
REMARK INTER + INTRA:          -6.511
REMARK INTER:                  -5.538
REMARK INTRA:                  -0.973
REMARK UNBOUND:                -0.851
REMARK SMILES CC(=O)CCC=C(C)CCC=C(C)C
REMARK SMILES IDX 7 1 6 2 8 3 9 4 10 5 11 6 13 7 12 8 14 9 5 10 4 11 2 12 3 13
REMARK SMILES IDX 1 14
REMARK H PARENT
REMARK Flexibility Score: inf
ROOT
ATOM      1  C   UNL     1       5.267  20.626   3.470  1.00  0.00    -0.077 C 
ATOM      2  C   UNL     1       4.313  21.258   4.192  1.00  0.00    -0.028 C 
ATOM      3  C   UNL     1       6.503  20.044   4.115  1.00  0.00     0.039 C 
ENDROOT
BRANCH   1   4
ATOM      4  C   UNL     1       5.101  20.515   1.968  1.00  0.00     0.034 C 
BRANCH   4   5
ATOM      5  C   UNL     1       3.914  21.347   1.459  1.00  0.00     0.032 C 
BRANCH   5   6
ATOM      6  C   UNL     1       4.366  22.495   0.589  1.00  0.00    -0.028 C 
ATOM      7  C   UNL     1       4.623  24.832  -0.123  1.00  0.00     0.039 C 
ATOM      8  C   UNL     1       4.157  23.801   0.870  1.00  0.00    -0.080 C 
ATOM      9  C   UNL     1       3.493  24.248   2.151  1.00  0.00     0.039 C 
ENDBRANCH   5   6
ENDBRANCH   4   5
ENDBRANCH   1   4
BRANCH   2  10
ATOM     10  C   UNL     1       4.340  21.412   5.692  1.00  0.00     0.035 C 
BRANCH  10  11
ATOM     11  C   UNL     1       3.029  20.919   6.311  1.00  0.00     0.079 C 
BRANCH  11  12
ATOM     12  C   UNL     1       2.864  19.439   6.101  1.00  0.00     0.130 C 
ATOM     13  O   UNL     1       1.879  19.016   5.512  1.00  0.00    -0.300 OA
ATOM     14  C   UNL     1       3.884  18.477   6.631  1.00  0.00     0.087 C 
ENDBRANCH  11  12
ENDBRANCH  10  11
ENDBRANCH   2  10
TORSDOF 6
ENDMDL
