MODEL 1
REMARK VINA RESULT:    -7.408      0.000      0.000
REMARK INTER + INTRA:          -8.371
REMARK INTER:                  -8.707
REMARK INTRA:                   0.336
REMARK UNBOUND:                 0.336
REMARK SMILES O=c1c(O)c(-c2ccc(O)cc2)oc2cc(O)cc(O)c12
REMARK SMILES IDX 5 1 3 2 2 3 1 4 21 5 19 6 18 7 16 8 15 9 14 10 13 11 6 12
REMARK SMILES IDX 7 13 8 14 9 15 12 16 11 17 10 18 4 20 20 22 17 24
REMARK H PARENT 10 19 4 21 20 23 17 25
REMARK Flexibility Score: inf
ROOT
ATOM      1  C   UNL     1     -16.805 -36.480 -11.552  1.00  0.00     0.180 A 
ATOM      2  C   UNL     1     -17.794 -36.746 -12.519  1.00  0.00     0.208 A 
ATOM      3  C   UNL     1     -17.472 -36.595 -13.877  1.00  0.00     0.238 A 
ATOM      4  O   UNL     1     -18.346 -36.841 -14.752  1.00  0.00    -0.285 OA
ATOM      5  C   UNL     1     -16.180 -36.163 -14.244  1.00  0.00     0.111 A 
ATOM      6  C   UNL     1     -15.778 -35.981 -15.589  1.00  0.00     0.134 A 
ATOM      7  C   UNL     1     -14.477 -35.539 -15.872  1.00  0.00     0.093 A 
ATOM      8  C   UNL     1     -13.573 -35.276 -14.840  1.00  0.00     0.123 A 
ATOM      9  C   UNL     1     -13.965 -35.453 -13.509  1.00  0.00     0.094 A 
ATOM     10  C   UNL     1     -15.257 -35.895 -13.206  1.00  0.00     0.146 A 
ATOM     11  O   UNL     1     -15.602 -36.060 -11.934  1.00  0.00    -0.452 OA
ENDROOT
BRANCH   1  12
ATOM     12  C   UNL     1     -17.060 -36.635 -10.102  1.00  0.00     0.021 A 
ATOM     13  C   UNL     1     -16.026 -36.963  -9.206  1.00  0.00     0.016 A 
ATOM     14  C   UNL     1     -16.288 -37.081  -7.838  1.00  0.00     0.047 A 
ATOM     15  C   UNL     1     -17.578 -36.860  -7.346  1.00  0.00     0.115 A 
ATOM     16  C   UNL     1     -18.349 -36.394  -9.598  1.00  0.00     0.016 A 
ATOM     17  C   UNL     1     -18.608 -36.513  -8.229  1.00  0.00     0.047 A 
BRANCH  15  18
ATOM     18  O   UNL     1     -17.824 -36.982  -5.980  1.00  0.00    -0.508 OA
ATOM     19  H   UNL     1     -18.681 -37.396  -5.631  1.00  0.00     0.293 HD
ENDBRANCH  15  18
ENDBRANCH   1  12
BRANCH   2  20
ATOM     20  O   UNL     1     -19.080 -37.125 -12.128  1.00  0.00    -0.502 OA
ATOM     21  H   UNL     1     -19.279 -37.503 -11.210  1.00  0.00     0.293 HD
ENDBRANCH   2  20
BRANCH   6  22
ATOM     22  O   UNL     1     -16.656 -36.236 -16.643  1.00  0.00    -0.507 OA
ATOM     23  H   UNL     1     -16.349 -36.689 -17.496  1.00  0.00     0.293 HD
ENDBRANCH   6  22
BRANCH   8  24
ATOM     24  O   UNL     1     -12.288 -34.837 -15.148  1.00  0.00    -0.508 OA
ATOM     25  H   UNL     1     -11.540 -34.865 -14.464  1.00  0.00     0.293 HD
ENDBRANCH   8  24
TORSDOF 5
ENDMDL
