MODEL 1
REMARK VINA RESULT:    -4.495      0.000      0.000
REMARK INTER + INTRA:          -4.626
REMARK INTER:                  -4.626
REMARK INTRA:                   0.000
REMARK UNBOUND:                 0.000
REMARK SMILES C=C1[C@H]2C[C@@]3(C[C@@H]1O)[C@H](CC[C@@H]3C)C2(C)C
REMARK SMILES IDX 13 1 12 2 11 3 10 4 9 5 5 6 4 7 3 8 14 9 15 10 16 11 2 12
REMARK SMILES IDX 1 13 7 14 6 15 8 16
REMARK H PARENT 8 17
REMARK Flexibility Score: inf
ROOT
ATOM      1  C   UNL     1       2.145  48.123  47.143  1.00  0.00     0.008 C 
ATOM      2  C   UNL     1       1.248  47.833  48.355  1.00  0.00    -0.008 C 
ATOM      3  C   UNL     1      -0.221  48.125  48.055  1.00  0.00     0.004 C 
ATOM      4  C   UNL     1      -0.989  47.346  49.107  1.00  0.00     0.005 C 
ATOM      5  C   UNL     1      -0.199  46.038  49.266  1.00  0.00     0.002 C 
ATOM      6  C   UNL     1       1.270  46.372  48.904  1.00  0.00    -0.020 C 
ATOM      7  C   UNL     1       2.036  46.238  50.224  1.00  0.00     0.016 C 
ATOM      8  C   UNL     1       1.356  45.029  50.847  1.00  0.00     0.023 C 
ATOM      9  C   UNL     1      -0.160  45.336  50.666  1.00  0.00    -0.025 C 
ATOM     10  C   UNL     1      -0.644  46.225  51.844  1.00  0.00     0.012 C 
ATOM     11  C   UNL     1      -1.042  44.063  50.681  1.00  0.00     0.012 C 
ATOM     12  C   UNL     1       1.802  43.803  50.050  1.00  0.00    -0.045 C 
ATOM     13  C   UNL     1       2.051  42.649  50.685  1.00  0.00     0.011 C 
ATOM     14  C   UNL     1       1.894  43.856  48.524  1.00  0.00     0.140 C 
ATOM     15  C   UNL     1       1.848  45.300  47.929  1.00  0.00     0.044 C 
ENDROOT
BRANCH  14  16
ATOM     16  O   UNL     1       0.863  43.077  47.975  1.00  0.00    -0.389 OA
ATOM     17  H   UNL     1       0.702  43.415  47.056  1.00  0.00     0.211 HD
ENDBRANCH  14  16
TORSDOF 1
ENDMDL
MODEL 2
REMARK VINA RESULT:    -3.302      1.557      2.741
REMARK INTER + INTRA:          -3.399
REMARK INTER:                  -3.399
REMARK INTRA:                   0.000
REMARK UNBOUND:                 0.000
REMARK SMILES C=C1[C@H]2C[C@@]3(C[C@@H]1O)[C@H](CC[C@@H]3C)C2(C)C
REMARK SMILES IDX 13 1 12 2 11 3 10 4 9 5 5 6 4 7 3 8 14 9 15 10 16 11 2 12
REMARK SMILES IDX 1 13 7 14 6 15 8 16
REMARK H PARENT 8 17
REMARK Flexibility Score: inf
ROOT
ATOM      1  C   UNL     1       4.272  47.382  49.537  1.00  0.00     0.008 C 
ATOM      2  C   UNL     1       2.929  47.219  48.810  1.00  0.00    -0.008 C 
ATOM      3  C   UNL     1       3.116  46.695  47.388  1.00  0.00     0.004 C 
ATOM      4  C   UNL     1       1.760  46.131  47.006  1.00  0.00     0.005 C 
ATOM      5  C   UNL     1       1.242  45.478  48.298  1.00  0.00     0.002 C 
ATOM      6  C   UNL     1       1.894  46.255  49.468  1.00  0.00    -0.020 C 
ATOM      7  C   UNL     1       0.731  46.991  50.141  1.00  0.00     0.016 C 
ATOM      8  C   UNL     1      -0.375  45.951  50.057  1.00  0.00     0.023 C 
ATOM      9  C   UNL     1      -0.299  45.464  48.580  1.00  0.00    -0.025 C 
ATOM     10  C   UNL     1      -1.125  46.427  47.683  1.00  0.00     0.012 C 
ATOM     11  C   UNL     1      -0.895  44.049  48.377  1.00  0.00     0.012 C 
ATOM     12  C   UNL     1      -0.028  44.845  51.055  1.00  0.00    -0.045 C 
ATOM     13  C   UNL     1      -1.001  44.263  51.770  1.00  0.00     0.011 C 
ATOM     14  C   UNL     1       1.410  44.341  51.191  1.00  0.00     0.140 C 
ATOM     15  C   UNL     1       2.479  45.264  50.521  1.00  0.00     0.044 C 
ENDROOT
BRANCH  14  16
ATOM     16  O   UNL     1       1.493  43.044  50.660  1.00  0.00    -0.389 OA
ATOM     17  H   UNL     1       0.641  42.872  50.181  1.00  0.00     0.211 HD
ENDBRANCH  14  16
TORSDOF 1
ENDMDL
MODEL 3
REMARK VINA RESULT:    -3.216      1.575      3.959
REMARK INTER + INTRA:          -3.310
REMARK INTER:                  -3.310
REMARK INTRA:                   0.000
REMARK UNBOUND:                 0.000
REMARK SMILES C=C1[C@H]2C[C@@]3(C[C@@H]1O)[C@H](CC[C@@H]3C)C2(C)C
REMARK SMILES IDX 13 1 12 2 11 3 10 4 9 5 5 6 4 7 3 8 14 9 15 10 16 11 2 12
REMARK SMILES IDX 1 13 7 14 6 15 8 16
REMARK H PARENT 8 17
REMARK Flexibility Score: inf
ROOT
ATOM      1  C   UNL     1      -1.099  42.595  49.378  1.00  0.00     0.008 C 
ATOM      2  C   UNL     1      -1.125  43.961  50.079  1.00  0.00    -0.008 C 
ATOM      3  C   UNL     1      -0.681  43.857  51.537  1.00  0.00     0.004 C 
ATOM      4  C   UNL     1      -0.288  45.272  51.919  1.00  0.00     0.005 C 
ATOM      5  C   UNL     1       0.393  45.832  50.660  1.00  0.00     0.002 C 
ATOM      6  C   UNL     1      -0.232  45.080  49.459  1.00  0.00    -0.020 C 
ATOM      7  C   UNL     1      -1.038  46.146  48.709  1.00  0.00     0.016 C 
ATOM      8  C   UNL     1      -0.126  47.356  48.833  1.00  0.00     0.023 C 
ATOM      9  C   UNL     1       0.265  47.360  50.340  1.00  0.00    -0.025 C 
ATOM     10  C   UNL     1      -0.836  48.097  51.151  1.00  0.00     0.012 C 
ATOM     11  C   UNL     1       1.594  48.105  50.619  1.00  0.00     0.012 C 
ATOM     12  C   UNL     1       1.074  47.109  47.919  1.00  0.00    -0.045 C 
ATOM     13  C   UNL     1       1.599  48.125  47.218  1.00  0.00     0.011 C 
ATOM     14  C   UNL     1       1.733  45.730  47.852  1.00  0.00     0.140 C 
ATOM     15  C   UNL     1       0.884  44.583  48.488  1.00  0.00     0.044 C 
ENDROOT
BRANCH  14  16
ATOM     16  O   UNL     1       2.993  45.794  48.468  1.00  0.00    -0.389 OA
ATOM     17  H   UNL     1       3.433  46.622  48.143  1.00  0.00     0.211 HD
ENDBRANCH  14  16
TORSDOF 1
ENDMDL
