MODEL 1
REMARK VINA RESULT:    -3.642      0.000      0.000
REMARK INTER + INTRA:         -11.645
REMARK INTER:                  -8.326
REMARK INTRA:                  -3.319
REMARK UNBOUND:                -3.319
REMARK SMILES CCCCCCCCCCCCCCCCCCCCCCCC(=O)[O-]
REMARK SMILES IDX 13 1 14 2 15 3 16 4 17 5 18 6 19 7 20 8 21 9 22 10 23 11
REMARK SMILES IDX 24 12 25 13 26 14 12 15 11 16 10 17 9 18 8 19 7 20 6 21 5 22
REMARK SMILES IDX 4 23 3 24 2 25 1 26
REMARK H PARENT
REMARK Flexibility Score: inf
ROOT
ATOM      1  C   UNL     1      28.634  17.955 -18.514  1.00  0.00     0.000 C 
ENDROOT
BRANCH   1   2
ATOM      2  C   UNL     1      27.896  18.758 -17.431  1.00  0.00     0.000 C 
BRANCH   2   3
ATOM      3  C   UNL     1      26.536  19.300 -17.906  1.00  0.00     0.000 C 
BRANCH   3   4
ATOM      4  C   UNL     1      26.195  19.003 -19.379  1.00  0.00     0.000 C 
BRANCH   4   5
ATOM      5  C   UNL     1      24.979  18.074 -19.536  1.00  0.00     0.000 C 
BRANCH   5   6
ATOM      6  C   UNL     1      24.889  17.019 -18.419  1.00  0.00     0.000 C 
BRANCH   6   7
ATOM      7  C   UNL     1      25.070  15.563 -18.889  1.00  0.00     0.000 C 
BRANCH   7   8
ATOM      8  C   UNL     1      26.534  15.197 -19.227  1.00  0.00     0.000 C 
BRANCH   8   9
ATOM      9  C   UNL     1      27.161  14.197 -18.236  1.00  0.00     0.000 C 
BRANCH   9  10
ATOM     10  C   UNL     1      26.978  14.583 -16.756  1.00  0.00     0.006 C 
BRANCH  10  11
ATOM     11  C   UNL     1      26.626  13.381 -15.869  1.00  0.00     0.053 C 
BRANCH  11  12
ATOM     12  C   UNL     1      25.175  13.406 -15.511  1.00  0.00     0.041 C 
ATOM     13  O   UNL     1      24.818  13.664 -14.331  1.00  0.00    -0.550 OA
ATOM     14  O   UNL     1      24.217  13.092 -16.468  1.00  0.00    -0.550 OA
ENDBRANCH  11  12
ENDBRANCH  10  11
ENDBRANCH   9  10
ENDBRANCH   8   9
ENDBRANCH   7   8
ENDBRANCH   6   7
ENDBRANCH   5   6
ENDBRANCH   4   5
ENDBRANCH   3   4
ENDBRANCH   2   3
ENDBRANCH   1   2
BRANCH   1  15
ATOM     15  C   UNL     1      29.596  16.937 -17.883  1.00  0.00     0.000 C 
BRANCH  15  16
ATOM     16  C   UNL     1      30.601  16.361 -18.894  1.00  0.00     0.000 C 
BRANCH  16  17
ATOM     17  C   UNL     1      31.426  17.454 -19.596  1.00  0.00     0.000 C 
BRANCH  17  18
ATOM     18  C   UNL     1      32.461  18.112 -18.665  1.00  0.00    -0.000 C 
BRANCH  18  19
ATOM     19  C   UNL     1      33.931  17.757 -18.964  1.00  0.00    -0.000 C 
BRANCH  19  20
ATOM     20  C   UNL     1      34.643  16.942 -17.869  1.00  0.00    -0.000 C 
BRANCH  20  21
ATOM     21  C   UNL     1      34.114  15.505 -17.757  1.00  0.00    -0.000 C 
BRANCH  21  22
ATOM     22  C   UNL     1      34.644  14.820 -16.491  1.00  0.00    -0.000 C 
BRANCH  22  23
ATOM     23  C   UNL     1      33.713  13.683 -16.048  1.00  0.00    -0.000 C 
BRANCH  23  24
ATOM     24  C   UNL     1      32.404  13.642 -16.853  1.00  0.00    -0.000 C 
BRANCH  24  25
ATOM     25  C   UNL     1      31.206  13.185 -16.009  1.00  0.00    -0.003 C 
ATOM     26  C   UNL     1      30.455  14.380 -15.428  1.00  0.00     0.004 C 
ENDBRANCH  24  25
ENDBRANCH  23  24
ENDBRANCH  22  23
ENDBRANCH  21  22
ENDBRANCH  20  21
ENDBRANCH  19  20
ENDBRANCH  18  19
ENDBRANCH  17  18
ENDBRANCH  16  17
ENDBRANCH  15  16
ENDBRANCH   1  15
TORSDOF 22
ENDMDL
MODEL 2
REMARK VINA RESULT:    -3.624      3.295      7.120
REMARK INTER + INTRA:         -11.603
REMARK INTER:                  -7.510
REMARK INTRA:                  -4.093
REMARK UNBOUND:                -3.319
REMARK SMILES CCCCCCCCCCCCCCCCCCCCCCCC(=O)[O-]
REMARK SMILES IDX 13 1 14 2 15 3 16 4 17 5 18 6 19 7 20 8 21 9 22 10 23 11
REMARK SMILES IDX 24 12 25 13 26 14 12 15 11 16 10 17 9 18 8 19 7 20 6 21 5 22
REMARK SMILES IDX 4 23 3 24 2 25 1 26
REMARK H PARENT
REMARK Flexibility Score: inf
ROOT
ATOM      1  C   UNL     1      27.804  14.043 -18.694  1.00  0.00     0.000 C 
ENDROOT
BRANCH   1   2
ATOM      2  C   UNL     1      26.823  13.477 -17.655  1.00  0.00     0.000 C 
BRANCH   2   3
ATOM      3  C   UNL     1      27.100  13.985 -16.228  1.00  0.00     0.000 C 
BRANCH   3   4
ATOM      4  C   UNL     1      27.890  15.304 -16.148  1.00  0.00     0.000 C 
BRANCH   4   5
ATOM      5  C   UNL     1      29.268  15.136 -15.485  1.00  0.00     0.000 C 
BRANCH   5   6
ATOM      6  C   UNL     1      29.615  13.664 -15.198  1.00  0.00     0.000 C 
BRANCH   6   7
ATOM      7  C   UNL     1      31.022  13.231 -15.654  1.00  0.00     0.000 C 
BRANCH   7   8
ATOM      8  C   UNL     1      32.001  14.411 -15.855  1.00  0.00     0.000 C 
BRANCH   8   9
ATOM      9  C   UNL     1      33.404  13.972 -16.315  1.00  0.00     0.000 C 
BRANCH   9  10
ATOM     10  C   UNL     1      33.892  14.670 -17.598  1.00  0.00     0.006 C 
BRANCH  10  11
ATOM     11  C   UNL     1      34.628  15.986 -17.315  1.00  0.00     0.053 C 
BRANCH  11  12
ATOM     12  C   UNL     1      34.452  16.937 -18.456  1.00  0.00     0.041 C 
ATOM     13  O   UNL     1      34.713  16.570 -19.632  1.00  0.00    -0.550 OA
ATOM     14  O   UNL     1      34.051  18.245 -18.215  1.00  0.00    -0.550 OA
ENDBRANCH  11  12
ENDBRANCH  10  11
ENDBRANCH   9  10
ENDBRANCH   8   9
ENDBRANCH   7   8
ENDBRANCH   6   7
ENDBRANCH   5   6
ENDBRANCH   4   5
ENDBRANCH   3   4
ENDBRANCH   2   3
ENDBRANCH   1   2
BRANCH   1  15
ATOM     15  C   UNL     1      29.036  13.137 -18.837  1.00  0.00     0.000 C 
BRANCH  15  16
ATOM     16  C   UNL     1      30.307  13.915 -19.215  1.00  0.00     0.000 C 
BRANCH  16  17
ATOM     17  C   UNL     1      30.021  15.389 -19.551  1.00  0.00     0.000 C 
BRANCH  17  18
ATOM     18  C   UNL     1      30.771  16.369 -18.630  1.00  0.00    -0.000 C 
BRANCH  18  19
ATOM     19  C   UNL     1      30.239  17.816 -18.639  1.00  0.00    -0.000 C 
BRANCH  19  20
ATOM     20  C   UNL     1      28.706  17.949 -18.617  1.00  0.00    -0.000 C 
BRANCH  20  21
ATOM     21  C   UNL     1      28.186  18.645 -17.350  1.00  0.00    -0.000 C 
BRANCH  21  22
ATOM     22  C   UNL     1      26.903  19.433 -17.642  1.00  0.00    -0.000 C 
BRANCH  22  23
ATOM     23  C   UNL     1      26.631  19.503 -19.152  1.00  0.00    -0.000 C 
BRANCH  23  24
ATOM     24  C   UNL     1      25.528  18.531 -19.601  1.00  0.00    -0.000 C 
BRANCH  24  25
ATOM     25  C   UNL     1      24.689  18.009 -18.426  1.00  0.00    -0.003 C 
ATOM     26  C   UNL     1      24.734  16.486 -18.352  1.00  0.00     0.004 C 
ENDBRANCH  24  25
ENDBRANCH  23  24
ENDBRANCH  22  23
ENDBRANCH  21  22
ENDBRANCH  20  21
ENDBRANCH  19  20
ENDBRANCH  18  19
ENDBRANCH  17  18
ENDBRANCH  16  17
ENDBRANCH  15  16
ENDBRANCH   1  15
TORSDOF 22
ENDMDL
MODEL 3
REMARK VINA RESULT:    -3.424      0.944      3.281
REMARK INTER + INTRA:         -11.147
REMARK INTER:                  -8.126
REMARK INTRA:                  -3.021
REMARK UNBOUND:                -3.319
REMARK SMILES CCCCCCCCCCCCCCCCCCCCCCCC(=O)[O-]
REMARK SMILES IDX 13 1 14 2 15 3 16 4 17 5 18 6 19 7 20 8 21 9 22 10 23 11
REMARK SMILES IDX 24 12 25 13 26 14 12 15 11 16 10 17 9 18 8 19 7 20 6 21 5 22
REMARK SMILES IDX 4 23 3 24 2 25 1 26
REMARK H PARENT
REMARK Flexibility Score: inf
ROOT
ATOM      1  C   UNL     1      28.549  16.230 -16.063  1.00  0.00     0.000 C 
ENDROOT
BRANCH   1   2
ATOM      2  C   UNL     1      28.531  16.316 -17.597  1.00  0.00     0.000 C 
BRANCH   2   3
ATOM      3  C   UNL     1      28.629  17.760 -18.119  1.00  0.00     0.000 C 
BRANCH   3   4
ATOM      4  C   UNL     1      27.894  18.813 -17.268  1.00  0.00     0.000 C 
BRANCH   4   5
ATOM      5  C   UNL     1      26.679  19.422 -17.988  1.00  0.00     0.000 C 
BRANCH   5   6
ATOM      6  C   UNL     1      25.458  18.484 -17.992  1.00  0.00     0.000 C 
BRANCH   6   7
ATOM      7  C   UNL     1      25.087  17.914 -19.375  1.00  0.00     0.000 C 
BRANCH   7   8
ATOM      8  C   UNL     1      25.263  16.381 -19.483  1.00  0.00     0.000 C 
BRANCH   8   9
ATOM      9  C   UNL     1      24.857  15.625 -18.204  1.00  0.00     0.000 C 
BRANCH   9  10
ATOM     10  C   UNL     1      25.468  14.216 -18.086  1.00  0.00     0.006 C 
BRANCH  10  11
ATOM     11  C   UNL     1      25.893  13.871 -16.653  1.00  0.00     0.053 C 
BRANCH  11  12
ATOM     12  C   UNL     1      24.699  13.500 -15.832  1.00  0.00     0.041 C 
ATOM     13  O   UNL     1      24.710  13.670 -14.584  1.00  0.00    -0.550 OA
ATOM     14  O   UNL     1      23.593  12.916 -16.439  1.00  0.00    -0.550 OA
ENDBRANCH  11  12
ENDBRANCH  10  11
ENDBRANCH   9  10
ENDBRANCH   8   9
ENDBRANCH   7   8
ENDBRANCH   6   7
ENDBRANCH   5   6
ENDBRANCH   4   5
ENDBRANCH   3   4
ENDBRANCH   2   3
ENDBRANCH   1   2
BRANCH   1  15
ATOM     15  C   UNL     1      29.227  14.933 -15.594  1.00  0.00     0.000 C 
BRANCH  15  16
ATOM     16  C   UNL     1      30.670  14.797 -16.103  1.00  0.00     0.000 C 
BRANCH  16  17
ATOM     17  C   UNL     1      31.241  13.383 -15.895  1.00  0.00     0.000 C 
BRANCH  17  18
ATOM     18  C   UNL     1      32.437  13.079 -16.816  1.00  0.00    -0.000 C 
BRANCH  18  19
ATOM     19  C   UNL     1      33.807  13.019 -16.113  1.00  0.00    -0.000 C 
BRANCH  19  20
ATOM     20  C   UNL     1      34.680  14.276 -16.272  1.00  0.00    -0.000 C 
BRANCH  20  21
ATOM     21  C   UNL     1      34.514  14.948 -17.643  1.00  0.00    -0.000 C 
BRANCH  21  22
ATOM     22  C   UNL     1      34.504  16.476 -17.510  1.00  0.00    -0.000 C 
BRANCH  22  23
ATOM     23  C   UNL     1      34.531  17.149 -18.890  1.00  0.00    -0.000 C 
BRANCH  23  24
ATOM     24  C   UNL     1      33.288  18.016 -19.150  1.00  0.00    -0.000 C 
BRANCH  24  25
ATOM     25  C   UNL     1      31.986  17.322 -18.727  1.00  0.00    -0.003 C 
ATOM     26  C   UNL     1      31.556  16.285 -19.761  1.00  0.00     0.004 C 
ENDBRANCH  24  25
ENDBRANCH  23  24
ENDBRANCH  22  23
ENDBRANCH  21  22
ENDBRANCH  20  21
ENDBRANCH  19  20
ENDBRANCH  18  19
ENDBRANCH  17  18
ENDBRANCH  16  17
ENDBRANCH  15  16
ENDBRANCH   1  15
TORSDOF 22
ENDMDL
MODEL 4
REMARK VINA RESULT:    -3.377      2.350      7.407
REMARK INTER + INTRA:         -11.040
REMARK INTER:                  -7.486
REMARK INTRA:                  -3.554
REMARK UNBOUND:                -3.319
REMARK SMILES CCCCCCCCCCCCCCCCCCCCCCCC(=O)[O-]
REMARK SMILES IDX 13 1 14 2 15 3 16 4 17 5 18 6 19 7 20 8 21 9 22 10 23 11
REMARK SMILES IDX 24 12 25 13 26 14 12 15 11 16 10 17 9 18 8 19 7 20 6 21 5 22
REMARK SMILES IDX 4 23 3 24 2 25 1 26
REMARK H PARENT
REMARK Flexibility Score: inf
ROOT
ATOM      1  C   UNL     1      32.050  14.098 -16.494  1.00  0.00     0.000 C 
ENDROOT
BRANCH   1   2
ATOM      2  C   UNL     1      33.518  14.010 -16.049  1.00  0.00     0.000 C 
BRANCH   2   3
ATOM      3  C   UNL     1      34.510  14.185 -17.214  1.00  0.00     0.000 C 
BRANCH   3   4
ATOM      4  C   UNL     1      33.869  14.546 -18.567  1.00  0.00     0.000 C 
BRANCH   4   5
ATOM      5  C   UNL     1      34.826  15.310 -19.497  1.00  0.00     0.000 C 
BRANCH   5   6
ATOM      6  C   UNL     1      34.369  16.756 -19.763  1.00  0.00     0.000 C 
BRANCH   6   7
ATOM      7  C   UNL     1      33.911  17.529 -18.512  1.00  0.00     0.000 C 
BRANCH   7   8
ATOM      8  C   UNL     1      32.520  18.188 -18.661  1.00  0.00     0.000 C 
BRANCH   8   9
ATOM      9  C   UNL     1      31.358  17.176 -18.653  1.00  0.00     0.000 C 
BRANCH   9  10
ATOM     10  C   UNL     1      30.042  17.727 -19.234  1.00  0.00     0.006 C 
BRANCH  10  11
ATOM     11  C   UNL     1      28.988  18.005 -18.155  1.00  0.00     0.053 C 
BRANCH  11  12
ATOM     12  C   UNL     1      27.951  18.949 -18.672  1.00  0.00     0.041 C 
ATOM     13  O   UNL     1      27.144  19.502 -17.878  1.00  0.00    -0.550 OA
ATOM     14  O   UNL     1      27.839  19.178 -20.039  1.00  0.00    -0.550 OA
ENDBRANCH  11  12
ENDBRANCH  10  11
ENDBRANCH   9  10
ENDBRANCH   8   9
ENDBRANCH   7   8
ENDBRANCH   6   7
ENDBRANCH   5   6
ENDBRANCH   4   5
ENDBRANCH   3   4
ENDBRANCH   2   3
ENDBRANCH   1   2
BRANCH   1  15
ATOM     15  C   UNL     1      31.194  13.046 -15.773  1.00  0.00     0.000 C 
BRANCH  15  16
ATOM     16  C   UNL     1      30.030  13.664 -14.982  1.00  0.00     0.000 C 
BRANCH  16  17
ATOM     17  C   UNL     1      29.552  15.000 -15.578  1.00  0.00     0.000 C 
BRANCH  17  18
ATOM     18  C   UNL     1      28.116  14.927 -16.131  1.00  0.00    -0.000 C 
BRANCH  18  19
ATOM     19  C   UNL     1      27.903  13.910 -17.270  1.00  0.00    -0.000 C 
BRANCH  19  20
ATOM     20  C   UNL     1      28.842  14.074 -18.477  1.00  0.00    -0.000 C 
BRANCH  20  21
ATOM     21  C   UNL     1      28.137  14.672 -19.704  1.00  0.00    -0.000 C 
BRANCH  21  22
ATOM     22  C   UNL     1      26.614  14.552 -19.577  1.00  0.00    -0.000 C 
BRANCH  22  23
ATOM     23  C   UNL     1      25.942  15.929 -19.683  1.00  0.00    -0.000 C 
BRANCH  23  24
ATOM     24  C   UNL     1      25.451  16.454 -18.324  1.00  0.00    -0.000 C 
BRANCH  24  25
ATOM     25  C   UNL     1      24.223  17.366 -18.453  1.00  0.00    -0.003 C 
ATOM     26  C   UNL     1      24.077  17.892 -19.878  1.00  0.00     0.004 C 
ENDBRANCH  24  25
ENDBRANCH  23  24
ENDBRANCH  22  23
ENDBRANCH  21  22
ENDBRANCH  20  21
ENDBRANCH  19  20
ENDBRANCH  18  19
ENDBRANCH  17  18
ENDBRANCH  16  17
ENDBRANCH  15  16
ENDBRANCH   1  15
TORSDOF 22
ENDMDL
MODEL 5
REMARK VINA RESULT:    -3.317      1.158      2.348
REMARK INTER + INTRA:         -10.903
REMARK INTER:                  -7.421
REMARK INTRA:                  -3.482
REMARK UNBOUND:                -3.319
REMARK SMILES CCCCCCCCCCCCCCCCCCCCCCCC(=O)[O-]
REMARK SMILES IDX 13 1 14 2 15 3 16 4 17 5 18 6 19 7 20 8 21 9 22 10 23 11
REMARK SMILES IDX 24 12 25 13 26 14 12 15 11 16 10 17 9 18 8 19 7 20 6 21 5 22
REMARK SMILES IDX 4 23 3 24 2 25 1 26
REMARK H PARENT
REMARK Flexibility Score: inf
ROOT
ATOM      1  C   UNL     1      30.302  16.108 -18.425  1.00  0.00     0.000 C 
ENDROOT
BRANCH   1   2
ATOM      2  C   UNL     1      28.775  16.130 -18.254  1.00  0.00     0.000 C 
BRANCH   2   3
ATOM      3  C   UNL     1      28.313  17.026 -17.091  1.00  0.00     0.000 C 
BRANCH   3   4
ATOM      4  C   UNL     1      28.205  18.526 -17.428  1.00  0.00     0.000 C 
BRANCH   4   5
ATOM      5  C   UNL     1      27.960  18.786 -18.924  1.00  0.00     0.000 C 
BRANCH   5   6
ATOM      6  C   UNL     1      26.478  19.046 -19.248  1.00  0.00     0.000 C 
BRANCH   6   7
ATOM      7  C   UNL     1      25.508  18.794 -18.078  1.00  0.00     0.000 C 
BRANCH   7   8
ATOM      8  C   UNL     1      24.560  17.593 -18.304  1.00  0.00     0.000 C 
BRANCH   8   9
ATOM      9  C   UNL     1      25.134  16.530 -19.260  1.00  0.00     0.000 C 
BRANCH   9  10
ATOM     10  C   UNL     1      24.608  15.105 -19.003  1.00  0.00     0.006 C 
BRANCH  10  11
ATOM     11  C   UNL     1      25.611  14.232 -18.238  1.00  0.00     0.053 C 
BRANCH  11  12
ATOM     12  C   UNL     1      25.294  14.234 -16.776  1.00  0.00     0.041 C 
ATOM     13  O   UNL     1      24.099  14.147 -16.387  1.00  0.00    -0.550 OA
ATOM     14  O   UNL     1      26.313  14.387 -15.844  1.00  0.00    -0.550 OA
ENDBRANCH  11  12
ENDBRANCH  10  11
ENDBRANCH   9  10
ENDBRANCH   8   9
ENDBRANCH   7   8
ENDBRANCH   6   7
ENDBRANCH   5   6
ENDBRANCH   4   5
ENDBRANCH   3   4
ENDBRANCH   2   3
ENDBRANCH   1   2
BRANCH   1  15
ATOM     15  C   UNL     1      30.697  16.418 -19.877  1.00  0.00     0.000 C 
BRANCH  15  16
ATOM     16  C   UNL     1      31.928  17.332 -19.978  1.00  0.00     0.000 C 
BRANCH  16  17
ATOM     17  C   UNL     1      32.264  18.022 -18.644  1.00  0.00     0.000 C 
BRANCH  17  18
ATOM     18  C   UNL     1      33.753  18.398 -18.524  1.00  0.00    -0.000 C 
BRANCH  18  19
ATOM     19  C   UNL     1      34.652  17.318 -17.890  1.00  0.00    -0.000 C 
BRANCH  19  20
ATOM     20  C   UNL     1      34.703  15.981 -18.650  1.00  0.00    -0.000 C 
BRANCH  20  21
ATOM     21  C   UNL     1      34.206  14.797 -17.807  1.00  0.00    -0.000 C 
BRANCH  21  22
ATOM     22  C   UNL     1      33.269  13.896 -18.621  1.00  0.00    -0.000 C 
BRANCH  22  23
ATOM     23  C   UNL     1      32.352  13.079 -17.699  1.00  0.00    -0.000 C 
BRANCH  23  24
ATOM     24  C   UNL     1      32.085  13.780 -16.357  1.00  0.00    -0.000 C 
BRANCH  24  25
ATOM     25  C   UNL     1      30.918  13.149 -15.584  1.00  0.00    -0.003 C 
ATOM     26  C   UNL     1      29.870  14.197 -15.221  1.00  0.00     0.004 C 
ENDBRANCH  24  25
ENDBRANCH  23  24
ENDBRANCH  22  23
ENDBRANCH  21  22
ENDBRANCH  20  21
ENDBRANCH  19  20
ENDBRANCH  18  19
ENDBRANCH  17  18
ENDBRANCH  16  17
ENDBRANCH  15  16
ENDBRANCH   1  15
TORSDOF 22
ENDMDL
MODEL 6
REMARK VINA RESULT:    -3.302      3.217      7.782
REMARK INTER + INTRA:         -10.868
REMARK INTER:                  -7.067
REMARK INTRA:                  -3.801
REMARK UNBOUND:                -3.319
REMARK SMILES CCCCCCCCCCCCCCCCCCCCCCCC(=O)[O-]
REMARK SMILES IDX 13 1 14 2 15 3 16 4 17 5 18 6 19 7 20 8 21 9 22 10 23 11
REMARK SMILES IDX 24 12 25 13 26 14 12 15 11 16 10 17 9 18 8 19 7 20 6 21 5 22
REMARK SMILES IDX 4 23 3 24 2 25 1 26
REMARK H PARENT
REMARK Flexibility Score: inf
ROOT
ATOM      1  C   UNL     1      29.518  17.703 -18.680  1.00  0.00     0.000 C 
ENDROOT
BRANCH   1   2
ATOM      2  C   UNL     1      29.664  16.222 -19.063  1.00  0.00     0.000 C 
BRANCH   2   3
ATOM      3  C   UNL     1      30.893  15.554 -18.420  1.00  0.00     0.000 C 
BRANCH   3   4
ATOM      4  C   UNL     1      30.981  14.028 -18.614  1.00  0.00     0.000 C 
BRANCH   4   5
ATOM      5  C   UNL     1      31.464  13.292 -17.353  1.00  0.00     0.000 C 
BRANCH   5   6
ATOM      6  C   UNL     1      32.141  14.231 -16.338  1.00  0.00     0.000 C 
BRANCH   6   7
ATOM      7  C   UNL     1      33.612  13.894 -16.027  1.00  0.00     0.000 C 
BRANCH   7   8
ATOM      8  C   UNL     1      34.625  14.846 -16.704  1.00  0.00     0.000 C 
BRANCH   8   9
ATOM      9  C   UNL     1      34.695  14.679 -18.234  1.00  0.00     0.000 C 
BRANCH   9  10
ATOM     10  C   UNL     1      34.523  15.994 -19.017  1.00  0.00     0.006 C 
BRANCH  10  11
ATOM     11  C   UNL     1      34.371  17.215 -18.100  1.00  0.00     0.053 C 
BRANCH  11  12
ATOM     12  C   UNL     1      33.510  18.250 -18.751  1.00  0.00     0.041 C 
ATOM     13  O   UNL     1      33.224  19.313 -18.139  1.00  0.00    -0.550 OA
ATOM     14  O   UNL     1      32.978  18.018 -20.015  1.00  0.00    -0.550 OA
ENDBRANCH  11  12
ENDBRANCH  10  11
ENDBRANCH   9  10
ENDBRANCH   8   9
ENDBRANCH   7   8
ENDBRANCH   6   7
ENDBRANCH   5   6
ENDBRANCH   4   5
ENDBRANCH   3   4
ENDBRANCH   2   3
ENDBRANCH   1   2
BRANCH   1  15
ATOM     15  C   UNL     1      28.608  17.865 -17.453  1.00  0.00     0.000 C 
BRANCH  15  16
ATOM     16  C   UNL     1      27.999  16.535 -16.982  1.00  0.00     0.000 C 
BRANCH  16  17
ATOM     17  C   UNL     1      28.507  16.108 -15.594  1.00  0.00     0.000 C 
BRANCH  17  18
ATOM     18  C   UNL     1      28.649  14.582 -15.452  1.00  0.00    -0.000 C 
BRANCH  18  19
ATOM     19  C   UNL     1      27.859  13.752 -16.484  1.00  0.00    -0.000 C 
BRANCH  19  20
ATOM     20  C   UNL     1      26.410  13.419 -16.085  1.00  0.00    -0.000 C 
BRANCH  20  21
ATOM     21  C   UNL     1      25.445  13.431 -17.280  1.00  0.00    -0.000 C 
BRANCH  21  22
ATOM     22  C   UNL     1      26.178  13.795 -18.576  1.00  0.00    -0.000 C 
BRANCH  22  23
ATOM     23  C   UNL     1      25.416  14.879 -19.354  1.00  0.00    -0.000 C 
BRANCH  23  24
ATOM     24  C   UNL     1      24.521  15.739 -18.447  1.00  0.00    -0.000 C 
BRANCH  24  25
ATOM     25  C   UNL     1      24.833  17.238 -18.561  1.00  0.00    -0.003 C 
ATOM     26  C   UNL     1      23.697  18.081 -17.989  1.00  0.00     0.004 C 
ENDBRANCH  24  25
ENDBRANCH  23  24
ENDBRANCH  22  23
ENDBRANCH  21  22
ENDBRANCH  20  21
ENDBRANCH  19  20
ENDBRANCH  18  19
ENDBRANCH  17  18
ENDBRANCH  16  17
ENDBRANCH  15  16
ENDBRANCH   1  15
TORSDOF 22
ENDMDL
MODEL 7
REMARK VINA RESULT:    -3.299      2.325      3.808
REMARK INTER + INTRA:         -10.860
REMARK INTER:                  -7.053
REMARK INTRA:                  -3.808
REMARK UNBOUND:                -3.319
REMARK SMILES CCCCCCCCCCCCCCCCCCCCCCCC(=O)[O-]
REMARK SMILES IDX 13 1 14 2 15 3 16 4 17 5 18 6 19 7 20 8 21 9 22 10 23 11
REMARK SMILES IDX 24 12 25 13 26 14 12 15 11 16 10 17 9 18 8 19 7 20 6 21 5 22
REMARK SMILES IDX 4 23 3 24 2 25 1 26
REMARK H PARENT
REMARK Flexibility Score: inf
ROOT
ATOM      1  C   UNL     1      29.378  17.109 -20.072  1.00  0.00     0.000 C 
ENDROOT
BRANCH   1   2
ATOM      2  C   UNL     1      29.548  15.583 -20.112  1.00  0.00     0.000 C 
BRANCH   2   3
ATOM      3  C   UNL     1      28.207  14.828 -20.089  1.00  0.00     0.000 C 
BRANCH   3   4
ATOM      4  C   UNL     1      28.180  13.575 -19.194  1.00  0.00     0.000 C 
BRANCH   4   5
ATOM      5  C   UNL     1      26.908  13.481 -18.334  1.00  0.00     0.000 C 
BRANCH   5   6
ATOM      6  C   UNL     1      25.636  13.867 -19.111  1.00  0.00     0.000 C 
BRANCH   6   7
ATOM      7  C   UNL     1      24.496  14.435 -18.242  1.00  0.00     0.000 C 
BRANCH   7   8
ATOM      8  C   UNL     1      24.066  15.866 -18.639  1.00  0.00     0.000 C 
BRANCH   8   9
ATOM      9  C   UNL     1      24.971  16.503 -19.711  1.00  0.00     0.000 C 
BRANCH   9  10
ATOM     10  C   UNL     1      25.637  17.820 -19.267  1.00  0.00     0.006 C 
BRANCH  10  11
ATOM     11  C   UNL     1      26.448  17.668 -17.974  1.00  0.00     0.053 C 
BRANCH  11  12
ATOM     12  C   UNL     1      27.248  18.903 -17.714  1.00  0.00     0.041 C 
ATOM     13  O   UNL     1      28.068  18.938 -16.758  1.00  0.00    -0.550 OA
ATOM     14  O   UNL     1      27.052  20.036 -18.495  1.00  0.00    -0.550 OA
ENDBRANCH  11  12
ENDBRANCH  10  11
ENDBRANCH   9  10
ENDBRANCH   8   9
ENDBRANCH   7   8
ENDBRANCH   6   7
ENDBRANCH   5   6
ENDBRANCH   4   5
ENDBRANCH   3   4
ENDBRANCH   2   3
ENDBRANCH   1   2
BRANCH   1  15
ATOM     15  C   UNL     1      30.376  17.748 -19.094  1.00  0.00     0.000 C 
BRANCH  15  16
ATOM     16  C   UNL     1      31.793  17.167 -19.226  1.00  0.00     0.000 C 
BRANCH  16  17
ATOM     17  C   UNL     1      32.880  18.140 -18.735  1.00  0.00     0.000 C 
BRANCH  17  18
ATOM     18  C   UNL     1      34.293  17.529 -18.780  1.00  0.00    -0.000 C 
BRANCH  18  19
ATOM     19  C   UNL     1      34.679  16.678 -17.554  1.00  0.00    -0.000 C 
BRANCH  19  20
ATOM     20  C   UNL     1      34.319  15.185 -17.654  1.00  0.00    -0.000 C 
BRANCH  20  21
ATOM     21  C   UNL     1      34.258  14.492 -16.285  1.00  0.00    -0.000 C 
BRANCH  21  22
ATOM     22  C   UNL     1      33.004  13.618 -16.166  1.00  0.00    -0.000 C 
BRANCH  22  23
ATOM     23  C   UNL     1      31.856  14.182 -17.017  1.00  0.00    -0.000 C 
BRANCH  23  24
ATOM     24  C   UNL     1      30.516  14.203 -16.264  1.00  0.00    -0.000 C 
BRANCH  24  25
ATOM     25  C   UNL     1      29.745  15.514 -16.470  1.00  0.00    -0.003 C 
ATOM     26  C   UNL     1      28.413  15.491 -15.725  1.00  0.00     0.004 C 
ENDBRANCH  24  25
ENDBRANCH  23  24
ENDBRANCH  22  23
ENDBRANCH  21  22
ENDBRANCH  20  21
ENDBRANCH  19  20
ENDBRANCH  18  19
ENDBRANCH  17  18
ENDBRANCH  16  17
ENDBRANCH  15  16
ENDBRANCH   1  15
TORSDOF 22
ENDMDL
MODEL 8
REMARK VINA RESULT:    -3.257      2.377      4.774
REMARK INTER + INTRA:         -10.766
REMARK INTER:                  -7.552
REMARK INTRA:                  -3.214
REMARK UNBOUND:                -3.319
REMARK SMILES CCCCCCCCCCCCCCCCCCCCCCCC(=O)[O-]
REMARK SMILES IDX 13 1 14 2 15 3 16 4 17 5 18 6 19 7 20 8 21 9 22 10 23 11
REMARK SMILES IDX 24 12 25 13 26 14 12 15 11 16 10 17 9 18 8 19 7 20 6 21 5 22
REMARK SMILES IDX 4 23 3 24 2 25 1 26
REMARK H PARENT
REMARK Flexibility Score: inf
ROOT
ATOM      1  C   UNL     1      29.790  13.239 -14.860  1.00  0.00     0.000 C 
ENDROOT
BRANCH   1   2
ATOM      2  C   UNL     1      28.384  12.949 -15.410  1.00  0.00     0.000 C 
BRANCH   2   3
ATOM      3  C   UNL     1      28.196  13.428 -16.860  1.00  0.00     0.000 C 
BRANCH   3   4
ATOM      4  C   UNL     1      27.000  14.372 -17.085  1.00  0.00     0.000 C 
BRANCH   4   5
ATOM      5  C   UNL     1      25.752  13.957 -16.286  1.00  0.00     0.000 C 
BRANCH   5   6
ATOM      6  C   UNL     1      24.474  13.944 -17.143  1.00  0.00     0.000 C 
BRANCH   6   7
ATOM      7  C   UNL     1      24.706  14.148 -18.653  1.00  0.00     0.000 C 
BRANCH   7   8
ATOM      8  C   UNL     1      24.132  15.476 -19.196  1.00  0.00     0.000 C 
BRANCH   8   9
ATOM      9  C   UNL     1      25.209  16.541 -19.480  1.00  0.00     0.000 C 
BRANCH   9  10
ATOM     10  C   UNL     1      25.149  17.760 -18.541  1.00  0.00     0.006 C 
BRANCH  10  11
ATOM     11  C   UNL     1      26.538  18.230 -18.090  1.00  0.00     0.053 C 
BRANCH  11  12
ATOM     12  C   UNL     1      26.517  19.693 -17.780  1.00  0.00     0.041 C 
ATOM     13  O   UNL     1      25.961  20.110 -16.729  1.00  0.00    -0.550 OA
ATOM     14  O   UNL     1      27.064  20.602 -18.678  1.00  0.00    -0.550 OA
ENDBRANCH  11  12
ENDBRANCH  10  11
ENDBRANCH   9  10
ENDBRANCH   8   9
ENDBRANCH   7   8
ENDBRANCH   6   7
ENDBRANCH   5   6
ENDBRANCH   4   5
ENDBRANCH   3   4
ENDBRANCH   2   3
ENDBRANCH   1   2
BRANCH   1  15
ATOM     15  C   UNL     1      30.475  14.354 -15.666  1.00  0.00     0.000 C 
BRANCH  15  16
ATOM     16  C   UNL     1      31.939  14.032 -16.003  1.00  0.00     0.000 C 
BRANCH  16  17
ATOM     17  C   UNL     1      32.146  13.707 -17.493  1.00  0.00     0.000 C 
BRANCH  17  18
ATOM     18  C   UNL     1      33.604  13.900 -17.949  1.00  0.00    -0.000 C 
BRANCH  18  19
ATOM     19  C   UNL     1      34.545  14.516 -16.895  1.00  0.00    -0.000 C 
BRANCH  19  20
ATOM     20  C   UNL     1      34.804  16.025 -17.052  1.00  0.00    -0.000 C 
BRANCH  20  21
ATOM     21  C   UNL     1      34.433  16.552 -18.446  1.00  0.00    -0.000 C 
BRANCH  21  22
ATOM     22  C   UNL     1      34.143  18.057 -18.406  1.00  0.00    -0.000 C 
BRANCH  22  23
ATOM     23  C   UNL     1      32.646  18.335 -18.609  1.00  0.00    -0.000 C 
BRANCH  23  24
ATOM     24  C   UNL     1      31.877  17.101 -19.108  1.00  0.00    -0.000 C 
BRANCH  24  25
ATOM     25  C   UNL     1      30.525  16.925 -18.403  1.00  0.00    -0.003 C 
ATOM     26  C   UNL     1      29.587  16.046 -19.226  1.00  0.00     0.004 C 
ENDBRANCH  24  25
ENDBRANCH  23  24
ENDBRANCH  22  23
ENDBRANCH  21  22
ENDBRANCH  20  21
ENDBRANCH  19  20
ENDBRANCH  18  19
ENDBRANCH  17  18
ENDBRANCH  16  17
ENDBRANCH  15  16
ENDBRANCH   1  15
TORSDOF 22
ENDMDL
MODEL 9
REMARK VINA RESULT:    -3.209      2.425      7.155
REMARK INTER + INTRA:         -10.656
REMARK INTER:                  -7.204
REMARK INTRA:                  -3.452
REMARK UNBOUND:                -3.319
REMARK SMILES CCCCCCCCCCCCCCCCCCCCCCCC(=O)[O-]
REMARK SMILES IDX 13 1 14 2 15 3 16 4 17 5 18 6 19 7 20 8 21 9 22 10 23 11
REMARK SMILES IDX 24 12 25 13 26 14 12 15 11 16 10 17 9 18 8 19 7 20 6 21 5 22
REMARK SMILES IDX 4 23 3 24 2 25 1 26
REMARK H PARENT
REMARK Flexibility Score: inf
ROOT
ATOM      1  C   UNL     1      32.618  13.698 -19.342  1.00  0.00     0.000 C 
ENDROOT
BRANCH   1   2
ATOM      2  C   UNL     1      33.913  14.517 -19.456  1.00  0.00     0.000 C 
BRANCH   2   3
ATOM      3  C   UNL     1      34.597  14.751 -18.097  1.00  0.00     0.000 C 
BRANCH   3   4
ATOM      4  C   UNL     1      34.291  16.109 -17.438  1.00  0.00     0.000 C 
BRANCH   4   5
ATOM      5  C   UNL     1      34.536  17.299 -18.380  1.00  0.00     0.000 C 
BRANCH   5   6
ATOM      6  C   UNL     1      33.305  18.214 -18.515  1.00  0.00     0.000 C 
BRANCH   6   7
ATOM      7  C   UNL     1      32.169  17.643 -19.386  1.00  0.00     0.000 C 
BRANCH   7   8
ATOM      8  C   UNL     1      30.854  17.398 -18.611  1.00  0.00     0.000 C 
BRANCH   8   9
ATOM      9  C   UNL     1      29.675  16.993 -19.516  1.00  0.00     0.000 C 
BRANCH   9  10
ATOM     10  C   UNL     1      28.520  18.012 -19.536  1.00  0.00     0.006 C 
BRANCH  10  11
ATOM     11  C   UNL     1      28.200  18.574 -18.144  1.00  0.00     0.053 C 
BRANCH  11  12
ATOM     12  C   UNL     1      27.192  19.673 -18.247  1.00  0.00     0.041 C 
ATOM     13  O   UNL     1      27.184  20.434 -19.250  1.00  0.00    -0.550 OA
ATOM     14  O   UNL     1      26.294  19.892 -17.208  1.00  0.00    -0.550 OA
ENDBRANCH  11  12
ENDBRANCH  10  11
ENDBRANCH   9  10
ENDBRANCH   8   9
ENDBRANCH   7   8
ENDBRANCH   6   7
ENDBRANCH   5   6
ENDBRANCH   4   5
ENDBRANCH   3   4
ENDBRANCH   2   3
ENDBRANCH   1   2
BRANCH   1  15
ATOM     15  C   UNL     1      32.575  12.919 -18.018  1.00  0.00     0.000 C 
BRANCH  15  16
ATOM     16  C   UNL     1      31.263  13.128 -17.247  1.00  0.00     0.000 C 
BRANCH  16  17
ATOM     17  C   UNL     1      31.424  14.084 -16.051  1.00  0.00     0.000 C 
BRANCH  17  18
ATOM     18  C   UNL     1      30.097  14.351 -15.317  1.00  0.00    -0.000 C 
BRANCH  18  19
ATOM     19  C   UNL     1      29.173  15.387 -15.988  1.00  0.00    -0.000 C 
BRANCH  19  20
ATOM     20  C   UNL     1      28.259  14.829 -17.092  1.00  0.00    -0.000 C 
BRANCH  20  21
ATOM     21  C   UNL     1      26.766  15.020 -16.785  1.00  0.00    -0.000 C 
BRANCH  21  22
ATOM     22  C   UNL     1      25.906  14.058 -17.614  1.00  0.00    -0.000 C 
BRANCH  22  23
ATOM     23  C   UNL     1      24.871  14.825 -18.450  1.00  0.00    -0.000 C 
BRANCH  23  24
ATOM     24  C   UNL     1      25.516  15.664 -19.565  1.00  0.00    -0.000 C 
BRANCH  24  25
ATOM     25  C   UNL     1      24.902  17.067 -19.677  1.00  0.00    -0.003 C 
ATOM     26  C   UNL     1      24.142  17.437 -18.406  1.00  0.00     0.004 C 
ENDBRANCH  24  25
ENDBRANCH  23  24
ENDBRANCH  22  23
ENDBRANCH  21  22
ENDBRANCH  20  21
ENDBRANCH  19  20
ENDBRANCH  18  19
ENDBRANCH  17  18
ENDBRANCH  16  17
ENDBRANCH  15  16
ENDBRANCH   1  15
TORSDOF 22
ENDMDL
