MODEL 1
REMARK VINA RESULT:    -4.713      0.000      0.000
REMARK INTER + INTRA:          -5.120
REMARK INTER:                  -4.989
REMARK INTRA:                  -0.132
REMARK UNBOUND:                -0.132
REMARK SMILES C=C(C)[C@@H]1CC=C(C)CC1
REMARK SMILES IDX 8 1 7 2 6 3 5 4 4 5 10 6 9 7 2 8 1 9 3 10
REMARK H PARENT
REMARK Flexibility Score: inf
ROOT
ATOM      1  C   UNL     1      -1.707  -1.287  14.104  1.00  0.00     0.039 C 
ATOM      2  C   UNL     1      -1.462   0.083  13.532  1.00  0.00    -0.077 C 
ATOM      3  C   UNL     1      -1.177   0.204  12.218  1.00  0.00    -0.027 C 
ATOM      4  C   UNL     1      -0.968   1.535  11.541  1.00  0.00     0.035 C 
ATOM      5  C   UNL     1      -0.568   2.637  12.536  1.00  0.00     0.018 C 
ATOM      6  C   UNL     1      -1.514   2.617  13.745  1.00  0.00     0.013 C 
ATOM      7  C   UNL     1      -1.410   1.271  14.474  1.00  0.00     0.031 C 
ENDROOT
BRANCH   5   8
ATOM      8  C   UNL     1      -0.543   4.006  11.868  1.00  0.00    -0.077 C 
ATOM      9  C   UNL     1      -1.082   4.170  10.649  1.00  0.00     0.008 C 
ATOM     10  C   UNL     1       0.069   5.204  12.552  1.00  0.00     0.039 C 
ENDBRANCH   5   8
TORSDOF 1
ENDMDL
MODEL 2
REMARK VINA RESULT:    -4.674      1.466      4.405
REMARK INTER + INTRA:          -5.079
REMARK INTER:                  -4.949
REMARK INTRA:                  -0.129
REMARK UNBOUND:                -0.132
REMARK SMILES C=C(C)[C@@H]1CC=C(C)CC1
REMARK SMILES IDX 8 1 7 2 6 3 5 4 4 5 10 6 9 7 2 8 1 9 3 10
REMARK H PARENT
REMARK Flexibility Score: inf
ROOT
ATOM      1  C   UNL     1      -0.522   5.450  15.228  1.00  0.00     0.039 C 
ATOM      2  C   UNL     1      -0.742   4.074  14.659  1.00  0.00    -0.077 C 
ATOM      3  C   UNL     1      -1.669   3.272  15.225  1.00  0.00    -0.027 C 
ATOM      4  C   UNL     1      -2.001   1.899  14.696  1.00  0.00     0.035 C 
ATOM      5  C   UNL     1      -0.856   1.307  13.856  1.00  0.00     0.018 C 
ATOM      6  C   UNL     1      -0.369   2.344  12.834  1.00  0.00     0.013 C 
ATOM      7  C   UNL     1       0.175   3.583  13.556  1.00  0.00     0.031 C 
ENDROOT
BRANCH   5   8
ATOM      8  C   UNL     1      -1.277   0.009  13.180  1.00  0.00    -0.077 C 
ATOM      9  C   UNL     1      -1.316  -0.071  11.841  1.00  0.00     0.008 C 
ATOM     10  C   UNL     1      -1.646  -1.213  13.985  1.00  0.00     0.039 C 
ENDBRANCH   5   8
TORSDOF 1
ENDMDL
MODEL 3
REMARK VINA RESULT:    -4.562      0.365      1.627
REMARK INTER + INTRA:          -4.960
REMARK INTER:                  -4.834
REMARK INTRA:                  -0.126
REMARK UNBOUND:                -0.132
REMARK SMILES C=C(C)[C@@H]1CC=C(C)CC1
REMARK SMILES IDX 8 1 7 2 6 3 5 4 4 5 10 6 9 7 2 8 1 9 3 10
REMARK H PARENT
REMARK Flexibility Score: inf
ROOT
ATOM      1  C   UNL     1      -1.738  -1.247  14.124  1.00  0.00     0.039 C 
ATOM      2  C   UNL     1      -1.434   0.106  13.540  1.00  0.00    -0.077 C 
ATOM      3  C   UNL     1      -1.387   1.178  14.361  1.00  0.00    -0.027 C 
ATOM      4  C   UNL     1      -1.038   2.565  13.882  1.00  0.00     0.035 C 
ATOM      5  C   UNL     1      -1.288   2.739  12.374  1.00  0.00     0.018 C 
ATOM      6  C   UNL     1      -0.669   1.564  11.603  1.00  0.00     0.013 C 
ATOM      7  C   UNL     1      -1.322   0.246  12.034  1.00  0.00     0.031 C 
ENDROOT
BRANCH   5   8
ATOM      8  C   UNL     1      -0.759   4.077  11.875  1.00  0.00    -0.077 C 
ATOM      9  C   UNL     1      -1.164   4.562  10.691  1.00  0.00     0.008 C 
ATOM     10  C   UNL     1       0.214   4.893  12.692  1.00  0.00     0.039 C 
ENDBRANCH   5   8
TORSDOF 1
ENDMDL
MODEL 4
REMARK VINA RESULT:    -4.560      1.359      4.232
REMARK INTER + INTRA:          -4.958
REMARK INTER:                  -4.828
REMARK INTRA:                  -0.130
REMARK UNBOUND:                -0.132
REMARK SMILES C=C(C)[C@@H]1CC=C(C)CC1
REMARK SMILES IDX 8 1 7 2 6 3 5 4 4 5 10 6 9 7 2 8 1 9 3 10
REMARK H PARENT
REMARK Flexibility Score: inf
ROOT
ATOM      1  C   UNL     1      -0.440   5.689  14.993  1.00  0.00     0.039 C 
ATOM      2  C   UNL     1      -0.662   4.267  14.553  1.00  0.00    -0.077 C 
ATOM      3  C   UNL     1      -0.416   3.933  13.268  1.00  0.00    -0.027 C 
ATOM      4  C   UNL     1      -0.556   2.525  12.744  1.00  0.00     0.035 C 
ATOM      5  C   UNL     1      -1.496   1.672  13.612  1.00  0.00     0.018 C 
ATOM      6  C   UNL     1      -1.120   1.825  15.093  1.00  0.00     0.013 C 
ATOM      7  C   UNL     1      -1.280   3.286  15.531  1.00  0.00     0.031 C 
ENDROOT
BRANCH   5   8
ATOM      8  C   UNL     1      -1.480   0.213  13.178  1.00  0.00    -0.077 C 
ATOM      9  C   UNL     1      -1.244  -0.106  11.896  1.00  0.00     0.008 C 
ATOM     10  C   UNL     1      -1.714  -0.904  14.166  1.00  0.00     0.039 C 
ENDBRANCH   5   8
TORSDOF 1
ENDMDL
MODEL 5
REMARK VINA RESULT:    -4.543      1.461      2.246
REMARK INTER + INTRA:          -4.940
REMARK INTER:                  -4.818
REMARK INTRA:                  -0.122
REMARK UNBOUND:                -0.132
REMARK SMILES C=C(C)[C@@H]1CC=C(C)CC1
REMARK SMILES IDX 8 1 7 2 6 3 5 4 4 5 10 6 9 7 2 8 1 9 3 10
REMARK H PARENT
REMARK Flexibility Score: inf
ROOT
ATOM      1  C   UNL     1      -1.749  -1.023  14.089  1.00  0.00     0.039 C 
ATOM      2  C   UNL     1      -1.643   0.476  14.020  1.00  0.00    -0.077 C 
ATOM      3  C   UNL     1      -2.417   1.226  14.833  1.00  0.00    -0.027 C 
ATOM      4  C   UNL     1      -2.346   2.733  14.876  1.00  0.00     0.035 C 
ATOM      5  C   UNL     1      -1.759   3.324  13.584  1.00  0.00     0.018 C 
ATOM      6  C   UNL     1      -0.468   2.581  13.209  1.00  0.00     0.013 C 
ATOM      7  C   UNL     1      -0.769   1.100  12.948  1.00  0.00     0.031 C 
ENDROOT
BRANCH   5   8
ATOM      8  C   UNL     1      -1.523   4.823  13.717  1.00  0.00    -0.077 C 
ATOM      9  C   UNL     1      -1.924   5.657  12.745  1.00  0.00     0.008 C 
ATOM     10  C   UNL     1      -0.850   5.408  14.935  1.00  0.00     0.039 C 
ENDBRANCH   5   8
TORSDOF 1
ENDMDL
MODEL 6
REMARK VINA RESULT:    -4.303      9.484      9.857
REMARK INTER + INTRA:          -4.686
REMARK INTER:                  -4.554
REMARK INTRA:                  -0.132
REMARK UNBOUND:                -0.132
REMARK SMILES C=C(C)[C@@H]1CC=C(C)CC1
REMARK SMILES IDX 8 1 7 2 6 3 5 4 4 5 10 6 9 7 2 8 1 9 3 10
REMARK H PARENT
REMARK Flexibility Score: inf
ROOT
ATOM      1  C   UNL     1      -9.553  -1.348   9.945  1.00  0.00     0.039 C 
ATOM      2  C   UNL     1      -9.888   0.109   9.778  1.00  0.00    -0.077 C 
ATOM      3  C   UNL     1     -10.000   0.617   8.531  1.00  0.00    -0.027 C 
ATOM      4  C   UNL     1     -10.384   2.050   8.259  1.00  0.00     0.035 C 
ATOM      5  C   UNL     1     -10.094   2.968   9.458  1.00  0.00     0.018 C 
ATOM      6  C   UNL     1     -10.646   2.336  10.744  1.00  0.00     0.013 C 
ATOM      7  C   UNL     1      -9.958   0.991  11.010  1.00  0.00     0.031 C 
ENDROOT
BRANCH   5   8
ATOM      8  C   UNL     1     -10.656   4.365   9.236  1.00  0.00    -0.077 C 
ATOM      9  C   UNL     1     -11.125   4.719   8.029  1.00  0.00     0.008 C 
ATOM     10  C   UNL     1     -10.713   5.378  10.354  1.00  0.00     0.039 C 
ENDBRANCH   5   8
TORSDOF 1
ENDMDL
MODEL 7
REMARK VINA RESULT:    -4.177      1.187      4.744
REMARK INTER + INTRA:          -4.552
REMARK INTER:                  -4.424
REMARK INTRA:                  -0.128
REMARK UNBOUND:                -0.132
REMARK SMILES C=C(C)[C@@H]1CC=C(C)CC1
REMARK SMILES IDX 8 1 7 2 6 3 5 4 4 5 10 6 9 7 2 8 1 9 3 10
REMARK H PARENT
REMARK Flexibility Score: inf
ROOT
ATOM      1  C   UNL     1      -1.555   6.286  10.652  1.00  0.00     0.039 C 
ATOM      2  C   UNL     1      -1.539   4.953  11.350  1.00  0.00    -0.077 C 
ATOM      3  C   UNL     1      -2.081   4.852  12.583  1.00  0.00    -0.027 C 
ATOM      4  C   UNL     1      -2.160   3.551  13.342  1.00  0.00     0.035 C 
ATOM      5  C   UNL     1      -1.120   2.529  12.854  1.00  0.00     0.018 C 
ATOM      6  C   UNL     1      -1.155   2.440  11.322  1.00  0.00     0.013 C 
ATOM      7  C   UNL     1      -0.797   3.798  10.705  1.00  0.00     0.031 C 
ENDROOT
BRANCH   5   8
ATOM      8  C   UNL     1      -1.337   1.166  13.499  1.00  0.00    -0.077 C 
ATOM      9  C   UNL     1      -1.585   1.075  14.815  1.00  0.00     0.008 C 
ATOM     10  C   UNL     1      -1.291  -0.105  12.686  1.00  0.00     0.039 C 
ENDBRANCH   5   8
TORSDOF 1
ENDMDL
MODEL 8
REMARK VINA RESULT:    -4.168      1.543      2.200
REMARK INTER + INTRA:          -4.544
REMARK INTER:                  -4.416
REMARK INTRA:                  -0.128
REMARK UNBOUND:                -0.132
REMARK SMILES C=C(C)[C@@H]1CC=C(C)CC1
REMARK SMILES IDX 8 1 7 2 6 3 5 4 4 5 10 6 9 7 2 8 1 9 3 10
REMARK H PARENT
REMARK Flexibility Score: inf
ROOT
ATOM      1  C   UNL     1      -1.974  -0.412  13.734  1.00  0.00     0.039 C 
ATOM      2  C   UNL     1      -1.440   0.986  13.898  1.00  0.00    -0.077 C 
ATOM      3  C   UNL     1      -0.614   1.487  12.954  1.00  0.00    -0.027 C 
ATOM      4  C   UNL     1      -0.071   2.893  13.001  1.00  0.00     0.035 C 
ATOM      5  C   UNL     1      -0.082   3.474  14.425  1.00  0.00     0.018 C 
ATOM      6  C   UNL     1      -1.454   3.240  15.074  1.00  0.00     0.013 C 
ATOM      7  C   UNL     1      -1.739   1.737  15.181  1.00  0.00     0.031 C 
ENDROOT
BRANCH   5   8
ATOM      8  C   UNL     1       0.294   4.950  14.426  1.00  0.00    -0.077 C 
ATOM      9  C   UNL     1      -0.664   5.888  14.364  1.00  0.00     0.008 C 
ATOM     10  C   UNL     1       1.733   5.395  14.507  1.00  0.00     0.039 C 
ENDBRANCH   5   8
TORSDOF 1
ENDMDL
MODEL 9
REMARK VINA RESULT:    -4.072     11.491     12.655
REMARK INTER + INTRA:          -4.442
REMARK INTER:                  -4.312
REMARK INTRA:                  -0.130
REMARK UNBOUND:                -0.132
REMARK SMILES C=C(C)[C@@H]1CC=C(C)CC1
REMARK SMILES IDX 8 1 7 2 6 3 5 4 4 5 10 6 9 7 2 8 1 9 3 10
REMARK H PARENT
REMARK Flexibility Score: inf
ROOT
ATOM      1  C   UNL     1       0.274  -9.124  10.327  1.00  0.00     0.039 C 
ATOM      2  C   UNL     1       1.535  -9.182  11.144  1.00  0.00    -0.077 C 
ATOM      3  C   UNL     1       2.594  -8.431  10.770  1.00  0.00    -0.027 C 
ATOM      4  C   UNL     1       3.882  -8.379  11.552  1.00  0.00     0.035 C 
ATOM      5  C   UNL     1       4.073  -9.619  12.442  1.00  0.00     0.018 C 
ATOM      6  C   UNL     1       2.789  -9.891  13.239  1.00  0.00     0.013 C 
ATOM      7  C   UNL     1       1.625 -10.178  12.284  1.00  0.00     0.031 C 
ENDROOT
BRANCH   5   8
ATOM      8  C   UNL     1       5.279  -9.464  13.358  1.00  0.00    -0.077 C 
ATOM      9  C   UNL     1       5.491  -8.306  14.004  1.00  0.00     0.008 C 
ATOM     10  C   UNL     1       6.253 -10.597  13.575  1.00  0.00     0.039 C 
ENDBRANCH   5   8
TORSDOF 1
ENDMDL
