MODEL 1
REMARK VINA RESULT:    -3.284      0.000      0.000
REMARK INTER + INTRA:          -3.487
REMARK INTER:                  -3.476
REMARK INTRA:                  -0.011
REMARK UNBOUND:                -0.011
REMARK SMILES O=Cc1ccco1
REMARK SMILES IDX 5 1 6 2 7 3 3 4 4 5 2 6 1 7
REMARK H PARENT
REMARK Flexibility Score: inf
ROOT
ATOM      1  C   UNL     1      20.005  18.734  21.382  1.00  0.00     0.043 A 
ATOM      2  C   UNL     1      19.094  17.737  21.099  1.00  0.00     0.196 A 
ATOM      3  O   UNL     1      18.944  16.963  22.149  1.00  0.00    -0.462 OA
ATOM      4  C   UNL     1      19.718  17.409  23.111  1.00  0.00     0.166 A 
ATOM      5  C   UNL     1      20.411  18.525  22.683  1.00  0.00     0.054 A 
ENDROOT
BRANCH   4   6
ATOM      6  C   UNL     1      19.810  16.788  24.435  1.00  0.00     0.298 C 
ATOM      7  O   UNL     1      20.639  15.866  24.656  1.00  0.00    -0.294 OA
ENDBRANCH   4   6
TORSDOF 1
ENDMDL
MODEL 2
REMARK VINA RESULT:    -3.222      2.356      3.273
REMARK INTER + INTRA:          -3.421
REMARK INTER:                  -3.406
REMARK INTRA:                  -0.015
REMARK UNBOUND:                -0.011
REMARK SMILES O=Cc1ccco1
REMARK SMILES IDX 5 1 6 2 7 3 3 4 4 5 2 6 1 7
REMARK H PARENT
REMARK Flexibility Score: inf
ROOT
ATOM      1  C   UNL     1      19.235  17.432  21.981  1.00  0.00     0.043 A 
ATOM      2  C   UNL     1      19.556  17.720  23.291  1.00  0.00     0.196 A 
ATOM      3  O   UNL     1      20.327  18.783  23.336  1.00  0.00    -0.462 OA
ATOM      4  C   UNL     1      20.525  19.206  22.109  1.00  0.00     0.166 A 
ATOM      5  C   UNL     1      19.860  18.392  21.213  1.00  0.00     0.054 A 
ENDROOT
BRANCH   4   6
ATOM      6  C   UNL     1      21.341  20.377  21.775  1.00  0.00     0.298 C 
ATOM      7  O   UNL     1      22.260  20.759  22.546  1.00  0.00    -0.294 OA
ENDBRANCH   4   6
TORSDOF 1
ENDMDL
MODEL 3
REMARK VINA RESULT:    -3.128      9.773     11.375
REMARK INTER + INTRA:          -3.321
REMARK INTER:                  -3.305
REMARK INTRA:                  -0.016
REMARK UNBOUND:                -0.011
REMARK SMILES O=Cc1ccco1
REMARK SMILES IDX 5 1 6 2 7 3 3 4 4 5 2 6 1 7
REMARK H PARENT
REMARK Flexibility Score: inf
ROOT
ATOM      1  C   UNL     1      15.023  13.583  14.801  1.00  0.00     0.043 A 
ATOM      2  C   UNL     1      16.366  13.422  15.077  1.00  0.00     0.196 A 
ATOM      3  O   UNL     1      17.020  13.177  13.965  1.00  0.00    -0.462 OA
ATOM      4  C   UNL     1      16.164  13.169  12.970  1.00  0.00     0.166 A 
ATOM      5  C   UNL     1      14.889  13.420  13.438  1.00  0.00     0.054 A 
ENDROOT
BRANCH   4   6
ATOM      6  C   UNL     1      16.541  12.926  11.575  1.00  0.00     0.298 C 
ATOM      7  O   UNL     1      17.747  12.979  11.218  1.00  0.00    -0.294 OA
ENDBRANCH   4   6
TORSDOF 1
ENDMDL
MODEL 4
REMARK VINA RESULT:    -3.056      1.512      3.307
REMARK INTER + INTRA:          -3.245
REMARK INTER:                  -3.235
REMARK INTRA:                  -0.010
REMARK UNBOUND:                -0.011
REMARK SMILES O=Cc1ccco1
REMARK SMILES IDX 5 1 6 2 7 3 3 4 4 5 2 6 1 7
REMARK H PARENT
REMARK Flexibility Score: inf
ROOT
ATOM      1  C   UNL     1      19.709  16.995  25.042  1.00  0.00     0.043 A 
ATOM      2  C   UNL     1      19.599  18.369  25.125  1.00  0.00     0.196 A 
ATOM      3  O   UNL     1      19.637  18.889  23.919  1.00  0.00    -0.462 OA
ATOM      4  C   UNL     1      19.767  17.916  23.048  1.00  0.00     0.166 A 
ATOM      5  C   UNL     1      19.816  16.699  23.700  1.00  0.00     0.054 A 
ENDROOT
BRANCH   4   6
ATOM      6  C   UNL     1      19.844  18.126  21.600  1.00  0.00     0.298 C 
ATOM      7  O   UNL     1      18.909  17.748  20.846  1.00  0.00    -0.294 OA
ENDBRANCH   4   6
TORSDOF 1
ENDMDL
MODEL 5
REMARK VINA RESULT:    -3.041     14.189     15.469
REMARK INTER + INTRA:          -3.229
REMARK INTER:                  -3.218
REMARK INTRA:                  -0.011
REMARK UNBOUND:                -0.011
REMARK SMILES O=Cc1ccco1
REMARK SMILES IDX 5 1 6 2 7 3 3 4 4 5 2 6 1 7
REMARK H PARENT
REMARK Flexibility Score: inf
ROOT
ATOM      1  C   UNL     1      19.151  15.089   6.338  1.00  0.00     0.043 A 
ATOM      2  C   UNL     1      18.276  14.055   6.076  1.00  0.00     0.196 A 
ATOM      3  O   UNL     1      18.275  13.209   7.082  1.00  0.00    -0.462 OA
ATOM      4  C   UNL     1      19.114  13.644   7.993  1.00  0.00     0.166 A 
ATOM      5  C   UNL     1      19.695  14.826   7.578  1.00  0.00     0.054 A 
ENDROOT
BRANCH   4   6
ATOM      6  C   UNL     1      19.371  12.950   9.258  1.00  0.00     0.298 C 
ATOM      7  O   UNL     1      18.514  12.958  10.180  1.00  0.00    -0.294 OA
ENDBRANCH   4   6
TORSDOF 1
ENDMDL
MODEL 6
REMARK VINA RESULT:    -2.982     13.279     14.091
REMARK INTER + INTRA:          -3.167
REMARK INTER:                  -3.157
REMARK INTRA:                  -0.010
REMARK UNBOUND:                -0.011
REMARK SMILES O=Cc1ccco1
REMARK SMILES IDX 5 1 6 2 7 3 3 4 4 5 2 6 1 7
REMARK H PARENT
REMARK Flexibility Score: inf
ROOT
ATOM      1  C   UNL     1      31.751  25.652  22.808  1.00  0.00     0.043 A 
ATOM      2  C   UNL     1      31.606  27.022  22.883  1.00  0.00     0.196 A 
ATOM      3  O   UNL     1      30.531  27.391  22.225  1.00  0.00    -0.462 OA
ATOM      4  C   UNL     1      29.964  26.321  21.720  1.00  0.00     0.166 A 
ATOM      5  C   UNL     1      30.690  25.195  22.056  1.00  0.00     0.054 A 
ENDROOT
BRANCH   4   6
ATOM      6  C   UNL     1      28.737  26.352  20.919  1.00  0.00     0.298 C 
ATOM      7  O   UNL     1      28.748  25.992  19.712  1.00  0.00    -0.294 OA
ENDBRANCH   4   6
TORSDOF 1
ENDMDL
MODEL 7
REMARK VINA RESULT:    -2.922      8.910     10.245
REMARK INTER + INTRA:          -3.104
REMARK INTER:                  -3.093
REMARK INTRA:                  -0.010
REMARK UNBOUND:                -0.011
REMARK SMILES O=Cc1ccco1
REMARK SMILES IDX 5 1 6 2 7 3 3 4 4 5 2 6 1 7
REMARK H PARENT
REMARK Flexibility Score: inf
ROOT
ATOM      1  C   UNL     1      14.945  13.642  12.746  1.00  0.00     0.043 A 
ATOM      2  C   UNL     1      16.288  13.603  12.432  1.00  0.00     0.196 A 
ATOM      3  O   UNL     1      16.987  13.330  13.510  1.00  0.00    -0.462 OA
ATOM      4  C   UNL     1      16.161  13.189  14.519  1.00  0.00     0.166 A 
ATOM      5  C   UNL     1      14.859  13.374  14.096  1.00  0.00     0.054 A 
ENDROOT
BRANCH   4   6
ATOM      6  C   UNL     1      16.591  12.878  15.885  1.00  0.00     0.298 C 
ATOM      7  O   UNL     1      16.613  13.774  16.770  1.00  0.00    -0.294 OA
ENDBRANCH   4   6
TORSDOF 1
ENDMDL
MODEL 8
REMARK VINA RESULT:    -2.849     14.952     16.428
REMARK INTER + INTRA:          -3.026
REMARK INTER:                  -3.010
REMARK INTRA:                  -0.016
REMARK UNBOUND:                -0.011
REMARK SMILES O=Cc1ccco1
REMARK SMILES IDX 5 1 6 2 7 3 3 4 4 5 2 6 1 7
REMARK H PARENT
REMARK Flexibility Score: inf
ROOT
ATOM      1  C   UNL     1      20.796  12.896   8.614  1.00  0.00     0.043 A 
ATOM      2  C   UNL     1      19.992  13.999   8.815  1.00  0.00     0.196 A 
ATOM      3  O   UNL     1      19.800  14.621   7.674  1.00  0.00    -0.462 OA
ATOM      4  C   UNL     1      20.443  13.972   6.732  1.00  0.00     0.166 A 
ATOM      5  C   UNL     1      21.089  12.875   7.267  1.00  0.00     0.054 A 
ENDROOT
BRANCH   4   6
ATOM      6  C   UNL     1      20.453  14.381   5.325  1.00  0.00     0.298 C 
ATOM      7  O   UNL     1      19.976  15.493   4.976  1.00  0.00    -0.294 OA
ENDBRANCH   4   6
TORSDOF 1
ENDMDL
MODEL 9
REMARK VINA RESULT:    -2.804     13.816     14.468
REMARK INTER + INTRA:          -2.979
REMARK INTER:                  -2.966
REMARK INTRA:                  -0.013
REMARK UNBOUND:                -0.011
REMARK SMILES O=Cc1ccco1
REMARK SMILES IDX 5 1 6 2 7 3 3 4 4 5 2 6 1 7
REMARK H PARENT
REMARK Flexibility Score: inf
ROOT
ATOM      1  C   UNL     1      28.986  25.623  21.750  1.00  0.00     0.043 A 
ATOM      2  C   UNL     1      28.993  26.130  20.467  1.00  0.00     0.196 A 
ATOM      3  O   UNL     1      29.689  27.244  20.434  1.00  0.00    -0.462 OA
ATOM      4  C   UNL     1      30.139  27.491  21.642  1.00  0.00     0.166 A 
ATOM      5  C   UNL     1      29.727  26.502  22.513  1.00  0.00     0.054 A 
ENDROOT
BRANCH   4   6
ATOM      6  C   UNL     1      30.958  28.658  21.982  1.00  0.00     0.298 C 
ATOM      7  O   UNL     1      32.041  28.879  21.379  1.00  0.00    -0.294 OA
ENDBRANCH   4   6
TORSDOF 1
ENDMDL
