MODEL 1
REMARK VINA RESULT:    -7.538      0.000      0.000
REMARK INTER + INTRA:         -10.168
REMARK INTER:                  -9.521
REMARK INTRA:                  -0.647
REMARK UNBOUND:                -0.647
REMARK SMILES O=C(C=Cc1ccc(O)cc1)c1ccc(O)cc1O
REMARK SMILES IDX 4 1 3 2 5 3 6 4 7 5 8 6 11 7 10 8 9 9 2 11 1 12 12 13 18 14
REMARK SMILES IDX 13 15 17 16 14 17 15 18 19 19 16 21
REMARK H PARENT 9 10 19 20 16 22
REMARK Flexibility Score: inf
ROOT
ATOM      1  C   UNL     1      45.227  -0.324  21.882  1.00  0.00     0.012 C 
ATOM      2  C   UNL     1      44.366   0.674  21.638  1.00  0.00     0.053 C 
ENDROOT
BRANCH   1   3
ATOM      3  C   UNL     1      45.108  -1.251  23.034  1.00  0.00    -0.025 A 
ATOM      4  C   UNL     1      46.178  -1.506  23.917  1.00  0.00     0.012 A 
ATOM      5  C   UNL     1      46.019  -2.398  24.983  1.00  0.00     0.047 A 
ATOM      6  C   UNL     1      44.797  -3.054  25.177  1.00  0.00     0.115 A 
ATOM      7  C   UNL     1      43.892  -1.929  23.231  1.00  0.00     0.012 A 
ATOM      8  C   UNL     1      43.737  -2.818  24.297  1.00  0.00     0.047 A 
BRANCH   6   9
ATOM      9  O   UNL     1      44.628  -3.944  26.236  1.00  0.00    -0.508 OA
ATOM     10  H   UNL     1      45.422  -4.372  26.699  1.00  0.00     0.293 HD
ENDBRANCH   6   9
ENDBRANCH   1   3
BRANCH   2  11
ATOM     11  C   UNL     1      44.507   1.568  20.467  1.00  0.00     0.189 C 
ATOM     12  O   UNL     1      43.695   1.471  19.506  1.00  0.00    -0.289 OA
BRANCH  11  13
ATOM     13  C   UNL     1      45.586   2.586  20.408  1.00  0.00     0.064 A 
ATOM     14  C   UNL     1      46.191   2.932  19.179  1.00  0.00     0.130 A 
ATOM     15  C   UNL     1      46.036   3.210  21.587  1.00  0.00     0.020 A 
ATOM     16  C   UNL     1      47.221   3.884  19.148  1.00  0.00     0.093 A 
ATOM     17  C   UNL     1      47.060   4.160  21.544  1.00  0.00     0.047 A 
ATOM     18  C   UNL     1      47.655   4.500  20.324  1.00  0.00     0.119 A 
BRANCH  14  19
ATOM     19  O   UNL     1      45.763   2.341  17.990  1.00  0.00    -0.507 OA
ATOM     20  H   UNL     1      45.895   2.795  17.093  1.00  0.00     0.293 HD
ENDBRANCH  14  19
BRANCH  18  21
ATOM     21  O   UNL     1      48.677   5.444  20.271  1.00  0.00    -0.508 OA
ATOM     22  H   UNL     1      48.540   6.392  20.601  1.00  0.00     0.293 HD
ENDBRANCH  18  21
ENDBRANCH  11  13
ENDBRANCH   2  11
TORSDOF 6
ENDMDL
MODEL 2
REMARK VINA RESULT:    -7.289      4.845      7.163
REMARK INTER + INTRA:          -9.854
REMARK INTER:                  -9.440
REMARK INTRA:                  -0.413
REMARK UNBOUND:                -0.647
REMARK SMILES O=C(C=Cc1ccc(O)cc1)c1ccc(O)cc1O
REMARK SMILES IDX 4 1 3 2 5 3 6 4 7 5 8 6 11 7 10 8 9 9 2 11 1 12 12 13 18 14
REMARK SMILES IDX 13 15 17 16 14 17 15 18 19 19 16 21
REMARK H PARENT 9 10 19 20 16 22
REMARK Flexibility Score: inf
ROOT
ATOM      1  C   UNL     1      44.317  -5.297  26.082  1.00  0.00     0.012 C 
ATOM      2  C   UNL     1      44.056  -4.117  25.503  1.00  0.00     0.053 C 
ENDROOT
BRANCH   1   3
ATOM      3  C   UNL     1      43.290  -6.129  26.756  1.00  0.00    -0.025 A 
ATOM      4  C   UNL     1      42.910  -7.400  26.277  1.00  0.00     0.012 A 
ATOM      5  C   UNL     1      41.928  -8.142  26.942  1.00  0.00     0.047 A 
ATOM      6  C   UNL     1      41.305  -7.624  28.084  1.00  0.00     0.115 A 
ATOM      7  C   UNL     1      42.645  -5.614  27.894  1.00  0.00     0.012 A 
ATOM      8  C   UNL     1      41.665  -6.359  28.555  1.00  0.00     0.047 A 
BRANCH   6   9
ATOM      9  O   UNL     1      40.326  -8.355  28.752  1.00  0.00    -0.508 OA
ATOM     10  H   UNL     1      40.378  -9.365  28.828  1.00  0.00     0.293 HD
ENDBRANCH   6   9
ENDBRANCH   1   3
BRANCH   2  11
ATOM     11  C   UNL     1      45.104  -3.322  24.824  1.00  0.00     0.189 C 
ATOM     12  O   UNL     1      45.811  -2.520  25.494  1.00  0.00    -0.289 OA
BRANCH  11  13
ATOM     13  C   UNL     1      45.343  -3.459  23.365  1.00  0.00     0.064 A 
ATOM     14  C   UNL     1      46.175  -2.548  22.678  1.00  0.00     0.130 A 
ATOM     15  C   UNL     1      44.722  -4.495  22.640  1.00  0.00     0.020 A 
ATOM     16  C   UNL     1      46.374  -2.686  21.296  1.00  0.00     0.093 A 
ATOM     17  C   UNL     1      44.930  -4.625  21.265  1.00  0.00     0.047 A 
ATOM     18  C   UNL     1      45.757  -3.721  20.589  1.00  0.00     0.119 A 
BRANCH  14  19
ATOM     19  O   UNL     1      46.814  -1.517  23.366  1.00  0.00    -0.507 OA
ATOM     20  H   UNL     1      46.570  -0.545  23.214  1.00  0.00     0.293 HD
ENDBRANCH  14  19
BRANCH  18  21
ATOM     21  O   UNL     1      45.969  -3.842  19.218  1.00  0.00    -0.508 OA
ATOM     22  H   UNL     1      45.208  -3.756  18.555  1.00  0.00     0.293 HD
ENDBRANCH  18  21
ENDBRANCH  11  13
ENDBRANCH   2  11
TORSDOF 6
ENDMDL
MODEL 3
REMARK VINA RESULT:    -7.258      1.636      2.478
REMARK INTER + INTRA:          -9.815
REMARK INTER:                  -9.295
REMARK INTRA:                  -0.520
REMARK UNBOUND:                -0.647
REMARK SMILES O=C(C=Cc1ccc(O)cc1)c1ccc(O)cc1O
REMARK SMILES IDX 4 1 3 2 5 3 6 4 7 5 8 6 11 7 10 8 9 9 2 11 1 12 12 13 18 14
REMARK SMILES IDX 13 15 17 16 14 17 15 18 19 19 16 21
REMARK H PARENT 9 10 19 20 16 22
REMARK Flexibility Score: inf
ROOT
ATOM      1  C   UNL     1      44.982   0.595  21.334  1.00  0.00     0.012 C 
ATOM      2  C   UNL     1      45.170   1.843  21.788  1.00  0.00     0.053 C 
ENDROOT
BRANCH   1   3
ATOM      3  C   UNL     1      45.145  -0.619  22.171  1.00  0.00    -0.025 A 
ATOM      4  C   UNL     1      44.413  -0.826  23.358  1.00  0.00     0.012 A 
ATOM      5  C   UNL     1      44.611  -1.983  24.119  1.00  0.00     0.047 A 
ATOM      6  C   UNL     1      45.546  -2.942  23.713  1.00  0.00     0.115 A 
ATOM      7  C   UNL     1      46.094  -1.582  21.784  1.00  0.00     0.012 A 
ATOM      8  C   UNL     1      46.288  -2.737  22.546  1.00  0.00     0.047 A 
BRANCH   6   9
ATOM      9  O   UNL     1      45.751  -4.098  24.464  1.00  0.00    -0.508 OA
ATOM     10  H   UNL     1      44.973  -4.641  24.822  1.00  0.00     0.293 HD
ENDBRANCH   6   9
ENDBRANCH   1   3
BRANCH   2  11
ATOM     11  C   UNL     1      44.980   3.032  20.927  1.00  0.00     0.189 C 
ATOM     12  O   UNL     1      43.980   3.779  21.107  1.00  0.00    -0.289 OA
BRANCH  11  13
ATOM     13  C   UNL     1      45.955   3.366  19.858  1.00  0.00     0.064 A 
ATOM     14  C   UNL     1      47.094   4.153  20.136  1.00  0.00     0.130 A 
ATOM     15  C   UNL     1      45.743   2.915  18.541  1.00  0.00     0.020 A 
ATOM     16  C   UNL     1      47.994   4.471  19.108  1.00  0.00     0.093 A 
ATOM     17  C   UNL     1      46.647   3.235  17.525  1.00  0.00     0.047 A 
ATOM     18  C   UNL     1      47.775   4.013  17.806  1.00  0.00     0.119 A 
BRANCH  14  19
ATOM     19  O   UNL     1      47.341   4.607  21.432  1.00  0.00    -0.507 OA
ATOM     20  H   UNL     1      46.802   5.362  21.842  1.00  0.00     0.293 HD
ENDBRANCH  14  19
BRANCH  18  21
ATOM     21  O   UNL     1      48.682   4.339  16.800  1.00  0.00    -0.508 OA
ATOM     22  H   UNL     1      48.409   4.349  15.825  1.00  0.00     0.293 HD
ENDBRANCH  18  21
ENDBRANCH  11  13
ENDBRANCH   2  11
TORSDOF 6
ENDMDL
MODEL 4
REMARK VINA RESULT:    -7.220      1.923      2.779
REMARK INTER + INTRA:          -9.766
REMARK INTER:                  -9.353
REMARK INTRA:                  -0.412
REMARK UNBOUND:                -0.647
REMARK SMILES O=C(C=Cc1ccc(O)cc1)c1ccc(O)cc1O
REMARK SMILES IDX 4 1 3 2 5 3 6 4 7 5 8 6 11 7 10 8 9 9 2 11 1 12 12 13 18 14
REMARK SMILES IDX 13 15 17 16 14 17 15 18 19 19 16 21
REMARK H PARENT 9 10 19 20 16 22
REMARK Flexibility Score: inf
ROOT
ATOM      1  C   UNL     1      44.992  -0.767  22.751  1.00  0.00     0.012 C 
ATOM      2  C   UNL     1      43.975   0.079  22.532  1.00  0.00     0.053 C 
ENDROOT
BRANCH   1   3
ATOM      3  C   UNL     1      44.884  -1.983  23.594  1.00  0.00    -0.025 A 
ATOM      4  C   UNL     1      44.694  -3.269  23.049  1.00  0.00     0.012 A 
ATOM      5  C   UNL     1      44.587  -4.384  23.888  1.00  0.00     0.047 A 
ATOM      6  C   UNL     1      44.658  -4.231  25.278  1.00  0.00     0.115 A 
ATOM      7  C   UNL     1      44.937  -1.840  24.992  1.00  0.00     0.012 A 
ATOM      8  C   UNL     1      44.831  -2.957  25.826  1.00  0.00     0.047 A 
BRANCH   6   9
ATOM      9  O   UNL     1      44.553  -5.334  26.121  1.00  0.00    -0.508 OA
ATOM     10  H   UNL     1      45.364  -5.721  26.591  1.00  0.00     0.293 HD
ENDBRANCH   6   9
ENDBRANCH   1   3
BRANCH   2  11
ATOM     11  C   UNL     1      44.115   1.274  21.669  1.00  0.00     0.189 C 
ATOM     12  O   UNL     1      43.655   1.252  20.494  1.00  0.00    -0.289 OA
BRANCH  11  13
ATOM     13  C   UNL     1      44.783   2.503  22.167  1.00  0.00     0.064 A 
ATOM     14  C   UNL     1      44.175   3.308  23.156  1.00  0.00     0.130 A 
ATOM     15  C   UNL     1      46.029   2.894  21.642  1.00  0.00     0.020 A 
ATOM     16  C   UNL     1      44.815   4.475  23.600  1.00  0.00     0.093 A 
ATOM     17  C   UNL     1      46.660   4.056  22.094  1.00  0.00     0.047 A 
ATOM     18  C   UNL     1      46.054   4.849  23.075  1.00  0.00     0.119 A 
BRANCH  14  19
ATOM     19  O   UNL     1      42.945   2.945  23.706  1.00  0.00    -0.507 OA
ATOM     20  H   UNL     1      42.857   2.152  24.331  1.00  0.00     0.293 HD
ENDBRANCH  14  19
BRANCH  18  21
ATOM     21  O   UNL     1      46.674   6.010  23.531  1.00  0.00    -0.508 OA
ATOM     22  H   UNL     1      47.682   6.103  23.540  1.00  0.00     0.293 HD
ENDBRANCH  18  21
ENDBRANCH  11  13
ENDBRANCH   2  11
TORSDOF 6
ENDMDL
MODEL 5
REMARK VINA RESULT:    -7.168      3.618      5.782
REMARK INTER + INTRA:          -9.700
REMARK INTER:                  -8.951
REMARK INTRA:                  -0.749
REMARK UNBOUND:                -0.647
REMARK SMILES O=C(C=Cc1ccc(O)cc1)c1ccc(O)cc1O
REMARK SMILES IDX 4 1 3 2 5 3 6 4 7 5 8 6 11 7 10 8 9 9 2 11 1 12 12 13 18 14
REMARK SMILES IDX 13 15 17 16 14 17 15 18 19 19 16 21
REMARK H PARENT 9 10 19 20 16 22
REMARK Flexibility Score: inf
ROOT
ATOM      1  C   UNL     1      44.660  -4.508  24.796  1.00  0.00     0.012 C 
ATOM      2  C   UNL     1      44.925  -3.290  25.289  1.00  0.00     0.053 C 
ENDROOT
BRANCH   1   3
ATOM      3  C   UNL     1      43.861  -5.532  25.514  1.00  0.00    -0.025 A 
ATOM      4  C   UNL     1      43.470  -6.746  24.915  1.00  0.00     0.012 A 
ATOM      5  C   UNL     1      42.707  -7.675  25.632  1.00  0.00     0.047 A 
ATOM      6  C   UNL     1      42.316  -7.401  26.948  1.00  0.00     0.115 A 
ATOM      7  C   UNL     1      43.448  -5.261  26.831  1.00  0.00     0.012 A 
ATOM      8  C   UNL     1      42.687  -6.192  27.543  1.00  0.00     0.047 A 
BRANCH   6   9
ATOM      9  O   UNL     1      41.556  -8.319  27.669  1.00  0.00    -0.508 OA
ATOM     10  H   UNL     1      41.711  -8.472  28.660  1.00  0.00     0.293 HD
ENDBRANCH   6   9
ENDBRANCH   1   3
BRANCH   2  11
ATOM     11  C   UNL     1      45.711  -2.288  24.534  1.00  0.00     0.189 C 
ATOM     12  O   UNL     1      46.811  -1.881  24.998  1.00  0.00    -0.289 OA
BRANCH  11  13
ATOM     13  C   UNL     1      45.228  -1.759  23.233  1.00  0.00     0.064 A 
ATOM     14  C   UNL     1      46.071  -1.742  22.100  1.00  0.00     0.130 A 
ATOM     15  C   UNL     1      43.922  -1.246  23.119  1.00  0.00     0.020 A 
ATOM     16  C   UNL     1      45.600  -1.223  20.885  1.00  0.00     0.093 A 
ATOM     17  C   UNL     1      43.462  -0.733  21.903  1.00  0.00     0.047 A 
ATOM     18  C   UNL     1      44.300  -0.721  20.782  1.00  0.00     0.119 A 
BRANCH  14  19
ATOM     19  O   UNL     1      47.367  -2.253  22.175  1.00  0.00    -0.507 OA
ATOM     20  H   UNL     1      48.171  -1.647  22.290  1.00  0.00     0.293 HD
ENDBRANCH  14  19
BRANCH  18  21
ATOM     21  O   UNL     1      43.852  -0.211  19.566  1.00  0.00    -0.508 OA
ATOM     22  H   UNL     1      44.499   0.078  18.843  1.00  0.00     0.293 HD
ENDBRANCH  18  21
ENDBRANCH  11  13
ENDBRANCH   2  11
TORSDOF 6
ENDMDL
MODEL 6
REMARK VINA RESULT:    -7.001      1.834      7.331
REMARK INTER + INTRA:          -9.489
REMARK INTER:                  -9.009
REMARK INTRA:                  -0.480
REMARK UNBOUND:                -0.647
REMARK SMILES O=C(C=Cc1ccc(O)cc1)c1ccc(O)cc1O
REMARK SMILES IDX 4 1 3 2 5 3 6 4 7 5 8 6 11 7 10 8 9 9 2 11 1 12 12 13 18 14
REMARK SMILES IDX 13 15 17 16 14 17 15 18 19 19 16 21
REMARK H PARENT 9 10 19 20 16 22
REMARK Flexibility Score: inf
ROOT
ATOM      1  C   UNL     1      45.029   1.901  20.545  1.00  0.00     0.012 C 
ATOM      2  C   UNL     1      44.597   0.681  20.196  1.00  0.00     0.053 C 
ENDROOT
BRANCH   1   3
ATOM      3  C   UNL     1      45.916   2.735  19.697  1.00  0.00    -0.025 A 
ATOM      4  C   UNL     1      46.745   3.744  20.230  1.00  0.00     0.012 A 
ATOM      5  C   UNL     1      47.556   4.511  19.387  1.00  0.00     0.047 A 
ATOM      6  C   UNL     1      47.544   4.291  18.004  1.00  0.00     0.115 A 
ATOM      7  C   UNL     1      45.901   2.535  18.306  1.00  0.00     0.012 A 
ATOM      8  C   UNL     1      46.713   3.303  17.467  1.00  0.00     0.047 A 
BRANCH   6   9
ATOM      9  O   UNL     1      48.348   5.049  17.156  1.00  0.00    -0.508 OA
ATOM     10  H   UNL     1      49.285   5.330  17.425  1.00  0.00     0.293 HD
ENDBRANCH   6   9
ENDBRANCH   1   3
BRANCH   2  11
ATOM     11  C   UNL     1      43.697  -0.115  21.060  1.00  0.00     0.189 C 
ATOM     12  O   UNL     1      42.453   0.089  21.021  1.00  0.00    -0.289 OA
BRANCH  11  13
ATOM     13  C   UNL     1      44.235  -1.158  21.969  1.00  0.00     0.064 A 
ATOM     14  C   UNL     1      44.560  -2.445  21.486  1.00  0.00     0.130 A 
ATOM     15  C   UNL     1      44.411  -0.882  23.339  1.00  0.00     0.020 A 
ATOM     16  C   UNL     1      45.051  -3.421  22.365  1.00  0.00     0.093 A 
ATOM     17  C   UNL     1      44.904  -1.860  24.206  1.00  0.00     0.047 A 
ATOM     18  C   UNL     1      45.226  -3.133  23.721  1.00  0.00     0.119 A 
BRANCH  14  19
ATOM     19  O   UNL     1      44.408  -2.750  20.132  1.00  0.00    -0.507 OA
ATOM     20  H   UNL     1      45.194  -3.037  19.561  1.00  0.00     0.293 HD
ENDBRANCH  14  19
BRANCH  18  21
ATOM     21  O   UNL     1      45.716  -4.116  24.577  1.00  0.00    -0.508 OA
ATOM     22  H   UNL     1      46.535  -4.662  24.341  1.00  0.00     0.293 HD
ENDBRANCH  18  21
ENDBRANCH  11  13
ENDBRANCH   2  11
TORSDOF 6
ENDMDL
MODEL 7
REMARK VINA RESULT:    -6.998      3.207      7.582
REMARK INTER + INTRA:          -9.486
REMARK INTER:                  -8.733
REMARK INTRA:                  -0.753
REMARK UNBOUND:                -0.647
REMARK SMILES O=C(C=Cc1ccc(O)cc1)c1ccc(O)cc1O
REMARK SMILES IDX 4 1 3 2 5 3 6 4 7 5 8 6 11 7 10 8 9 9 2 11 1 12 12 13 18 14
REMARK SMILES IDX 13 15 17 16 14 17 15 18 19 19 16 21
REMARK H PARENT 9 10 19 20 16 22
REMARK Flexibility Score: inf
ROOT
ATOM      1  C   UNL     1      43.994  -0.574  21.660  1.00  0.00     0.012 C 
ATOM      2  C   UNL     1      45.279  -0.674  22.030  1.00  0.00     0.053 C 
ENDROOT
BRANCH   1   3
ATOM      3  C   UNL     1      43.346   0.702  21.270  1.00  0.00    -0.025 A 
ATOM      4  C   UNL     1      42.334   0.769  20.290  1.00  0.00     0.012 A 
ATOM      5  C   UNL     1      41.761   1.999  19.949  1.00  0.00     0.047 A 
ATOM      6  C   UNL     1      42.195   3.176  20.571  1.00  0.00     0.115 A 
ATOM      7  C   UNL     1      43.784   1.893  21.875  1.00  0.00     0.012 A 
ATOM      8  C   UNL     1      43.208   3.119  21.532  1.00  0.00     0.047 A 
BRANCH   6   9
ATOM      9  O   UNL     1      41.631   4.406  20.238  1.00  0.00    -0.508 OA
ATOM     10  H   UNL     1      40.691   4.653  20.528  1.00  0.00     0.293 HD
ENDBRANCH   6   9
ENDBRANCH   1   3
BRANCH   2  11
ATOM     11  C   UNL     1      45.897  -1.968  22.395  1.00  0.00     0.189 C 
ATOM     12  O   UNL     1      46.887  -2.394  21.740  1.00  0.00    -0.289 OA
BRANCH  11  13
ATOM     13  C   UNL     1      45.375  -2.772  23.529  1.00  0.00     0.064 A 
ATOM     14  C   UNL     1      45.027  -4.130  23.356  1.00  0.00     0.130 A 
ATOM     15  C   UNL     1      45.199  -2.180  24.795  1.00  0.00     0.020 A 
ATOM     16  C   UNL     1      44.520  -4.867  24.437  1.00  0.00     0.093 A 
ATOM     17  C   UNL     1      44.696  -2.924  25.865  1.00  0.00     0.047 A 
ATOM     18  C   UNL     1      44.355  -4.269  25.689  1.00  0.00     0.119 A 
BRANCH  14  19
ATOM     19  O   UNL     1      45.198  -4.751  22.118  1.00  0.00    -0.507 OA
ATOM     20  H   UNL     1      45.717  -5.617  22.025  1.00  0.00     0.293 HD
ENDBRANCH  14  19
BRANCH  18  21
ATOM     21  O   UNL     1      43.852  -5.019  26.749  1.00  0.00    -0.508 OA
ATOM     22  H   UNL     1      42.947  -5.471  26.695  1.00  0.00     0.293 HD
ENDBRANCH  18  21
ENDBRANCH  11  13
ENDBRANCH   2  11
TORSDOF 6
ENDMDL
MODEL 8
REMARK VINA RESULT:    -6.982      5.536      6.465
REMARK INTER + INTRA:          -9.465
REMARK INTER:                  -8.849
REMARK INTRA:                  -0.616
REMARK UNBOUND:                -0.647
REMARK SMILES O=C(C=Cc1ccc(O)cc1)c1ccc(O)cc1O
REMARK SMILES IDX 4 1 3 2 5 3 6 4 7 5 8 6 11 7 10 8 9 9 2 11 1 12 12 13 18 14
REMARK SMILES IDX 13 15 17 16 14 17 15 18 19 19 16 21
REMARK H PARENT 9 10 19 20 16 22
REMARK Flexibility Score: inf
ROOT
ATOM      1  C   UNL     1      45.337  -3.828  21.900  1.00  0.00     0.012 C 
ATOM      2  C   UNL     1      44.629  -4.067  20.787  1.00  0.00     0.053 C 
ENDROOT
BRANCH   1   3
ATOM      3  C   UNL     1      44.843  -4.117  23.268  1.00  0.00    -0.025 A 
ATOM      4  C   UNL     1      44.980  -3.203  24.333  1.00  0.00     0.012 A 
ATOM      5  C   UNL     1      44.506  -3.527  25.609  1.00  0.00     0.047 A 
ATOM      6  C   UNL     1      43.901  -4.768  25.843  1.00  0.00     0.115 A 
ATOM      7  C   UNL     1      44.248  -5.366  23.520  1.00  0.00     0.012 A 
ATOM      8  C   UNL     1      43.776  -5.685  24.796  1.00  0.00     0.047 A 
BRANCH   6   9
ATOM      9  O   UNL     1      43.426  -5.100  27.109  1.00  0.00    -0.508 OA
ATOM     10  H   UNL     1      43.846  -5.845  27.654  1.00  0.00     0.293 HD
ENDBRANCH   6   9
ENDBRANCH   1   3
BRANCH   2  11
ATOM     11  C   UNL     1      45.164  -3.782  19.436  1.00  0.00     0.189 C 
ATOM     12  O   UNL     1      46.408  -3.656  19.271  1.00  0.00    -0.289 OA
BRANCH  11  13
ATOM     13  C   UNL     1      44.257  -3.649  18.268  1.00  0.00     0.064 A 
ATOM     14  C   UNL     1      44.577  -4.249  17.030  1.00  0.00     0.130 A 
ATOM     15  C   UNL     1      43.069  -2.900  18.374  1.00  0.00     0.020 A 
ATOM     16  C   UNL     1      43.715  -4.097  15.934  1.00  0.00     0.093 A 
ATOM     17  C   UNL     1      42.216  -2.758  17.277  1.00  0.00     0.047 A 
ATOM     18  C   UNL     1      42.537  -3.356  16.054  1.00  0.00     0.119 A 
BRANCH  14  19
ATOM     19  O   UNL     1      45.740  -5.007  16.891  1.00  0.00    -0.507 OA
ATOM     20  H   UNL     1      46.068  -5.317  15.984  1.00  0.00     0.293 HD
ENDBRANCH  14  19
BRANCH  18  21
ATOM     21  O   UNL     1      41.693  -3.219  14.954  1.00  0.00    -0.508 OA
ATOM     22  H   UNL     1      41.653  -3.922  14.227  1.00  0.00     0.293 HD
ENDBRANCH  18  21
ENDBRANCH  11  13
ENDBRANCH   2  11
TORSDOF 6
ENDMDL
MODEL 9
REMARK VINA RESULT:    -6.935      1.842      2.274
REMARK INTER + INTRA:          -9.406
REMARK INTER:                  -8.786
REMARK INTRA:                  -0.620
REMARK UNBOUND:                -0.647
REMARK SMILES O=C(C=Cc1ccc(O)cc1)c1ccc(O)cc1O
REMARK SMILES IDX 4 1 3 2 5 3 6 4 7 5 8 6 11 7 10 8 9 9 2 11 1 12 12 13 18 14
REMARK SMILES IDX 13 15 17 16 14 17 15 18 19 19 16 21
REMARK H PARENT 9 10 19 20 16 22
REMARK Flexibility Score: inf
ROOT
ATOM      1  C   UNL     1      45.373  -0.170  21.802  1.00  0.00     0.012 C 
ATOM      2  C   UNL     1      44.870   1.024  22.144  1.00  0.00     0.053 C 
ENDROOT
BRANCH   1   3
ATOM      3  C   UNL     1      45.157  -1.411  22.586  1.00  0.00    -0.025 A 
ATOM      4  C   UNL     1      44.595  -1.402  23.880  1.00  0.00     0.012 A 
ATOM      5  C   UNL     1      44.421  -2.598  24.584  1.00  0.00     0.047 A 
ATOM      6  C   UNL     1      44.813  -3.815  24.014  1.00  0.00     0.115 A 
ATOM      7  C   UNL     1      45.562  -2.638  22.032  1.00  0.00     0.012 A 
ATOM      8  C   UNL     1      45.386  -3.830  22.739  1.00  0.00     0.047 A 
BRANCH   6   9
ATOM      9  O   UNL     1      44.644  -5.012  24.707  1.00  0.00    -0.508 OA
ATOM     10  H   UNL     1      44.096  -5.058  25.559  1.00  0.00     0.293 HD
ENDBRANCH   6   9
ENDBRANCH   1   3
BRANCH   2  11
ATOM     11  C   UNL     1      45.092   2.238  21.326  1.00  0.00     0.189 C 
ATOM     12  O   UNL     1      44.878   2.200  20.083  1.00  0.00    -0.289 OA
BRANCH  11  13
ATOM     13  C   UNL     1      45.557   3.504  21.946  1.00  0.00     0.064 A 
ATOM     14  C   UNL     1      46.632   4.232  21.391  1.00  0.00     0.130 A 
ATOM     15  C   UNL     1      44.940   3.987  23.116  1.00  0.00     0.020 A 
ATOM     16  C   UNL     1      47.066   5.417  22.002  1.00  0.00     0.093 A 
ATOM     17  C   UNL     1      45.378   5.171  23.716  1.00  0.00     0.047 A 
ATOM     18  C   UNL     1      46.442   5.889  23.160  1.00  0.00     0.119 A 
BRANCH  14  19
ATOM     19  O   UNL     1      47.259   3.788  20.226  1.00  0.00    -0.507 OA
ATOM     20  H   UNL     1      47.741   2.897  20.189  1.00  0.00     0.293 HD
ENDBRANCH  14  19
BRANCH  18  21
ATOM     21  O   UNL     1      46.887   7.069  23.751  1.00  0.00    -0.508 OA
ATOM     22  H   UNL     1      47.831   7.160  24.105  1.00  0.00     0.293 HD
ENDBRANCH  18  21
ENDBRANCH  11  13
ENDBRANCH   2  11
TORSDOF 6
ENDMDL
