MODEL 1
REMARK VINA RESULT:    -4.894      0.000      0.000
REMARK INTER + INTRA:          -9.974
REMARK INTER:                  -8.900
REMARK INTRA:                  -1.074
REMARK UNBOUND:                -1.074
REMARK SMILES CCCCCC=CCC=CCCCCCCCC(=O)[O-]
REMARK SMILES IDX 11 1 12 2 13 3 14 4 15 5 16 6 17 7 18 8 19 9 20 10 10 11
REMARK SMILES IDX 9 12 8 13 7 14 6 15 5 16 4 17 3 18 2 19 1 20
REMARK H PARENT
REMARK Flexibility Score: inf
ROOT
ATOM      1  C   UNL     1       1.965  13.351  19.102  1.00  0.00     0.027 C 
ENDROOT
BRANCH   1   2
ATOM      2  C   UNL     1       3.143  12.394  18.854  1.00  0.00     0.004 C 
BRANCH   2   3
ATOM      3  C   UNL     1       2.734  10.926  18.626  1.00  0.00     0.000 C 
BRANCH   3   4
ATOM      4  C   UNL     1       3.894   9.924  18.810  1.00  0.00     0.000 C 
BRANCH   4   5
ATOM      5  C   UNL     1       4.952  10.052  17.705  1.00  0.00     0.000 C 
BRANCH   5   6
ATOM      6  C   UNL     1       6.336  10.355  18.300  1.00  0.00     0.006 C 
BRANCH   6   7
ATOM      7  C   UNL     1       6.257  11.306  19.501  1.00  0.00     0.053 C 
BRANCH   7   8
ATOM      8  C   UNL     1       6.720  10.646  20.764  1.00  0.00     0.041 C 
ATOM      9  O   UNL     1       5.888  10.319  21.649  1.00  0.00    -0.550 OA
ATOM     10  O   UNL     1       8.068  10.364  20.948  1.00  0.00    -0.550 OA
ENDBRANCH   7   8
ENDBRANCH   6   7
ENDBRANCH   5   6
ENDBRANCH   4   5
ENDBRANCH   3   4
ENDBRANCH   2   3
ENDBRANCH   1   2
BRANCH   1  11
ATOM     11  C   UNL     1       1.872  14.417  18.036  1.00  0.00    -0.031 C 
ATOM     12  C   UNL     1       0.920  15.369  17.977  1.00  0.00    -0.027 C 
BRANCH  12  13
ATOM     13  C   UNL     1      -0.245  15.489  18.927  1.00  0.00     0.054 C 
BRANCH  13  14
ATOM     14  C   UNL     1      -1.344  16.354  18.367  1.00  0.00    -0.027 C 
ATOM     15  C   UNL     1      -2.016  17.291  19.062  1.00  0.00    -0.031 C 
BRANCH  15  16
ATOM     16  C   UNL     1      -1.748  17.659  20.502  1.00  0.00     0.027 C 
BRANCH  16  17
ATOM     17  C   UNL     1      -1.394  19.144  20.643  1.00  0.00     0.004 C 
BRANCH  17  18
ATOM     18  C   UNL     1      -0.899  19.749  19.317  1.00  0.00     0.000 C 
BRANCH  18  19
ATOM     19  C   UNL     1       0.625  19.935  19.285  1.00  0.00    -0.003 C 
ATOM     20  C   UNL     1       1.291  19.169  18.142  1.00  0.00     0.004 C 
ENDBRANCH  18  19
ENDBRANCH  17  18
ENDBRANCH  16  17
ENDBRANCH  15  16
ENDBRANCH  13  14
ENDBRANCH  12  13
ENDBRANCH   1  11
TORSDOF 14
ENDMDL
MODEL 2
REMARK VINA RESULT:    -4.608      3.695      9.157
REMARK INTER + INTRA:          -9.453
REMARK INTER:                  -8.144
REMARK INTRA:                  -1.309
REMARK UNBOUND:                -1.074
REMARK SMILES CCCCCC=CCC=CCCCCCCCC(=O)[O-]
REMARK SMILES IDX 11 1 12 2 13 3 14 4 15 5 16 6 17 7 18 8 19 9 20 10 10 11
REMARK SMILES IDX 9 12 8 13 7 14 6 15 5 16 4 17 3 18 2 19 1 20
REMARK H PARENT
REMARK Flexibility Score: inf
ROOT
ATOM      1  C   UNL     1       1.646  14.403  17.763  1.00  0.00     0.027 C 
ENDROOT
BRANCH   1   2
ATOM      2  C   UNL     1       0.961  15.751  18.040  1.00  0.00     0.004 C 
BRANCH   2   3
ATOM      3  C   UNL     1      -0.449  15.636  18.651  1.00  0.00     0.000 C 
BRANCH   3   4
ATOM      4  C   UNL     1      -1.232  16.967  18.659  1.00  0.00     0.000 C 
BRANCH   4   5
ATOM      5  C   UNL     1      -0.947  17.800  19.916  1.00  0.00     0.000 C 
BRANCH   5   6
ATOM      6  C   UNL     1      -0.845  19.294  19.577  1.00  0.00     0.006 C 
BRANCH   6   7
ATOM      7  C   UNL     1       0.609  19.751  19.398  1.00  0.00     0.053 C 
BRANCH   7   8
ATOM      8  C   UNL     1       1.000  19.809  17.953  1.00  0.00     0.041 C 
ATOM      9  O   UNL     1       0.124  19.985  17.066  1.00  0.00    -0.550 OA
ATOM     10  O   UNL     1       2.337  19.700  17.588  1.00  0.00    -0.550 OA
ENDBRANCH   7   8
ENDBRANCH   6   7
ENDBRANCH   5   6
ENDBRANCH   4   5
ENDBRANCH   3   4
ENDBRANCH   2   3
ENDBRANCH   1   2
BRANCH   1  11
ATOM     11  C   UNL     1       2.172  13.768  19.028  1.00  0.00    -0.031 C 
ATOM     12  C   UNL     1       2.633  12.506  19.124  1.00  0.00    -0.027 C 
BRANCH  12  13
ATOM     13  C   UNL     1       2.642  11.499  18.002  1.00  0.00     0.054 C 
BRANCH  13  14
ATOM     14  C   UNL     1       3.049  10.127  18.476  1.00  0.00    -0.027 C 
ATOM     15  C   UNL     1       4.172   9.485  18.101  1.00  0.00    -0.031 C 
BRANCH  15  16
ATOM     16  C   UNL     1       5.227  10.052  17.181  1.00  0.00     0.027 C 
BRANCH  16  17
ATOM     17  C   UNL     1       6.495  10.435  17.953  1.00  0.00     0.004 C 
BRANCH  17  18
ATOM     18  C   UNL     1       6.190  11.365  19.141  1.00  0.00     0.000 C 
BRANCH  18  19
ATOM     19  C   UNL     1       6.648  10.776  20.484  1.00  0.00    -0.003 C 
ATOM     20  C   UNL     1       5.485  10.252  21.327  1.00  0.00     0.004 C 
ENDBRANCH  18  19
ENDBRANCH  17  18
ENDBRANCH  16  17
ENDBRANCH  15  16
ENDBRANCH  13  14
ENDBRANCH  12  13
ENDBRANCH   1  11
TORSDOF 14
ENDMDL
MODEL 3
REMARK VINA RESULT:    -4.586      1.048      2.060
REMARK INTER + INTRA:          -9.414
REMARK INTER:                  -8.194
REMARK INTRA:                  -1.220
REMARK UNBOUND:                -1.074
REMARK SMILES CCCCCC=CCC=CCCCCCCCC(=O)[O-]
REMARK SMILES IDX 11 1 12 2 13 3 14 4 15 5 16 6 17 7 18 8 19 9 20 10 10 11
REMARK SMILES IDX 9 12 8 13 7 14 6 15 5 16 4 17 3 18 2 19 1 20
REMARK H PARENT
REMARK Flexibility Score: inf
ROOT
ATOM      1  C   UNL     1       2.704  11.755  18.014  1.00  0.00     0.027 C 
ENDROOT
BRANCH   1   2
ATOM      2  C   UNL     1       2.677  10.312  18.543  1.00  0.00     0.004 C 
BRANCH   2   3
ATOM      3  C   UNL     1       4.058   9.634  18.617  1.00  0.00     0.000 C 
BRANCH   3   4
ATOM      4  C   UNL     1       4.822   9.636  17.275  1.00  0.00     0.000 C 
BRANCH   4   5
ATOM      5  C   UNL     1       6.150  10.400  17.364  1.00  0.00     0.000 C 
BRANCH   5   6
ATOM      6  C   UNL     1       6.294  11.100  18.723  1.00  0.00     0.006 C 
BRANCH   6   7
ATOM      7  C   UNL     1       7.652  10.819  19.381  1.00  0.00     0.053 C 
BRANCH   7   8
ATOM      8  C   UNL     1       7.503  10.442  20.824  1.00  0.00     0.041 C 
ATOM      9  O   UNL     1       6.388  10.555  21.396  1.00  0.00    -0.550 OA
ATOM     10  O   UNL     1       8.590   9.935  21.526  1.00  0.00    -0.550 OA
ENDBRANCH   7   8
ENDBRANCH   6   7
ENDBRANCH   5   6
ENDBRANCH   4   5
ENDBRANCH   3   4
ENDBRANCH   2   3
ENDBRANCH   1   2
BRANCH   1  11
ATOM     11  C   UNL     1       2.737  12.766  19.135  1.00  0.00    -0.031 C 
ATOM     12  C   UNL     1       2.247  14.019  19.060  1.00  0.00    -0.027 C 
BRANCH  12  13
ATOM     13  C   UNL     1       1.642  14.640  17.825  1.00  0.00     0.054 C 
BRANCH  13  14
ATOM     14  C   UNL     1       0.285  15.236  18.100  1.00  0.00    -0.027 C 
ATOM     15  C   UNL     1       0.069  16.500  18.514  1.00  0.00    -0.031 C 
BRANCH  15  16
ATOM     16  C   UNL     1       1.146  17.537  18.727  1.00  0.00     0.027 C 
BRANCH  16  17
ATOM     17  C   UNL     1       0.764  18.878  18.089  1.00  0.00     0.004 C 
BRANCH  17  18
ATOM     18  C   UNL     1       0.778  20.029  19.110  1.00  0.00     0.000 C 
BRANCH  18  19
ATOM     19  C   UNL     1      -0.348  19.911  20.147  1.00  0.00    -0.003 C 
ATOM     20  C   UNL     1      -1.722  19.700  19.510  1.00  0.00     0.004 C 
ENDBRANCH  18  19
ENDBRANCH  17  18
ENDBRANCH  16  17
ENDBRANCH  15  16
ENDBRANCH  13  14
ENDBRANCH  12  13
ENDBRANCH   1  11
TORSDOF 14
ENDMDL
MODEL 4
REMARK VINA RESULT:    -4.582      1.470      3.014
REMARK INTER + INTRA:          -9.406
REMARK INTER:                  -8.145
REMARK INTRA:                  -1.262
REMARK UNBOUND:                -1.074
REMARK SMILES CCCCCC=CCC=CCCCCCCCC(=O)[O-]
REMARK SMILES IDX 11 1 12 2 13 3 14 4 15 5 16 6 17 7 18 8 19 9 20 10 10 11
REMARK SMILES IDX 9 12 8 13 7 14 6 15 5 16 4 17 3 18 2 19 1 20
REMARK H PARENT
REMARK Flexibility Score: inf
ROOT
ATOM      1  C   UNL     1       2.423  11.406  18.003  1.00  0.00     0.027 C 
ENDROOT
BRANCH   1   2
ATOM      2  C   UNL     1       2.705   9.949  18.405  1.00  0.00     0.004 C 
BRANCH   2   3
ATOM      3  C   UNL     1       4.199   9.607  18.556  1.00  0.00     0.000 C 
BRANCH   3   4
ATOM      4  C   UNL     1       4.984   9.659  17.228  1.00  0.00     0.000 C 
BRANCH   4   5
ATOM      5  C   UNL     1       6.330  10.382  17.377  1.00  0.00     0.000 C 
BRANCH   5   6
ATOM      6  C   UNL     1       6.423  11.103  18.730  1.00  0.00     0.006 C 
BRANCH   6   7
ATOM      7  C   UNL     1       7.774  10.873  19.420  1.00  0.00     0.053 C 
BRANCH   7   8
ATOM      8  C   UNL     1       7.604  10.386  20.826  1.00  0.00     0.041 C 
ATOM      9  O   UNL     1       8.598   9.968  21.476  1.00  0.00    -0.550 OA
ATOM     10  O   UNL     1       6.353  10.424  21.430  1.00  0.00    -0.550 OA
ENDBRANCH   7   8
ENDBRANCH   6   7
ENDBRANCH   5   6
ENDBRANCH   4   5
ENDBRANCH   3   4
ENDBRANCH   2   3
ENDBRANCH   1   2
BRANCH   1  11
ATOM     11  C   UNL     1       2.770  12.373  19.110  1.00  0.00    -0.031 C 
ATOM     12  C   UNL     1       2.393  13.666  19.152  1.00  0.00    -0.027 C 
BRANCH  12  13
ATOM     13  C   UNL     1       1.618  14.378  18.072  1.00  0.00     0.054 C 
BRANCH  13  14
ATOM     14  C   UNL     1       1.622  15.872  18.265  1.00  0.00    -0.027 C 
ATOM     15  C   UNL     1       0.519  16.637  18.377  1.00  0.00    -0.031 C 
BRANCH  15  16
ATOM     16  C   UNL     1      -0.899  16.117  18.374  1.00  0.00     0.027 C 
BRANCH  16  17
ATOM     17  C   UNL     1      -1.808  16.966  19.270  1.00  0.00     0.004 C 
BRANCH  17  18
ATOM     18  C   UNL     1      -1.831  16.453  20.721  1.00  0.00     0.000 C 
BRANCH  18  19
ATOM     19  C   UNL     1      -2.125  14.949  20.811  1.00  0.00    -0.003 C 
ATOM     20  C   UNL     1      -1.695  14.339  22.146  1.00  0.00     0.004 C 
ENDBRANCH  18  19
ENDBRANCH  17  18
ENDBRANCH  16  17
ENDBRANCH  15  16
ENDBRANCH  13  14
ENDBRANCH  12  13
ENDBRANCH   1  11
TORSDOF 14
ENDMDL
MODEL 5
REMARK VINA RESULT:    -4.573      0.653      1.014
REMARK INTER + INTRA:          -9.389
REMARK INTER:                  -8.312
REMARK INTRA:                  -1.077
REMARK UNBOUND:                -1.074
REMARK SMILES CCCCCC=CCC=CCCCCCCCC(=O)[O-]
REMARK SMILES IDX 11 1 12 2 13 3 14 4 15 5 16 6 17 7 18 8 19 9 20 10 10 11
REMARK SMILES IDX 9 12 8 13 7 14 6 15 5 16 4 17 3 18 2 19 1 20
REMARK H PARENT
REMARK Flexibility Score: inf
ROOT
ATOM      1  C   UNL     1       1.635  13.718  19.132  1.00  0.00     0.027 C 
ENDROOT
BRANCH   1   2
ATOM      2  C   UNL     1       2.782  12.772  18.742  1.00  0.00     0.004 C 
BRANCH   2   3
ATOM      3  C   UNL     1       2.451  11.274  18.889  1.00  0.00     0.000 C 
BRANCH   3   4
ATOM      4  C   UNL     1       3.228  10.369  17.908  1.00  0.00     0.000 C 
BRANCH   4   5
ATOM      5  C   UNL     1       4.418   9.672  18.581  1.00  0.00     0.000 C 
BRANCH   5   6
ATOM      6  C   UNL     1       5.732  10.409  18.280  1.00  0.00     0.006 C 
BRANCH   6   7
ATOM      7  C   UNL     1       6.106  11.406  19.384  1.00  0.00     0.053 C 
BRANCH   7   8
ATOM      8  C   UNL     1       6.355  10.719  20.692  1.00  0.00     0.041 C 
ATOM      9  O   UNL     1       7.531  10.449  21.052  1.00  0.00    -0.550 OA
ATOM     10  O   UNL     1       5.290  10.407  21.529  1.00  0.00    -0.550 OA
ENDBRANCH   7   8
ENDBRANCH   6   7
ENDBRANCH   5   6
ENDBRANCH   4   5
ENDBRANCH   3   4
ENDBRANCH   2   3
ENDBRANCH   1   2
BRANCH   1  11
ATOM     11  C   UNL     1       1.557  14.916  18.216  1.00  0.00    -0.031 C 
ATOM     12  C   UNL     1       0.488  15.726  18.093  1.00  0.00    -0.027 C 
BRANCH  12  13
ATOM     13  C   UNL     1      -0.830  15.535  18.802  1.00  0.00     0.054 C 
BRANCH  13  14
ATOM     14  C   UNL     1      -1.846  16.571  18.395  1.00  0.00    -0.027 C 
ATOM     15  C   UNL     1      -2.060  17.734  19.039  1.00  0.00    -0.031 C 
BRANCH  15  16
ATOM     16  C   UNL     1      -1.286  18.211  20.245  1.00  0.00     0.027 C 
BRANCH  16  17
ATOM     17  C   UNL     1      -1.026  19.721  20.182  1.00  0.00     0.004 C 
BRANCH  17  18
ATOM     18  C   UNL     1      -0.271  20.125  18.904  1.00  0.00     0.000 C 
BRANCH  18  19
ATOM     19  C   UNL     1       1.037  19.341  18.718  1.00  0.00    -0.003 C 
ATOM     20  C   UNL     1       1.784  19.728  17.441  1.00  0.00     0.004 C 
ENDBRANCH  18  19
ENDBRANCH  17  18
ENDBRANCH  16  17
ENDBRANCH  15  16
ENDBRANCH  13  14
ENDBRANCH  12  13
ENDBRANCH   1  11
TORSDOF 14
ENDMDL
MODEL 6
REMARK VINA RESULT:    -4.554      1.727      1.976
REMARK INTER + INTRA:          -9.356
REMARK INTER:                  -7.893
REMARK INTRA:                  -1.463
REMARK UNBOUND:                -1.074
REMARK SMILES CCCCCC=CCC=CCCCCCCCC(=O)[O-]
REMARK SMILES IDX 11 1 12 2 13 3 14 4 15 5 16 6 17 7 18 8 19 9 20 10 10 11
REMARK SMILES IDX 9 12 8 13 7 14 6 15 5 16 4 17 3 18 2 19 1 20
REMARK H PARENT
REMARK Flexibility Score: inf
ROOT
ATOM      1  C   UNL     1       1.826  13.609  19.124  1.00  0.00     0.027 C 
ENDROOT
BRANCH   1   2
ATOM      2  C   UNL     1       3.055  12.721  18.872  1.00  0.00     0.004 C 
BRANCH   2   3
ATOM      3  C   UNL     1       2.723  11.299  18.379  1.00  0.00     0.000 C 
BRANCH   3   4
ATOM      4  C   UNL     1       3.446  10.186  19.167  1.00  0.00     0.000 C 
BRANCH   4   5
ATOM      5  C   UNL     1       4.668  10.714  19.930  1.00  0.00     0.000 C 
BRANCH   5   6
ATOM      6  C   UNL     1       5.965  10.086  19.398  1.00  0.00     0.006 C 
BRANCH   6   7
ATOM      7  C   UNL     1       6.830  11.098  18.635  1.00  0.00     0.053 C 
BRANCH   7   8
ATOM      8  C   UNL     1       6.878  10.794  17.168  1.00  0.00     0.041 C 
ATOM      9  O   UNL     1       6.088   9.950  16.670  1.00  0.00    -0.550 OA
ATOM     10  O   UNL     1       7.773  11.469  16.346  1.00  0.00    -0.550 OA
ENDBRANCH   7   8
ENDBRANCH   6   7
ENDBRANCH   5   6
ENDBRANCH   4   5
ENDBRANCH   3   4
ENDBRANCH   2   3
ENDBRANCH   1   2
BRANCH   1  11
ATOM     11  C   UNL     1       1.671  14.671  18.061  1.00  0.00    -0.031 C 
ATOM     12  C   UNL     1       0.657  15.556  17.996  1.00  0.00    -0.027 C 
BRANCH  12  13
ATOM     13  C   UNL     1      -0.522  15.593  18.935  1.00  0.00     0.054 C 
BRANCH  13  14
ATOM     14  C   UNL     1      -1.662  16.408  18.380  1.00  0.00    -0.027 C 
ATOM     15  C   UNL     1      -2.055  17.606  18.853  1.00  0.00    -0.031 C 
BRANCH  15  16
ATOM     16  C   UNL     1      -1.389  18.349  19.988  1.00  0.00     0.027 C 
BRANCH  16  17
ATOM     17  C   UNL     1      -0.984  19.766  19.567  1.00  0.00     0.004 C 
BRANCH  17  18
ATOM     18  C   UNL     1       0.540  19.972  19.618  1.00  0.00     0.000 C 
BRANCH  18  19
ATOM     19  C   UNL     1       1.256  19.388  18.392  1.00  0.00    -0.003 C 
ATOM     20  C   UNL     1       0.584  19.773  17.074  1.00  0.00     0.004 C 
ENDBRANCH  18  19
ENDBRANCH  17  18
ENDBRANCH  16  17
ENDBRANCH  15  16
ENDBRANCH  13  14
ENDBRANCH  12  13
ENDBRANCH   1  11
TORSDOF 14
ENDMDL
MODEL 7
REMARK VINA RESULT:    -4.319      2.205      2.725
REMARK INTER + INTRA:          -8.929
REMARK INTER:                  -7.709
REMARK INTRA:                  -1.220
REMARK UNBOUND:                -1.074
REMARK SMILES CCCCCC=CCC=CCCCCCCCC(=O)[O-]
REMARK SMILES IDX 11 1 12 2 13 3 14 4 15 5 16 6 17 7 18 8 19 9 20 10 10 11
REMARK SMILES IDX 9 12 8 13 7 14 6 15 5 16 4 17 3 18 2 19 1 20
REMARK H PARENT
REMARK Flexibility Score: inf
ROOT
ATOM      1  C   UNL     1       1.645  13.645  19.096  1.00  0.00     0.027 C 
ENDROOT
BRANCH   1   2
ATOM      2  C   UNL     1       2.775  12.655  18.772  1.00  0.00     0.004 C 
BRANCH   2   3
ATOM      3  C   UNL     1       4.087  12.913  19.538  1.00  0.00     0.000 C 
BRANCH   3   4
ATOM      4  C   UNL     1       5.158  11.822  19.317  1.00  0.00     0.000 C 
BRANCH   4   5
ATOM      5  C   UNL     1       4.986  10.637  20.277  1.00  0.00     0.000 C 
BRANCH   5   6
ATOM      6  C   UNL     1       4.196   9.499  19.613  1.00  0.00     0.006 C 
BRANCH   6   7
ATOM      7  C   UNL     1       4.232   9.583  18.082  1.00  0.00     0.053 C 
BRANCH   7   8
ATOM      8  C   UNL     1       2.975   9.046  17.466  1.00  0.00     0.041 C 
ATOM      9  O   UNL     1       1.853   9.357  17.943  1.00  0.00    -0.550 OA
ATOM     10  O   UNL     1       3.044   8.228  16.345  1.00  0.00    -0.550 OA
ENDBRANCH   7   8
ENDBRANCH   6   7
ENDBRANCH   5   6
ENDBRANCH   4   5
ENDBRANCH   3   4
ENDBRANCH   2   3
ENDBRANCH   1   2
BRANCH   1  11
ATOM     11  C   UNL     1       1.636  14.820  18.148  1.00  0.00    -0.031 C 
ATOM     12  C   UNL     1       0.635  15.714  18.035  1.00  0.00    -0.027 C 
BRANCH  12  13
ATOM     13  C   UNL     1      -0.669  15.655  18.792  1.00  0.00     0.054 C 
BRANCH  13  14
ATOM     14  C   UNL     1      -1.646  16.700  18.318  1.00  0.00    -0.027 C 
ATOM     15  C   UNL     1      -2.046  17.764  19.041  1.00  0.00    -0.031 C 
BRANCH  15  16
ATOM     16  C   UNL     1      -1.547  18.107  20.425  1.00  0.00     0.027 C 
BRANCH  16  17
ATOM     17  C   UNL     1      -0.910  19.502  20.460  1.00  0.00     0.004 C 
BRANCH  17  18
ATOM     18  C   UNL     1      -0.438  19.957  19.068  1.00  0.00     0.000 C 
BRANCH  18  19
ATOM     19  C   UNL     1       1.033  19.608  18.801  1.00  0.00    -0.003 C 
ATOM     20  C   UNL     1       1.414  19.735  17.325  1.00  0.00     0.004 C 
ENDBRANCH  18  19
ENDBRANCH  17  18
ENDBRANCH  16  17
ENDBRANCH  15  16
ENDBRANCH  13  14
ENDBRANCH  12  13
ENDBRANCH   1  11
TORSDOF 14
ENDMDL
MODEL 8
REMARK VINA RESULT:    -4.163      1.902      2.931
REMARK INTER + INTRA:          -8.644
REMARK INTER:                  -7.906
REMARK INTRA:                  -0.739
REMARK UNBOUND:                -1.074
REMARK SMILES CCCCCC=CCC=CCCCCCCCC(=O)[O-]
REMARK SMILES IDX 11 1 12 2 13 3 14 4 15 5 16 6 17 7 18 8 19 9 20 10 10 11
REMARK SMILES IDX 9 12 8 13 7 14 6 15 5 16 4 17 3 18 2 19 1 20
REMARK H PARENT
REMARK Flexibility Score: inf
ROOT
ATOM      1  C   UNL     1       2.836  11.333  18.120  1.00  0.00     0.027 C 
ENDROOT
BRANCH   1   2
ATOM      2  C   UNL     1       2.954   9.928  18.732  1.00  0.00     0.004 C 
BRANCH   2   3
ATOM      3  C   UNL     1       4.355   9.585  19.273  1.00  0.00     0.000 C 
BRANCH   3   4
ATOM      4  C   UNL     1       4.656  10.205  20.654  1.00  0.00     0.000 C 
BRANCH   4   5
ATOM      5  C   UNL     1       6.074  10.785  20.734  1.00  0.00     0.000 C 
BRANCH   5   6
ATOM      6  C   UNL     1       6.879  10.452  19.469  1.00  0.00     0.006 C 
BRANCH   6   7
ATOM      7  C   UNL     1       6.742  11.535  18.391  1.00  0.00     0.053 C 
BRANCH   7   8
ATOM      8  C   UNL     1       7.015  10.994  17.020  1.00  0.00     0.041 C 
ATOM      9  O   UNL     1       6.311  10.059  16.557  1.00  0.00    -0.550 OA
ATOM     10  O   UNL     1       8.026  11.545  16.243  1.00  0.00    -0.550 OA
ENDBRANCH   7   8
ENDBRANCH   6   7
ENDBRANCH   5   6
ENDBRANCH   4   5
ENDBRANCH   3   4
ENDBRANCH   2   3
ENDBRANCH   1   2
BRANCH   1  11
ATOM     11  C   UNL     1       2.957  12.416  19.166  1.00  0.00    -0.031 C 
ATOM     12  C   UNL     1       2.422  13.648  19.068  1.00  0.00    -0.027 C 
BRANCH  12  13
ATOM     13  C   UNL     1       1.668  14.172  17.871  1.00  0.00     0.054 C 
BRANCH  13  14
ATOM     14  C   UNL     1       1.501  15.670  17.919  1.00  0.00    -0.027 C 
ATOM     15  C   UNL     1       0.371  16.308  18.278  1.00  0.00    -0.031 C 
BRANCH  15  16
ATOM     16  C   UNL     1      -0.899  15.629  18.735  1.00  0.00     0.027 C 
BRANCH  16  17
ATOM     17  C   UNL     1      -1.934  16.650  19.222  1.00  0.00     0.004 C 
BRANCH  17  18
ATOM     18  C   UNL     1      -1.341  17.630  20.249  1.00  0.00     0.000 C 
BRANCH  18  19
ATOM     19  C   UNL     1      -1.604  19.098  19.884  1.00  0.00    -0.003 C 
ATOM     20  C   UNL     1      -0.538  20.046  20.435  1.00  0.00     0.004 C 
ENDBRANCH  18  19
ENDBRANCH  17  18
ENDBRANCH  16  17
ENDBRANCH  15  16
ENDBRANCH  13  14
ENDBRANCH  12  13
ENDBRANCH   1  11
TORSDOF 14
ENDMDL
MODEL 9
REMARK VINA RESULT:    -3.972      3.825      9.304
REMARK INTER + INTRA:          -8.297
REMARK INTER:                  -7.349
REMARK INTRA:                  -0.948
REMARK UNBOUND:                -1.074
REMARK SMILES CCCCCC=CCC=CCCCCCCCC(=O)[O-]
REMARK SMILES IDX 11 1 12 2 13 3 14 4 15 5 16 6 17 7 18 8 19 9 20 10 10 11
REMARK SMILES IDX 9 12 8 13 7 14 6 15 5 16 4 17 3 18 2 19 1 20
REMARK H PARENT
REMARK Flexibility Score: inf
ROOT
ATOM      1  C   UNL     1       2.380  14.360  18.518  1.00  0.00     0.027 C 
ENDROOT
BRANCH   1   2
ATOM      2  C   UNL     1       1.218  14.931  17.689  1.00  0.00     0.004 C 
BRANCH   2   3
ATOM      3  C   UNL     1       0.493  16.122  18.344  1.00  0.00     0.000 C 
BRANCH   3   4
ATOM      4  C   UNL     1      -0.959  15.808  18.763  1.00  0.00     0.000 C 
BRANCH   4   5
ATOM      5  C   UNL     1      -1.820  17.075  18.866  1.00  0.00     0.000 C 
BRANCH   5   6
ATOM      6  C   UNL     1      -1.565  17.810  20.191  1.00  0.00     0.006 C 
BRANCH   6   7
ATOM      7  C   UNL     1      -1.425  19.326  19.996  1.00  0.00     0.053 C 
BRANCH   7   8
ATOM      8  C   UNL     1      -0.284  19.666  19.085  1.00  0.00     0.041 C 
ATOM      9  O   UNL     1       0.904  19.510  19.472  1.00  0.00    -0.550 OA
ATOM     10  O   UNL     1      -0.534  20.124  17.797  1.00  0.00    -0.550 OA
ENDBRANCH   7   8
ENDBRANCH   6   7
ENDBRANCH   5   6
ENDBRANCH   4   5
ENDBRANCH   3   4
ENDBRANCH   2   3
ENDBRANCH   1   2
BRANCH   1  11
ATOM     11  C   UNL     1       2.212  12.882  18.780  1.00  0.00    -0.031 C 
ATOM     12  C   UNL     1       3.178  12.066  19.244  1.00  0.00    -0.027 C 
BRANCH  12  13
ATOM     13  C   UNL     1       4.603  12.478  19.519  1.00  0.00     0.054 C 
BRANCH  13  14
ATOM     14  C   UNL     1       5.490  11.292  19.799  1.00  0.00    -0.027 C 
ATOM     15  C   UNL     1       5.836  10.359  18.892  1.00  0.00    -0.031 C 
BRANCH  15  16
ATOM     16  C   UNL     1       5.429  10.372  17.437  1.00  0.00     0.027 C 
BRANCH  16  17
ATOM     17  C   UNL     1       4.522   9.183  17.100  1.00  0.00     0.004 C 
BRANCH  17  18
ATOM     18  C   UNL     1       3.030   9.556  17.171  1.00  0.00     0.000 C 
BRANCH  18  19
ATOM     19  C   UNL     1       2.326   8.944  18.390  1.00  0.00    -0.003 C 
ATOM     20  C   UNL     1       0.877   8.550  18.102  1.00  0.00     0.004 C 
ENDBRANCH  18  19
ENDBRANCH  17  18
ENDBRANCH  16  17
ENDBRANCH  15  16
ENDBRANCH  13  14
ENDBRANCH  12  13
ENDBRANCH   1  11
TORSDOF 14
ENDMDL
