MODEL 1
REMARK VINA RESULT:    -6.856      0.000      0.000
REMARK INTER + INTRA:          -8.544
REMARK INTER:                  -8.059
REMARK INTRA:                  -0.485
REMARK UNBOUND:                -0.485
REMARK SMILES C=C(C)[C@@H]1CC[C@@]2(CO)CC[C@@]3(C)[C@H](CC[C@H]4[C@@]5(C)CC[C@@H](O)C(C)(C)[C@H]5CC[C@]43C)[C@@H]12
REMARK SMILES IDX 4 1 5 2 6 3 7 4 32 5 14 6 15 7 16 8 17 9 18 10 20 11 21 12
REMARK SMILES IDX 22 13 24 14 27 15 28 16 29 17 30 18 12 19 11 20 10 21 13 22
REMARK SMILES IDX 31 23 25 24 26 25 19 26 2 27 3 28 1 29 8 30 9 31 23 33
REMARK H PARENT 9 32 23 34
REMARK Flexibility Score: inf
ROOT
ATOM      1  C   UNL     1     -11.762  -9.153  90.027  1.00  0.00     0.018 C 
ATOM      2  C   UNL     1     -12.166  -7.968  89.164  1.00  0.00     0.009 C 
ATOM      3  C   UNL     1     -12.797  -6.948  90.108  1.00  0.00     0.010 C 
ATOM      4  C   UNL     1     -12.437  -7.360  91.567  1.00  0.00    -0.003 C 
ATOM      5  C   UNL     1     -11.426  -8.529  91.399  1.00  0.00     0.008 C 
ATOM      6  C   UNL     1     -11.299  -9.582  92.576  1.00  0.00    -0.000 C 
ATOM      7  C   UNL     1     -10.050  -9.291  93.472  1.00  0.00     0.005 C 
ATOM      8  C   UNL     1     -10.367  -8.795  94.881  1.00  0.00     0.005 C 
ATOM      9  C   UNL     1     -11.234  -9.780  95.709  1.00  0.00     0.002 C 
ATOM     10  C   UNL     1     -11.760  -9.166  97.110  1.00  0.00    -0.026 C 
ATOM     11  C   UNL     1     -12.583  -7.860  96.931  1.00  0.00     0.010 C 
ATOM     12  C   UNL     1     -13.052  -7.208  98.246  1.00  0.00     0.033 C 
ATOM     13  C   UNL     1     -13.403  -8.190  99.383  1.00  0.00     0.120 C 
ATOM     14  C   UNL     1     -13.800  -9.606  98.867  1.00  0.00    -0.006 C 
ATOM     15  C   UNL     1     -12.636 -10.210  97.943  1.00  0.00     0.003 C 
ATOM     16  C   UNL     1     -13.118 -11.410  97.094  1.00  0.00     0.005 C 
ATOM     17  C   UNL     1     -13.495 -10.992  95.667  1.00  0.00     0.008 C 
ATOM     18  C   UNL     1     -12.238 -10.640  94.810  1.00  0.00    -0.024 C 
ATOM     19  C   UNL     1     -12.617  -9.922  93.398  1.00  0.00    -0.024 C 
ATOM     20  C   UNL     1     -13.436  -8.607  93.596  1.00  0.00     0.008 C 
ATOM     21  C   UNL     1     -13.720  -7.824  92.307  1.00  0.00     0.010 C 
ATOM     22  C   UNL     1     -13.511 -10.908  92.570  1.00  0.00     0.012 C 
ATOM     23  C   UNL     1     -11.555 -12.030  94.489  1.00  0.00     0.012 C 
ATOM     24  C   UNL     1     -15.199  -9.517  98.178  1.00  0.00     0.014 C 
ATOM     25  C   UNL     1     -13.972 -10.531 100.104  1.00  0.00     0.014 C 
ATOM     26  C   UNL     1     -10.478  -8.801  97.932  1.00  0.00     0.012 C 
ENDROOT
BRANCH   1  27
ATOM     27  C   UNL     1     -10.686 -10.000  89.339  1.00  0.00    -0.077 C 
ATOM     28  C   UNL     1      -9.267  -9.886  89.835  1.00  0.00     0.039 C 
ATOM     29  C   UNL     1     -10.933 -10.864  88.337  1.00  0.00     0.008 C 
ENDBRANCH   1  27
BRANCH   4  30
ATOM     30  C   UNL     1     -11.782  -6.146  92.291  1.00  0.00     0.163 C 
BRANCH  30  31
ATOM     31  O   UNL     1     -10.407  -6.064  92.016  1.00  0.00    -0.396 OA
ATOM     32  H   UNL     1      -9.970  -6.838  92.457  1.00  0.00     0.210 HD
ENDBRANCH  30  31
ENDBRANCH   4  30
BRANCH  13  33
ATOM     33  O   UNL     1     -14.436  -7.622 100.156  1.00  0.00    -0.393 OA
ATOM     34  H   UNL     1     -14.247  -6.651 100.250  1.00  0.00     0.210 HD
ENDBRANCH  13  33
TORSDOF 4
ENDMDL
MODEL 2
REMARK VINA RESULT:    -6.717      2.262      7.711
REMARK INTER + INTRA:          -8.380
REMARK INTER:                  -7.873
REMARK INTRA:                  -0.507
REMARK UNBOUND:                -0.485
REMARK SMILES C=C(C)[C@@H]1CC[C@@]2(CO)CC[C@@]3(C)[C@H](CC[C@H]4[C@@]5(C)CC[C@@H](O)C(C)(C)[C@H]5CC[C@]43C)[C@@H]12
REMARK SMILES IDX 4 1 5 2 6 3 7 4 32 5 14 6 15 7 16 8 17 9 18 10 20 11 21 12
REMARK SMILES IDX 22 13 24 14 27 15 28 16 29 17 30 18 12 19 11 20 10 21 13 22
REMARK SMILES IDX 31 23 25 24 26 25 19 26 2 27 3 28 1 29 8 30 9 31 23 33
REMARK H PARENT 9 32 23 34
REMARK Flexibility Score: inf
ROOT
ATOM      1  C   UNL     1     -12.286  -9.329  97.420  1.00  0.00     0.018 C 
ATOM      2  C   UNL     1     -12.761 -10.609  98.091  1.00  0.00     0.009 C 
ATOM      3  C   UNL     1     -13.124 -11.572  96.964  1.00  0.00     0.010 C 
ATOM      4  C   UNL     1     -12.525 -11.008  95.641  1.00  0.00    -0.003 C 
ATOM      5  C   UNL     1     -11.652  -9.806  96.096  1.00  0.00     0.008 C 
ATOM      6  C   UNL     1     -11.380  -8.644  95.053  1.00  0.00    -0.000 C 
ATOM      7  C   UNL     1      -9.965  -8.781  94.399  1.00  0.00     0.005 C 
ATOM      8  C   UNL     1      -9.971  -9.163  92.921  1.00  0.00     0.005 C 
ATOM      9  C   UNL     1     -10.734  -8.156  92.019  1.00  0.00     0.002 C 
ATOM     10  C   UNL     1     -10.939  -8.668  90.499  1.00  0.00    -0.026 C 
ATOM     11  C   UNL     1     -11.683 -10.030  90.409  1.00  0.00     0.010 C 
ATOM     12  C   UNL     1     -11.844 -10.584  88.980  1.00  0.00     0.033 C 
ATOM     13  C   UNL     1     -12.043  -9.523  87.878  1.00  0.00     0.120 C 
ATOM     14  C   UNL     1     -12.633  -8.184  88.416  1.00  0.00    -0.006 C 
ATOM     15  C   UNL     1     -11.714  -7.603  89.595  1.00  0.00     0.003 C 
ATOM     16  C   UNL     1     -12.434  -6.515  90.425  1.00  0.00     0.005 C 
ATOM     17  C   UNL     1     -13.044  -7.082  91.712  1.00  0.00     0.008 C 
ATOM     18  C   UNL     1     -11.951  -7.440  92.768  1.00  0.00    -0.024 C 
ATOM     19  C   UNL     1     -12.538  -8.305  94.018  1.00  0.00    -0.024 C 
ATOM     20  C   UNL     1     -13.207  -9.639  93.561  1.00  0.00     0.008 C 
ATOM     21  C   UNL     1     -13.673 -10.551  94.704  1.00  0.00     0.010 C 
ATOM     22  C   UNL     1     -13.642  -7.449  94.730  1.00  0.00     0.012 C 
ATOM     23  C   UNL     1     -11.445  -6.050  93.326  1.00  0.00     0.012 C 
ATOM     24  C   UNL     1     -14.127  -8.415  88.808  1.00  0.00     0.014 C 
ATOM     25  C   UNL     1     -12.633  -7.162  87.246  1.00  0.00     0.014 C 
ATOM     26  C   UNL     1      -9.500  -8.884  89.917  1.00  0.00     0.012 C 
ENDROOT
BRANCH   1  27
ATOM     27  C   UNL     1     -11.426  -8.489  98.370  1.00  0.00    -0.077 C 
ATOM     28  C   UNL     1     -10.292  -9.171  99.093  1.00  0.00     0.039 C 
ATOM     29  C   UNL     1     -11.601  -7.171  98.579  1.00  0.00     0.008 C 
ENDBRANCH   1  27
BRANCH   4  30
ATOM     30  C   UNL     1     -11.657 -12.113  94.966  1.00  0.00     0.163 C 
BRANCH  30  31
ATOM     31  O   UNL     1     -12.414 -12.884  94.068  1.00  0.00    -0.396 OA
ATOM     32  H   UNL     1     -13.124 -12.297  93.700  1.00  0.00     0.210 HD
ENDBRANCH  30  31
ENDBRANCH   4  30
BRANCH  13  33
ATOM     33  O   UNL     1     -12.866 -10.075  86.875  1.00  0.00    -0.393 OA
ATOM     34  H   UNL     1     -13.659 -10.476  87.319  1.00  0.00     0.210 HD
ENDBRANCH  13  33
TORSDOF 4
ENDMDL
MODEL 3
REMARK VINA RESULT:    -6.654      1.603      2.540
REMARK INTER + INTRA:          -8.306
REMARK INTER:                  -7.760
REMARK INTRA:                  -0.546
REMARK UNBOUND:                -0.485
REMARK SMILES C=C(C)[C@@H]1CC[C@@]2(CO)CC[C@@]3(C)[C@H](CC[C@H]4[C@@]5(C)CC[C@@H](O)C(C)(C)[C@H]5CC[C@]43C)[C@@H]12
REMARK SMILES IDX 4 1 5 2 6 3 7 4 32 5 14 6 15 7 16 8 17 9 18 10 20 11 21 12
REMARK SMILES IDX 22 13 24 14 27 15 28 16 29 17 30 18 12 19 11 20 10 21 13 22
REMARK SMILES IDX 31 23 25 24 26 25 19 26 2 27 3 28 1 29 8 30 9 31 23 33
REMARK H PARENT 9 32 23 34
REMARK Flexibility Score: inf
ROOT
ATOM      1  C   UNL     1     -10.201  -9.205  90.212  1.00  0.00     0.018 C 
ATOM      2  C   UNL     1      -8.951  -8.417  89.849  1.00  0.00     0.009 C 
ATOM      3  C   UNL     1      -8.524  -7.685  91.118  1.00  0.00     0.010 C 
ATOM      4  C   UNL     1      -9.292  -8.318  92.317  1.00  0.00    -0.003 C 
ATOM      5  C   UNL     1     -10.011  -9.552  91.705  1.00  0.00     0.008 C 
ATOM      6  C   UNL     1     -11.324 -10.080  92.418  1.00  0.00    -0.000 C 
ATOM      7  C   UNL     1     -11.026 -11.326  93.317  1.00  0.00     0.005 C 
ATOM      8  C   UNL     1     -11.143 -11.082  94.819  1.00  0.00     0.005 C 
ATOM      9  C   UNL     1     -12.547 -10.593  95.264  1.00  0.00     0.002 C 
ATOM     10  C   UNL     1     -12.612 -10.117  96.809  1.00  0.00    -0.026 C 
ATOM     11  C   UNL     1     -11.599  -8.986  97.141  1.00  0.00     0.010 C 
ATOM     12  C   UNL     1     -11.585  -8.546  98.617  1.00  0.00     0.033 C 
ATOM     13  C   UNL     1     -12.950  -8.593  99.335  1.00  0.00     0.120 C 
ATOM     14  C   UNL     1     -14.159  -8.488  98.356  1.00  0.00    -0.006 C 
ATOM     15  C   UNL     1     -14.073  -9.635  97.238  1.00  0.00     0.003 C 
ATOM     16  C   UNL     1     -14.997  -9.354  96.030  1.00  0.00     0.005 C 
ATOM     17  C   UNL     1     -14.240  -8.707  94.864  1.00  0.00     0.008 C 
ATOM     18  C   UNL     1     -13.290  -9.721  94.150  1.00  0.00    -0.024 C 
ATOM     19  C   UNL     1     -12.268  -9.001  93.106  1.00  0.00    -0.024 C 
ATOM     20  C   UNL     1     -11.374  -7.920  93.791  1.00  0.00     0.008 C 
ATOM     21  C   UNL     1     -10.310  -7.292  92.881  1.00  0.00     0.010 C 
ATOM     22  C   UNL     1     -13.119  -8.275  92.008  1.00  0.00     0.012 C 
ATOM     23  C   UNL     1     -14.246 -10.673  93.326  1.00  0.00     0.012 C 
ATOM     24  C   UNL     1     -14.226  -7.033  97.793  1.00  0.00     0.014 C 
ATOM     25  C   UNL     1     -15.458  -8.706  99.181  1.00  0.00     0.014 C 
ATOM     26  C   UNL     1     -12.213 -11.367  97.665  1.00  0.00     0.012 C 
ENDROOT
BRANCH   1  27
ATOM     27  C   UNL     1     -10.437 -10.356  89.230  1.00  0.00    -0.077 C 
ATOM     28  C   UNL     1     -11.845 -10.602  88.748  1.00  0.00     0.039 C 
ATOM     29  C   UNL     1      -9.462 -11.147  88.746  1.00  0.00     0.008 C 
ENDBRANCH   1  27
BRANCH   4  30
ATOM     30  C   UNL     1      -8.265  -8.746  93.408  1.00  0.00     0.163 C 
BRANCH  30  31
ATOM     31  O   UNL     1      -7.040  -9.130  92.839  1.00  0.00    -0.396 OA
ATOM     32  H   UNL     1      -6.320  -8.701  93.371  1.00  0.00     0.210 HD
ENDBRANCH  30  31
ENDBRANCH   4  30
BRANCH  13  33
ATOM     33  O   UNL     1     -12.982  -7.561 100.294  1.00  0.00    -0.393 OA
ATOM     34  H   UNL     1     -12.504  -6.778  99.914  1.00  0.00     0.210 HD
ENDBRANCH  13  33
TORSDOF 4
ENDMDL
MODEL 4
REMARK VINA RESULT:    -6.381      2.304      3.706
REMARK INTER + INTRA:          -7.985
REMARK INTER:                  -7.434
REMARK INTRA:                  -0.551
REMARK UNBOUND:                -0.485
REMARK SMILES C=C(C)[C@@H]1CC[C@@]2(CO)CC[C@@]3(C)[C@H](CC[C@H]4[C@@]5(C)CC[C@@H](O)C(C)(C)[C@H]5CC[C@]43C)[C@@H]12
REMARK SMILES IDX 4 1 5 2 6 3 7 4 32 5 14 6 15 7 16 8 17 9 18 10 20 11 21 12
REMARK SMILES IDX 22 13 24 14 27 15 28 16 29 17 30 18 12 19 11 20 10 21 13 22
REMARK SMILES IDX 31 23 25 24 26 25 19 26 2 27 3 28 1 29 8 30 9 31 23 33
REMARK H PARENT 9 32 23 34
REMARK Flexibility Score: inf
ROOT
ATOM      1  C   UNL     1      -9.215  -5.957  91.013  1.00  0.00     0.018 C 
ATOM      2  C   UNL     1      -7.752  -5.546  91.077  1.00  0.00     0.009 C 
ATOM      3  C   UNL     1      -7.259  -5.938  92.467  1.00  0.00     0.010 C 
ATOM      4  C   UNL     1      -8.309  -6.905  93.092  1.00  0.00    -0.003 C 
ATOM      5  C   UNL     1      -9.304  -7.193  91.934  1.00  0.00     0.008 C 
ATOM      6  C   UNL     1     -10.785  -7.615  92.309  1.00  0.00    -0.000 C 
ATOM      7  C   UNL     1     -10.984  -9.163  92.199  1.00  0.00     0.005 C 
ATOM      8  C   UNL     1     -11.181  -9.885  93.530  1.00  0.00     0.005 C 
ATOM      9  C   UNL     1     -12.405  -9.380  94.339  1.00  0.00     0.002 C 
ATOM     10  C   UNL     1     -12.486  -9.978  95.840  1.00  0.00    -0.026 C 
ATOM     11  C   UNL     1     -11.215  -9.679  96.683  1.00  0.00     0.010 C 
ATOM     12  C   UNL     1     -11.225 -10.285  98.100  1.00  0.00     0.033 C 
ATOM     13  C   UNL     1     -12.607 -10.346  98.784  1.00  0.00     0.120 C 
ATOM     14  C   UNL     1     -13.611  -9.292  98.228  1.00  0.00    -0.006 C 
ATOM     15  C   UNL     1     -13.764  -9.450  96.639  1.00  0.00     0.003 C 
ATOM     16  C   UNL     1     -14.420  -8.212  95.982  1.00  0.00     0.005 C 
ATOM     17  C   UNL     1     -13.380  -7.253  95.392  1.00  0.00     0.008 C 
ATOM     18  C   UNL     1     -12.718  -7.831  94.101  1.00  0.00    -0.024 C 
ATOM     19  C   UNL     1     -11.417  -6.976  93.621  1.00  0.00    -0.024 C 
ATOM     20  C   UNL     1     -10.313  -6.897  94.721  1.00  0.00     0.008 C 
ATOM     21  C   UNL     1      -9.015  -6.205  94.283  1.00  0.00     0.010 C 
ATOM     22  C   UNL     1     -11.879  -5.509  93.317  1.00  0.00     0.012 C 
ATOM     23  C   UNL     1     -13.827  -7.712  92.981  1.00  0.00     0.012 C 
ATOM     24  C   UNL     1     -13.165  -7.873  98.702  1.00  0.00     0.014 C 
ATOM     25  C   UNL     1     -14.994  -9.564  98.882  1.00  0.00     0.014 C 
ATOM     26  C   UNL     1     -12.587 -11.533  95.682  1.00  0.00     0.012 C 
ENDROOT
BRANCH   1  27
ATOM     27  C   UNL     1      -9.689  -6.103  89.564  1.00  0.00    -0.077 C 
ATOM     28  C   UNL     1     -10.074  -4.854  88.812  1.00  0.00     0.039 C 
ATOM     29  C   UNL     1      -9.757  -7.276  88.907  1.00  0.00     0.008 C 
ENDBRANCH   1  27
BRANCH   4  30
ATOM     30  C   UNL     1      -7.589  -8.206  93.555  1.00  0.00     0.163 C 
BRANCH  30  31
ATOM     31  O   UNL     1      -7.428  -9.111  92.493  1.00  0.00    -0.396 OA
ATOM     32  H   UNL     1      -6.772  -8.713  91.863  1.00  0.00     0.210 HD
ENDBRANCH  30  31
ENDBRANCH   4  30
BRANCH  13  33
ATOM     33  O   UNL     1     -12.421 -10.190 100.173  1.00  0.00    -0.393 OA
ATOM     34  H   UNL     1     -11.475  -9.929 100.325  1.00  0.00     0.210 HD
ENDBRANCH  13  33
TORSDOF 4
ENDMDL
MODEL 5
REMARK VINA RESULT:    -6.378      3.887      5.841
REMARK INTER + INTRA:          -7.981
REMARK INTER:                  -7.436
REMARK INTRA:                  -0.546
REMARK UNBOUND:                -0.485
REMARK SMILES C=C(C)[C@@H]1CC[C@@]2(CO)CC[C@@]3(C)[C@H](CC[C@H]4[C@@]5(C)CC[C@@H](O)C(C)(C)[C@H]5CC[C@]43C)[C@@H]12
REMARK SMILES IDX 4 1 5 2 6 3 7 4 32 5 14 6 15 7 16 8 17 9 18 10 20 11 21 12
REMARK SMILES IDX 22 13 24 14 27 15 28 16 29 17 30 18 12 19 11 20 10 21 13 22
REMARK SMILES IDX 31 23 25 24 26 25 19 26 2 27 3 28 1 29 8 30 9 31 23 33
REMARK H PARENT 9 32 23 34
REMARK Flexibility Score: inf
ROOT
ATOM      1  C   UNL     1     -15.004 -10.431  89.040  1.00  0.00     0.018 C 
ATOM      2  C   UNL     1     -15.796  -9.755  87.932  1.00  0.00     0.009 C 
ATOM      3  C   UNL     1     -15.154  -8.386  87.723  1.00  0.00     0.010 C 
ATOM      4  C   UNL     1     -13.770  -8.392  88.437  1.00  0.00    -0.003 C 
ATOM      5  C   UNL     1     -13.574  -9.868  88.884  1.00  0.00     0.008 C 
ATOM      6  C   UNL     1     -12.627 -10.154  90.122  1.00  0.00    -0.000 C 
ATOM      7  C   UNL     1     -11.210 -10.629  89.661  1.00  0.00     0.005 C 
ATOM      8  C   UNL     1     -10.081  -9.633  89.913  1.00  0.00     0.005 C 
ATOM      9  C   UNL     1      -9.909  -9.249  91.406  1.00  0.00     0.002 C 
ATOM     10  C   UNL     1      -8.873  -8.031  91.651  1.00  0.00    -0.026 C 
ATOM     11  C   UNL     1      -9.260  -6.738  90.880  1.00  0.00     0.010 C 
ATOM     12  C   UNL     1      -8.266  -5.572  91.037  1.00  0.00     0.033 C 
ATOM     13  C   UNL     1      -7.576  -5.471  92.413  1.00  0.00     0.120 C 
ATOM     14  C   UNL     1      -8.395  -6.140  93.559  1.00  0.00    -0.006 C 
ATOM     15  C   UNL     1      -8.708  -7.672  93.199  1.00  0.00     0.003 C 
ATOM     16  C   UNL     1      -9.829  -8.269  94.082  1.00  0.00     0.005 C 
ATOM     17  C   UNL     1     -11.193  -8.235  93.383  1.00  0.00     0.008 C 
ATOM     18  C   UNL     1     -11.282  -9.278  92.224  1.00  0.00    -0.024 C 
ATOM     19  C   UNL     1     -12.596  -9.070  91.285  1.00  0.00    -0.024 C 
ATOM     20  C   UNL     1     -12.655  -7.648  90.644  1.00  0.00     0.008 C 
ATOM     21  C   UNL     1     -13.809  -7.433  89.655  1.00  0.00     0.010 C 
ATOM     22  C   UNL     1     -13.871  -9.230  92.183  1.00  0.00     0.012 C 
ATOM     23  C   UNL     1     -11.406 -10.682  92.941  1.00  0.00     0.012 C 
ATOM     24  C   UNL     1      -9.657  -5.268  93.851  1.00  0.00     0.014 C 
ATOM     25  C   UNL     1      -7.524  -6.108  94.846  1.00  0.00     0.014 C 
ATOM     26  C   UNL     1      -7.494  -8.515  91.088  1.00  0.00     0.012 C 
ENDROOT
BRANCH   1  27
ATOM     27  C   UNL     1     -15.186 -11.952  89.005  1.00  0.00    -0.077 C 
ATOM     28  C   UNL     1     -15.106 -12.647  87.669  1.00  0.00     0.039 C 
ATOM     29  C   UNL     1     -15.385 -12.713  90.097  1.00  0.00     0.008 C 
ENDBRANCH   1  27
BRANCH   4  30
ATOM     30  C   UNL     1     -12.671  -7.960  87.420  1.00  0.00     0.163 C 
BRANCH  30  31
ATOM     31  O   UNL     1     -12.007  -9.072  86.876  1.00  0.00    -0.396 OA
ATOM     32  H   UNL     1     -11.944  -9.758  87.591  1.00  0.00     0.210 HD
ENDBRANCH  30  31
ENDBRANCH   4  30
BRANCH  13  33
ATOM     33  O   UNL     1      -7.335  -4.110  92.689  1.00  0.00    -0.393 OA
ATOM     34  H   UNL     1      -8.093  -3.586  92.320  1.00  0.00     0.210 HD
ENDBRANCH  13  33
TORSDOF 4
ENDMDL
MODEL 6
REMARK VINA RESULT:    -6.328      1.709      7.469
REMARK INTER + INTRA:          -7.923
REMARK INTER:                  -7.397
REMARK INTRA:                  -0.526
REMARK UNBOUND:                -0.485
REMARK SMILES C=C(C)[C@@H]1CC[C@@]2(CO)CC[C@@]3(C)[C@H](CC[C@H]4[C@@]5(C)CC[C@@H](O)C(C)(C)[C@H]5CC[C@]43C)[C@@H]12
REMARK SMILES IDX 4 1 5 2 6 3 7 4 32 5 14 6 15 7 16 8 17 9 18 10 20 11 21 12
REMARK SMILES IDX 22 13 24 14 27 15 28 16 29 17 30 18 12 19 11 20 10 21 13 22
REMARK SMILES IDX 31 23 25 24 26 25 19 26 2 27 3 28 1 29 8 30 9 31 23 33
REMARK H PARENT 9 32 23 34
REMARK Flexibility Score: inf
ROOT
ATOM      1  C   UNL     1     -13.096  -7.943  99.629  1.00  0.00     0.018 C 
ATOM      2  C   UNL     1     -13.702  -6.647 100.145  1.00  0.00     0.009 C 
ATOM      3  C   UNL     1     -14.127  -5.853  98.913  1.00  0.00     0.010 C 
ATOM      4  C   UNL     1     -14.113  -6.822  97.692  1.00  0.00    -0.003 C 
ATOM      5  C   UNL     1     -13.858  -8.222  98.315  1.00  0.00     0.008 C 
ATOM      6  C   UNL     1     -13.190  -9.334  97.404  1.00  0.00    -0.000 C 
ATOM      7  C   UNL     1     -14.257 -10.330  96.841  1.00  0.00     0.005 C 
ATOM      8  C   UNL     1     -14.504 -10.232  95.338  1.00  0.00     0.005 C 
ATOM      9  C   UNL     1     -13.234 -10.478  94.480  1.00  0.00     0.002 C 
ATOM     10  C   UNL     1     -13.437 -10.153  92.909  1.00  0.00    -0.026 C 
ATOM     11  C   UNL     1     -13.902  -8.694  92.644  1.00  0.00     0.010 C 
ATOM     12  C   UNL     1     -14.166  -8.360  91.162  1.00  0.00     0.033 C 
ATOM     13  C   UNL     1     -13.245  -9.072  90.149  1.00  0.00     0.120 C 
ATOM     14  C   UNL     1     -11.879  -9.506  90.764  1.00  0.00    -0.006 C 
ATOM     15  C   UNL     1     -12.117 -10.430  92.053  1.00  0.00     0.003 C 
ATOM     16  C   UNL     1     -10.847 -10.565  92.926  1.00  0.00     0.005 C 
ATOM     17  C   UNL     1     -10.855  -9.591  94.110  1.00  0.00     0.008 C 
ATOM     18  C   UNL     1     -11.888 -10.010  95.203  1.00  0.00    -0.024 C 
ATOM     19  C   UNL     1     -12.126  -8.853  96.325  1.00  0.00    -0.024 C 
ATOM     20  C   UNL     1     -12.618  -7.509  95.702  1.00  0.00     0.008 C 
ATOM     21  C   UNL     1     -12.973  -6.417  96.721  1.00  0.00     0.010 C 
ATOM     22  C   UNL     1     -10.756  -8.566  97.032  1.00  0.00     0.012 C 
ATOM     23  C   UNL     1     -11.245 -11.265  95.920  1.00  0.00     0.012 C 
ATOM     24  C   UNL     1     -11.018  -8.230  91.027  1.00  0.00     0.014 C 
ATOM     25  C   UNL     1     -11.122 -10.340  89.695  1.00  0.00     0.014 C 
ATOM     26  C   UNL     1     -14.578 -11.104  92.412  1.00  0.00     0.012 C 
ENDROOT
BRANCH   1  27
ATOM     27  C   UNL     1     -13.102  -9.029 100.709  1.00  0.00    -0.077 C 
ATOM     28  C   UNL     1     -11.853  -9.852 100.897  1.00  0.00     0.039 C 
ATOM     29  C   UNL     1     -14.145  -9.277 101.523  1.00  0.00     0.008 C 
ENDBRANCH   1  27
BRANCH   4  30
ATOM     30  C   UNL     1     -15.499  -6.763  96.982  1.00  0.00     0.163 C 
BRANCH  30  31
ATOM     31  O   UNL     1     -16.125  -5.520  97.176  1.00  0.00    -0.396 OA
ATOM     32  H   UNL     1     -16.442  -5.208  96.289  1.00  0.00     0.210 HD
ENDBRANCH  30  31
ENDBRANCH   4  30
BRANCH  13  33
ATOM     33  O   UNL     1     -13.056  -8.216  89.045  1.00  0.00    -0.393 OA
ATOM     34  H   UNL     1     -13.225  -8.743  88.220  1.00  0.00     0.210 HD
ENDBRANCH  13  33
TORSDOF 4
ENDMDL
MODEL 7
REMARK VINA RESULT:    -6.234      2.106      3.959
REMARK INTER + INTRA:          -7.812
REMARK INTER:                  -7.279
REMARK INTRA:                  -0.533
REMARK UNBOUND:                -0.485
REMARK SMILES C=C(C)[C@@H]1CC[C@@]2(CO)CC[C@@]3(C)[C@H](CC[C@H]4[C@@]5(C)CC[C@@H](O)C(C)(C)[C@H]5CC[C@]43C)[C@@H]12
REMARK SMILES IDX 4 1 5 2 6 3 7 4 32 5 14 6 15 7 16 8 17 9 18 10 20 11 21 12
REMARK SMILES IDX 22 13 24 14 27 15 28 16 29 17 30 18 12 19 11 20 10 21 13 22
REMARK SMILES IDX 31 23 25 24 26 25 19 26 2 27 3 28 1 29 8 30 9 31 23 33
REMARK H PARENT 9 32 23 34
REMARK Flexibility Score: inf
ROOT
ATOM      1  C   UNL     1      -9.231  -7.227  90.840  1.00  0.00     0.018 C 
ATOM      2  C   UNL     1      -8.757  -8.275  89.844  1.00  0.00     0.009 C 
ATOM      3  C   UNL     1      -9.110  -9.631  90.449  1.00  0.00     0.010 C 
ATOM      4  C   UNL     1     -10.113  -9.387  91.617  1.00  0.00    -0.003 C 
ATOM      5  C   UNL     1     -10.458  -7.874  91.517  1.00  0.00     0.008 C 
ATOM      6  C   UNL     1     -10.938  -7.130  92.832  1.00  0.00    -0.000 C 
ATOM      7  C   UNL     1     -12.495  -6.973  92.864  1.00  0.00     0.005 C 
ATOM      8  C   UNL     1     -13.208  -7.819  93.916  1.00  0.00     0.005 C 
ATOM      9  C   UNL     1     -12.746  -7.529  95.369  1.00  0.00     0.002 C 
ATOM     10  C   UNL     1     -13.327  -8.573  96.458  1.00  0.00    -0.026 C 
ATOM     11  C   UNL     1     -12.964 -10.050  96.141  1.00  0.00     0.010 C 
ATOM     12  C   UNL     1     -13.552 -11.083  97.122  1.00  0.00     0.033 C 
ATOM     13  C   UNL     1     -13.664 -10.615  98.588  1.00  0.00     0.120 C 
ATOM     14  C   UNL     1     -12.660  -9.477  98.944  1.00  0.00    -0.006 C 
ATOM     15  C   UNL     1     -12.844  -8.237  97.943  1.00  0.00     0.003 C 
ATOM     16  C   UNL     1     -11.645  -7.261  97.984  1.00  0.00     0.005 C 
ATOM     17  C   UNL     1     -10.649  -7.524  96.848  1.00  0.00     0.008 C 
ATOM     18  C   UNL     1     -11.214  -7.081  95.461  1.00  0.00    -0.024 C 
ATOM     19  C   UNL     1     -10.311  -7.607  94.213  1.00  0.00    -0.024 C 
ATOM     20  C   UNL     1     -10.171  -9.161  94.189  1.00  0.00     0.008 C 
ATOM     21  C   UNL     1      -9.429  -9.723  92.968  1.00  0.00     0.010 C 
ATOM     22  C   UNL     1      -8.869  -7.011  94.365  1.00  0.00     0.012 C 
ATOM     23  C   UNL     1     -11.157  -5.500  95.480  1.00  0.00     0.012 C 
ATOM     24  C   UNL     1     -11.218 -10.073  98.985  1.00  0.00     0.014 C 
ATOM     25  C   UNL     1     -12.983  -8.995 100.386  1.00  0.00     0.014 C 
ATOM     26  C   UNL     1     -14.887  -8.450  96.387  1.00  0.00     0.012 C 
ENDROOT
BRANCH   1  27
ATOM     27  C   UNL     1      -9.415  -5.864  90.167  1.00  0.00    -0.077 C 
ATOM     28  C   UNL     1     -10.077  -5.823  88.813  1.00  0.00     0.039 C 
ATOM     29  C   UNL     1      -9.049  -4.693  90.722  1.00  0.00     0.008 C 
ENDBRANCH   1  27
BRANCH   4  30
ATOM     30  C   UNL     1     -11.377 -10.270  91.394  1.00  0.00     0.163 C 
BRANCH  30  31
ATOM     31  O   UNL     1     -11.504 -10.657  90.049  1.00  0.00    -0.396 OA
ATOM     32  H   UNL     1     -10.989 -10.006  89.505  1.00  0.00     0.210 HD
ENDBRANCH  30  31
ENDBRANCH   4  30
BRANCH  13  33
ATOM     33  O   UNL     1     -13.482 -11.735  99.425  1.00  0.00    -0.393 OA
ATOM     34  H   UNL     1     -14.211 -11.732 100.099  1.00  0.00     0.210 HD
ENDBRANCH  13  33
TORSDOF 4
ENDMDL
MODEL 8
REMARK VINA RESULT:    -6.148      2.264      7.657
REMARK INTER + INTRA:          -7.711
REMARK INTER:                  -7.195
REMARK INTRA:                  -0.516
REMARK UNBOUND:                -0.485
REMARK SMILES C=C(C)[C@@H]1CC[C@@]2(CO)CC[C@@]3(C)[C@H](CC[C@H]4[C@@]5(C)CC[C@@H](O)C(C)(C)[C@H]5CC[C@]43C)[C@@H]12
REMARK SMILES IDX 4 1 5 2 6 3 7 4 32 5 14 6 15 7 16 8 17 9 18 10 20 11 21 12
REMARK SMILES IDX 22 13 24 14 27 15 28 16 29 17 30 18 12 19 11 20 10 21 13 22
REMARK SMILES IDX 31 23 25 24 26 25 19 26 2 27 3 28 1 29 8 30 9 31 23 33
REMARK H PARENT 9 32 23 34
REMARK Flexibility Score: inf
ROOT
ATOM      1  C   UNL     1     -12.673  -9.700  97.580  1.00  0.00     0.018 C 
ATOM      2  C   UNL     1     -13.113 -11.139  97.798  1.00  0.00     0.009 C 
ATOM      3  C   UNL     1     -13.215 -11.769  96.412  1.00  0.00     0.010 C 
ATOM      4  C   UNL     1     -12.489 -10.829  95.404  1.00  0.00    -0.003 C 
ATOM      5  C   UNL     1     -11.811  -9.755  96.300  1.00  0.00     0.008 C 
ATOM      6  C   UNL     1     -11.506  -8.336  95.663  1.00  0.00    -0.000 C 
ATOM      7  C   UNL     1     -10.005  -8.210  95.238  1.00  0.00     0.005 C 
ATOM      8  C   UNL     1      -9.762  -8.165  93.732  1.00  0.00     0.005 C 
ATOM      9  C   UNL     1     -10.481  -6.990  93.018  1.00  0.00     0.002 C 
ATOM     10  C   UNL     1     -10.414  -7.070  91.404  1.00  0.00    -0.026 C 
ATOM     11  C   UNL     1     -11.003  -8.390  90.834  1.00  0.00     0.010 C 
ATOM     12  C   UNL     1     -10.902  -8.533  89.303  1.00  0.00     0.033 C 
ATOM     13  C   UNL     1     -11.041  -7.220  88.505  1.00  0.00     0.120 C 
ATOM     14  C   UNL     1     -11.830  -6.117  89.275  1.00  0.00    -0.006 C 
ATOM     15  C   UNL     1     -11.150  -5.839  90.701  1.00  0.00     0.003 C 
ATOM     16  C   UNL     1     -12.085  -5.065  91.660  1.00  0.00     0.005 C 
ATOM     17  C   UNL     1     -12.816  -5.999  92.632  1.00  0.00     0.008 C 
ATOM     18  C   UNL     1     -11.856  -6.577  93.719  1.00  0.00    -0.024 C 
ATOM     19  C   UNL     1     -12.530  -7.785  94.579  1.00  0.00    -0.024 C 
ATOM     20  C   UNL     1     -12.994  -8.974  93.680  1.00  0.00     0.008 C 
ATOM     21  C   UNL     1     -13.530 -10.191  94.446  1.00  0.00     0.010 C 
ATOM     22  C   UNL     1     -13.803  -7.222  95.301  1.00  0.00     0.012 C 
ATOM     23  C   UNL     1     -11.572  -5.371  94.703  1.00  0.00     0.012 C 
ATOM     24  C   UNL     1     -13.335  -6.528  89.340  1.00  0.00     0.014 C 
ATOM     25  C   UNL     1     -11.761  -4.812  88.436  1.00  0.00     0.014 C 
ATOM     26  C   UNL     1      -8.893  -7.038  91.031  1.00  0.00     0.012 C 
ENDROOT
BRANCH   1  27
ATOM     27  C   UNL     1     -12.044  -9.112  98.847  1.00  0.00    -0.077 C 
ATOM     28  C   UNL     1     -12.784  -8.012  99.564  1.00  0.00     0.039 C 
ATOM     29  C   UNL     1     -10.882  -9.536  99.378  1.00  0.00     0.008 C 
ENDBRANCH   1  27
BRANCH   4  30
ATOM     30  C   UNL     1     -11.431 -11.654  94.612  1.00  0.00     0.163 C 
BRANCH  30  31
ATOM     31  O   UNL     1     -11.988 -12.828  94.078  1.00  0.00    -0.396 OA
ATOM     32  H   UNL     1     -11.785 -12.836  93.107  1.00  0.00     0.210 HD
ENDBRANCH  30  31
ENDBRANCH   4  30
BRANCH  13  33
ATOM     33  O   UNL     1     -11.654  -7.515  87.270  1.00  0.00    -0.393 OA
ATOM     34  H   UNL     1     -12.598  -7.208  87.319  1.00  0.00     0.210 HD
ENDBRANCH  13  33
TORSDOF 4
ENDMDL
MODEL 9
REMARK VINA RESULT:    -6.120      3.129      6.930
REMARK INTER + INTRA:          -7.679
REMARK INTER:                  -7.510
REMARK INTRA:                  -0.168
REMARK UNBOUND:                -0.485
REMARK SMILES C=C(C)[C@@H]1CC[C@@]2(CO)CC[C@@]3(C)[C@H](CC[C@H]4[C@@]5(C)CC[C@@H](O)C(C)(C)[C@H]5CC[C@]43C)[C@@H]12
REMARK SMILES IDX 4 1 5 2 6 3 7 4 32 5 14 6 15 7 16 8 17 9 18 10 20 11 21 12
REMARK SMILES IDX 22 13 24 14 27 15 28 16 29 17 30 18 12 19 11 20 10 21 13 22
REMARK SMILES IDX 31 23 25 24 26 25 19 26 2 27 3 28 1 29 8 30 9 31 23 33
REMARK H PARENT 9 32 23 34
REMARK Flexibility Score: inf
ROOT
ATOM      1  C   UNL     1     -13.443 -10.467  93.705  1.00  0.00     0.018 C 
ATOM      2  C   UNL     1     -14.121 -10.577  95.062  1.00  0.00     0.009 C 
ATOM      3  C   UNL     1     -13.479  -9.513  95.949  1.00  0.00     0.010 C 
ATOM      4  C   UNL     1     -12.691  -8.535  95.027  1.00  0.00    -0.003 C 
ATOM      5  C   UNL     1     -13.074  -8.972  93.585  1.00  0.00     0.008 C 
ATOM      6  C   UNL     1     -12.057  -8.649  92.413  1.00  0.00    -0.000 C 
ATOM      7  C   UNL     1     -12.496  -7.380  91.609  1.00  0.00     0.005 C 
ATOM      8  C   UNL     1     -11.598  -6.159  91.789  1.00  0.00     0.005 C 
ATOM      9  C   UNL     1     -10.122  -6.404  91.378  1.00  0.00     0.002 C 
ATOM     10  C   UNL     1      -9.125  -5.195  91.777  1.00  0.00    -0.026 C 
ATOM     11  C   UNL     1      -9.137  -4.872  93.297  1.00  0.00     0.010 C 
ATOM     12  C   UNL     1      -8.246  -3.685  93.712  1.00  0.00     0.033 C 
ATOM     13  C   UNL     1      -6.946  -3.517  92.899  1.00  0.00     0.120 C 
ATOM     14  C   UNL     1      -6.459  -4.846  92.243  1.00  0.00    -0.006 C 
ATOM     15  C   UNL     1      -7.617  -5.472  91.327  1.00  0.00     0.003 C 
ATOM     16  C   UNL     1      -7.354  -6.955  90.974  1.00  0.00     0.005 C 
ATOM     17  C   UNL     1      -8.112  -7.912  91.901  1.00  0.00     0.008 C 
ATOM     18  C   UNL     1      -9.647  -7.912  91.612  1.00  0.00    -0.024 C 
ATOM     19  C   UNL     1     -10.506  -8.688  92.758  1.00  0.00    -0.024 C 
ATOM     20  C   UNL     1     -10.294  -8.079  94.180  1.00  0.00     0.008 C 
ATOM     21  C   UNL     1     -11.169  -8.694  95.281  1.00  0.00     0.010 C 
ATOM     22  C   UNL     1     -10.019 -10.178  92.811  1.00  0.00     0.012 C 
ATOM     23  C   UNL     1      -9.811  -8.704  90.253  1.00  0.00     0.012 C 
ATOM     24  C   UNL     1      -5.930  -5.795  93.364  1.00  0.00     0.014 C 
ATOM     25  C   UNL     1      -5.244  -4.509  91.335  1.00  0.00     0.014 C 
ATOM     26  C   UNL     1      -9.658  -3.927  91.027  1.00  0.00     0.012 C 
ENDROOT
BRANCH   1  27
ATOM     27  C   UNL     1     -14.306 -11.086  92.601  1.00  0.00    -0.077 C 
ATOM     28  C   UNL     1     -14.141 -10.566  91.195  1.00  0.00     0.039 C 
ATOM     29  C   UNL     1     -15.184 -12.086  92.801  1.00  0.00     0.008 C 
ENDBRANCH   1  27
BRANCH   4  30
ATOM     30  C   UNL     1     -13.157  -7.077  95.317  1.00  0.00     0.163 C 
BRANCH  30  31
ATOM     31  O   UNL     1     -14.284  -6.734  94.551  1.00  0.00    -0.396 OA
ATOM     32  H   UNL     1     -15.067  -7.183  94.961  1.00  0.00     0.210 HD
ENDBRANCH  30  31
ENDBRANCH   4  30
BRANCH  13  33
ATOM     33  O   UNL     1      -5.958  -2.979  93.749  1.00  0.00    -0.393 OA
ATOM     34  H   UNL     1      -5.111  -3.468  93.579  1.00  0.00     0.210 HD
ENDBRANCH  13  33
TORSDOF 4
ENDMDL
