MODEL 1
REMARK VINA RESULT:    -2.479      0.000      0.000
REMARK INTER + INTRA:          -2.479
REMARK INTER:                  -2.479
REMARK INTRA:                   0.000
REMARK UNBOUND:                 0.000
REMARK SMILES CC(=O)[O-]
REMARK SMILES IDX 1 1 2 2 3 3 4 4
REMARK H PARENT
REMARK Flexibility Score: inf
ROOT
ATOM      1  C   UNL     1      -8.571  14.691 -13.665  1.00  0.00     0.063 C 
ATOM      2  C   UNL     1      -8.172  15.169 -12.309  1.00  0.00     0.038 C 
ATOM      3  O   UNL     1      -8.221  16.396 -12.033  1.00  0.00    -0.550 OA
ATOM      4  O   UNL     1      -7.695  14.269 -11.366  1.00  0.00    -0.550 OA
ENDROOT
TORSDOF 0
ENDMDL
MODEL 2
REMARK VINA RESULT:    -2.463      2.172      2.485
REMARK INTER + INTRA:          -2.463
REMARK INTER:                  -2.463
REMARK INTRA:                   0.000
REMARK UNBOUND:                 0.000
REMARK SMILES CC(=O)[O-]
REMARK SMILES IDX 1 1 2 2 3 3 4 4
REMARK H PARENT
REMARK Flexibility Score: inf
ROOT
ATOM      1  C   UNL     1      -8.310  15.324 -12.167  1.00  0.00     0.063 C 
ATOM      2  C   UNL     1      -9.154  16.515 -12.472  1.00  0.00     0.038 C 
ATOM      3  O   UNL     1     -10.239  16.377 -13.096  1.00  0.00    -0.550 OA
ATOM      4  O   UNL     1      -8.721  17.786 -12.117  1.00  0.00    -0.550 OA
ENDROOT
TORSDOF 0
ENDMDL
MODEL 3
REMARK VINA RESULT:    -2.435      0.140      1.625
REMARK INTER + INTRA:          -2.435
REMARK INTER:                  -2.435
REMARK INTRA:                   0.000
REMARK UNBOUND:                 0.000
REMARK SMILES CC(=O)[O-]
REMARK SMILES IDX 1 1 2 2 3 3 4 4
REMARK H PARENT
REMARK Flexibility Score: inf
ROOT
ATOM      1  C   UNL     1      -8.401  14.550 -13.629  1.00  0.00     0.063 C 
ATOM      2  C   UNL     1      -8.102  15.111 -12.280  1.00  0.00     0.038 C 
ATOM      3  O   UNL     1      -7.712  14.353 -11.354  1.00  0.00    -0.550 OA
ATOM      4  O   UNL     1      -8.306  16.461 -12.026  1.00  0.00    -0.550 OA
ENDROOT
TORSDOF 0
ENDMDL
MODEL 4
REMARK VINA RESULT:    -2.416      1.798      2.154
REMARK INTER + INTRA:          -2.416
REMARK INTER:                  -2.416
REMARK INTRA:                   0.000
REMARK UNBOUND:                 0.000
REMARK SMILES CC(=O)[O-]
REMARK SMILES IDX 1 1 2 2 3 3 4 4
REMARK H PARENT
REMARK Flexibility Score: inf
ROOT
ATOM      1  C   UNL     1      -9.185  17.422 -12.592  1.00  0.00     0.063 C 
ATOM      2  C   UNL     1      -8.682  16.018 -12.624  1.00  0.00     0.038 C 
ATOM      3  O   UNL     1      -7.745  15.665 -11.862  1.00  0.00    -0.550 OA
ATOM      4  O   UNL     1      -9.210  15.110 -13.533  1.00  0.00    -0.550 OA
ENDROOT
TORSDOF 0
ENDMDL
MODEL 5
REMARK VINA RESULT:    -2.401      1.811      2.030
REMARK INTER + INTRA:          -2.401
REMARK INTER:                  -2.401
REMARK INTRA:                   0.000
REMARK UNBOUND:                 0.000
REMARK SMILES CC(=O)[O-]
REMARK SMILES IDX 1 1 2 2 3 3 4 4
REMARK H PARENT
REMARK Flexibility Score: inf
ROOT
ATOM      1  C   UNL     1      -9.250  17.368 -12.726  1.00  0.00     0.063 C 
ATOM      2  C   UNL     1      -8.744  15.966 -12.733  1.00  0.00     0.038 C 
ATOM      3  O   UNL     1      -9.250  15.116 -13.511  1.00  0.00    -0.550 OA
ATOM      4  O   UNL     1      -7.750  15.580 -11.843  1.00  0.00    -0.550 OA
ENDROOT
TORSDOF 0
ENDMDL
MODEL 6
REMARK VINA RESULT:    -2.193     19.333     19.703
REMARK INTER + INTRA:          -2.193
REMARK INTER:                  -2.193
REMARK INTRA:                   0.000
REMARK UNBOUND:                 0.000
REMARK SMILES CC(=O)[O-]
REMARK SMILES IDX 1 1 2 2 3 3 4 4
REMARK H PARENT
REMARK Flexibility Score: inf
ROOT
ATOM      1  C   UNL     1     -23.920   5.695 -16.125  1.00  0.00     0.063 C 
ATOM      2  C   UNL     1     -24.457   4.597 -15.270  1.00  0.00     0.038 C 
ATOM      3  O   UNL     1     -23.738   3.601 -14.996  1.00  0.00    -0.550 OA
ATOM      4  O   UNL     1     -25.769   4.645 -14.818  1.00  0.00    -0.550 OA
ENDROOT
TORSDOF 0
ENDMDL
MODEL 7
REMARK VINA RESULT:    -2.188      1.702      2.339
REMARK INTER + INTRA:          -2.188
REMARK INTER:                  -2.188
REMARK INTRA:                   0.000
REMARK UNBOUND:                 0.000
REMARK SMILES CC(=O)[O-]
REMARK SMILES IDX 1 1 2 2 3 3 4 4
REMARK H PARENT
REMARK Flexibility Score: inf
ROOT
ATOM      1  C   UNL     1      -8.449  13.721 -14.022  1.00  0.00     0.063 C 
ATOM      2  C   UNL     1      -7.382  13.574 -12.991  1.00  0.00     0.038 C 
ATOM      3  O   UNL     1      -6.324  12.947 -13.262  1.00  0.00    -0.550 OA
ATOM      4  O   UNL     1      -7.574  14.079 -11.712  1.00  0.00    -0.550 OA
ENDROOT
TORSDOF 0
ENDMDL
MODEL 8
REMARK VINA RESULT:    -2.135     20.182     20.490
REMARK INTER + INTRA:          -2.135
REMARK INTER:                  -2.135
REMARK INTRA:                   0.000
REMARK UNBOUND:                 0.000
REMARK SMILES CC(=O)[O-]
REMARK SMILES IDX 1 1 2 2 3 3 4 4
REMARK H PARENT
REMARK Flexibility Score: inf
ROOT
ATOM      1  C   UNL     1     -25.347   2.567 -15.279  1.00  0.00     0.063 C 
ATOM      2  C   UNL     1     -25.122   4.008 -14.970  1.00  0.00     0.038 C 
ATOM      3  O   UNL     1     -26.057   4.838 -15.114  1.00  0.00    -0.550 OA
ATOM      4  O   UNL     1     -23.865   4.447 -14.573  1.00  0.00    -0.550 OA
ENDROOT
TORSDOF 0
ENDMDL
MODEL 9
REMARK VINA RESULT:    -2.096      3.395      3.904
REMARK INTER + INTRA:          -2.096
REMARK INTER:                  -2.096
REMARK INTRA:                   0.000
REMARK UNBOUND:                 0.000
REMARK SMILES CC(=O)[O-]
REMARK SMILES IDX 1 1 2 2 3 3 4 4
REMARK H PARENT
REMARK Flexibility Score: inf
ROOT
ATOM      1  C   UNL     1      -8.091  12.867 -14.239  1.00  0.00     0.063 C 
ATOM      2  C   UNL     1      -9.188  13.518 -15.011  1.00  0.00     0.038 C 
ATOM      3  O   UNL     1     -10.200  12.852 -15.355  1.00  0.00    -0.550 OA
ATOM      4  O   UNL     1      -9.073  14.846 -15.400  1.00  0.00    -0.550 OA
ENDROOT
TORSDOF 0
ENDMDL
