MODEL 1
REMARK VINA RESULT:    -4.061      0.000      0.000
REMARK INTER + INTRA:          -4.299
REMARK INTER:                  -4.299
REMARK INTRA:                   0.000
REMARK UNBOUND:                 0.000
REMARK SMILES Cc1cc(O)c(C)c(C)c1O
REMARK SMILES IDX 1 1 2 2 3 3 4 4 6 5 8 6 10 7 9 8 7 9 11 10 5 12
REMARK H PARENT 11 11 5 13
REMARK Flexibility Score: inf
ROOT
ATOM      1  C   UNL     1     128.148 141.389 120.811  1.00  0.00     0.048 C 
ATOM      2  C   UNL     1     127.848 142.853 120.640  1.00  0.00    -0.005 A 
ATOM      3  C   UNL     1     127.738 143.397 119.358  1.00  0.00     0.053 A 
ATOM      4  C   UNL     1     127.429 144.748 119.178  1.00  0.00     0.119 A 
ATOM      5  C   UNL     1     127.230 145.586 120.294  1.00  0.00    -0.003 A 
ATOM      6  C   UNL     1     127.383 145.055 121.604  1.00  0.00    -0.002 A 
ATOM      7  C   UNL     1     127.656 143.672 121.766  1.00  0.00     0.121 A 
ATOM      8  C   UNL     1     127.236 145.925 122.833  1.00  0.00     0.049 C 
ATOM      9  C   UNL     1     126.875 147.040 120.076  1.00  0.00     0.049 C 
ENDROOT
BRANCH   7  10
ATOM     10  O   UNL     1     127.735 143.082 123.034  1.00  0.00    -0.507 OA
ATOM     11  H   UNL     1     127.019 142.483 123.421  1.00  0.00     0.293 HD
ENDBRANCH   7  10
BRANCH   4  12
ATOM     12  O   UNL     1     127.321 145.255 117.882  1.00  0.00    -0.508 OA
ATOM     13  H   UNL     1     127.177 144.651 117.082  1.00  0.00     0.293 HD
ENDBRANCH   4  12
TORSDOF 2
ENDMDL
MODEL 2
REMARK VINA RESULT:    -3.645      3.084      3.757
REMARK INTER + INTRA:          -3.858
REMARK INTER:                  -3.858
REMARK INTRA:                   0.000
REMARK UNBOUND:                 0.000
REMARK SMILES Cc1cc(O)c(C)c(C)c1O
REMARK SMILES IDX 1 1 2 2 3 3 4 4 6 5 8 6 10 7 9 8 7 9 11 10 5 12
REMARK H PARENT 11 11 5 13
REMARK Flexibility Score: inf
ROOT
ATOM      1  C   UNL     1     127.208 145.625 119.242  1.00  0.00     0.048 C 
ATOM      2  C   UNL     1     128.403 145.805 120.138  1.00  0.00    -0.005 A 
ATOM      3  C   UNL     1     129.691 145.768 119.599  1.00  0.00     0.053 A 
ATOM      4  C   UNL     1     130.812 145.964 120.410  1.00  0.00     0.119 A 
ATOM      5  C   UNL     1     130.657 146.197 121.793  1.00  0.00    -0.003 A 
ATOM      6  C   UNL     1     129.353 146.192 122.361  1.00  0.00    -0.002 A 
ATOM      7  C   UNL     1     128.226 146.033 121.514  1.00  0.00     0.121 A 
ATOM      8  C   UNL     1     129.137 146.380 123.847  1.00  0.00     0.049 C 
ATOM      9  C   UNL     1     131.882 146.428 122.648  1.00  0.00     0.049 C 
ENDROOT
BRANCH   7  10
ATOM     10  O   UNL     1     126.918 146.103 122.010  1.00  0.00    -0.507 OA
ATOM     11  H   UNL     1     126.669 145.900 122.968  1.00  0.00     0.293 HD
ENDBRANCH   7  10
BRANCH   4  12
ATOM     12  O   UNL     1     132.084 145.926 119.836  1.00  0.00    -0.508 OA
ATOM     13  H   UNL     1     132.222 146.025 118.838  1.00  0.00     0.293 HD
ENDBRANCH   4  12
TORSDOF 2
ENDMDL
MODEL 3
REMARK VINA RESULT:    -3.628      2.468      4.158
REMARK INTER + INTRA:          -3.840
REMARK INTER:                  -3.840
REMARK INTRA:                   0.000
REMARK UNBOUND:                 0.000
REMARK SMILES Cc1cc(O)c(C)c(C)c1O
REMARK SMILES IDX 1 1 2 2 3 3 4 4 6 5 8 6 10 7 9 8 7 9 11 10 5 12
REMARK H PARENT 11 11 5 13
REMARK Flexibility Score: inf
ROOT
ATOM      1  C   UNL     1     127.458 145.282 119.183  1.00  0.00     0.048 C 
ATOM      2  C   UNL     1     128.041 145.593 120.534  1.00  0.00    -0.005 A 
ATOM      3  C   UNL     1     127.209 145.655 121.655  1.00  0.00     0.053 A 
ATOM      4  C   UNL     1     127.735 145.911 122.923  1.00  0.00     0.119 A 
ATOM      5  C   UNL     1     129.120 146.119 123.089  1.00  0.00    -0.003 A 
ATOM      6  C   UNL     1     129.972 146.102 121.949  1.00  0.00    -0.002 A 
ATOM      7  C   UNL     1     129.423 145.799 120.677  1.00  0.00     0.121 A 
ATOM      8  C   UNL     1     131.455 146.375 122.066  1.00  0.00     0.049 C 
ATOM      9  C   UNL     1     129.672 146.374 124.473  1.00  0.00     0.049 C 
ENDROOT
BRANCH   7  10
ATOM     10  O   UNL     1     130.230 145.689 119.537  1.00  0.00    -0.507 OA
ATOM     11  H   UNL     1     129.873 145.716 118.592  1.00  0.00     0.293 HD
ENDBRANCH   7  10
BRANCH   4  12
ATOM     12  O   UNL     1     126.875 145.961 124.021  1.00  0.00    -0.508 OA
ATOM     13  H   UNL     1     126.020 145.418 124.055  1.00  0.00     0.293 HD
ENDBRANCH   4  12
TORSDOF 2
ENDMDL
MODEL 4
REMARK VINA RESULT:    -3.623      3.133      3.606
REMARK INTER + INTRA:          -3.835
REMARK INTER:                  -3.835
REMARK INTRA:                   0.000
REMARK UNBOUND:                 0.000
REMARK SMILES Cc1cc(O)c(C)c(C)c1O
REMARK SMILES IDX 1 1 2 2 3 3 4 4 6 5 8 6 10 7 9 8 7 9 11 10 5 12
REMARK H PARENT 11 11 5 13
REMARK Flexibility Score: inf
ROOT
ATOM      1  C   UNL     1     132.423 146.193 120.110  1.00  0.00     0.048 C 
ATOM      2  C   UNL     1     130.996 146.161 120.585  1.00  0.00    -0.005 A 
ATOM      3  C   UNL     1     129.966 145.892 119.681  1.00  0.00     0.053 A 
ATOM      4  C   UNL     1     128.638 145.828 120.109  1.00  0.00     0.119 A 
ATOM      5  C   UNL     1     128.317 146.040 121.465  1.00  0.00    -0.003 A 
ATOM      6  C   UNL     1     129.352 146.359 122.387  1.00  0.00    -0.002 A 
ATOM      7  C   UNL     1     130.698 146.379 121.941  1.00  0.00     0.121 A 
ATOM      8  C   UNL     1     129.053 146.653 123.842  1.00  0.00     0.049 C 
ATOM      9  C   UNL     1     126.875 145.945 121.911  1.00  0.00     0.049 C 
ENDROOT
BRANCH   7  10
ATOM     10  O   UNL     1     131.761 146.606 122.824  1.00  0.00    -0.507 OA
ATOM     11  H   UNL     1     132.074 147.526 123.102  1.00  0.00     0.293 HD
ENDBRANCH   7  10
BRANCH   4  12
ATOM     12  O   UNL     1     127.635 145.551 119.178  1.00  0.00    -0.508 OA
ATOM     13  H   UNL     1     127.427 146.181 118.413  1.00  0.00     0.293 HD
ENDBRANCH   4  12
TORSDOF 2
ENDMDL
MODEL 5
REMARK VINA RESULT:    -3.615     16.717     17.240
REMARK INTER + INTRA:          -3.827
REMARK INTER:                  -3.827
REMARK INTRA:                   0.000
REMARK UNBOUND:                 0.000
REMARK SMILES Cc1cc(O)c(C)c(C)c1O
REMARK SMILES IDX 1 1 2 2 3 3 4 4 6 5 8 6 10 7 9 8 7 9 11 10 5 12
REMARK H PARENT 11 11 5 13
REMARK Flexibility Score: inf
ROOT
ATOM      1  C   UNL     1     143.836 145.932 124.818  1.00  0.00     0.048 C 
ATOM      2  C   UNL     1     144.140 145.350 123.464  1.00  0.00    -0.005 A 
ATOM      3  C   UNL     1     144.891 144.176 123.362  1.00  0.00     0.053 A 
ATOM      4  C   UNL     1     145.158 143.603 122.116  1.00  0.00     0.119 A 
ATOM      5  C   UNL     1     144.677 144.210 120.938  1.00  0.00    -0.003 A 
ATOM      6  C   UNL     1     143.950 145.430 121.025  1.00  0.00    -0.002 A 
ATOM      7  C   UNL     1     143.654 145.972 122.302  1.00  0.00     0.121 A 
ATOM      8  C   UNL     1     143.461 146.150 119.787  1.00  0.00     0.049 C 
ATOM      9  C   UNL     1     144.959 143.562 119.601  1.00  0.00     0.049 C 
ENDROOT
BRANCH   7  10
ATOM     10  O   UNL     1     142.872 147.125 122.447  1.00  0.00    -0.507 OA
ATOM     11  H   UNL     1     143.097 147.881 123.078  1.00  0.00     0.293 HD
ENDBRANCH   7  10
BRANCH   4  12
ATOM     12  O   UNL     1     145.906 142.427 122.053  1.00  0.00    -0.508 OA
ATOM     13  H   UNL     1     146.745 142.356 121.489  1.00  0.00     0.293 HD
ENDBRANCH   4  12
TORSDOF 2
ENDMDL
MODEL 6
REMARK VINA RESULT:    -3.603      4.817      5.699
REMARK INTER + INTRA:          -3.814
REMARK INTER:                  -3.814
REMARK INTRA:                   0.000
REMARK UNBOUND:                 0.000
REMARK SMILES Cc1cc(O)c(C)c(C)c1O
REMARK SMILES IDX 1 1 2 2 3 3 4 4 6 5 8 6 10 7 9 8 7 9 11 10 5 12
REMARK H PARENT 11 11 5 13
REMARK Flexibility Score: inf
ROOT
ATOM      1  C   UNL     1     130.399 146.320 124.794  1.00  0.00     0.048 C 
ATOM      2  C   UNL     1     131.046 146.400 123.438  1.00  0.00    -0.005 A 
ATOM      3  C   UNL     1     132.397 146.737 123.330  1.00  0.00     0.053 A 
ATOM      4  C   UNL     1     133.024 146.786 122.082  1.00  0.00     0.119 A 
ATOM      5  C   UNL     1     132.296 146.500 120.909  1.00  0.00    -0.003 A 
ATOM      6  C   UNL     1     130.908 146.199 121.003  1.00  0.00    -0.002 A 
ATOM      7  C   UNL     1     130.301 146.113 122.282  1.00  0.00     0.121 A 
ATOM      8  C   UNL     1     130.070 145.940 119.770  1.00  0.00     0.049 C 
ATOM      9  C   UNL     1     132.998 146.538 119.571  1.00  0.00     0.049 C 
ENDROOT
BRANCH   7  10
ATOM     10  O   UNL     1     128.960 145.740 122.435  1.00  0.00    -0.507 OA
ATOM     11  H   UNL     1     128.642 145.042 123.093  1.00  0.00     0.293 HD
ENDBRANCH   7  10
BRANCH   4  12
ATOM     12  O   UNL     1     134.377 147.122 122.012  1.00  0.00    -0.508 OA
ATOM     13  H   UNL     1     135.023 146.617 121.416  1.00  0.00     0.293 HD
ENDBRANCH   4  12
TORSDOF 2
ENDMDL
MODEL 7
REMARK VINA RESULT:    -3.593      2.385      2.970
REMARK INTER + INTRA:          -3.803
REMARK INTER:                  -3.803
REMARK INTRA:                   0.000
REMARK UNBOUND:                 0.000
REMARK SMILES Cc1cc(O)c(C)c(C)c1O
REMARK SMILES IDX 1 1 2 2 3 3 4 4 6 5 8 6 10 7 9 8 7 9 11 10 5 12
REMARK H PARENT 11 11 5 13
REMARK Flexibility Score: inf
ROOT
ATOM      1  C   UNL     1     126.875 141.675 120.578  1.00  0.00     0.048 C 
ATOM      2  C   UNL     1     127.786 142.840 120.302  1.00  0.00    -0.005 A 
ATOM      3  C   UNL     1     127.266 144.136 120.256  1.00  0.00     0.053 A 
ATOM      4  C   UNL     1     128.100 145.234 120.031  1.00  0.00     0.119 A 
ATOM      5  C   UNL     1     129.485 145.047 119.840  1.00  0.00    -0.003 A 
ATOM      6  C   UNL     1     130.019 143.729 119.839  1.00  0.00    -0.002 A 
ATOM      7  C   UNL     1     129.162 142.631 120.110  1.00  0.00     0.121 A 
ATOM      8  C   UNL     1     131.488 143.471 119.581  1.00  0.00     0.049 C 
ATOM      9  C   UNL     1     130.373 146.251 119.619  1.00  0.00     0.049 C 
ENDROOT
BRANCH   7  10
ATOM     10  O   UNL     1     129.652 141.322 120.203  1.00  0.00    -0.507 OA
ATOM     11  H   UNL     1     129.639 140.662 119.437  1.00  0.00     0.293 HD
ENDBRANCH   7  10
BRANCH   4  12
ATOM     12  O   UNL     1     127.547 146.515 119.999  1.00  0.00    -0.508 OA
ATOM     13  H   UNL     1     126.605 146.698 120.323  1.00  0.00     0.293 HD
ENDBRANCH   4  12
TORSDOF 2
ENDMDL
MODEL 8
REMARK VINA RESULT:    -3.565      1.778      3.016
REMARK INTER + INTRA:          -3.773
REMARK INTER:                  -3.773
REMARK INTRA:                   0.000
REMARK UNBOUND:                 0.000
REMARK SMILES Cc1cc(O)c(C)c(C)c1O
REMARK SMILES IDX 1 1 2 2 3 3 4 4 6 5 8 6 10 7 9 8 7 9 11 10 5 12
REMARK H PARENT 11 11 5 13
REMARK Flexibility Score: inf
ROOT
ATOM      1  C   UNL     1     128.982 144.586 124.374  1.00  0.00     0.048 C 
ATOM      2  C   UNL     1     128.731 144.497 122.893  1.00  0.00    -0.005 A 
ATOM      3  C   UNL     1     129.243 145.476 122.039  1.00  0.00     0.053 A 
ATOM      4  C   UNL     1     129.047 145.395 120.658  1.00  0.00     0.119 A 
ATOM      5  C   UNL     1     128.320 144.320 120.106  1.00  0.00    -0.003 A 
ATOM      6  C   UNL     1     127.756 143.340 120.969  1.00  0.00    -0.002 A 
ATOM      7  C   UNL     1     128.002 143.418 122.364  1.00  0.00     0.121 A 
ATOM      8  C   UNL     1     126.920 142.199 120.431  1.00  0.00     0.049 C 
ATOM      9  C   UNL     1     128.138 144.240 118.607  1.00  0.00     0.049 C 
ENDROOT
BRANCH   7  10
ATOM     10  O   UNL     1     127.539 142.435 123.247  1.00  0.00    -0.507 OA
ATOM     11  H   UNL     1     126.564 142.301 123.479  1.00  0.00     0.293 HD
ENDBRANCH   7  10
BRANCH   4  12
ATOM     12  O   UNL     1     129.578 146.389 119.835  1.00  0.00    -0.508 OA
ATOM     13  H   UNL     1     130.563 146.622 119.845  1.00  0.00     0.293 HD
ENDBRANCH   4  12
TORSDOF 2
ENDMDL
MODEL 9
REMARK VINA RESULT:    -3.563     16.760     17.009
REMARK INTER + INTRA:          -3.771
REMARK INTER:                  -3.771
REMARK INTRA:                   0.000
REMARK UNBOUND:                 0.000
REMARK SMILES Cc1cc(O)c(C)c(C)c1O
REMARK SMILES IDX 1 1 2 2 3 3 4 4 6 5 8 6 10 7 9 8 7 9 11 10 5 12
REMARK H PARENT 11 11 5 13
REMARK Flexibility Score: inf
ROOT
ATOM      1  C   UNL     1     145.245 142.633 119.295  1.00  0.00     0.048 C 
ATOM      2  C   UNL     1     144.804 143.706 120.252  1.00  0.00    -0.005 A 
ATOM      3  C   UNL     1     144.153 144.845 119.772  1.00  0.00     0.053 A 
ATOM      4  C   UNL     1     143.709 145.839 120.648  1.00  0.00     0.119 A 
ATOM      5  C   UNL     1     143.920 145.707 122.037  1.00  0.00    -0.003 A 
ATOM      6  C   UNL     1     144.621 144.574 122.534  1.00  0.00    -0.002 A 
ATOM      7  C   UNL     1     145.027 143.557 121.632  1.00  0.00     0.121 A 
ATOM      8  C   UNL     1     144.922 144.414 124.008  1.00  0.00     0.049 C 
ATOM      9  C   UNL     1     143.413 146.784 122.969  1.00  0.00     0.049 C 
ENDROOT
BRANCH   7  10
ATOM     10  O   UNL     1     145.647 142.383 122.079  1.00  0.00    -0.507 OA
ATOM     11  H   UNL     1     146.097 141.717 121.466  1.00  0.00     0.293 HD
ENDBRANCH   7  10
BRANCH   4  12
ATOM     12  O   UNL     1     143.057 146.960 120.133  1.00  0.00    -0.508 OA
ATOM     13  H   UNL     1     142.077 147.138 120.314  1.00  0.00     0.293 HD
ENDBRANCH   4  12
TORSDOF 2
ENDMDL
