MODEL 1
REMARK VINA RESULT:    -4.590      0.000      0.000
REMARK INTER + INTRA:          -6.468
REMARK INTER:                  -5.932
REMARK INTRA:                  -0.536
REMARK UNBOUND:                -0.536
REMARK SMILES CCCCC(=O)c1ccccc1C(=O)[O-]
REMARK SMILES IDX 4 1 5 2 6 3 7 4 12 5 11 6 10 7 8 8 9 9 13 10 14 11 15 12
REMARK SMILES IDX 3 13 2 14 1 15
REMARK H PARENT
REMARK Flexibility Score: inf
ROOT
ATOM      1  C   UNL     1      32.254 170.112 156.225  1.00  0.00     0.081 C 
ENDROOT
BRANCH   1   2
ATOM      2  C   UNL     1      31.782 170.481 154.844  1.00  0.00     0.163 C 
ATOM      3  O   UNL     1      32.059 169.722 153.876  1.00  0.00    -0.294 OA
BRANCH   2   4
ATOM      4  C   UNL     1      30.921 171.661 154.615  1.00  0.00     0.027 A 
ATOM      5  C   UNL     1      29.506 171.621 154.747  1.00  0.00     0.008 A 
ATOM      6  C   UNL     1      28.757 172.759 154.394  1.00  0.00     0.011 A 
ATOM      7  C   UNL     1      29.390 173.925 153.962  1.00  0.00     0.001 A 
ATOM      8  C   UNL     1      31.541 172.854 154.204  1.00  0.00     0.012 A 
ATOM      9  C   UNL     1      30.780 173.976 153.877  1.00  0.00     0.001 A 
BRANCH   5  10
ATOM     10  C   UNL     1      28.791 170.448 155.307  1.00  0.00     0.072 C 
ATOM     11  O   UNL     1      28.442 170.437 156.517  1.00  0.00    -0.545 OA
ATOM     12  O   UNL     1      28.538 169.327 154.525  1.00  0.00    -0.545 OA
ENDBRANCH   5  10
ENDBRANCH   2   4
ENDBRANCH   1   2
BRANCH   1  13
ATOM     13  C   UNL     1      33.571 170.814 156.586  1.00  0.00     0.008 C 
BRANCH  13  14
ATOM     14  C   UNL     1      34.798 170.046 156.075  1.00  0.00    -0.003 C 
ATOM     15  C   UNL     1      35.242 168.986 157.078  1.00  0.00     0.004 C 
ENDBRANCH  13  14
ENDBRANCH   1  13
TORSDOF 5
ENDMDL
MODEL 2
REMARK VINA RESULT:    -4.228      1.611      4.646
REMARK INTER + INTRA:          -6.000
REMARK INTER:                  -5.514
REMARK INTRA:                  -0.486
REMARK UNBOUND:                -0.536
REMARK SMILES CCCCC(=O)c1ccccc1C(=O)[O-]
REMARK SMILES IDX 4 1 5 2 6 3 7 4 12 5 11 6 10 7 8 8 9 9 13 10 14 11 15 12
REMARK SMILES IDX 3 13 2 14 1 15
REMARK H PARENT
REMARK Flexibility Score: inf
ROOT
ATOM      1  C   UNL     1      29.965 171.491 154.947  1.00  0.00     0.081 C 
ENDROOT
BRANCH   1   2
ATOM      2  C   UNL     1      30.731 170.194 154.946  1.00  0.00     0.163 C 
ATOM      3  O   UNL     1      30.287 169.218 154.281  1.00  0.00    -0.294 OA
BRANCH   2   4
ATOM      4  C   UNL     1      32.036 170.071 155.628  1.00  0.00     0.027 A 
ATOM      5  C   UNL     1      32.158 169.747 157.007  1.00  0.00     0.008 A 
ATOM      6  C   UNL     1      33.434 169.769 157.601  1.00  0.00     0.011 A 
ATOM      7  C   UNL     1      34.569 170.063 156.846  1.00  0.00     0.001 A 
ATOM      8  C   UNL     1      33.195 170.337 154.878  1.00  0.00     0.012 A 
ATOM      9  C   UNL     1      34.452 170.335 155.484  1.00  0.00     0.001 A 
BRANCH   5  10
ATOM     10  C   UNL     1      31.000 169.320 157.831  1.00  0.00     0.072 C 
ATOM     11  O   UNL     1      30.574 170.060 158.757  1.00  0.00    -0.545 OA
ATOM     12  O   UNL     1      30.399 168.084 157.629  1.00  0.00    -0.545 OA
ENDBRANCH   5  10
ENDBRANCH   2   4
ENDBRANCH   1   2
BRANCH   1  13
ATOM     13  C   UNL     1      30.482 172.461 153.876  1.00  0.00     0.008 C 
BRANCH  13  14
ATOM     14  C   UNL     1      29.912 173.876 154.051  1.00  0.00    -0.003 C 
ATOM     15  C   UNL     1      31.028 174.898 154.248  1.00  0.00     0.004 C 
ENDBRANCH  13  14
ENDBRANCH   1  13
TORSDOF 5
ENDMDL
MODEL 3
REMARK VINA RESULT:    -4.051     22.125     23.662
REMARK INTER + INTRA:          -5.771
REMARK INTER:                  -5.413
REMARK INTRA:                  -0.358
REMARK UNBOUND:                -0.536
REMARK SMILES CCCCC(=O)c1ccccc1C(=O)[O-]
REMARK SMILES IDX 4 1 5 2 6 3 7 4 12 5 11 6 10 7 8 8 9 9 13 10 14 11 15 12
REMARK SMILES IDX 3 13 2 14 1 15
REMARK H PARENT
REMARK Flexibility Score: inf
ROOT
ATOM      1  C   UNL     1      38.899 184.761 169.490  1.00  0.00     0.081 C 
ENDROOT
BRANCH   1   2
ATOM      2  C   UNL     1      38.766 184.481 170.964  1.00  0.00     0.163 C 
ATOM      3  O   UNL     1      37.653 184.105 171.422  1.00  0.00    -0.294 OA
BRANCH   2   4
ATOM      4  C   UNL     1      39.936 184.546 171.867  1.00  0.00     0.027 A 
ATOM      5  C   UNL     1      40.107 185.573 172.835  1.00  0.00     0.008 A 
ATOM      6  C   UNL     1      41.307 185.624 173.568  1.00  0.00     0.011 A 
ATOM      7  C   UNL     1      42.299 184.661 173.384  1.00  0.00     0.001 A 
ATOM      8  C   UNL     1      40.936 183.569 171.715  1.00  0.00     0.012 A 
ATOM      9  C   UNL     1      42.109 183.629 172.466  1.00  0.00     0.001 A 
BRANCH   5  10
ATOM     10  C   UNL     1      39.040 186.555 173.151  1.00  0.00     0.072 C 
ATOM     11  O   UNL     1      39.076 187.712 172.653  1.00  0.00    -0.545 OA
ATOM     12  O   UNL     1      38.016 186.236 174.034  1.00  0.00    -0.545 OA
ENDBRANCH   5  10
ENDBRANCH   2   4
ENDBRANCH   1   2
BRANCH   1  13
ATOM     13  C   UNL     1      37.566 185.201 168.870  1.00  0.00     0.008 C 
BRANCH  13  14
ATOM     14  C   UNL     1      37.691 186.527 168.105  1.00  0.00    -0.003 C 
ATOM     15  C   UNL     1      37.234 186.372 166.658  1.00  0.00     0.004 C 
ENDBRANCH  13  14
ENDBRANCH   1  13
TORSDOF 5
ENDMDL
MODEL 4
REMARK VINA RESULT:    -3.996     21.023     22.556
REMARK INTER + INTRA:          -5.700
REMARK INTER:                  -5.127
REMARK INTRA:                  -0.572
REMARK UNBOUND:                -0.536
REMARK SMILES CCCCC(=O)c1ccccc1C(=O)[O-]
REMARK SMILES IDX 4 1 5 2 6 3 7 4 12 5 11 6 10 7 8 8 9 9 13 10 14 11 15 12
REMARK SMILES IDX 3 13 2 14 1 15
REMARK H PARENT
REMARK Flexibility Score: inf
ROOT
ATOM      1  C   UNL     1      36.262 182.730 173.004  1.00  0.00     0.081 C 
ENDROOT
BRANCH   1   2
ATOM      2  C   UNL     1      37.241 183.854 173.220  1.00  0.00     0.163 C 
ATOM      3  O   UNL     1      36.901 184.838 173.932  1.00  0.00    -0.294 OA
BRANCH   2   4
ATOM      4  C   UNL     1      38.621 183.782 172.695  1.00  0.00     0.027 A 
ATOM      5  C   UNL     1      39.008 184.370 171.459  1.00  0.00     0.008 A 
ATOM      6  C   UNL     1      40.313 184.151 170.980  1.00  0.00     0.011 A 
ATOM      7  C   UNL     1      41.230 183.404 171.720  1.00  0.00     0.001 A 
ATOM      8  C   UNL     1      39.569 183.056 173.438  1.00  0.00     0.012 A 
ATOM      9  C   UNL     1      40.862 182.867 172.952  1.00  0.00     0.001 A 
BRANCH   5  10
ATOM     10  C   UNL     1      38.110 185.264 170.687  1.00  0.00     0.072 C 
ATOM     11  O   UNL     1      37.567 184.855 169.627  1.00  0.00    -0.545 OA
ATOM     12  O   UNL     1      37.891 186.576 171.091  1.00  0.00    -0.545 OA
ENDBRANCH   5  10
ENDBRANCH   2   4
ENDBRANCH   1   2
BRANCH   1  13
ATOM     13  C   UNL     1      35.333 183.002 171.814  1.00  0.00     0.008 C 
BRANCH  13  14
ATOM     14  C   UNL     1      34.947 181.715 171.071  1.00  0.00    -0.003 C 
ATOM     15  C   UNL     1      34.210 182.028 169.773  1.00  0.00     0.004 C 
ENDBRANCH  13  14
ENDBRANCH   1  13
TORSDOF 5
ENDMDL
MODEL 5
REMARK VINA RESULT:    -3.971     22.274     23.553
REMARK INTER + INTRA:          -5.667
REMARK INTER:                  -4.908
REMARK INTRA:                  -0.759
REMARK UNBOUND:                -0.536
REMARK SMILES CCCCC(=O)c1ccccc1C(=O)[O-]
REMARK SMILES IDX 4 1 5 2 6 3 7 4 12 5 11 6 10 7 8 8 9 9 13 10 14 11 15 12
REMARK SMILES IDX 3 13 2 14 1 15
REMARK H PARENT
REMARK Flexibility Score: inf
ROOT
ATOM      1  C   UNL     1      41.440 185.526 172.342  1.00  0.00     0.081 C 
ENDROOT
BRANCH   1   2
ATOM      2  C   UNL     1      40.019 185.917 172.651  1.00  0.00     0.163 C 
ATOM      3  O   UNL     1      39.730 187.138 172.777  1.00  0.00    -0.294 OA
BRANCH   2   4
ATOM      4  C   UNL     1      38.941 184.908 172.716  1.00  0.00     0.027 A 
ATOM      5  C   UNL     1      38.210 184.484 171.572  1.00  0.00     0.008 A 
ATOM      6  C   UNL     1      37.122 183.608 171.745  1.00  0.00     0.011 A 
ATOM      7  C   UNL     1      36.785 183.128 173.011  1.00  0.00     0.001 A 
ATOM      8  C   UNL     1      38.602 184.391 173.979  1.00  0.00     0.012 A 
ATOM      9  C   UNL     1      37.531 183.509 174.125  1.00  0.00     0.001 A 
BRANCH   5  10
ATOM     10  C   UNL     1      38.594 184.874 170.193  1.00  0.00     0.072 C 
ATOM     11  O   UNL     1      39.610 184.365 169.650  1.00  0.00    -0.545 OA
ATOM     12  O   UNL     1      37.873 185.838 169.498  1.00  0.00    -0.545 OA
ENDBRANCH   5  10
ENDBRANCH   2   4
ENDBRANCH   1   2
BRANCH   1  13
ATOM     13  C   UNL     1      42.203 185.099 173.603  1.00  0.00     0.008 C 
BRANCH  13  14
ATOM     14  C   UNL     1      42.432 183.582 173.658  1.00  0.00    -0.003 C 
ATOM     15  C   UNL     1      42.103 182.926 172.321  1.00  0.00     0.004 C 
ENDBRANCH  13  14
ENDBRANCH   1  13
TORSDOF 5
ENDMDL
MODEL 6
REMARK VINA RESULT:    -3.921      2.634      4.561
REMARK INTER + INTRA:          -5.603
REMARK INTER:                  -4.893
REMARK INTRA:                  -0.711
REMARK UNBOUND:                -0.536
REMARK SMILES CCCCC(=O)c1ccccc1C(=O)[O-]
REMARK SMILES IDX 4 1 5 2 6 3 7 4 12 5 11 6 10 7 8 8 9 9 13 10 14 11 15 12
REMARK SMILES IDX 3 13 2 14 1 15
REMARK H PARENT
REMARK Flexibility Score: inf
ROOT
ATOM      1  C   UNL     1      30.498 169.942 158.616  1.00  0.00     0.081 C 
ENDROOT
BRANCH   1   2
ATOM      2  C   UNL     1      31.304 169.038 157.720  1.00  0.00     0.163 C 
ATOM      3  O   UNL     1      30.881 167.875 157.479  1.00  0.00    -0.294 OA
BRANCH   2   4
ATOM      4  C   UNL     1      32.527 169.519 157.043  1.00  0.00     0.027 A 
ATOM      5  C   UNL     1      32.518 170.070 155.732  1.00  0.00     0.008 A 
ATOM      6  C   UNL     1      33.744 170.391 155.120  1.00  0.00     0.011 A 
ATOM      7  C   UNL     1      34.950 170.212 155.798  1.00  0.00     0.001 A 
ATOM      8  C   UNL     1      33.751 169.372 157.719  1.00  0.00     0.012 A 
ATOM      9  C   UNL     1      34.953 169.714 157.100  1.00  0.00     0.001 A 
BRANCH   5  10
ATOM     10  C   UNL     1      31.261 170.384 155.010  1.00  0.00     0.072 C 
ATOM     11  O   UNL     1      30.794 171.555 155.030  1.00  0.00    -0.545 OA
ATOM     12  O   UNL     1      30.555 169.392 154.341  1.00  0.00    -0.545 OA
ENDBRANCH   5  10
ENDBRANCH   2   4
ENDBRANCH   1   2
BRANCH   1  13
ATOM     13  C   UNL     1      31.223 170.229 159.938  1.00  0.00     0.008 C 
BRANCH  13  14
ATOM     14  C   UNL     1      31.364 168.972 160.809  1.00  0.00    -0.003 C 
ATOM     15  C   UNL     1      32.812 168.758 161.237  1.00  0.00     0.004 C 
ENDBRANCH  13  14
ENDBRANCH   1  13
TORSDOF 5
ENDMDL
MODEL 7
REMARK VINA RESULT:    -3.885      2.858      4.499
REMARK INTER + INTRA:          -5.557
REMARK INTER:                  -4.764
REMARK INTRA:                  -0.793
REMARK UNBOUND:                -0.536
REMARK SMILES CCCCC(=O)c1ccccc1C(=O)[O-]
REMARK SMILES IDX 4 1 5 2 6 3 7 4 12 5 11 6 10 7 8 8 9 9 13 10 14 11 15 12
REMARK SMILES IDX 3 13 2 14 1 15
REMARK H PARENT
REMARK Flexibility Score: inf
ROOT
ATOM      1  C   UNL     1      33.636 170.513 156.887  1.00  0.00     0.081 C 
ENDROOT
BRANCH   1   2
ATOM      2  C   UNL     1      32.920 169.335 157.496  1.00  0.00     0.163 C 
ATOM      3  O   UNL     1      33.286 168.168 157.191  1.00  0.00    -0.294 OA
BRANCH   2   4
ATOM      4  C   UNL     1      31.863 169.521 158.512  1.00  0.00     0.027 A 
ATOM      5  C   UNL     1      30.504 169.768 158.176  1.00  0.00     0.008 A 
ATOM      6  C   UNL     1      29.588 170.051 159.206  1.00  0.00     0.011 A 
ATOM      7  C   UNL     1      29.992 170.049 160.542  1.00  0.00     0.001 A 
ATOM      8  C   UNL     1      32.244 169.497 159.865  1.00  0.00     0.012 A 
ATOM      9  C   UNL     1      31.315 169.761 160.872  1.00  0.00     0.001 A 
BRANCH   5  10
ATOM     10  C   UNL     1      29.998 169.673 156.784  1.00  0.00     0.072 C 
ATOM     11  O   UNL     1      29.754 170.719 156.126  1.00  0.00    -0.545 OA
ATOM     12  O   UNL     1      29.740 168.438 156.202  1.00  0.00    -0.545 OA
ENDBRANCH   5  10
ENDBRANCH   2   4
ENDBRANCH   1   2
BRANCH   1  13
ATOM     13  C   UNL     1      34.031 170.250 155.427  1.00  0.00     0.008 C 
BRANCH  13  14
ATOM     14  C   UNL     1      32.911 170.626 154.446  1.00  0.00    -0.003 C 
ATOM     15  C   UNL     1      32.239 169.381 153.875  1.00  0.00     0.004 C 
ENDBRANCH  13  14
ENDBRANCH   1  13
TORSDOF 5
ENDMDL
MODEL 8
REMARK VINA RESULT:    -3.842     22.615     23.808
REMARK INTER + INTRA:          -5.500
REMARK INTER:                  -4.926
REMARK INTRA:                  -0.574
REMARK UNBOUND:                -0.536
REMARK SMILES CCCCC(=O)c1ccccc1C(=O)[O-]
REMARK SMILES IDX 4 1 5 2 6 3 7 4 12 5 11 6 10 7 8 8 9 9 13 10 14 11 15 12
REMARK SMILES IDX 3 13 2 14 1 15
REMARK H PARENT
REMARK Flexibility Score: inf
ROOT
ATOM      1  C   UNL     1      41.216 182.865 172.241  1.00  0.00     0.081 C 
ENDROOT
BRANCH   1   2
ATOM      2  C   UNL     1      40.522 184.024 171.575  1.00  0.00     0.163 C 
ATOM      3  O   UNL     1      40.399 184.028 170.321  1.00  0.00    -0.294 OA
BRANCH   2   4
ATOM      4  C   UNL     1      39.901 185.106 172.368  1.00  0.00     0.027 A 
ATOM      5  C   UNL     1      38.537 185.083 172.769  1.00  0.00     0.008 A 
ATOM      6  C   UNL     1      37.999 186.210 173.418  1.00  0.00     0.011 A 
ATOM      7  C   UNL     1      38.796 187.319 173.703  1.00  0.00     0.001 A 
ATOM      8  C   UNL     1      40.694 186.222 172.689  1.00  0.00     0.012 A 
ATOM      9  C   UNL     1      40.144 187.320 173.350  1.00  0.00     0.001 A 
BRANCH   5  10
ATOM     10  C   UNL     1      37.674 183.889 172.591  1.00  0.00     0.072 C 
ATOM     11  O   UNL     1      37.739 182.933 173.409  1.00  0.00    -0.545 OA
ATOM     12  O   UNL     1      36.821 183.781 171.499  1.00  0.00    -0.545 OA
ENDBRANCH   5  10
ENDBRANCH   2   4
ENDBRANCH   1   2
BRANCH   1  13
ATOM     13  C   UNL     1      41.699 183.222 173.654  1.00  0.00     0.008 C 
BRANCH  13  14
ATOM     14  C   UNL     1      43.230 183.248 173.756  1.00  0.00    -0.003 C 
ATOM     15  C   UNL     1      43.873 182.535 172.570  1.00  0.00     0.004 C 
ENDBRANCH  13  14
ENDBRANCH   1  13
TORSDOF 5
ENDMDL
