MODEL 1
REMARK VINA RESULT:    -4.459      0.000      0.000
REMARK INTER + INTRA:          -7.272
REMARK INTER:                  -6.284
REMARK INTRA:                  -0.988
REMARK UNBOUND:                -0.988
REMARK SMILES CC(=O)OCC[C@H](C)CCC=C(C)C
REMARK SMILES IDX 8 1 7 2 9 3 10 4 11 5 12 6 13 7 14 8 6 9 5 10 4 11 2 12 3 13
REMARK SMILES IDX 1 14
REMARK H PARENT
REMARK Flexibility Score: inf
ROOT
ATOM      1  C   UNL     1     -20.581  30.289  -3.093  1.00  0.00     0.008 C 
ATOM      2  C   UNL     1     -20.030  31.148  -1.942  1.00  0.00    -0.011 C 
ENDROOT
BRANCH   2   3
ATOM      3  C   UNL     1     -20.009  32.634  -2.378  1.00  0.00     0.007 C 
BRANCH   3   4
ATOM      4  C   UNL     1     -21.373  33.135  -2.880  1.00  0.00     0.027 C 
BRANCH   4   5
ATOM      5  C   UNL     1     -22.179  33.723  -1.748  1.00  0.00    -0.028 C 
ATOM      6  C   UNL     1     -23.348  33.215  -1.299  1.00  0.00    -0.080 C 
ATOM      7  C   UNL     1     -23.942  31.949  -1.871  1.00  0.00     0.039 C 
ATOM      8  C   UNL     1     -24.063  33.934  -0.184  1.00  0.00     0.039 C 
ENDBRANCH   4   5
ENDBRANCH   3   4
ENDBRANCH   2   3
BRANCH   2   9
ATOM      9  C   UNL     1     -18.622  30.672  -1.501  1.00  0.00     0.045 C 
BRANCH   9  10
ATOM     10  C   UNL     1     -17.503  31.687  -1.791  1.00  0.00     0.233 C 
BRANCH  10  11
ATOM     11  O   UNL     1     -16.581  31.189  -2.760  1.00  0.00    -0.466 OA
BRANCH  11  12
ATOM     12  C   UNL     1     -16.890  31.045  -4.117  1.00  0.00     0.302 C 
ATOM     13  O   UNL     1     -16.667  29.961  -4.720  1.00  0.00    -0.253 OA
ATOM     14  C   UNL     1     -17.448  32.206  -4.868  1.00  0.00     0.139 C 
ENDBRANCH  11  12
ENDBRANCH  10  11
ENDBRANCH   9  10
ENDBRANCH   2   9
TORSDOF 7
ENDMDL
MODEL 2
REMARK VINA RESULT:    -4.298      3.040      6.226
REMARK INTER + INTRA:          -7.045
REMARK INTER:                  -6.068
REMARK INTRA:                  -0.977
REMARK UNBOUND:                -0.988
REMARK SMILES CC(=O)OCC[C@H](C)CCC=C(C)C
REMARK SMILES IDX 8 1 7 2 9 3 10 4 11 5 12 6 13 7 14 8 6 9 5 10 4 11 2 12 3 13
REMARK SMILES IDX 1 14
REMARK H PARENT
REMARK Flexibility Score: inf
ROOT
ATOM      1  C   UNL     1     -19.659  32.607  -3.859  1.00  0.00     0.008 C 
ATOM      2  C   UNL     1     -19.670  32.115  -2.402  1.00  0.00    -0.011 C 
ENDROOT
BRANCH   2   3
ATOM      3  C   UNL     1     -18.213  31.992  -1.893  1.00  0.00     0.007 C 
BRANCH   3   4
ATOM      4  C   UNL     1     -17.746  30.535  -1.745  1.00  0.00     0.027 C 
BRANCH   4   5
ATOM      5  C   UNL     1     -16.558  30.260  -2.634  1.00  0.00    -0.028 C 
ATOM      6  C   UNL     1     -16.628  29.630  -3.827  1.00  0.00    -0.080 C 
ATOM      7  C   UNL     1     -17.943  29.181  -4.420  1.00  0.00     0.039 C 
ATOM      8  C   UNL     1     -15.349  29.389  -4.589  1.00  0.00     0.039 C 
ENDBRANCH   4   5
ENDBRANCH   3   4
ENDBRANCH   2   3
BRANCH   2   9
ATOM      9  C   UNL     1     -20.429  30.769  -2.263  1.00  0.00     0.045 C 
BRANCH   9  10
ATOM     10  C   UNL     1     -21.768  30.885  -1.514  1.00  0.00     0.233 C 
BRANCH  10  11
ATOM     11  O   UNL     1     -22.681  31.740  -2.202  1.00  0.00    -0.466 OA
BRANCH  11  12
ATOM     12  C   UNL     1     -23.310  32.838  -1.606  1.00  0.00     0.302 C 
ATOM     13  O   UNL     1     -24.541  32.810  -1.335  1.00  0.00    -0.253 OA
ATOM     14  C   UNL     1     -22.521  34.073  -1.331  1.00  0.00     0.139 C 
ENDBRANCH  11  12
ENDBRANCH  10  11
ENDBRANCH   9  10
ENDBRANCH   2   9
TORSDOF 7
ENDMDL
MODEL 3
REMARK VINA RESULT:    -4.224      1.618      2.559
REMARK INTER + INTRA:          -6.940
REMARK INTER:                  -6.019
REMARK INTRA:                  -0.921
REMARK UNBOUND:                -0.988
REMARK SMILES CC(=O)OCC[C@H](C)CCC=C(C)C
REMARK SMILES IDX 8 1 7 2 9 3 10 4 11 5 12 6 13 7 14 8 6 9 5 10 4 11 2 12 3 13
REMARK SMILES IDX 1 14
REMARK H PARENT
REMARK Flexibility Score: inf
ROOT
ATOM      1  C   UNL     1     -16.876  30.571  -2.106  1.00  0.00     0.008 C 
ATOM      2  C   UNL     1     -17.599  31.898  -2.392  1.00  0.00    -0.011 C 
ENDROOT
BRANCH   2   3
ATOM      3  C   UNL     1     -19.107  31.736  -2.082  1.00  0.00     0.007 C 
BRANCH   3   4
ATOM      4  C   UNL     1     -20.007  32.581  -2.999  1.00  0.00     0.027 C 
BRANCH   4   5
ATOM      5  C   UNL     1     -21.000  33.377  -2.189  1.00  0.00    -0.028 C 
ATOM      6  C   UNL     1     -22.268  32.984  -1.937  1.00  0.00    -0.080 C 
ATOM      7  C   UNL     1     -22.803  31.653  -2.410  1.00  0.00     0.039 C 
ATOM      8  C   UNL     1     -23.162  33.904  -1.146  1.00  0.00     0.039 C 
ENDBRANCH   4   5
ENDBRANCH   3   4
ENDBRANCH   2   3
BRANCH   2   9
ATOM      9  C   UNL     1     -17.373  32.363  -3.854  1.00  0.00     0.045 C 
BRANCH   9  10
ATOM     10  C   UNL     1     -16.601  31.351  -4.717  1.00  0.00     0.233 C 
BRANCH  10  11
ATOM     11  O   UNL     1     -17.373  30.919  -5.837  1.00  0.00    -0.466 OA
BRANCH  11  12
ATOM     12  C   UNL     1     -18.686  30.447  -5.733  1.00  0.00     0.302 C 
ATOM     13  O   UNL     1     -19.645  31.082  -6.250  1.00  0.00    -0.253 OA
ATOM     14  C   UNL     1     -18.957  29.200  -4.961  1.00  0.00     0.139 C 
ENDBRANCH  11  12
ENDBRANCH  10  11
ENDBRANCH   9  10
ENDBRANCH   2   9
TORSDOF 7
ENDMDL
MODEL 4
REMARK VINA RESULT:    -4.176      1.625      2.516
REMARK INTER + INTRA:          -6.873
REMARK INTER:                  -6.321
REMARK INTRA:                  -0.552
REMARK UNBOUND:                -0.988
REMARK SMILES CC(=O)OCC[C@H](C)CCC=C(C)C
REMARK SMILES IDX 8 1 7 2 9 3 10 4 11 5 12 6 13 7 14 8 6 9 5 10 4 11 2 12 3 13
REMARK SMILES IDX 1 14
REMARK H PARENT
REMARK Flexibility Score: inf
ROOT
ATOM      1  C   UNL     1     -16.776  30.732  -2.115  1.00  0.00     0.008 C 
ATOM      2  C   UNL     1     -17.567  31.993  -2.502  1.00  0.00    -0.011 C 
ENDROOT
BRANCH   2   3
ATOM      3  C   UNL     1     -19.035  31.839  -2.034  1.00  0.00     0.007 C 
BRANCH   3   4
ATOM      4  C   UNL     1     -20.051  32.420  -3.032  1.00  0.00     0.027 C 
BRANCH   4   5
ATOM      5  C   UNL     1     -21.058  33.293  -2.324  1.00  0.00    -0.028 C 
ATOM      6  C   UNL     1     -22.236  32.853  -1.831  1.00  0.00    -0.080 C 
ATOM      7  C   UNL     1     -22.639  31.398  -1.897  1.00  0.00     0.039 C 
ATOM      8  C   UNL     1     -23.162  33.851  -1.184  1.00  0.00     0.039 C 
ENDBRANCH   4   5
ENDBRANCH   3   4
ENDBRANCH   2   3
BRANCH   2   9
ATOM      9  C   UNL     1     -17.489  32.268  -4.026  1.00  0.00     0.045 C 
BRANCH   9  10
ATOM     10  C   UNL     1     -17.227  31.010  -4.872  1.00  0.00     0.233 C 
BRANCH  10  11
ATOM     11  O   UNL     1     -16.231  31.245  -5.867  1.00  0.00    -0.466 OA
BRANCH  11  12
ATOM     12  C   UNL     1     -14.917  31.623  -5.570  1.00  0.00     0.302 C 
ATOM     13  O   UNL     1     -14.181  30.893  -4.851  1.00  0.00    -0.253 OA
ATOM     14  C   UNL     1     -14.399  32.927  -6.073  1.00  0.00     0.139 C 
ENDBRANCH  11  12
ENDBRANCH  10  11
ENDBRANCH   9  10
ENDBRANCH   2   9
TORSDOF 7
ENDMDL
MODEL 5
REMARK VINA RESULT:    -4.172      2.066      3.749
REMARK INTER + INTRA:          -6.867
REMARK INTER:                  -5.873
REMARK INTRA:                  -0.994
REMARK UNBOUND:                -0.988
REMARK SMILES CC(=O)OCC[C@H](C)CCC=C(C)C
REMARK SMILES IDX 8 1 7 2 9 3 10 4 11 5 12 6 13 7 14 8 6 9 5 10 4 11 2 12 3 13
REMARK SMILES IDX 1 14
REMARK H PARENT
REMARK Flexibility Score: inf
ROOT
ATOM      1  C   UNL     1     -23.422  33.608  -1.181  1.00  0.00     0.008 C 
ATOM      2  C   UNL     1     -22.537  32.643  -1.987  1.00  0.00    -0.011 C 
ENDROOT
BRANCH   2   3
ATOM      3  C   UNL     1     -22.381  31.317  -1.204  1.00  0.00     0.007 C 
BRANCH   3   4
ATOM      4  C   UNL     1     -22.720  30.075  -2.045  1.00  0.00     0.027 C 
BRANCH   4   5
ATOM      5  C   UNL     1     -24.100  30.193  -2.643  1.00  0.00    -0.028 C 
ATOM      6  C   UNL     1     -24.348  30.389  -3.957  1.00  0.00    -0.080 C 
ATOM      7  C   UNL     1     -23.238  30.454  -4.980  1.00  0.00     0.039 C 
ATOM      8  C   UNL     1     -25.780  30.530  -4.406  1.00  0.00     0.039 C 
ENDBRANCH   4   5
ENDBRANCH   3   4
ENDBRANCH   2   3
BRANCH   2   9
ATOM      9  C   UNL     1     -21.156  33.272  -2.308  1.00  0.00     0.045 C 
BRANCH   9  10
ATOM     10  C   UNL     1     -20.556  32.807  -3.645  1.00  0.00     0.233 C 
BRANCH  10  11
ATOM     11  O   UNL     1     -19.730  31.655  -3.477  1.00  0.00    -0.466 OA
BRANCH  11  12
ATOM     12  C   UNL     1     -18.555  31.652  -2.717  1.00  0.00     0.302 C 
ATOM     13  O   UNL     1     -17.555  32.332  -3.070  1.00  0.00    -0.253 OA
ATOM     14  C   UNL     1     -18.473  30.795  -1.500  1.00  0.00     0.139 C 
ENDBRANCH  11  12
ENDBRANCH  10  11
ENDBRANCH   9  10
ENDBRANCH   2   9
TORSDOF 7
ENDMDL
MODEL 6
REMARK VINA RESULT:    -4.167      1.396      2.045
REMARK INTER + INTRA:          -6.860
REMARK INTER:                  -5.850
REMARK INTRA:                  -1.010
REMARK UNBOUND:                -0.988
REMARK SMILES CC(=O)OCC[C@H](C)CCC=C(C)C
REMARK SMILES IDX 8 1 7 2 9 3 10 4 11 5 12 6 13 7 14 8 6 9 5 10 4 11 2 12 3 13
REMARK SMILES IDX 1 14
REMARK H PARENT
REMARK Flexibility Score: inf
ROOT
ATOM      1  C   UNL     1     -19.599  30.170  -3.764  1.00  0.00     0.008 C 
ATOM      2  C   UNL     1     -19.000  30.503  -2.387  1.00  0.00    -0.011 C 
ENDROOT
BRANCH   2   3
ATOM      3  C   UNL     1     -20.109  30.409  -1.310  1.00  0.00     0.007 C 
BRANCH   3   4
ATOM      4  C   UNL     1     -21.526  30.365  -1.905  1.00  0.00     0.027 C 
BRANCH   4   5
ATOM      5  C   UNL     1     -22.404  31.419  -1.277  1.00  0.00    -0.028 C 
ATOM      6  C   UNL     1     -22.539  32.679  -1.747  1.00  0.00    -0.080 C 
ATOM      7  C   UNL     1     -21.848  33.142  -3.008  1.00  0.00     0.039 C 
ATOM      8  C   UNL     1     -23.421  33.638  -0.989  1.00  0.00     0.039 C 
ENDBRANCH   4   5
ENDBRANCH   3   4
ENDBRANCH   2   3
BRANCH   2   9
ATOM      9  C   UNL     1     -18.329  31.901  -2.382  1.00  0.00     0.045 C 
BRANCH   9  10
ATOM     10  C   UNL     1     -18.291  32.578  -3.763  1.00  0.00     0.233 C 
BRANCH  10  11
ATOM     11  O   UNL     1     -16.961  32.654  -4.273  1.00  0.00    -0.466 OA
BRANCH  11  12
ATOM     12  C   UNL     1     -16.401  31.689  -5.117  1.00  0.00     0.302 C 
ATOM     13  O   UNL     1     -16.698  31.651  -6.342  1.00  0.00    -0.253 OA
ATOM     14  C   UNL     1     -15.477  30.666  -4.549  1.00  0.00     0.139 C 
ENDBRANCH  11  12
ENDBRANCH  10  11
ENDBRANCH   9  10
ENDBRANCH   2   9
TORSDOF 7
ENDMDL
MODEL 7
REMARK VINA RESULT:    -4.143      1.528      2.598
REMARK INTER + INTRA:          -6.826
REMARK INTER:                  -5.806
REMARK INTRA:                  -1.019
REMARK UNBOUND:                -0.988
REMARK SMILES CC(=O)OCC[C@H](C)CCC=C(C)C
REMARK SMILES IDX 8 1 7 2 9 3 10 4 11 5 12 6 13 7 14 8 6 9 5 10 4 11 2 12 3 13
REMARK SMILES IDX 1 14
REMARK H PARENT
REMARK Flexibility Score: inf
ROOT
ATOM      1  C   UNL     1     -22.105  30.753  -4.939  1.00  0.00     0.008 C 
ATOM      2  C   UNL     1     -21.296  29.727  -4.127  1.00  0.00    -0.011 C 
ENDROOT
BRANCH   2   3
ATOM      3  C   UNL     1     -22.004  29.475  -2.773  1.00  0.00     0.007 C 
BRANCH   3   4
ATOM      4  C   UNL     1     -21.537  30.428  -1.660  1.00  0.00     0.027 C 
BRANCH   4   5
ATOM      5  C   UNL     1     -22.645  31.372  -1.264  1.00  0.00    -0.028 C 
ATOM      6  C   UNL     1     -22.646  32.699  -1.523  1.00  0.00    -0.080 C 
ATOM      7  C   UNL     1     -21.534  33.364  -2.300  1.00  0.00     0.039 C 
ATOM      8  C   UNL     1     -23.805  33.527  -1.029  1.00  0.00     0.039 C 
ENDBRANCH   4   5
ENDBRANCH   3   4
ENDBRANCH   2   3
BRANCH   2   9
ATOM      9  C   UNL     1     -19.833  30.195  -3.917  1.00  0.00     0.045 C 
BRANCH   9  10
ATOM     10  C   UNL     1     -19.458  31.448  -4.728  1.00  0.00     0.233 C 
BRANCH  10  11
ATOM     11  O   UNL     1     -18.536  32.274  -4.019  1.00  0.00    -0.466 OA
BRANCH  11  12
ATOM     12  C   UNL     1     -17.543  31.772  -3.170  1.00  0.00     0.302 C 
ATOM     13  O   UNL     1     -16.516  31.209  -3.638  1.00  0.00    -0.253 OA
ATOM     14  C   UNL     1     -17.727  31.864  -1.693  1.00  0.00     0.139 C 
ENDBRANCH  11  12
ENDBRANCH  10  11
ENDBRANCH   9  10
ENDBRANCH   2   9
TORSDOF 7
ENDMDL
MODEL 8
REMARK VINA RESULT:    -4.049      1.357      2.318
REMARK INTER + INTRA:          -6.693
REMARK INTER:                  -5.945
REMARK INTRA:                  -0.749
REMARK UNBOUND:                -0.988
REMARK SMILES CC(=O)OCC[C@H](C)CCC=C(C)C
REMARK SMILES IDX 8 1 7 2 9 3 10 4 11 5 12 6 13 7 14 8 6 9 5 10 4 11 2 12 3 13
REMARK SMILES IDX 1 14
REMARK H PARENT
REMARK Flexibility Score: inf
ROOT
ATOM      1  C   UNL     1     -20.627  30.870  -5.585  1.00  0.00     0.008 C 
ATOM      2  C   UNL     1     -19.708  31.721  -4.693  1.00  0.00    -0.011 C 
ENDROOT
BRANCH   2   3
ATOM      3  C   UNL     1     -20.492  32.954  -4.181  1.00  0.00     0.007 C 
BRANCH   3   4
ATOM      4  C   UNL     1     -20.520  33.056  -2.646  1.00  0.00     0.027 C 
BRANCH   4   5
ATOM      5  C   UNL     1     -21.876  33.510  -2.165  1.00  0.00    -0.028 C 
ATOM      6  C   UNL     1     -22.768  32.715  -1.534  1.00  0.00    -0.080 C 
ATOM      7  C   UNL     1     -22.458  31.275  -1.197  1.00  0.00     0.039 C 
ATOM      8  C   UNL     1     -24.103  33.298  -1.147  1.00  0.00     0.039 C 
ENDBRANCH   4   5
ENDBRANCH   3   4
ENDBRANCH   2   3
BRANCH   2   9
ATOM      9  C   UNL     1     -18.421  32.147  -5.447  1.00  0.00     0.045 C 
BRANCH   9  10
ATOM     10  C   UNL     1     -17.119  31.748  -4.730  1.00  0.00     0.233 C 
BRANCH  10  11
ATOM     11  O   UNL     1     -17.239  31.879  -3.314  1.00  0.00    -0.466 OA
BRANCH  11  12
ATOM     12  C   UNL     1     -17.161  30.799  -2.429  1.00  0.00     0.302 C 
ATOM     13  O   UNL     1     -16.283  29.905  -2.575  1.00  0.00    -0.253 OA
ATOM     14  C   UNL     1     -18.159  30.681  -1.327  1.00  0.00     0.139 C 
ENDBRANCH  11  12
ENDBRANCH  10  11
ENDBRANCH   9  10
ENDBRANCH   2   9
TORSDOF 7
ENDMDL
MODEL 9
REMARK VINA RESULT:    -4.037      3.483      5.625
REMARK INTER + INTRA:          -6.677
REMARK INTER:                  -5.618
REMARK INTRA:                  -1.059
REMARK UNBOUND:                -0.988
REMARK SMILES CC(=O)OCC[C@H](C)CCC=C(C)C
REMARK SMILES IDX 8 1 7 2 9 3 10 4 11 5 12 6 13 7 14 8 6 9 5 10 4 11 2 12 3 13
REMARK SMILES IDX 1 14
REMARK H PARENT
REMARK Flexibility Score: inf
ROOT
ATOM      1  C   UNL     1     -23.552  33.110  -1.374  1.00  0.00     0.008 C 
ATOM      2  C   UNL     1     -22.245  32.347  -1.649  1.00  0.00    -0.011 C 
ENDROOT
BRANCH   2   3
ATOM      3  C   UNL     1     -21.900  32.450  -3.155  1.00  0.00     0.007 C 
BRANCH   3   4
ATOM      4  C   UNL     1     -20.483  32.987  -3.414  1.00  0.00     0.027 C 
BRANCH   4   5
ATOM      5  C   UNL     1     -19.508  32.439  -2.401  1.00  0.00    -0.028 C 
ATOM      6  C   UNL     1     -18.805  31.296  -2.559  1.00  0.00    -0.080 C 
ATOM      7  C   UNL     1     -18.893  30.470  -3.821  1.00  0.00     0.039 C 
ATOM      8  C   UNL     1     -17.897  30.850  -1.441  1.00  0.00     0.039 C 
ENDBRANCH   4   5
ENDBRANCH   3   4
ENDBRANCH   2   3
BRANCH   2   9
ATOM      9  C   UNL     1     -22.345  30.867  -1.195  1.00  0.00     0.045 C 
BRANCH   9  10
ATOM     10  C   UNL     1     -22.273  29.856  -2.352  1.00  0.00     0.233 C 
BRANCH  10  11
ATOM     11  O   UNL     1     -23.537  29.238  -2.588  1.00  0.00    -0.466 OA
BRANCH  11  12
ATOM     12  C   UNL     1     -24.624  29.901  -3.167  1.00  0.00     0.302 C 
ATOM     13  O   UNL     1     -25.607  30.265  -2.467  1.00  0.00    -0.253 OA
ATOM     14  C   UNL     1     -24.638  30.137  -4.639  1.00  0.00     0.139 C 
ENDBRANCH  11  12
ENDBRANCH  10  11
ENDBRANCH   9  10
ENDBRANCH   2   9
TORSDOF 7
ENDMDL
