MODEL 1
REMARK VINA RESULT:    -4.363      0.000      0.000
REMARK INTER + INTRA:          -5.152
REMARK INTER:                  -5.001
REMARK INTRA:                  -0.151
REMARK UNBOUND:                -0.151
REMARK SMILES CC=Cc1ccc(O)c(OC)c1
REMARK SMILES IDX 4 1 12 2 9 3 7 4 6 5 5 6 3 7 1 8 2 9 10 10 11 11 8 12
REMARK H PARENT 8 13
REMARK Flexibility Score: inf
ROOT
ATOM      1  C   UNL     1      28.636  31.089  24.742  1.00  0.00    -0.022 A 
ATOM      2  C   UNL     1      28.349  32.446  24.512  1.00  0.00     0.058 A 
ATOM      3  C   UNL     1      28.461  32.998  23.221  1.00  0.00     0.161 A 
ATOM      4  C   UNL     1      28.853  32.177  22.154  1.00  0.00     0.157 A 
ATOM      5  C   UNL     1      29.125  30.822  22.374  1.00  0.00     0.051 A 
ATOM      6  C   UNL     1      29.014  30.279  23.656  1.00  0.00     0.012 A 
ENDROOT
BRANCH   1   7
ATOM      7  C   UNL     1      28.493  30.558  26.121  1.00  0.00     0.003 C 
ATOM      8  C   UNL     1      28.916  30.482  28.547  1.00  0.00     0.035 C 
ATOM      9  C   UNL     1      29.124  31.065  27.187  1.00  0.00    -0.030 C 
ENDBRANCH   1   7
BRANCH   3  10
ATOM     10  O   UNL     1      28.192  34.351  22.959  1.00  0.00    -0.493 OA
ATOM     11  C   UNL     1      27.257  35.142  23.686  1.00  0.00     0.278 C 
ENDBRANCH   3  10
BRANCH   4  12
ATOM     12  O   UNL     1      28.966  32.718  20.874  1.00  0.00    -0.504 OA
ATOM     13  H   UNL     1      29.399  33.620  20.715  1.00  0.00     0.293 HD
ENDBRANCH   4  12
TORSDOF 3
ENDMDL
MODEL 2
REMARK VINA RESULT:    -4.063      4.639      6.585
REMARK INTER + INTRA:          -4.808
REMARK INTER:                  -4.655
REMARK INTRA:                  -0.153
REMARK UNBOUND:                -0.151
REMARK SMILES CC=Cc1ccc(O)c(OC)c1
REMARK SMILES IDX 4 1 12 2 9 3 7 4 6 5 5 6 3 7 1 8 2 9 10 10 11 11 8 12
REMARK H PARENT 8 13
REMARK Flexibility Score: inf
ROOT
ATOM      1  C   UNL     1      28.064  35.352  19.914  1.00  0.00    -0.022 A 
ATOM      2  C   UNL     1      26.749  35.335  19.418  1.00  0.00     0.058 A 
ATOM      3  C   UNL     1      26.149  36.509  18.923  1.00  0.00     0.161 A 
ATOM      4  C   UNL     1      26.881  37.705  18.917  1.00  0.00     0.157 A 
ATOM      5  C   UNL     1      28.196  37.725  19.395  1.00  0.00     0.051 A 
ATOM      6  C   UNL     1      28.787  36.559  19.886  1.00  0.00     0.012 A 
ENDROOT
BRANCH   1   7
ATOM      7  C   UNL     1      28.650  34.083  20.415  1.00  0.00     0.003 C 
ATOM      8  C   UNL     1      29.125  32.346  22.097  1.00  0.00     0.035 C 
ATOM      9  C   UNL     1      28.516  33.644  21.673  1.00  0.00    -0.030 C 
ENDBRANCH   1   7
BRANCH   3  10
ATOM     10  O   UNL     1      24.835  36.529  18.429  1.00  0.00    -0.493 OA
ATOM     11  C   UNL     1      23.728  35.888  19.057  1.00  0.00     0.278 C 
ENDBRANCH   3  10
BRANCH   4  12
ATOM     12  O   UNL     1      26.293  38.870  18.429  1.00  0.00    -0.504 OA
ATOM     13  H   UNL     1      25.311  39.071  18.575  1.00  0.00     0.293 HD
ENDBRANCH   4  12
TORSDOF 3
ENDMDL
MODEL 3
REMARK VINA RESULT:    -4.061      2.718      4.852
REMARK INTER + INTRA:          -4.806
REMARK INTER:                  -4.623
REMARK INTRA:                  -0.183
REMARK UNBOUND:                -0.151
REMARK SMILES CC=Cc1ccc(O)c(OC)c1
REMARK SMILES IDX 4 1 12 2 9 3 7 4 6 5 5 6 3 7 1 8 2 9 10 10 11 11 8 12
REMARK H PARENT 8 13
REMARK Flexibility Score: inf
ROOT
ATOM      1  C   UNL     1      28.747  31.619  23.136  1.00  0.00    -0.022 A 
ATOM      2  C   UNL     1      28.447  31.494  24.504  1.00  0.00     0.058 A 
ATOM      3  C   UNL     1      28.472  30.236  25.136  1.00  0.00     0.161 A 
ATOM      4  C   UNL     1      28.811  29.099  24.391  1.00  0.00     0.157 A 
ATOM      5  C   UNL     1      29.125  29.218  23.032  1.00  0.00     0.051 A 
ATOM      6  C   UNL     1      29.098  30.467  22.408  1.00  0.00     0.012 A 
ENDROOT
BRANCH   1   7
ATOM      7  C   UNL     1      28.714  32.970  22.523  1.00  0.00     0.003 C 
ATOM      8  C   UNL     1      28.892  34.600  20.684  1.00  0.00     0.035 C 
ATOM      9  C   UNL     1      28.959  33.210  21.229  1.00  0.00    -0.030 C 
ENDBRANCH   1   7
BRANCH   3  10
ATOM     10  O   UNL     1      28.169  30.076  26.498  1.00  0.00    -0.493 OA
ATOM     11  C   UNL     1      28.976  30.562  27.566  1.00  0.00     0.278 C 
ENDBRANCH   3  10
BRANCH   4  12
ATOM     12  O   UNL     1      28.838  27.851  25.011  1.00  0.00    -0.504 OA
ATOM     13  H   UNL     1      28.307  27.665  25.854  1.00  0.00     0.293 HD
ENDBRANCH   4  12
TORSDOF 3
ENDMDL
MODEL 4
REMARK VINA RESULT:    -4.040      4.698      6.057
REMARK INTER + INTRA:          -4.782
REMARK INTER:                  -4.628
REMARK INTRA:                  -0.154
REMARK UNBOUND:                -0.151
REMARK SMILES CC=Cc1ccc(O)c(OC)c1
REMARK SMILES IDX 4 1 12 2 9 3 7 4 6 5 5 6 3 7 1 8 2 9 10 10 11 11 8 12
REMARK H PARENT 8 13
REMARK Flexibility Score: inf
ROOT
ATOM      1  C   UNL     1      27.341  29.268  25.242  1.00  0.00    -0.022 A 
ATOM      2  C   UNL     1      26.273  28.930  26.091  1.00  0.00     0.058 A 
ATOM      3  C   UNL     1      26.231  27.678  26.734  1.00  0.00     0.161 A 
ATOM      4  C   UNL     1      27.274  26.765  26.529  1.00  0.00     0.157 A 
ATOM      5  C   UNL     1      28.348  27.101  25.697  1.00  0.00     0.051 A 
ATOM      6  C   UNL     1      28.386  28.343  25.060  1.00  0.00     0.012 A 
ENDROOT
BRANCH   1   7
ATOM      7  C   UNL     1      27.338  30.606  24.597  1.00  0.00     0.003 C 
ATOM      8  C   UNL     1      28.231  32.842  24.077  1.00  0.00     0.035 C 
ATOM      9  C   UNL     1      28.298  31.522  24.774  1.00  0.00    -0.030 C 
ENDBRANCH   1   7
BRANCH   3  10
ATOM     10  O   UNL     1      25.174  27.305  27.581  1.00  0.00    -0.493 OA
ATOM     11  C   UNL     1      24.078  28.148  27.921  1.00  0.00     0.278 C 
ENDBRANCH   3  10
BRANCH   4  12
ATOM     12  O   UNL     1      27.238  25.524  27.162  1.00  0.00    -0.504 OA
ATOM     13  H   UNL     1      28.082  24.987  27.327  1.00  0.00     0.293 HD
ENDBRANCH   4  12
TORSDOF 3
ENDMDL
MODEL 5
REMARK VINA RESULT:    -4.000      8.097     10.048
REMARK INTER + INTRA:          -4.736
REMARK INTER:                  -4.563
REMARK INTRA:                  -0.173
REMARK UNBOUND:                -0.151
REMARK SMILES CC=Cc1ccc(O)c(OC)c1
REMARK SMILES IDX 4 1 12 2 9 3 7 4 6 5 5 6 3 7 1 8 2 9 10 10 11 11 8 12
REMARK H PARENT 8 13
REMARK Flexibility Score: inf
ROOT
ATOM      1  C   UNL     1      26.904  40.418  19.697  1.00  0.00    -0.022 A 
ATOM      2  C   UNL     1      26.013  39.936  20.671  1.00  0.00     0.058 A 
ATOM      3  C   UNL     1      25.576  38.597  20.651  1.00  0.00     0.161 A 
ATOM      4  C   UNL     1      26.049  37.736  19.651  1.00  0.00     0.157 A 
ATOM      5  C   UNL     1      26.948  38.205  18.687  1.00  0.00     0.051 A 
ATOM      6  C   UNL     1      27.377  39.534  18.709  1.00  0.00     0.012 A 
ENDROOT
BRANCH   1   7
ATOM      7  C   UNL     1      27.338  41.836  19.771  1.00  0.00     0.003 C 
ATOM      8  C   UNL     1      27.809  44.084  18.879  1.00  0.00     0.035 C 
ATOM      9  C   UNL     1      27.373  42.663  18.719  1.00  0.00    -0.030 C 
ENDBRANCH   1   7
BRANCH   3  10
ATOM     10  O   UNL     1      24.680  38.087  21.603  1.00  0.00    -0.493 OA
ATOM     11  C   UNL     1      23.339  38.538  21.771  1.00  0.00     0.278 C 
ENDBRANCH   3  10
BRANCH   4  12
ATOM     12  O   UNL     1      25.620  36.410  19.625  1.00  0.00    -0.504 OA
ATOM     13  H   UNL     1      24.785  36.131  19.123  1.00  0.00     0.293 HD
ENDBRANCH   4  12
TORSDOF 3
ENDMDL
MODEL 6
REMARK VINA RESULT:    -3.999      2.054      2.418
REMARK INTER + INTRA:          -4.734
REMARK INTER:                  -4.586
REMARK INTRA:                  -0.148
REMARK UNBOUND:                -0.151
REMARK SMILES CC=Cc1ccc(O)c(OC)c1
REMARK SMILES IDX 4 1 12 2 9 3 7 4 6 5 5 6 3 7 1 8 2 9 10 10 11 11 8 12
REMARK H PARENT 8 13
REMARK Flexibility Score: inf
ROOT
ATOM      1  C   UNL     1      28.482  29.326  24.571  1.00  0.00    -0.022 A 
ATOM      2  C   UNL     1      28.151  30.667  24.827  1.00  0.00     0.058 A 
ATOM      3  C   UNL     1      28.317  31.654  23.835  1.00  0.00     0.161 A 
ATOM      4  C   UNL     1      28.807  31.285  22.575  1.00  0.00     0.157 A 
ATOM      5  C   UNL     1      29.125  29.949  22.309  1.00  0.00     0.051 A 
ATOM      6  C   UNL     1      28.960  28.974  23.295  1.00  0.00     0.012 A 
ENDROOT
BRANCH   1   7
ATOM      7  C   UNL     1      28.279  28.327  25.650  1.00  0.00     0.003 C 
ATOM      8  C   UNL     1      27.395  26.253  26.645  1.00  0.00     0.035 C 
ATOM      9  C   UNL     1      27.539  27.219  25.513  1.00  0.00    -0.030 C 
ENDBRANCH   1   7
BRANCH   3  10
ATOM     10  O   UNL     1      28.004  33.004  24.061  1.00  0.00    -0.493 OA
ATOM     11  C   UNL     1      28.918  33.967  24.578  1.00  0.00     0.278 C 
ENDBRANCH   3  10
BRANCH   4  12
ATOM     12  O   UNL     1      28.974  32.257  21.589  1.00  0.00    -0.504 OA
ATOM     13  H   UNL     1      28.347  33.050  21.514  1.00  0.00     0.293 HD
ENDBRANCH   4  12
TORSDOF 3
ENDMDL
MODEL 7
REMARK VINA RESULT:    -3.997      4.014      6.036
REMARK INTER + INTRA:          -4.733
REMARK INTER:                  -4.560
REMARK INTRA:                  -0.172
REMARK UNBOUND:                -0.151
REMARK SMILES CC=Cc1ccc(O)c(OC)c1
REMARK SMILES IDX 4 1 12 2 9 3 7 4 6 5 5 6 3 7 1 8 2 9 10 10 11 11 8 12
REMARK H PARENT 8 13
REMARK Flexibility Score: inf
ROOT
ATOM      1  C   UNL     1      27.749  35.911  21.313  1.00  0.00    -0.022 A 
ATOM      2  C   UNL     1      26.650  36.663  21.761  1.00  0.00     0.058 A 
ATOM      3  C   UNL     1      26.110  37.695  20.969  1.00  0.00     0.161 A 
ATOM      4  C   UNL     1      26.673  37.964  19.714  1.00  0.00     0.157 A 
ATOM      5  C   UNL     1      27.758  37.209  19.255  1.00  0.00     0.051 A 
ATOM      6  C   UNL     1      28.291  36.187  20.044  1.00  0.00     0.012 A 
ENDROOT
BRANCH   1   7
ATOM      7  C   UNL     1      28.272  34.830  22.185  1.00  0.00     0.003 C 
ATOM      8  C   UNL     1      28.373  33.447  24.222  1.00  0.00     0.035 C 
ATOM      9  C   UNL     1      27.801  34.564  23.410  1.00  0.00    -0.030 C 
ENDBRANCH   1   7
BRANCH   3  10
ATOM     10  O   UNL     1      25.019  38.471  21.391  1.00  0.00    -0.493 OA
ATOM     11  C   UNL     1      23.699  37.970  21.584  1.00  0.00     0.278 C 
ENDBRANCH   3  10
BRANCH   4  12
ATOM     12  O   UNL     1      26.143  38.984  18.925  1.00  0.00    -0.504 OA
ATOM     13  H   UNL     1      26.595  39.888  18.853  1.00  0.00     0.293 HD
ENDBRANCH   4  12
TORSDOF 3
ENDMDL
MODEL 8
REMARK VINA RESULT:    -3.962      7.845      9.863
REMARK INTER + INTRA:          -4.692
REMARK INTER:                  -4.535
REMARK INTRA:                  -0.157
REMARK UNBOUND:                -0.151
REMARK SMILES CC=Cc1ccc(O)c(OC)c1
REMARK SMILES IDX 4 1 12 2 9 3 7 4 6 5 5 6 3 7 1 8 2 9 10 10 11 11 8 12
REMARK H PARENT 8 13
REMARK Flexibility Score: inf
ROOT
ATOM      1  C   UNL     1      26.883  39.630  19.424  1.00  0.00    -0.022 A 
ATOM      2  C   UNL     1      26.684  38.315  18.969  1.00  0.00     0.058 A 
ATOM      3  C   UNL     1      25.838  37.430  19.666  1.00  0.00     0.161 A 
ATOM      4  C   UNL     1      25.179  37.875  20.820  1.00  0.00     0.157 A 
ATOM      5  C   UNL     1      25.361  39.188  21.270  1.00  0.00     0.051 A 
ATOM      6  C   UNL     1      26.201  40.062  20.578  1.00  0.00     0.012 A 
ENDROOT
BRANCH   1   7
ATOM      7  C   UNL     1      27.778  40.523  18.647  1.00  0.00     0.003 C 
ATOM      8  C   UNL     1      28.650  42.690  17.863  1.00  0.00     0.035 C 
ATOM      9  C   UNL     1      27.700  41.859  18.664  1.00  0.00    -0.030 C 
ENDBRANCH   1   7
BRANCH   3  10
ATOM     10  O   UNL     1      25.626  36.108  19.243  1.00  0.00    -0.493 OA
ATOM     11  C   UNL     1      24.609  35.707  18.330  1.00  0.00     0.278 C 
ENDBRANCH   3  10
BRANCH   4  12
ATOM     12  O   UNL     1      24.341  37.004  21.514  1.00  0.00    -0.504 OA
ATOM     13  H   UNL     1      23.735  37.330  22.258  1.00  0.00     0.293 HD
ENDBRANCH   4  12
TORSDOF 3
ENDMDL
MODEL 9
REMARK VINA RESULT:    -3.914      8.261     10.578
REMARK INTER + INTRA:          -4.637
REMARK INTER:                  -4.482
REMARK INTRA:                  -0.155
REMARK UNBOUND:                -0.151
REMARK SMILES CC=Cc1ccc(O)c(OC)c1
REMARK SMILES IDX 4 1 12 2 9 3 7 4 6 5 5 6 3 7 1 8 2 9 10 10 11 11 8 12
REMARK H PARENT 8 13
REMARK Flexibility Score: inf
ROOT
ATOM      1  C   UNL     1      27.934  39.647  18.622  1.00  0.00    -0.022 A 
ATOM      2  C   UNL     1      27.200  40.651  19.276  1.00  0.00     0.058 A 
ATOM      3  C   UNL     1      27.432  42.012  18.998  1.00  0.00     0.161 A 
ATOM      4  C   UNL     1      28.400  42.364  18.049  1.00  0.00     0.157 A 
ATOM      5  C   UNL     1      29.125  41.370  17.383  1.00  0.00     0.051 A 
ATOM      6  C   UNL     1      28.893  40.021  17.662  1.00  0.00     0.012 A 
ENDROOT
BRANCH   1   7
ATOM      7  C   UNL     1      27.642  38.228  18.947  1.00  0.00     0.003 C 
ATOM      8  C   UNL     1      26.208  36.246  19.233  1.00  0.00     0.035 C 
ATOM      9  C   UNL     1      26.418  37.689  18.904  1.00  0.00    -0.030 C 
ENDBRANCH   1   7
BRANCH   3  10
ATOM     10  O   UNL     1      26.722  43.040  19.641  1.00  0.00    -0.493 OA
ATOM     11  C   UNL     1      26.368  43.034  21.021  1.00  0.00     0.278 C 
ENDBRANCH   3  10
BRANCH   4  12
ATOM     12  O   UNL     1      28.635  43.710  17.770  1.00  0.00    -0.504 OA
ATOM     13  H   UNL     1      28.996  44.343  18.473  1.00  0.00     0.293 HD
ENDBRANCH   4  12
TORSDOF 3
ENDMDL
