MODEL 1
REMARK VINA RESULT:    -2.558      0.000      0.000
REMARK INTER + INTRA:          -3.938
REMARK INTER:                  -3.604
REMARK INTRA:                  -0.334
REMARK UNBOUND:                -0.334
REMARK SMILES C=CCCCCCCC(=O)[O-]
REMARK SMILES IDX 6 1 7 2 8 3 9 4 10 5 11 6 5 7 4 8 3 9 2 10 1 11
REMARK H PARENT
REMARK Flexibility Score: inf
ROOT
ATOM      1  C   UNL     1      12.489  18.500  32.950  1.00  0.00     0.000 C 
ENDROOT
BRANCH   1   2
ATOM      2  C   UNL     1      13.057  19.657  33.787  1.00  0.00     0.006 C 
BRANCH   2   3
ATOM      3  C   UNL     1      12.125  19.996  34.954  1.00  0.00     0.053 C 
BRANCH   3   4
ATOM      4  C   UNL     1      11.963  21.478  35.082  1.00  0.00     0.041 C 
ATOM      5  O   UNL     1      11.513  21.977  36.147  1.00  0.00    -0.550 OA
ATOM      6  O   UNL     1      12.262  22.306  34.007  1.00  0.00    -0.550 OA
ENDBRANCH   3   4
ENDBRANCH   2   3
ENDBRANCH   1   2
BRANCH   1   7
ATOM      7  C   UNL     1      11.792  18.982  31.668  1.00  0.00     0.000 C 
BRANCH   7   8
ATOM      8  C   UNL     1      12.070  20.463  31.362  1.00  0.00     0.004 C 
BRANCH   8   9
ATOM      9  C   UNL     1      10.935  21.111  30.555  1.00  0.00     0.027 C 
BRANCH   9  10
ATOM     10  C   UNL     1      10.131  20.099  29.782  1.00  0.00    -0.035 C 
ATOM     11  C   UNL     1       9.022  20.441  29.117  1.00  0.00     0.004 C 
ENDBRANCH   9  10
ENDBRANCH   8   9
ENDBRANCH   7   8
ENDBRANCH   1   7
TORSDOF 7
ENDMDL
MODEL 2
REMARK VINA RESULT:    -2.337      0.605      1.208
REMARK INTER + INTRA:          -3.628
REMARK INTER:                  -3.463
REMARK INTRA:                  -0.164
REMARK UNBOUND:                -0.334
REMARK SMILES C=CCCCCCCC(=O)[O-]
REMARK SMILES IDX 6 1 7 2 8 3 9 4 10 5 11 6 5 7 4 8 3 9 2 10 1 11
REMARK H PARENT
REMARK Flexibility Score: inf
ROOT
ATOM      1  C   UNL     1      11.918  19.268  32.046  1.00  0.00     0.000 C 
ENDROOT
BRANCH   1   2
ATOM      2  C   UNL     1      12.889  19.433  33.224  1.00  0.00     0.006 C 
BRANCH   2   3
ATOM      3  C   UNL     1      12.128  19.682  34.529  1.00  0.00     0.053 C 
BRANCH   3   4
ATOM      4  C   UNL     1      12.061  21.148  34.826  1.00  0.00     0.041 C 
ATOM      5  O   UNL     1      11.809  21.547  35.993  1.00  0.00    -0.550 OA
ATOM      6  O   UNL     1      12.227  22.073  33.803  1.00  0.00    -0.550 OA
ENDBRANCH   3   4
ENDBRANCH   2   3
ENDBRANCH   1   2
BRANCH   1   7
ATOM      7  C   UNL     1      12.073  20.373  30.989  1.00  0.00     0.000 C 
BRANCH   7   8
ATOM      8  C   UNL     1      10.726  20.981  30.565  1.00  0.00     0.004 C 
BRANCH   8   9
ATOM      9  C   UNL     1       9.902  20.016  29.699  1.00  0.00     0.027 C 
BRANCH   9  10
ATOM     10  C   UNL     1       8.936  20.736  28.796  1.00  0.00    -0.035 C 
ATOM     11  C   UNL     1       7.619  20.734  29.028  1.00  0.00     0.004 C 
ENDBRANCH   9  10
ENDBRANCH   8   9
ENDBRANCH   7   8
ENDBRANCH   1   7
TORSDOF 7
ENDMDL
MODEL 3
REMARK VINA RESULT:    -1.735      3.069      5.232
REMARK INTER + INTRA:          -2.778
REMARK INTER:                  -2.602
REMARK INTRA:                  -0.176
REMARK UNBOUND:                -0.334
REMARK SMILES C=CCCCCCCC(=O)[O-]
REMARK SMILES IDX 6 1 7 2 8 3 9 4 10 5 11 6 5 7 4 8 3 9 2 10 1 11
REMARK H PARENT
REMARK Flexibility Score: inf
ROOT
ATOM      1  C   UNL     1      12.096  20.423  31.928  1.00  0.00     0.000 C 
ENDROOT
BRANCH   1   2
ATOM      2  C   UNL     1      11.665  20.393  30.454  1.00  0.00     0.006 C 
BRANCH   2   3
ATOM      3  C   UNL     1      10.351  21.153  30.252  1.00  0.00     0.053 C 
BRANCH   3   4
ATOM      4  C   UNL     1       9.404  20.350  29.418  1.00  0.00     0.041 C 
ATOM      5  O   UNL     1       9.553  19.105  29.309  1.00  0.00    -0.550 OA
ATOM      6  O   UNL     1       8.385  20.984  28.718  1.00  0.00    -0.550 OA
ENDBRANCH   3   4
ENDBRANCH   2   3
ENDBRANCH   1   2
BRANCH   1   7
ATOM      7  C   UNL     1      12.774  19.119  32.375  1.00  0.00     0.000 C 
BRANCH   7   8
ATOM      8  C   UNL     1      13.034  19.076  33.891  1.00  0.00     0.004 C 
BRANCH   8   9
ATOM      9  C   UNL     1      11.843  19.614  34.697  1.00  0.00     0.027 C 
BRANCH   9  10
ATOM     10  C   UNL     1      12.174  20.886  35.432  1.00  0.00    -0.035 C 
ATOM     11  C   UNL     1      12.101  22.082  34.838  1.00  0.00     0.004 C 
ENDBRANCH   9  10
ENDBRANCH   8   9
ENDBRANCH   7   8
ENDBRANCH   1   7
TORSDOF 7
ENDMDL
MODEL 4
REMARK VINA RESULT:    -1.630      3.189      5.506
REMARK INTER + INTRA:          -2.631
REMARK INTER:                  -2.343
REMARK INTRA:                  -0.289
REMARK UNBOUND:                -0.334
REMARK SMILES C=CCCCCCCC(=O)[O-]
REMARK SMILES IDX 6 1 7 2 8 3 9 4 10 5 11 6 5 7 4 8 3 9 2 10 1 11
REMARK H PARENT
REMARK Flexibility Score: inf
ROOT
ATOM      1  C   UNL     1      11.817  20.643  30.803  1.00  0.00     0.000 C 
ENDROOT
BRANCH   1   2
ATOM      2  C   UNL     1      10.446  21.174  30.361  1.00  0.00     0.006 C 
BRANCH   2   3
ATOM      3  C   UNL     1       9.700  20.131  29.522  1.00  0.00     0.053 C 
BRANCH   3   4
ATOM      4  C   UNL     1       8.476  20.732  28.905  1.00  0.00     0.041 C 
ATOM      5  O   UNL     1       7.396  20.772  29.551  1.00  0.00    -0.550 OA
ATOM      6  O   UNL     1       8.515  21.201  27.598  1.00  0.00    -0.550 OA
ENDBRANCH   3   4
ENDBRANCH   2   3
ENDBRANCH   1   2
BRANCH   1   7
ATOM      7  C   UNL     1      11.711  19.406  31.708  1.00  0.00     0.000 C 
BRANCH   7   8
ATOM      8  C   UNL     1      12.901  19.275  32.675  1.00  0.00     0.004 C 
BRANCH   8   9
ATOM      9  C   UNL     1      12.503  19.581  34.127  1.00  0.00     0.027 C 
BRANCH   9  10
ATOM     10  C   UNL     1      12.308  21.054  34.371  1.00  0.00    -0.035 C 
ATOM     11  C   UNL     1      11.832  21.519  35.531  1.00  0.00     0.004 C 
ENDBRANCH   9  10
ENDBRANCH   8   9
ENDBRANCH   7   8
ENDBRANCH   1   7
TORSDOF 7
ENDMDL
MODEL 5
REMARK VINA RESULT:    -1.504     14.899     17.027
REMARK INTER + INTRA:          -2.453
REMARK INTER:                  -2.362
REMARK INTRA:                  -0.091
REMARK UNBOUND:                -0.334
REMARK SMILES C=CCCCCCCC(=O)[O-]
REMARK SMILES IDX 6 1 7 2 8 3 9 4 10 5 11 6 5 7 4 8 3 9 2 10 1 11
REMARK H PARENT
REMARK Flexibility Score: inf
ROOT
ATOM      1  C   UNL     1       1.668  10.211  23.834  1.00  0.00     0.000 C 
ENDROOT
BRANCH   1   2
ATOM      2  C   UNL     1       0.875   9.467  24.919  1.00  0.00     0.006 C 
BRANCH   2   3
ATOM      3  C   UNL     1       0.988   7.950  24.735  1.00  0.00     0.053 C 
BRANCH   3   4
ATOM      4  C   UNL     1       1.779   7.344  25.851  1.00  0.00     0.041 C 
ATOM      5  O   UNL     1       1.200   6.958  26.901  1.00  0.00    -0.550 OA
ATOM      6  O   UNL     1       3.161   7.252  25.753  1.00  0.00    -0.550 OA
ENDBRANCH   3   4
ENDBRANCH   2   3
ENDBRANCH   1   2
BRANCH   1   7
ATOM      7  C   UNL     1       0.876  10.376  22.527  1.00  0.00     0.000 C 
BRANCH   7   8
ATOM      8  C   UNL     1       1.193  11.696  21.805  1.00  0.00     0.004 C 
BRANCH   8   9
ATOM      9  C   UNL     1       2.501  12.328  22.303  1.00  0.00     0.027 C 
BRANCH   9  10
ATOM     10  C   UNL     1       2.275  13.310  23.423  1.00  0.00    -0.035 C 
ATOM     11  C   UNL     1       3.196  13.527  24.367  1.00  0.00     0.004 C 
ENDBRANCH   9  10
ENDBRANCH   8   9
ENDBRANCH   7   8
ENDBRANCH   1   7
TORSDOF 7
ENDMDL
MODEL 6
REMARK VINA RESULT:     0.060      3.036      5.107
REMARK INTER + INTRA:          -0.249
REMARK INTER:                  -0.239
REMARK INTRA:                  -0.010
REMARK UNBOUND:                -0.334
REMARK SMILES C=CCCCCCCC(=O)[O-]
REMARK SMILES IDX 6 1 7 2 8 3 9 4 10 5 11 6 5 7 4 8 3 9 2 10 1 11
REMARK H PARENT
REMARK Flexibility Score: inf
ROOT
ATOM      1  C   UNL     1      11.284  22.487  32.018  1.00  0.00     0.000 C 
ENDROOT
BRANCH   1   2
ATOM      2  C   UNL     1      10.568  22.193  30.691  1.00  0.00     0.006 C 
BRANCH   2   3
ATOM      3  C   UNL     1      10.907  20.787  30.186  1.00  0.00     0.053 C 
BRANCH   3   4
ATOM      4  C   UNL     1       9.695  20.134  29.601  1.00  0.00     0.041 C 
ATOM      5  O   UNL     1       8.813  20.829  29.032  1.00  0.00    -0.550 OA
ATOM      6  O   UNL     1       9.514  18.762  29.728  1.00  0.00    -0.550 OA
ENDBRANCH   3   4
ENDBRANCH   2   3
ENDBRANCH   1   2
BRANCH   1   7
ATOM      7  C   UNL     1      12.108  21.293  32.524  1.00  0.00     0.000 C 
BRANCH   7   8
ATOM      8  C   UNL     1      12.085  21.164  34.057  1.00  0.00     0.004 C 
BRANCH   8   9
ATOM      9  C   UNL     1      12.413  19.737  34.523  1.00  0.00     0.027 C 
BRANCH   9  10
ATOM     10  C   UNL     1      13.190  18.961  33.492  1.00  0.00    -0.035 C 
ATOM     11  C   UNL     1      12.580  18.283  32.515  1.00  0.00     0.004 C 
ENDBRANCH   9  10
ENDBRANCH   8   9
ENDBRANCH   7   8
ENDBRANCH   1   7
TORSDOF 7
ENDMDL
