MODEL 1
REMARK VINA RESULT:    -7.432      0.000      0.000
REMARK INTER + INTRA:          -8.239
REMARK INTER:                  -8.084
REMARK INTRA:                  -0.155
REMARK UNBOUND:                -0.155
REMARK SMILES CC(=O)[C@@H]1CC[C@H]2[C@H]3CC=C4C[C@H](O)CC[C@]4(C)[C@@H]3CC[C@@]12C
REMARK SMILES IDX 4 1 5 2 6 3 7 4 22 5 21 6 20 7 19 8 8 9 9 10 10 11 11 12
REMARK SMILES IDX 17 13 16 14 15 15 13 16 12 17 18 18 23 19 2 20 1 21 3 22
REMARK SMILES IDX 14 23
REMARK H PARENT 14 24
REMARK Flexibility Score: inf
ROOT
ATOM      1  C   UNL     1       2.260  42.807  10.507  1.00  0.00     0.062 C 
ATOM      2  C   UNL     1       3.084  42.513   9.243  1.00  0.00     0.012 C 
ATOM      3  C   UNL     1       3.989  43.724   9.003  1.00  0.00     0.005 C 
ATOM      4  C   UNL     1       3.800  44.669  10.203  1.00  0.00    -0.001 C 
ATOM      5  C   UNL     1       2.398  44.341  10.750  1.00  0.00    -0.020 C 
ATOM      6  C   UNL     1       1.303  45.068   9.911  1.00  0.00     0.008 C 
ATOM      7  C   UNL     1       1.552  46.569   9.757  1.00  0.00     0.005 C 
ATOM      8  C   UNL     1       2.926  46.864   9.109  1.00  0.00     0.003 C 
ATOM      9  C   UNL     1       4.053  46.184   9.918  1.00  0.00     0.000 C 
ATOM     10  C   UNL     1       5.392  46.383   9.194  1.00  0.00     0.031 C 
ATOM     11  C   UNL     1       5.668  47.829   8.946  1.00  0.00    -0.027 C 
ATOM     12  C   UNL     1       4.697  48.735   8.720  1.00  0.00    -0.065 C 
ATOM     13  C   UNL     1       3.198  48.414   8.874  1.00  0.00    -0.008 C 
ATOM     14  C   UNL     1       2.673  49.282  10.065  1.00  0.00     0.014 C 
ATOM     15  C   UNL     1       3.071  50.771   9.990  1.00  0.00     0.033 C 
ATOM     16  C   UNL     1       4.584  50.971   9.814  1.00  0.00     0.118 C 
ATOM     17  C   UNL     1       5.094  50.193   8.593  1.00  0.00     0.063 C 
ATOM     18  C   UNL     1       2.463  48.823   7.571  1.00  0.00     0.016 C 
ATOM     19  C   UNL     1       2.263  44.729  12.246  1.00  0.00     0.012 C 
ENDROOT
BRANCH   1  20
ATOM     20  C   UNL     1       2.679  41.923  11.681  1.00  0.00     0.133 C 
ATOM     21  C   UNL     1       4.111  41.588  11.994  1.00  0.00     0.088 C 
ATOM     22  O   UNL     1       1.813  41.482  12.420  1.00  0.00    -0.300 OA
ENDBRANCH   1  20
BRANCH  16  23
ATOM     23  O   UNL     1       5.254  50.551  10.977  1.00  0.00    -0.393 OA
ATOM     24  H   UNL     1       5.663  49.670  10.768  1.00  0.00     0.210 HD
ENDBRANCH  16  23
TORSDOF 2
ENDMDL
MODEL 2
REMARK VINA RESULT:    -5.306      1.768      3.038
REMARK INTER + INTRA:          -5.927
REMARK INTER:                  -6.333
REMARK INTRA:                   0.407
REMARK UNBOUND:                -0.155
REMARK SMILES CC(=O)[C@@H]1CC[C@H]2[C@H]3CC=C4C[C@H](O)CC[C@]4(C)[C@@H]3CC[C@@]12C
REMARK SMILES IDX 4 1 5 2 6 3 7 4 22 5 21 6 20 7 19 8 8 9 9 10 10 11 11 12
REMARK SMILES IDX 17 13 16 14 15 15 13 16 12 17 18 18 23 19 2 20 1 21 3 22
REMARK SMILES IDX 14 23
REMARK H PARENT 14 24
REMARK Flexibility Score: inf
ROOT
ATOM      1  C   UNL     1       2.746  43.351  11.560  1.00  0.00     0.062 C 
ATOM      2  C   UNL     1       1.360  43.762  12.085  1.00  0.00     0.012 C 
ATOM      3  C   UNL     1       0.871  44.918  11.210  1.00  0.00     0.005 C 
ATOM      4  C   UNL     1       1.906  45.097  10.085  1.00  0.00    -0.001 C 
ATOM      5  C   UNL     1       3.220  44.532  10.658  1.00  0.00    -0.020 C 
ATOM      6  C   UNL     1       3.916  45.592  11.567  1.00  0.00     0.008 C 
ATOM      7  C   UNL     1       4.092  46.952  10.889  1.00  0.00     0.005 C 
ATOM      8  C   UNL     1       2.741  47.541  10.416  1.00  0.00     0.003 C 
ATOM      9  C   UNL     1       2.018  46.537   9.490  1.00  0.00     0.000 C 
ATOM     10  C   UNL     1       0.630  47.085   9.130  1.00  0.00     0.031 C 
ATOM     11  C   UNL     1       0.720  48.447   8.526  1.00  0.00    -0.027 C 
ATOM     12  C   UNL     1       1.673  49.338   8.861  1.00  0.00    -0.065 C 
ATOM     13  C   UNL     1       2.873  48.985   9.762  1.00  0.00    -0.008 C 
ATOM     14  C   UNL     1       4.153  49.102   8.869  1.00  0.00     0.014 C 
ATOM     15  C   UNL     1       4.244  50.411   8.056  1.00  0.00     0.033 C 
ATOM     16  C   UNL     1       2.985  50.673   7.215  1.00  0.00     0.118 C 
ATOM     17  C   UNL     1       1.729  50.647   8.098  1.00  0.00     0.063 C 
ATOM     18  C   UNL     1       2.950  50.015  10.918  1.00  0.00     0.016 C 
ATOM     19  C   UNL     1       4.187  44.081   9.533  1.00  0.00     0.012 C 
ENDROOT
BRANCH   1  20
ATOM     20  C   UNL     1       2.718  41.985  10.879  1.00  0.00     0.133 C 
ATOM     21  C   UNL     1       3.035  40.699  11.592  1.00  0.00     0.088 C 
ATOM     22  O   UNL     1       2.400  41.923   9.702  1.00  0.00    -0.300 OA
ENDBRANCH   1  20
BRANCH  16  23
ATOM     23  O   UNL     1       2.888  49.706   6.198  1.00  0.00    -0.393 OA
ATOM     24  H   UNL     1       2.672  50.195   5.360  1.00  0.00     0.210 HD
ENDBRANCH  16  23
TORSDOF 2
ENDMDL
MODEL 3
REMARK VINA RESULT:    -5.107      1.280      6.717
REMARK INTER + INTRA:          -5.710
REMARK INTER:                  -5.595
REMARK INTRA:                  -0.115
REMARK UNBOUND:                -0.155
REMARK SMILES CC(=O)[C@@H]1CC[C@H]2[C@H]3CC=C4C[C@H](O)CC[C@]4(C)[C@@H]3CC[C@@]12C
REMARK SMILES IDX 4 1 5 2 6 3 7 4 22 5 21 6 20 7 19 8 8 9 9 10 10 11 11 12
REMARK SMILES IDX 17 13 16 14 15 15 13 16 12 17 18 18 23 19 2 20 1 21 3 22
REMARK SMILES IDX 14 23
REMARK H PARENT 14 24
REMARK Flexibility Score: inf
ROOT
ATOM      1  C   UNL     1       4.124  49.120   8.205  1.00  0.00     0.062 C 
ATOM      2  C   UNL     1       2.804  48.981   7.429  1.00  0.00     0.012 C 
ATOM      3  C   UNL     1       1.920  48.009   8.214  1.00  0.00     0.005 C 
ATOM      4  C   UNL     1       2.663  47.684   9.522  1.00  0.00    -0.001 C 
ATOM      5  C   UNL     1       4.152  47.922   9.204  1.00  0.00    -0.020 C 
ATOM      6  C   UNL     1       4.755  46.687   8.468  1.00  0.00     0.008 C 
ATOM      7  C   UNL     1       4.500  45.364   9.192  1.00  0.00     0.005 C 
ATOM      8  C   UNL     1       2.989  45.104   9.405  1.00  0.00     0.003 C 
ATOM      9  C   UNL     1       2.345  46.291  10.154  1.00  0.00     0.000 C 
ATOM     10  C   UNL     1       0.829  46.072  10.247  1.00  0.00     0.031 C 
ATOM     11  C   UNL     1       0.504  44.761  10.883  1.00  0.00    -0.027 C 
ATOM     12  C   UNL     1       1.284  43.669  10.756  1.00  0.00    -0.065 C 
ATOM     13  C   UNL     1       2.678  43.707  10.100  1.00  0.00    -0.008 C 
ATOM     14  C   UNL     1       3.713  43.376  11.226  1.00  0.00     0.014 C 
ATOM     15  C   UNL     1       3.362  42.129  12.065  1.00  0.00     0.033 C 
ATOM     16  C   UNL     1       1.942  42.190  12.651  1.00  0.00     0.118 C 
ATOM     17  C   UNL     1       0.909  42.427  11.540  1.00  0.00     0.063 C 
ATOM     18  C   UNL     1       2.741  42.615   9.000  1.00  0.00     0.016 C 
ATOM     19  C   UNL     1       4.968  48.226  10.487  1.00  0.00     0.012 C 
ENDROOT
BRANCH   1  20
ATOM     20  C   UNL     1       4.271  50.500   8.842  1.00  0.00     0.133 C 
ATOM     21  C   UNL     1       3.218  51.125   9.715  1.00  0.00     0.088 C 
ATOM     22  O   UNL     1       5.304  51.125   8.656  1.00  0.00    -0.300 OA
ENDBRANCH   1  20
BRANCH  16  23
ATOM     23  O   UNL     1       1.873  43.215  13.611  1.00  0.00    -0.393 OA
ATOM     24  H   UNL     1       0.944  43.568  13.585  1.00  0.00     0.210 HD
ENDBRANCH  16  23
TORSDOF 2
ENDMDL
MODEL 4
REMARK VINA RESULT:    -4.684      2.589      6.501
REMARK INTER + INTRA:          -5.249
REMARK INTER:                  -5.093
REMARK INTRA:                  -0.157
REMARK UNBOUND:                -0.155
REMARK SMILES CC(=O)[C@@H]1CC[C@H]2[C@H]3CC=C4C[C@H](O)CC[C@]4(C)[C@@H]3CC[C@@]12C
REMARK SMILES IDX 4 1 5 2 6 3 7 4 22 5 21 6 20 7 19 8 8 9 9 10 10 11 11 12
REMARK SMILES IDX 17 13 16 14 15 15 13 16 12 17 18 18 23 19 2 20 1 21 3 22
REMARK SMILES IDX 14 23
REMARK H PARENT 14 24
REMARK Flexibility Score: inf
ROOT
ATOM      1  C   UNL     1       4.971  50.082   9.605  1.00  0.00     0.062 C 
ATOM      2  C   UNL     1       4.829  49.446  10.998  1.00  0.00     0.012 C 
ATOM      3  C   UNL     1       4.102  48.113  10.812  1.00  0.00     0.005 C 
ATOM      4  C   UNL     1       3.939  47.898   9.297  1.00  0.00    -0.001 C 
ATOM      5  C   UNL     1       3.970  49.313   8.689  1.00  0.00    -0.020 C 
ATOM      6  C   UNL     1       2.572  49.991   8.817  1.00  0.00     0.008 C 
ATOM      7  C   UNL     1       1.428  49.130   8.278  1.00  0.00     0.005 C 
ATOM      8  C   UNL     1       1.359  47.753   8.982  1.00  0.00     0.003 C 
ATOM      9  C   UNL     1       2.718  47.027   8.863  1.00  0.00     0.000 C 
ATOM     10  C   UNL     1       2.669  45.722   9.670  1.00  0.00     0.031 C 
ATOM     11  C   UNL     1       1.528  44.858   9.243  1.00  0.00    -0.027 C 
ATOM     12  C   UNL     1       0.360  45.355   8.791  1.00  0.00    -0.065 C 
ATOM     13  C   UNL     1       0.143  46.851   8.493  1.00  0.00    -0.008 C 
ATOM     14  C   UNL     1      -0.086  46.973   6.950  1.00  0.00     0.014 C 
ATOM     15  C   UNL     1      -1.125  45.984   6.382  1.00  0.00     0.033 C 
ATOM     16  C   UNL     1      -0.822  44.525   6.760  1.00  0.00     0.118 C 
ATOM     17  C   UNL     1      -0.683  44.379   8.281  1.00  0.00     0.063 C 
ATOM     18  C   UNL     1      -1.125  47.331   9.245  1.00  0.00     0.016 C 
ATOM     19  C   UNL     1       4.412  49.287   7.203  1.00  0.00     0.012 C 
ENDROOT
BRANCH   1  20
ATOM     20  C   UNL     1       6.421  50.087   9.124  1.00  0.00     0.133 C 
ATOM     21  C   UNL     1       7.355  48.922   9.299  1.00  0.00     0.088 C 
ATOM     22  O   UNL     1       6.842  51.077   8.545  1.00  0.00    -0.300 OA
ENDBRANCH   1  20
BRANCH  16  23
ATOM     23  O   UNL     1       0.357  44.107   6.117  1.00  0.00    -0.393 OA
ATOM     24  H   UNL     1       0.741  43.378   6.673  1.00  0.00     0.210 HD
ENDBRANCH  16  23
TORSDOF 2
ENDMDL
