MODEL 1
REMARK VINA RESULT:    -4.059      0.000      0.000
REMARK INTER + INTRA:          -6.076
REMARK INTER:                  -6.194
REMARK INTRA:                   0.118
REMARK UNBOUND:                 0.118
REMARK SMILES CC1=CCC[C@H](C)C(=O)C[C@H](C(C)C)C(=O)C1
REMARK SMILES IDX 8 1 9 2 6 3 7 4 5 5 4 6 3 7 2 8 1 9 10 11 11 12 15 13 16 14
REMARK SMILES IDX 17 15 12 17 13 18 14 19
REMARK H PARENT
REMARK Flexibility Score: 70.00
ROOT
ATOM      1  C   UNL     1      49.137  24.411  20.988  1.00  0.00     0.136 C 
ATOM      2  O   UNL     1      47.926  24.326  21.137  1.00  0.00    -0.299 OA
ENDROOT
BRANCH   1   3
ATOM      3  C   UNL     1      49.776  25.788  20.956  1.00  0.00     0.053 C 
ATOM      4  C   UNL     1      49.266  26.644  22.121  1.00  0.00     0.016 C 
BRANCH   3   5
ATOM      5  C   UNL     1      51.316  25.718  20.957  1.00  0.00     0.015 C 
BRANCH   5   6
ATOM      6  C   UNL     1      51.930  26.602  19.856  1.00  0.00     0.028 C 
BRANCH   6   7
ATOM      7  C   UNL     1      51.563  26.158  18.463  1.00  0.00    -0.028 C 
ATOM      8  C   UNL     1      51.537  24.877  18.013  1.00  0.00    -0.070 CG0
ATOM      9  C   UNL     1      51.012  24.648  16.616  1.00  0.00     0.039 C 
ATOM     10  G   UNL     1      52.073  23.677  18.790  1.00  0.00     0.000 G0
ENDBRANCH   6   7
ENDBRANCH   5   6
ENDBRANCH   3   5
ENDBRANCH   1   3
BRANCH   1  11
ATOM     11  C   UNL     1      49.951  23.139  20.902  1.00  0.00     0.087 C 
BRANCH  11  12
ATOM     12  C   UNL     1      49.861  22.452  19.511  1.00  0.00     0.066 C 
BRANCH  12  13
ATOM     13  C   UNL     1      51.212  22.446  18.802  1.00  0.00     0.140 C 
ATOM     14  O   UNL     1      51.640  21.392  18.355  1.00  0.00    -0.299 OA
BRANCH  13  15
ATOM     15  C   UNL     1      52.095  23.672  18.786  1.00  0.00     0.106 CG0
ATOM     16  G   UNL     1      51.528  24.865  18.019  1.00  0.00     0.000 G0
ENDBRANCH  13  15
ENDBRANCH  12  13
BRANCH  12  17
ATOM     17  C   UNL     1      49.283  21.001  19.595  1.00  0.00    -0.006 C 
ATOM     18  C   UNL     1      47.846  20.941  19.043  1.00  0.00     0.008 C 
ATOM     19  C   UNL     1      49.281  20.450  21.034  1.00  0.00     0.008 C 
ENDBRANCH  12  17
ENDBRANCH  11  12
ENDBRANCH   1  11
TORSDOF 1
ENDMDL
MODEL 2
REMARK VINA RESULT:    -3.881      1.538      3.809
REMARK INTER + INTRA:          -5.806
REMARK INTER:                  -5.956
REMARK INTRA:                   0.150
REMARK UNBOUND:                 0.118
REMARK SMILES CC1=CCC[C@H](C)C(=O)C[C@H](C(C)C)C(=O)C1
REMARK SMILES IDX 8 1 9 2 6 3 7 4 5 5 4 6 3 7 2 8 1 9 10 11 11 12 15 13 16 14
REMARK SMILES IDX 17 15 12 17 13 18 14 19
REMARK H PARENT
REMARK Flexibility Score: 70.00
ROOT
ATOM      1  C   UNL     1      51.237  23.331  18.334  1.00  0.00     0.136 C 
ATOM      2  O   UNL     1      52.224  22.679  18.646  1.00  0.00    -0.299 OA
ENDROOT
BRANCH   1   3
ATOM      3  C   UNL     1      51.433  24.664  17.632  1.00  0.00     0.053 C 
ATOM      4  C   UNL     1      51.326  24.492  16.113  1.00  0.00     0.016 C 
BRANCH   3   5
ATOM      5  C   UNL     1      50.449  25.739  18.135  1.00  0.00     0.015 C 
BRANCH   5   6
ATOM      6  C   UNL     1      50.972  26.448  19.397  1.00  0.00     0.028 C 
BRANCH   6   7
ATOM      7  C   UNL     1      49.885  26.775  20.389  1.00  0.00    -0.028 C 
ATOM      8  C   UNL     1      49.458  25.975  21.400  1.00  0.00    -0.070 CG0
ATOM      9  C   UNL     1      48.447  26.556  22.358  1.00  0.00     0.039 C 
ATOM     10  G   UNL     1      49.871  24.517  21.581  1.00  0.00     0.000 G0
ENDBRANCH   6   7
ENDBRANCH   5   6
ENDBRANCH   3   5
ENDBRANCH   1   3
BRANCH   1  11
ATOM     11  C   UNL     1      49.866  22.755  18.608  1.00  0.00     0.087 C 
BRANCH  11  12
ATOM     12  C   UNL     1      49.661  22.354  20.095  1.00  0.00     0.066 C 
BRANCH  12  13
ATOM     13  C   UNL     1      49.022  23.485  20.895  1.00  0.00     0.140 C 
ATOM     14  O   UNL     1      47.811  23.638  20.841  1.00  0.00    -0.299 OA
BRANCH  13  15
ATOM     15  C   UNL     1      49.867  24.511  21.617  1.00  0.00     0.106 CG0
ATOM     16  G   UNL     1      49.441  25.961  21.402  1.00  0.00     0.000 G0
ENDBRANCH  13  15
ENDBRANCH  12  13
BRANCH  12  17
ATOM     17  C   UNL     1      48.830  21.038  20.253  1.00  0.00    -0.006 C 
ATOM     18  C   UNL     1      49.722  19.793  20.092  1.00  0.00     0.008 C 
ATOM     19  C   UNL     1      47.671  20.948  19.242  1.00  0.00     0.008 C 
ENDBRANCH  12  17
ENDBRANCH  11  12
ENDBRANCH   1  11
TORSDOF 1
ENDMDL
MODEL 3
REMARK VINA RESULT:    -3.864      2.084      4.764
REMARK INTER + INTRA:          -5.780
REMARK INTER:                  -5.603
REMARK INTRA:                  -0.177
REMARK UNBOUND:                 0.118
REMARK SMILES CC1=CCC[C@H](C)C(=O)C[C@H](C(C)C)C(=O)C1
REMARK SMILES IDX 8 1 9 2 6 3 7 4 5 5 4 6 3 7 2 8 1 9 10 11 11 12 15 13 16 14
REMARK SMILES IDX 17 15 12 17 13 18 14 19
REMARK H PARENT
REMARK Flexibility Score: 70.00
ROOT
ATOM      1  C   UNL     1      50.952  22.914  19.040  1.00  0.00     0.136 C 
ATOM      2  O   UNL     1      51.147  21.877  18.421  1.00  0.00    -0.299 OA
ENDROOT
BRANCH   1   3
ATOM      3  C   UNL     1      49.731  23.012  19.938  1.00  0.00     0.053 C 
ATOM      4  C   UNL     1      49.125  21.624  20.175  1.00  0.00     0.016 C 
BRANCH   3   5
ATOM      5  C   UNL     1      50.044  23.712  21.276  1.00  0.00     0.015 C 
BRANCH   5   6
ATOM      6  C   UNL     1      49.100  24.899  21.536  1.00  0.00     0.028 C 
BRANCH   6   7
ATOM      7  C   UNL     1      49.794  26.089  22.147  1.00  0.00    -0.028 C 
ATOM      8  C   UNL     1      50.292  27.157  21.473  1.00  0.00    -0.070 CG0
ATOM      9  C   UNL     1      50.831  28.302  22.297  1.00  0.00     0.039 C 
ATOM     10  G   UNL     1      50.412  27.241  19.954  1.00  0.00     0.000 G0
ENDBRANCH   6   7
ENDBRANCH   5   6
ENDBRANCH   3   5
ENDBRANCH   1   3
BRANCH   1  11
ATOM     11  C   UNL     1      51.965  24.031  18.928  1.00  0.00     0.087 C 
BRANCH  11  12
ATOM     12  C   UNL     1      51.360  25.349  18.371  1.00  0.00     0.066 C 
BRANCH  12  13
ATOM     13  C   UNL     1      51.581  26.515  19.330  1.00  0.00     0.140 C 
ATOM     14  O   UNL     1      52.716  26.759  19.712  1.00  0.00    -0.299 OA
BRANCH  13  15
ATOM     15  C   UNL     1      50.416  27.263  19.939  1.00  0.00     0.106 CG0
ATOM     16  G   UNL     1      50.291  27.136  21.455  1.00  0.00     0.000 G0
ENDBRANCH  13  15
ENDBRANCH  12  13
BRANCH  12  17
ATOM     17  C   UNL     1      51.902  25.704  16.947  1.00  0.00    -0.006 C 
ATOM     18  C   UNL     1      51.125  26.883  16.333  1.00  0.00     0.008 C 
ATOM     19  C   UNL     1      51.835  24.510  15.977  1.00  0.00     0.008 C 
ENDBRANCH  12  17
ENDBRANCH  11  12
ENDBRANCH   1  11
TORSDOF 1
ENDMDL
MODEL 4
REMARK VINA RESULT:    -3.803      2.120      2.857
REMARK INTER + INTRA:          -5.687
REMARK INTER:                  -5.282
REMARK INTRA:                  -0.405
REMARK UNBOUND:                 0.118
REMARK SMILES CC1=CCC[C@H](C)C(=O)C[C@H](C(C)C)C(=O)C1
REMARK SMILES IDX 8 1 9 2 6 3 7 4 5 5 4 6 3 7 2 8 1 9 10 11 11 12 15 13 16 14
REMARK SMILES IDX 17 15 12 17 13 18 14 19
REMARK H PARENT
REMARK Flexibility Score: 70.00
ROOT
ATOM      1  C   UNL     1      52.013  25.320  20.559  1.00  0.00     0.136 C 
ATOM      2  O   UNL     1      53.031  25.745  21.085  1.00  0.00    -0.299 OA
ENDROOT
BRANCH   1   3
ATOM      3  C   UNL     1      50.688  25.988  20.883  1.00  0.00     0.053 C 
ATOM      4  C   UNL     1      50.232  25.619  22.299  1.00  0.00     0.016 C 
BRANCH   3   5
ATOM      5  C   UNL     1      50.745  27.518  20.704  1.00  0.00     0.015 C 
BRANCH   5   6
ATOM      6  C   UNL     1      50.223  27.953  19.323  1.00  0.00     0.028 C 
BRANCH   6   7
ATOM      7  C   UNL     1      51.309  28.066  18.284  1.00  0.00    -0.028 C 
ATOM      8  C   UNL     1      51.430  27.304  17.167  1.00  0.00    -0.070 CG0
ATOM      9  C   UNL     1      52.522  27.675  16.193  1.00  0.00     0.039 C 
ATOM     10  G   UNL     1      50.592  26.061  16.874  1.00  0.00     0.000 G0
ENDBRANCH   6   7
ENDBRANCH   5   6
ENDBRANCH   3   5
ENDBRANCH   1   3
BRANCH   1  11
ATOM     11  C   UNL     1      52.125  24.186  19.564  1.00  0.00     0.087 C 
BRANCH  11  12
ATOM     12  C   UNL     1      50.905  24.094  18.606  1.00  0.00     0.066 C 
BRANCH  12  13
ATOM     13  C   UNL     1      51.202  24.742  17.258  1.00  0.00     0.140 C 
ATOM     14  O   UNL     1      52.059  24.246  16.540  1.00  0.00    -0.299 OA
BRANCH  13  15
ATOM     15  C   UNL     1      50.582  26.064  16.868  1.00  0.00     0.106 CG0
ATOM     16  G   UNL     1      51.443  27.290  17.161  1.00  0.00     0.000 G0
ENDBRANCH  13  15
ENDBRANCH  12  13
BRANCH  12  17
ATOM     17  C   UNL     1      50.408  22.624  18.407  1.00  0.00    -0.006 C 
ATOM     18  C   UNL     1      49.382  22.231  19.486  1.00  0.00     0.008 C 
ATOM     19  C   UNL     1      51.562  21.603  18.431  1.00  0.00     0.008 C 
ENDBRANCH  12  17
ENDBRANCH  11  12
ENDBRANCH   1  11
TORSDOF 1
ENDMDL
MODEL 5
REMARK VINA RESULT:    -3.766      2.804      5.357
REMARK INTER + INTRA:          -5.629
REMARK INTER:                  -5.094
REMARK INTRA:                  -0.535
REMARK UNBOUND:                 0.118
REMARK SMILES CC1=CCC[C@H](C)C(=O)C[C@H](C(C)C)C(=O)C1
REMARK SMILES IDX 8 1 9 2 6 3 7 4 5 5 4 6 3 7 2 8 1 9 10 11 11 12 15 13 16 14
REMARK SMILES IDX 17 15 12 17 13 18 14 19
REMARK H PARENT
REMARK Flexibility Score: 70.00
ROOT
ATOM      1  C   UNL     1      51.942  25.331  19.935  1.00  0.00     0.136 C 
ATOM      2  O   UNL     1      52.829  25.139  20.755  1.00  0.00    -0.299 OA
ENDROOT
BRANCH   1   3
ATOM      3  C   UNL     1      50.853  24.283  19.777  1.00  0.00     0.053 C 
ATOM      4  C   UNL     1      51.405  23.037  19.077  1.00  0.00     0.016 C 
BRANCH   3   5
ATOM      5  C   UNL     1      50.197  23.915  21.123  1.00  0.00     0.015 C 
BRANCH   5   6
ATOM      6  C   UNL     1      49.840  25.164  21.947  1.00  0.00     0.028 C 
BRANCH   6   7
ATOM      7  C   UNL     1      48.508  25.762  21.574  1.00  0.00    -0.028 C 
ATOM      8  C   UNL     1      48.314  26.881  20.829  1.00  0.00    -0.070 CG0
ATOM      9  C   UNL     1      46.890  27.228  20.464  1.00  0.00     0.039 C 
ATOM     10  G   UNL     1      49.423  27.842  20.408  1.00  0.00     0.000 G0
ENDBRANCH   6   7
ENDBRANCH   5   6
ENDBRANCH   3   5
ENDBRANCH   1   3
BRANCH   1  11
ATOM     11  C   UNL     1      51.935  26.628  19.158  1.00  0.00     0.087 C 
BRANCH  11  12
ATOM     12  C   UNL     1      50.653  26.818  18.301  1.00  0.00     0.066 C 
BRANCH  12  13
ATOM     13  C   UNL     1      49.725  27.865  18.908  1.00  0.00     0.140 C 
ATOM     14  O   UNL     1      49.331  28.784  18.205  1.00  0.00    -0.299 OA
BRANCH  13  15
ATOM     15  C   UNL     1      49.419  27.880  20.388  1.00  0.00     0.106 CG0
ATOM     16  G   UNL     1      48.339  26.897  20.832  1.00  0.00     0.000 G0
ENDBRANCH  13  15
ENDBRANCH  12  13
BRANCH  12  17
ATOM     17  C   UNL     1      50.974  27.170  16.811  1.00  0.00    -0.006 C 
ATOM     18  C   UNL     1      50.868  25.927  15.909  1.00  0.00     0.008 C 
ATOM     19  C   UNL     1      52.376  27.786  16.640  1.00  0.00     0.008 C 
ENDBRANCH  12  17
ENDBRANCH  11  12
ENDBRANCH   1  11
TORSDOF 1
ENDMDL
MODEL 6
REMARK VINA RESULT:    -3.732      1.529      2.114
REMARK INTER + INTRA:          -5.578
REMARK INTER:                  -5.543
REMARK INTRA:                  -0.035
REMARK UNBOUND:                 0.118
REMARK SMILES CC1=CCC[C@H](C)C(=O)C[C@H](C(C)C)C(=O)C1
REMARK SMILES IDX 8 1 9 2 6 3 7 4 5 5 4 6 3 7 2 8 1 9 10 11 11 12 15 13 16 14
REMARK SMILES IDX 17 15 12 17 13 18 14 19
REMARK H PARENT
REMARK Flexibility Score: 70.00
ROOT
ATOM      1  C   UNL     1      50.030  25.283  21.370  1.00  0.00     0.136 C 
ATOM      2  O   UNL     1      49.037  24.999  22.024  1.00  0.00    -0.299 OA
ENDROOT
BRANCH   1   3
ATOM      3  C   UNL     1      50.586  26.694  21.457  1.00  0.00     0.053 C 
ATOM      4  C   UNL     1      49.610  27.611  22.203  1.00  0.00     0.016 C 
BRANCH   3   5
ATOM      5  C   UNL     1      51.984  26.732  22.107  1.00  0.00     0.015 C 
BRANCH   5   6
ATOM      6  C   UNL     1      53.105  26.760  21.053  1.00  0.00     0.028 C 
BRANCH   6   7
ATOM      7  C   UNL     1      52.701  27.449  19.774  1.00  0.00    -0.028 C 
ATOM      8  C   UNL     1      52.242  26.842  18.650  1.00  0.00    -0.070 CG0
ATOM      9  C   UNL     1      51.770  27.736  17.528  1.00  0.00     0.039 C 
ATOM     10  G   UNL     1      52.245  25.333  18.420  1.00  0.00     0.000 G0
ENDBRANCH   6   7
ENDBRANCH   5   6
ENDBRANCH   3   5
ENDBRANCH   1   3
BRANCH   1  11
ATOM     11  C   UNL     1      50.696  24.201  20.548  1.00  0.00     0.087 C 
BRANCH  11  12
ATOM     12  C   UNL     1      50.067  24.036  19.137  1.00  0.00     0.066 C 
BRANCH  12  13
ATOM     13  C   UNL     1      50.911  24.719  18.066  1.00  0.00     0.140 C 
ATOM     14  O   UNL     1      50.552  24.653  16.899  1.00  0.00    -0.299 OA
BRANCH  13  15
ATOM     15  C   UNL     1      52.254  25.329  18.395  1.00  0.00     0.106 CG0
ATOM     16  G   UNL     1      52.230  26.832  18.662  1.00  0.00     0.000 G0
ENDBRANCH  13  15
ENDBRANCH  12  13
BRANCH  12  17
ATOM     17  C   UNL     1      49.819  22.537  18.763  1.00  0.00    -0.006 C 
ATOM     18  C   UNL     1      48.957  21.833  19.827  1.00  0.00     0.008 C 
ATOM     19  C   UNL     1      51.130  21.748  18.589  1.00  0.00     0.008 C 
ENDBRANCH  12  17
ENDBRANCH  11  12
ENDBRANCH   1  11
TORSDOF 1
ENDMDL
MODEL 7
REMARK VINA RESULT:    -3.662      9.463     11.348
REMARK INTER + INTRA:          -5.471
REMARK INTER:                  -5.098
REMARK INTRA:                  -0.373
REMARK UNBOUND:                 0.118
REMARK SMILES CC1=CCC[C@H](C)C(=O)C[C@H](C(C)C)C(=O)C1
REMARK SMILES IDX 8 1 9 2 6 3 7 4 5 5 4 6 3 7 2 8 1 9 10 11 11 12 15 13 16 14
REMARK SMILES IDX 17 15 12 17 13 18 14 19
REMARK H PARENT
REMARK Flexibility Score: 70.00
ROOT
ATOM      1  C   UNL     1      41.709  21.351  22.896  1.00  0.00     0.136 C 
ATOM      2  O   UNL     1      41.085  20.715  22.058  1.00  0.00    -0.299 OA
ENDROOT
BRANCH   1   3
ATOM      3  C   UNL     1      42.887  22.197  22.444  1.00  0.00     0.053 C 
ATOM      4  C   UNL     1      44.078  21.306  22.074  1.00  0.00     0.016 C 
BRANCH   3   5
ATOM      5  C   UNL     1      42.519  23.137  21.278  1.00  0.00     0.015 C 
BRANCH   5   6
ATOM      6  C   UNL     1      41.580  24.270  21.731  1.00  0.00     0.028 C 
BRANCH   6   7
ATOM      7  C   UNL     1      40.181  24.137  21.185  1.00  0.00    -0.028 C 
ATOM      8  C   UNL     1      39.033  24.194  21.907  1.00  0.00    -0.070 CG0
ATOM      9  C   UNL     1      37.734  24.169  21.138  1.00  0.00     0.039 C 
ATOM     10  G   UNL     1      38.970  24.202  23.432  1.00  0.00     0.000 G0
ENDBRANCH   6   7
ENDBRANCH   5   6
ENDBRANCH   3   5
ENDBRANCH   1   3
BRANCH   1  11
ATOM     11  C   UNL     1      41.244  21.314  24.334  1.00  0.00     0.087 C 
BRANCH  11  12
ATOM     12  C   UNL     1      40.615  22.654  24.806  1.00  0.00     0.066 C 
BRANCH  12  13
ATOM     13  C   UNL     1      39.264  22.901  24.142  1.00  0.00     0.140 C 
ATOM     14  O   UNL     1      38.471  21.975  24.052  1.00  0.00    -0.299 OA
BRANCH  13  15
ATOM     15  C   UNL     1      38.954  24.212  23.455  1.00  0.00     0.106 CG0
ATOM     16  G   UNL     1      39.052  24.178  21.931  1.00  0.00     0.000 G0
ENDBRANCH  13  15
ENDBRANCH  12  13
BRANCH  12  17
ATOM     17  C   UNL     1      40.482  22.740  26.362  1.00  0.00    -0.006 C 
ATOM     18  C   UNL     1      41.403  23.831  26.941  1.00  0.00     0.008 C 
ATOM     19  C   UNL     1      40.805  21.403  27.056  1.00  0.00     0.008 C 
ENDBRANCH  12  17
ENDBRANCH  11  12
ENDBRANCH   1  11
TORSDOF 1
ENDMDL
MODEL 8
REMARK VINA RESULT:    -3.590      1.988      4.368
REMARK INTER + INTRA:          -5.362
REMARK INTER:                  -5.075
REMARK INTRA:                  -0.286
REMARK UNBOUND:                 0.118
REMARK SMILES CC1=CCC[C@H](C)C(=O)C[C@H](C(C)C)C(=O)C1
REMARK SMILES IDX 8 1 9 2 6 3 7 4 5 5 4 6 3 7 2 8 1 9 10 11 11 12 15 13 16 14
REMARK SMILES IDX 17 15 12 17 13 18 14 19
REMARK H PARENT
REMARK Flexibility Score: 70.00
ROOT
ATOM      1  C   UNL     1      50.638  27.481  20.158  1.00  0.00     0.136 C 
ATOM      2  O   UNL     1      50.517  28.698  20.123  1.00  0.00    -0.299 OA
ENDROOT
BRANCH   1   3
ATOM      3  C   UNL     1      50.952  26.815  21.487  1.00  0.00     0.053 C 
ATOM      4  C   UNL     1      51.033  27.860  22.605  1.00  0.00     0.016 C 
BRANCH   3   5
ATOM      5  C   UNL     1      49.938  25.708  21.839  1.00  0.00     0.015 C 
BRANCH   5   6
ATOM      6  C   UNL     1      50.548  24.304  21.686  1.00  0.00     0.028 C 
BRANCH   6   7
ATOM      7  C   UNL     1      49.765  23.413  20.755  1.00  0.00    -0.028 C 
ATOM      8  C   UNL     1      50.199  22.918  19.568  1.00  0.00    -0.070 CG0
ATOM      9  C   UNL     1      49.297  21.937  18.859  1.00  0.00     0.039 C 
ATOM     10  G   UNL     1      51.489  23.347  18.873  1.00  0.00     0.000 G0
ENDBRANCH   6   7
ENDBRANCH   5   6
ENDBRANCH   3   5
ENDBRANCH   1   3
BRANCH   1  11
ATOM     11  C   UNL     1      50.412  26.689  18.890  1.00  0.00     0.087 C 
BRANCH  11  12
ATOM     12  C   UNL     1      51.684  25.940  18.406  1.00  0.00     0.066 C 
BRANCH  12  13
ATOM     13  C   UNL     1      51.354  24.531  17.924  1.00  0.00     0.140 C 
ATOM     14  O   UNL     1      50.853  24.386  16.819  1.00  0.00    -0.299 OA
BRANCH  13  15
ATOM     15  C   UNL     1      51.481  23.337  18.843  1.00  0.00     0.106 CG0
ATOM     16  G   UNL     1      50.198  22.948  19.574  1.00  0.00     0.000 G0
ENDBRANCH  13  15
ENDBRANCH  12  13
BRANCH  12  17
ATOM     17  C   UNL     1      52.459  26.727  17.298  1.00  0.00    -0.006 C 
ATOM     18  C   UNL     1      53.490  27.690  17.916  1.00  0.00     0.008 C 
ATOM     19  C   UNL     1      51.519  27.533  16.381  1.00  0.00     0.008 C 
ENDBRANCH  12  17
ENDBRANCH  11  12
ENDBRANCH   1  11
TORSDOF 1
ENDMDL
MODEL 9
REMARK VINA RESULT:    -3.483      1.927      4.451
REMARK INTER + INTRA:          -5.197
REMARK INTER:                  -5.213
REMARK INTRA:                   0.015
REMARK UNBOUND:                 0.118
REMARK SMILES CC1=CCC[C@H](C)C(=O)C[C@H](C(C)C)C(=O)C1
REMARK SMILES IDX 8 1 9 2 6 3 7 4 5 5 4 6 3 7 2 8 1 9 10 11 11 12 15 13 16 14
REMARK SMILES IDX 17 15 12 17 13 18 14 19
REMARK H PARENT
REMARK Flexibility Score: 70.00
ROOT
ATOM      1  C   UNL     1      49.400  24.312  20.200  1.00  0.00     0.136 C 
ATOM      2  O   UNL     1      48.366  23.858  20.671  1.00  0.00    -0.299 OA
ENDROOT
BRANCH   1   3
ATOM      3  C   UNL     1      50.288  23.402  19.370  1.00  0.00     0.053 C 
ATOM      4  C   UNL     1      50.022  21.932  19.714  1.00  0.00     0.016 C 
BRANCH   3   5
ATOM      5  C   UNL     1      50.129  23.652  17.857  1.00  0.00     0.015 C 
BRANCH   5   6
ATOM      6  C   UNL     1      51.449  24.105  17.209  1.00  0.00     0.028 C 
BRANCH   6   7
ATOM      7  C   UNL     1      51.296  25.324  16.336  1.00  0.00    -0.028 C 
ATOM      8  C   UNL     1      51.771  26.566  16.607  1.00  0.00    -0.070 CG0
ATOM      9  C   UNL     1      51.618  27.613  15.530  1.00  0.00     0.039 C 
ATOM     10  G   UNL     1      52.370  26.989  17.946  1.00  0.00     0.000 G0
ENDBRANCH   6   7
ENDBRANCH   5   6
ENDBRANCH   3   5
ENDBRANCH   1   3
BRANCH   1  11
ATOM     11  C   UNL     1      49.718  25.775  20.417  1.00  0.00     0.087 C 
BRANCH  11  12
ATOM     12  C   UNL     1      51.212  26.117  20.159  1.00  0.00     0.066 C 
BRANCH  12  13
ATOM     13  C   UNL     1      51.363  27.172  19.067  1.00  0.00     0.140 C 
ATOM     14  O   UNL     1      50.564  28.096  19.023  1.00  0.00    -0.299 OA
BRANCH  13  15
ATOM     15  C   UNL     1      52.371  27.009  17.952  1.00  0.00     0.106 CG0
ATOM     16  G   UNL     1      51.784  26.575  16.612  1.00  0.00     0.000 G0
ENDBRANCH  13  15
ENDBRANCH  12  13
BRANCH  12  17
ATOM     17  C   UNL     1      51.957  26.567  21.459  1.00  0.00    -0.006 C 
ATOM     18  C   UNL     1      51.046  27.427  22.355  1.00  0.00     0.008 C 
ATOM     19  C   UNL     1      53.242  27.361  21.157  1.00  0.00     0.008 C 
ENDBRANCH  12  17
ENDBRANCH  11  12
ENDBRANCH   1  11
TORSDOF 1
ENDMDL
