MODEL 1
REMARK VINA RESULT:    -2.950      0.000      0.000
REMARK INTER + INTRA:          -2.950
REMARK INTER:                  -2.950
REMARK INTRA:                   0.000
REMARK UNBOUND:                 0.000
REMARK SMILES CC(=O)[O-]
REMARK SMILES IDX 1 1 2 2 3 3 4 4
REMARK H PARENT
REMARK Flexibility Score: inf
ROOT
ATOM      1  C   UNL     1      39.025  40.540  45.834  1.00  0.00     0.063 C 
ATOM      2  C   UNL     1      37.719  40.056  45.303  1.00  0.00     0.038 C 
ATOM      3  O   UNL     1      36.699  40.791  45.366  1.00  0.00    -0.550 OA
ATOM      4  O   UNL     1      37.610  38.770  44.787  1.00  0.00    -0.550 OA
ENDROOT
TORSDOF 0
ENDMDL
MODEL 2
REMARK VINA RESULT:    -2.905      1.375      2.073
REMARK INTER + INTRA:          -2.905
REMARK INTER:                  -2.905
REMARK INTRA:                   0.000
REMARK UNBOUND:                 0.000
REMARK SMILES CC(=O)[O-]
REMARK SMILES IDX 1 1 2 2 3 3 4 4
REMARK H PARENT
REMARK Flexibility Score: inf
ROOT
ATOM      1  C   UNL     1      36.573  40.797  45.456  1.00  0.00     0.063 C 
ATOM      2  C   UNL     1      37.802  39.980  45.241  1.00  0.00     0.038 C 
ATOM      3  O   UNL     1      37.710  38.803  44.803  1.00  0.00    -0.550 OA
ATOM      4  O   UNL     1      39.048  40.496  45.574  1.00  0.00    -0.550 OA
ENDROOT
TORSDOF 0
ENDMDL
MODEL 3
REMARK VINA RESULT:    -2.826      1.338      1.687
REMARK INTER + INTRA:          -2.826
REMARK INTER:                  -2.826
REMARK INTRA:                   0.000
REMARK UNBOUND:                 0.000
REMARK SMILES CC(=O)[O-]
REMARK SMILES IDX 1 1 2 2 3 3 4 4
REMARK H PARENT
REMARK Flexibility Score: inf
ROOT
ATOM      1  C   UNL     1      36.553  40.831  45.462  1.00  0.00     0.063 C 
ATOM      2  C   UNL     1      37.789  40.017  45.280  1.00  0.00     0.038 C 
ATOM      3  O   UNL     1      38.915  40.507  45.556  1.00  0.00    -0.550 OA
ATOM      4  O   UNL     1      37.707  38.733  44.755  1.00  0.00    -0.550 OA
ENDROOT
TORSDOF 0
ENDMDL
MODEL 4
REMARK VINA RESULT:    -2.797     15.071     15.499
REMARK INTER + INTRA:          -2.797
REMARK INTER:                  -2.797
REMARK INTRA:                   0.000
REMARK UNBOUND:                 0.000
REMARK SMILES CC(=O)[O-]
REMARK SMILES IDX 1 1 2 2 3 3 4 4
REMARK H PARENT
REMARK Flexibility Score: inf
ROOT
ATOM      1  C   UNL     1      29.028  53.696  45.484  1.00  0.00     0.063 C 
ATOM      2  C   UNL     1      29.535  52.904  46.641  1.00  0.00     0.038 C 
ATOM      3  O   UNL     1      29.006  51.798  46.930  1.00  0.00    -0.550 OA
ATOM      4  O   UNL     1      30.556  53.408  47.437  1.00  0.00    -0.550 OA
ENDROOT
TORSDOF 0
ENDMDL
MODEL 5
REMARK VINA RESULT:    -2.450     14.286     14.663
REMARK INTER + INTRA:          -2.450
REMARK INTER:                  -2.450
REMARK INTRA:                   0.000
REMARK UNBOUND:                 0.000
REMARK SMILES CC(=O)[O-]
REMARK SMILES IDX 1 1 2 2 3 3 4 4
REMARK H PARENT
REMARK Flexibility Score: inf
ROOT
ATOM      1  C   UNL     1      39.865  53.152  43.225  1.00  0.00     0.063 C 
ATOM      2  C   UNL     1      40.474  53.969  42.136  1.00  0.00     0.038 C 
ATOM      3  O   UNL     1      41.725  54.032  42.017  1.00  0.00    -0.550 OA
ATOM      4  O   UNL     1      39.662  54.707  41.283  1.00  0.00    -0.550 OA
ENDROOT
TORSDOF 0
ENDMDL
MODEL 6
REMARK VINA RESULT:    -2.157     13.837     14.143
REMARK INTER + INTRA:          -2.157
REMARK INTER:                  -2.157
REMARK INTRA:                   0.000
REMARK UNBOUND:                 0.000
REMARK SMILES CC(=O)[O-]
REMARK SMILES IDX 1 1 2 2 3 3 4 4
REMARK H PARENT
REMARK Flexibility Score: inf
ROOT
ATOM      1  C   UNL     1      39.756  52.942  43.348  1.00  0.00     0.063 C 
ATOM      2  C   UNL     1      41.144  53.460  43.177  1.00  0.00     0.038 C 
ATOM      3  O   UNL     1      41.893  53.604  44.179  1.00  0.00    -0.550 OA
ATOM      4  O   UNL     1      41.598  53.835  41.919  1.00  0.00    -0.550 OA
ENDROOT
TORSDOF 0
ENDMDL
MODEL 7
REMARK VINA RESULT:    -2.145     16.559     17.268
REMARK INTER + INTRA:          -2.145
REMARK INTER:                  -2.145
REMARK INTRA:                   0.000
REMARK UNBOUND:                 0.000
REMARK SMILES CC(=O)[O-]
REMARK SMILES IDX 1 1 2 2 3 3 4 4
REMARK H PARENT
REMARK Flexibility Score: inf
ROOT
ATOM      1  C   UNL     1      27.584  54.372  44.007  1.00  0.00     0.063 C 
ATOM      2  C   UNL     1      28.680  54.484  45.013  1.00  0.00     0.038 C 
ATOM      3  O   UNL     1      29.215  53.446  45.483  1.00  0.00    -0.550 OA
ATOM      4  O   UNL     1      29.076  55.733  45.473  1.00  0.00    -0.550 OA
ENDROOT
TORSDOF 0
ENDMDL
MODEL 8
REMARK VINA RESULT:    -2.074     16.198     16.443
REMARK INTER + INTRA:          -2.074
REMARK INTER:                  -2.074
REMARK INTRA:                   0.000
REMARK UNBOUND:                 0.000
REMARK SMILES CC(=O)[O-]
REMARK SMILES IDX 1 1 2 2 3 3 4 4
REMARK H PARENT
REMARK Flexibility Score: inf
ROOT
ATOM      1  C   UNL     1      29.389  52.972  46.450  1.00  0.00     0.063 C 
ATOM      2  C   UNL     1      28.011  53.113  47.001  1.00  0.00     0.038 C 
ATOM      3  O   UNL     1      27.016  53.093  46.230  1.00  0.00    -0.550 OA
ATOM      4  O   UNL     1      27.824  53.321  48.362  1.00  0.00    -0.550 OA
ENDROOT
TORSDOF 0
ENDMDL
MODEL 9
REMARK VINA RESULT:    -2.071     16.198     16.540
REMARK INTER + INTRA:          -2.071
REMARK INTER:                  -2.071
REMARK INTRA:                   0.000
REMARK UNBOUND:                 0.000
REMARK SMILES CC(=O)[O-]
REMARK SMILES IDX 1 1 2 2 3 3 4 4
REMARK H PARENT
REMARK Flexibility Score: inf
ROOT
ATOM      1  C   UNL     1      29.500  53.176  46.381  1.00  0.00     0.063 C 
ATOM      2  C   UNL     1      28.352  53.581  45.520  1.00  0.00     0.038 C 
ATOM      3  O   UNL     1      28.558  54.038  44.365  1.00  0.00    -0.550 OA
ATOM      4  O   UNL     1      27.054  53.506  46.010  1.00  0.00    -0.550 OA
ENDROOT
TORSDOF 0
ENDMDL
