MODEL 1
REMARK VINA RESULT:    -3.810      0.000      0.000
REMARK INTER + INTRA:          -4.159
REMARK INTER:                  -4.144
REMARK INTRA:                  -0.015
REMARK UNBOUND:                -0.015
REMARK SMILES OCc1ccccc1
REMARK SMILES IDX 2 1 3 2 6 3 5 4 7 5 4 6 8 7 1 8
REMARK H PARENT 1 9
REMARK Flexibility Score: inf
ROOT
ATOM      1  C   UNL     1      -2.415  -9.851  33.843  1.00  0.00     0.191 C 
ENDROOT
BRANCH   1   2
ATOM      2  C   UNL     1      -2.231 -11.240  34.388  1.00  0.00    -0.023 A 
ATOM      3  C   UNL     1      -1.910 -13.863  35.331  1.00  0.00     0.000 A 
ATOM      4  C   UNL     1      -0.829 -13.190  34.757  1.00  0.00     0.000 A 
ATOM      5  C   UNL     1      -3.155 -13.233  35.428  1.00  0.00     0.000 A 
ATOM      6  C   UNL     1      -0.988 -11.885  34.280  1.00  0.00     0.006 A 
ATOM      7  C   UNL     1      -3.318 -11.928  34.953  1.00  0.00     0.006 A 
ENDBRANCH   1   2
BRANCH   1   8
ATOM      8  O   UNL     1      -3.621  -9.767  33.133  1.00  0.00    -0.392 OA
ATOM      9  H   UNL     1      -4.303  -9.431  33.772  1.00  0.00     0.211 HD
ENDBRANCH   1   8
TORSDOF 2
ENDMDL
MODEL 2
REMARK VINA RESULT:    -3.781      0.273      1.731
REMARK INTER + INTRA:          -4.128
REMARK INTER:                  -4.114
REMARK INTRA:                  -0.014
REMARK UNBOUND:                -0.015
REMARK SMILES OCc1ccccc1
REMARK SMILES IDX 2 1 3 2 6 3 5 4 7 5 4 6 8 7 1 8
REMARK H PARENT 1 9
REMARK Flexibility Score: inf
ROOT
ATOM      1  C   UNL     1      -2.416  -9.693  33.881  1.00  0.00     0.191 C 
ENDROOT
BRANCH   1   2
ATOM      2  C   UNL     1      -2.135 -11.106  34.312  1.00  0.00    -0.023 A 
ATOM      3  C   UNL     1      -1.592 -13.715  35.188  1.00  0.00     0.000 A 
ATOM      4  C   UNL     1      -2.888 -13.203  35.281  1.00  0.00     0.000 A 
ATOM      5  C   UNL     1      -0.563 -12.925  34.667  1.00  0.00     0.000 A 
ATOM      6  C   UNL     1      -3.160 -11.901  34.851  1.00  0.00     0.006 A 
ATOM      7  C   UNL     1      -0.831 -11.622  34.235  1.00  0.00     0.006 A 
ENDBRANCH   1   2
BRANCH   1   8
ATOM      8  O   UNL     1      -3.630  -9.635  33.182  1.00  0.00    -0.392 OA
ATOM      9  H   UNL     1      -4.063 -10.521  33.292  1.00  0.00     0.211 HD
ENDBRANCH   1   8
TORSDOF 2
ENDMDL
MODEL 3
REMARK VINA RESULT:    -3.759      1.435      2.532
REMARK INTER + INTRA:          -4.104
REMARK INTER:                  -4.086
REMARK INTRA:                  -0.018
REMARK UNBOUND:                -0.015
REMARK SMILES OCc1ccccc1
REMARK SMILES IDX 2 1 3 2 6 3 5 4 7 5 4 6 8 7 1 8
REMARK H PARENT 1 9
REMARK Flexibility Score: inf
ROOT
ATOM      1  C   UNL     1      -3.253  -8.199  33.973  1.00  0.00     0.191 C 
ENDROOT
BRANCH   1   2
ATOM      2  C   UNL     1      -2.779  -9.623  34.073  1.00  0.00    -0.023 A 
ATOM      3  C   UNL     1      -1.887 -12.269  34.338  1.00  0.00     0.000 A 
ATOM      4  C   UNL     1      -3.253 -11.983  34.403  1.00  0.00     0.000 A 
ATOM      5  C   UNL     1      -0.964 -11.236  34.151  1.00  0.00     0.000 A 
ATOM      6  C   UNL     1      -3.699 -10.664  34.277  1.00  0.00     0.006 A 
ATOM      7  C   UNL     1      -1.406  -9.916  34.024  1.00  0.00     0.006 A 
ENDBRANCH   1   2
BRANCH   1   8
ATOM      8  O   UNL     1      -4.462  -8.044  34.666  1.00  0.00    -0.392 OA
ATOM      9  H   UNL     1      -4.225  -7.843  35.609  1.00  0.00     0.211 HD
ENDBRANCH   1   8
TORSDOF 2
ENDMDL
MODEL 4
REMARK VINA RESULT:    -3.714     17.822     18.122
REMARK INTER + INTRA:          -4.055
REMARK INTER:                  -4.039
REMARK INTRA:                  -0.017
REMARK UNBOUND:                -0.015
REMARK SMILES OCc1ccccc1
REMARK SMILES IDX 2 1 3 2 6 3 5 4 7 5 4 6 8 7 1 8
REMARK H PARENT 1 9
REMARK Flexibility Score: inf
ROOT
ATOM      1  C   UNL     1      -3.779  -6.204  51.221  1.00  0.00     0.191 C 
ENDROOT
BRANCH   1   2
ATOM      2  C   UNL     1      -2.481  -6.802  51.688  1.00  0.00    -0.023 A 
ATOM      3  C   UNL     1      -0.069  -7.881  52.631  1.00  0.00     0.000 A 
ATOM      4  C   UNL     1      -1.257  -8.603  52.768  1.00  0.00     0.000 A 
ATOM      5  C   UNL     1      -0.082  -6.617  52.033  1.00  0.00     0.000 A 
ATOM      6  C   UNL     1      -2.462  -8.064  52.304  1.00  0.00     0.006 A 
ATOM      7  C   UNL     1      -1.285  -6.076  51.568  1.00  0.00     0.006 A 
ENDBRANCH   1   2
BRANCH   1   8
ATOM      8  O   UNL     1      -4.676  -7.221  50.861  1.00  0.00    -0.392 OA
ATOM      9  H   UNL     1      -5.499  -6.770  50.538  1.00  0.00     0.211 HD
ENDBRANCH   1   8
TORSDOF 2
ENDMDL
MODEL 5
REMARK VINA RESULT:    -3.714     17.710     17.967
REMARK INTER + INTRA:          -4.055
REMARK INTER:                  -4.039
REMARK INTRA:                  -0.016
REMARK UNBOUND:                -0.015
REMARK SMILES OCc1ccccc1
REMARK SMILES IDX 2 1 3 2 6 3 5 4 7 5 4 6 8 7 1 8
REMARK H PARENT 1 9
REMARK Flexibility Score: inf
ROOT
ATOM      1  C   UNL     1      -3.981  -6.145  50.637  1.00  0.00     0.191 C 
ENDROOT
BRANCH   1   2
ATOM      2  C   UNL     1      -2.745  -6.646  51.333  1.00  0.00    -0.023 A 
ATOM      3  C   UNL     1      -0.419  -7.620  52.562  1.00  0.00     0.000 A 
ATOM      4  C   UNL     1      -0.393  -6.396  51.889  1.00  0.00     0.000 A 
ATOM      5  C   UNL     1      -1.602  -8.364  52.615  1.00  0.00     0.000 A 
ATOM      6  C   UNL     1      -1.549  -5.911  51.270  1.00  0.00     0.006 A 
ATOM      7  C   UNL     1      -2.761  -7.883  51.998  1.00  0.00     0.006 A 
ENDBRANCH   1   2
BRANCH   1   8
ATOM      8  O   UNL     1      -5.125  -6.538  51.345  1.00  0.00    -0.392 OA
ATOM      9  H   UNL     1      -5.059  -6.122  52.244  1.00  0.00     0.211 HD
ENDBRANCH   1   8
TORSDOF 2
ENDMDL
MODEL 6
REMARK VINA RESULT:    -3.665      2.144      3.426
REMARK INTER + INTRA:          -4.002
REMARK INTER:                  -3.984
REMARK INTRA:                  -0.018
REMARK UNBOUND:                -0.015
REMARK SMILES OCc1ccccc1
REMARK SMILES IDX 2 1 3 2 6 3 5 4 7 5 4 6 8 7 1 8
REMARK H PARENT 1 9
REMARK Flexibility Score: inf
ROOT
ATOM      1  C   UNL     1      -3.860 -13.052  37.127  1.00  0.00     0.191 C 
ENDROOT
BRANCH   1   2
ATOM      2  C   UNL     1      -3.237 -12.399  35.924  1.00  0.00    -0.023 A 
ATOM      3  C   UNL     1      -2.133 -11.213  33.634  1.00  0.00     0.000 A 
ATOM      4  C   UNL     1      -3.069 -10.514  34.400  1.00  0.00     0.000 A 
ATOM      5  C   UNL     1      -1.753 -12.507  34.002  1.00  0.00     0.000 A 
ATOM      6  C   UNL     1      -3.625 -11.105  35.539  1.00  0.00     0.006 A 
ATOM      7  C   UNL     1      -2.307 -13.102  35.141  1.00  0.00     0.006 A 
ENDBRANCH   1   2
BRANCH   1   8
ATOM      8  O   UNL     1      -5.125 -12.500  37.374  1.00  0.00    -0.392 OA
ATOM      9  H   UNL     1      -5.092 -12.116  38.289  1.00  0.00     0.211 HD
ENDBRANCH   1   8
TORSDOF 2
ENDMDL
MODEL 7
REMARK VINA RESULT:    -3.661      2.146      3.180
REMARK INTER + INTRA:          -3.998
REMARK INTER:                  -3.981
REMARK INTRA:                  -0.017
REMARK UNBOUND:                -0.015
REMARK SMILES OCc1ccccc1
REMARK SMILES IDX 2 1 3 2 6 3 5 4 7 5 4 6 8 7 1 8
REMARK H PARENT 1 9
REMARK Flexibility Score: inf
ROOT
ATOM      1  C   UNL     1      -3.831 -12.993  37.153  1.00  0.00     0.191 C 
ENDROOT
BRANCH   1   2
ATOM      2  C   UNL     1      -3.249 -12.369  35.915  1.00  0.00    -0.023 A 
ATOM      3  C   UNL     1      -2.103 -11.172  33.651  1.00  0.00     0.000 A 
ATOM      4  C   UNL     1      -1.727 -12.465  34.023  1.00  0.00     0.000 A 
ATOM      5  C   UNL     1      -3.044 -10.471  34.412  1.00  0.00     0.000 A 
ATOM      6  C   UNL     1      -2.292 -13.061  35.155  1.00  0.00     0.006 A 
ATOM      7  C   UNL     1      -3.612 -11.064  35.544  1.00  0.00     0.006 A 
ENDBRANCH   1   2
BRANCH   1   8
ATOM      8  O   UNL     1      -5.125 -12.502  37.378  1.00  0.00    -0.392 OA
ATOM      9  H   UNL     1      -5.582 -12.494  36.496  1.00  0.00     0.211 HD
ENDBRANCH   1   8
TORSDOF 2
ENDMDL
MODEL 8
REMARK VINA RESULT:    -3.614     17.668     17.870
REMARK INTER + INTRA:          -3.946
REMARK INTER:                  -3.927
REMARK INTRA:                  -0.019
REMARK UNBOUND:                -0.015
REMARK SMILES OCc1ccccc1
REMARK SMILES IDX 2 1 3 2 6 3 5 4 7 5 4 6 8 7 1 8
REMARK H PARENT 1 9
REMARK Flexibility Score: inf
ROOT
ATOM      1  C   UNL     1      -2.532  -5.091  50.168  1.00  0.00     0.191 C 
ENDROOT
BRANCH   1   2
ATOM      2  C   UNL     1      -2.015  -6.133  51.122  1.00  0.00    -0.023 A 
ATOM      3  C   UNL     1      -1.032  -8.123  52.838  1.00  0.00     0.000 A 
ATOM      4  C   UNL     1      -0.188  -7.100  52.399  1.00  0.00     0.000 A 
ATOM      5  C   UNL     1      -2.364  -8.161  52.415  1.00  0.00     0.000 A 
ATOM      6  C   UNL     1      -0.674  -6.110  51.539  1.00  0.00     0.006 A 
ATOM      7  C   UNL     1      -2.854  -7.173  51.555  1.00  0.00     0.006 A 
ENDBRANCH   1   2
BRANCH   1   8
ATOM      8  O   UNL     1      -1.650  -4.002  50.120  1.00  0.00    -0.392 OA
ATOM      9  H   UNL     1      -2.004  -3.324  50.753  1.00  0.00     0.211 HD
ENDBRANCH   1   8
TORSDOF 2
ENDMDL
MODEL 9
REMARK VINA RESULT:    -1.855      2.189      3.863
REMARK INTER + INTRA:          -2.033
REMARK INTER:                  -2.014
REMARK INTRA:                  -0.019
REMARK UNBOUND:                -0.015
REMARK SMILES OCc1ccccc1
REMARK SMILES IDX 2 1 3 2 6 3 5 4 7 5 4 6 8 7 1 8
REMARK H PARENT 1 9
REMARK Flexibility Score: inf
ROOT
ATOM      1  C   UNL     1      -0.680 -11.823  33.857  1.00  0.00     0.191 C 
ENDROOT
BRANCH   1   2
ATOM      2  C   UNL     1      -1.122 -10.603  34.616  1.00  0.00    -0.023 A 
ATOM      3  C   UNL     1      -1.937  -8.282  35.965  1.00  0.00     0.000 A 
ATOM      4  C   UNL     1      -2.886  -9.101  35.349  1.00  0.00     0.000 A 
ATOM      5  C   UNL     1      -0.580  -8.613  35.902  1.00  0.00     0.000 A 
ATOM      6  C   UNL     1      -2.482 -10.255  34.671  1.00  0.00     0.006 A 
ATOM      7  C   UNL     1      -0.172  -9.767  35.225  1.00  0.00     0.006 A 
ENDBRANCH   1   2
BRANCH   1   8
ATOM      8  O   UNL     1      -1.741 -12.323  33.089  1.00  0.00    -0.392 OA
ATOM      9  H   UNL     1      -2.024 -11.588  32.484  1.00  0.00     0.211 HD
ENDBRANCH   1   8
TORSDOF 2
ENDMDL
