MODEL 1
REMARK VINA RESULT:    -2.397      0.000      0.000
REMARK INTER + INTRA:          -2.722
REMARK INTER:                  -2.677
REMARK INTRA:                  -0.045
REMARK UNBOUND:                -0.045
REMARK SMILES CCCC(=O)[O-]
REMARK SMILES IDX 3 1 4 2 5 3 6 4 2 5 1 6
REMARK H PARENT
REMARK Flexibility Score: inf
ROOT
ATOM      1  C   UNL     1      55.182  18.701  84.931  1.00  0.00     0.052 C 
ENDROOT
BRANCH   1   2
ATOM      2  C   UNL     1      53.776  18.557  85.432  1.00  0.00     0.041 C 
ATOM      3  O   UNL     1      52.816  18.508  84.618  1.00  0.00    -0.550 OA
ATOM      4  O   UNL     1      53.524  18.512  86.797  1.00  0.00    -0.550 OA
ENDBRANCH   1   2
BRANCH   1   5
ATOM      5  C   UNL     1      55.765  17.355  84.481  1.00  0.00     0.003 C 
ATOM      6  C   UNL     1      56.125  16.453  85.661  1.00  0.00     0.004 C 
ENDBRANCH   1   5
TORSDOF 2
ENDMDL
MODEL 2
REMARK VINA RESULT:    -2.383     16.858     17.664
REMARK INTER + INTRA:          -2.707
REMARK INTER:                  -2.697
REMARK INTRA:                  -0.010
REMARK UNBOUND:                -0.045
REMARK SMILES CCCC(=O)[O-]
REMARK SMILES IDX 3 1 4 2 5 3 6 4 2 5 1 6
REMARK H PARENT
REMARK Flexibility Score: inf
ROOT
ATOM      1  C   UNL     1      44.844  30.355  91.512  1.00  0.00     0.052 C 
ENDROOT
BRANCH   1   2
ATOM      2  C   UNL     1      43.658  30.768  92.330  1.00  0.00     0.041 C 
ATOM      3  O   UNL     1      42.589  30.104  92.275  1.00  0.00    -0.550 OA
ATOM      4  O   UNL     1      43.721  31.905  93.125  1.00  0.00    -0.550 OA
ENDBRANCH   1   2
BRANCH   1   5
ATOM      5  C   UNL     1      45.511  31.557  90.831  1.00  0.00     0.003 C 
ATOM      6  C   UNL     1      46.966  31.280  90.456  1.00  0.00     0.004 C 
ENDBRANCH   1   5
TORSDOF 2
ENDMDL
MODEL 3
REMARK VINA RESULT:    -2.364     15.694     16.802
REMARK INTER + INTRA:          -2.685
REMARK INTER:                  -2.672
REMARK INTRA:                  -0.013
REMARK UNBOUND:                -0.045
REMARK SMILES CCCC(=O)[O-]
REMARK SMILES IDX 3 1 4 2 5 3 6 4 2 5 1 6
REMARK H PARENT
REMARK Flexibility Score: inf
ROOT
ATOM      1  C   UNL     1      38.683  20.316  80.177  1.00  0.00     0.052 C 
ENDROOT
BRANCH   1   2
ATOM      2  C   UNL     1      37.702  19.315  80.708  1.00  0.00     0.041 C 
ATOM      3  O   UNL     1      37.095  19.535  81.789  1.00  0.00    -0.550 OA
ATOM      4  O   UNL     1      37.486  18.123  80.028  1.00  0.00    -0.550 OA
ENDBRANCH   1   2
BRANCH   1   5
ATOM      5  C   UNL     1      39.803  19.643  79.372  1.00  0.00     0.003 C 
ATOM      6  C   UNL     1      41.194  20.053  79.854  1.00  0.00     0.004 C 
ENDBRANCH   1   5
TORSDOF 2
ENDMDL
MODEL 4
REMARK VINA RESULT:    -2.341      1.818      2.829
REMARK INTER + INTRA:          -2.660
REMARK INTER:                  -2.618
REMARK INTRA:                  -0.042
REMARK UNBOUND:                -0.045
REMARK SMILES CCCC(=O)[O-]
REMARK SMILES IDX 3 1 4 2 5 3 6 4 2 5 1 6
REMARK H PARENT
REMARK Flexibility Score: inf
ROOT
ATOM      1  C   UNL     1      55.026  17.755  84.935  1.00  0.00     0.052 C 
ENDROOT
BRANCH   1   2
ATOM      2  C   UNL     1      55.136  17.145  86.300  1.00  0.00     0.041 C 
ATOM      3  O   UNL     1      55.368  15.913  86.426  1.00  0.00    -0.550 OA
ATOM      4  O   UNL     1      54.948  17.928  87.431  1.00  0.00    -0.550 OA
ENDBRANCH   1   2
BRANCH   1   5
ATOM      5  C   UNL     1      54.138  19.006  84.942  1.00  0.00     0.003 C 
ATOM      6  C   UNL     1      52.650  18.665  84.856  1.00  0.00     0.004 C 
ENDBRANCH   1   5
TORSDOF 2
ENDMDL
MODEL 5
REMARK VINA RESULT:    -2.316     11.895     12.631
REMARK INTER + INTRA:          -2.632
REMARK INTER:                  -2.577
REMARK INTRA:                  -0.055
REMARK UNBOUND:                -0.045
REMARK SMILES CCCC(=O)[O-]
REMARK SMILES IDX 3 1 4 2 5 3 6 4 2 5 1 6
REMARK H PARENT
REMARK Flexibility Score: inf
ROOT
ATOM      1  C   UNL     1      46.036  18.955  77.880  1.00  0.00     0.052 C 
ENDROOT
BRANCH   1   2
ATOM      2  C   UNL     1      45.698  18.144  76.666  1.00  0.00     0.041 C 
ATOM      3  O   UNL     1      45.678  18.686  75.529  1.00  0.00    -0.550 OA
ATOM      4  O   UNL     1      45.370  16.801  76.794  1.00  0.00    -0.550 OA
ENDBRANCH   1   2
BRANCH   1   5
ATOM      5  C   UNL     1      45.219  20.252  77.943  1.00  0.00     0.003 C 
ATOM      6  C   UNL     1      43.807  20.025  78.482  1.00  0.00     0.004 C 
ENDBRANCH   1   5
TORSDOF 2
ENDMDL
MODEL 6
REMARK VINA RESULT:    -2.301     12.255     12.731
REMARK INTER + INTRA:          -2.616
REMARK INTER:                  -2.605
REMARK INTRA:                  -0.011
REMARK UNBOUND:                -0.045
REMARK SMILES CCCC(=O)[O-]
REMARK SMILES IDX 3 1 4 2 5 3 6 4 2 5 1 6
REMARK H PARENT
REMARK Flexibility Score: inf
ROOT
ATOM      1  C   UNL     1      45.903  18.789  75.416  1.00  0.00     0.052 C 
ENDROOT
BRANCH   1   2
ATOM      2  C   UNL     1      45.654  17.983  76.655  1.00  0.00     0.041 C 
ATOM      3  O   UNL     1      45.644  18.542  77.783  1.00  0.00    -0.550 OA
ATOM      4  O   UNL     1      45.469  16.609  76.566  1.00  0.00    -0.550 OA
ENDBRANCH   1   2
BRANCH   1   5
ATOM      5  C   UNL     1      46.662  20.086  75.725  1.00  0.00     0.003 C 
ATOM      6  C   UNL     1      47.526  20.548  74.553  1.00  0.00     0.004 C 
ENDBRANCH   1   5
TORSDOF 2
ENDMDL
MODEL 7
REMARK VINA RESULT:    -2.297     11.582     12.104
REMARK INTER + INTRA:          -2.611
REMARK INTER:                  -2.591
REMARK INTRA:                  -0.020
REMARK UNBOUND:                -0.045
REMARK SMILES CCCC(=O)[O-]
REMARK SMILES IDX 3 1 4 2 5 3 6 4 2 5 1 6
REMARK H PARENT
REMARK Flexibility Score: inf
ROOT
ATOM      1  C   UNL     1      53.228  19.390  73.111  1.00  0.00     0.052 C 
ENDROOT
BRANCH   1   2
ATOM      2  C   UNL     1      53.276  20.819  73.558  1.00  0.00     0.041 C 
ATOM      3  O   UNL     1      54.279  21.533  73.292  1.00  0.00    -0.550 OA
ATOM      4  O   UNL     1      52.230  21.353  74.300  1.00  0.00    -0.550 OA
ENDBRANCH   1   2
BRANCH   1   5
ATOM      5  C   UNL     1      54.281  18.534  73.826  1.00  0.00     0.003 C 
ATOM      6  C   UNL     1      54.995  17.574  72.875  1.00  0.00     0.004 C 
ENDBRANCH   1   5
TORSDOF 2
ENDMDL
MODEL 8
REMARK VINA RESULT:    -2.193     16.624     17.446
REMARK INTER + INTRA:          -2.494
REMARK INTER:                  -2.456
REMARK INTRA:                  -0.038
REMARK UNBOUND:                -0.045
REMARK SMILES CCCC(=O)[O-]
REMARK SMILES IDX 3 1 4 2 5 3 6 4 2 5 1 6
REMARK H PARENT
REMARK Flexibility Score: inf
ROOT
ATOM      1  C   UNL     1      44.406  31.647  91.675  1.00  0.00     0.052 C 
ENDROOT
BRANCH   1   2
ATOM      2  C   UNL     1      45.550  31.247  90.793  1.00  0.00     0.041 C 
ATOM      3  O   UNL     1      45.887  31.977  89.824  1.00  0.00    -0.550 OA
ATOM      4  O   UNL     1      46.219  30.051  91.018  1.00  0.00    -0.550 OA
ENDBRANCH   1   2
BRANCH   1   5
ATOM      5  C   UNL     1      43.999  30.514  92.626  1.00  0.00     0.003 C 
ATOM      6  C   UNL     1      42.717  29.811  92.178  1.00  0.00     0.004 C 
ENDBRANCH   1   5
TORSDOF 2
ENDMDL
MODEL 9
REMARK VINA RESULT:    -2.179      1.791      2.716
REMARK INTER + INTRA:          -2.479
REMARK INTER:                  -2.440
REMARK INTRA:                  -0.039
REMARK UNBOUND:                -0.045
REMARK SMILES CCCC(=O)[O-]
REMARK SMILES IDX 3 1 4 2 5 3 6 4 2 5 1 6
REMARK H PARENT
REMARK Flexibility Score: inf
ROOT
ATOM      1  C   UNL     1      55.048  17.636  84.801  1.00  0.00     0.052 C 
ENDROOT
BRANCH   1   2
ATOM      2  C   UNL     1      55.104  17.139  86.214  1.00  0.00     0.041 C 
ATOM      3  O   UNL     1      54.640  17.841  87.151  1.00  0.00    -0.550 OA
ATOM      4  O   UNL     1      55.700  15.917  86.500  1.00  0.00    -0.550 OA
ENDBRANCH   1   2
BRANCH   1   5
ATOM      5  C   UNL     1      56.123  18.696  84.529  1.00  0.00     0.003 C 
ATOM      6  C   UNL     1      55.552  20.114  84.517  1.00  0.00     0.004 C 
ENDBRANCH   1   5
TORSDOF 2
ENDMDL
