MODEL 1
REMARK VINA RESULT:    -4.717      0.000      0.000
REMARK INTER + INTRA:          -5.513
REMARK INTER:                  -4.993
REMARK INTRA:                  -0.520
REMARK UNBOUND:                -0.520
REMARK SMILES CC1=CC[C@@]23[C@H]([C@@H](C(C)C)CC[C@H]2C)[C@H]13
REMARK SMILES IDX 14 1 13 2 12 3 11 4 7 5 6 6 5 7 15 8 2 9 3 10 4 11 1 12 8 13
REMARK SMILES IDX 9 14 10 15
REMARK H PARENT
REMARK Flexibility Score: inf
ROOT
ATOM      1  C   UNL     1      32.125  20.876  12.848  1.00  0.00     0.008 C 
ATOM      2  C   UNL     1      31.541  22.192  13.376  1.00  0.00    -0.007 C 
ATOM      3  C   UNL     1      30.155  21.965  14.074  1.00  0.00     0.004 C 
ATOM      4  C   UNL     1      28.956  22.648  13.352  1.00  0.00     0.004 C 
ATOM      5  C   UNL     1      29.209  24.164  13.032  1.00  0.00    -0.004 C 
ATOM      6  C   UNL     1      30.730  24.487  13.004  1.00  0.00     0.007 C 
ATOM      7  C   UNL     1      31.400  23.266  12.272  1.00  0.00    -0.013 C 
ATOM      8  C   UNL     1      31.971  24.652  12.141  1.00  0.00     0.025 C 
ATOM      9  C   UNL     1      31.755  25.041  10.721  1.00  0.00    -0.073 C 
ATOM     10  C   UNL     1      31.241  24.060  10.000  1.00  0.00    -0.027 C 
ATOM     11  C   UNL     1      31.012  22.847  10.825  1.00  0.00     0.035 C 
ATOM     12  C   UNL     1      32.125  26.377  10.157  1.00  0.00     0.039 C 
ENDROOT
BRANCH   5  13
ATOM     13  C   UNL     1      28.380  24.747  11.849  1.00  0.00    -0.014 C 
ATOM     14  C   UNL     1      26.928  24.237  11.870  1.00  0.00     0.007 C 
ATOM     15  C   UNL     1      28.364  26.284  11.894  1.00  0.00     0.007 C 
ENDBRANCH   5  13
TORSDOF 1
ENDMDL
MODEL 2
REMARK VINA RESULT:    -4.588      1.468      3.930
REMARK INTER + INTRA:          -5.377
REMARK INTER:                  -4.881
REMARK INTRA:                  -0.496
REMARK UNBOUND:                -0.520
REMARK SMILES CC1=CC[C@@]23[C@H]([C@@H](C(C)C)CC[C@H]2C)[C@H]13
REMARK SMILES IDX 14 1 13 2 12 3 11 4 7 5 6 6 5 7 15 8 2 9 3 10 4 11 1 12 8 13
REMARK SMILES IDX 9 14 10 15
REMARK H PARENT
REMARK Flexibility Score: inf
ROOT
ATOM      1  C   UNL     1      32.125  22.195  10.419  1.00  0.00     0.008 C 
ATOM      2  C   UNL     1      31.251  23.392  10.025  1.00  0.00    -0.007 C 
ATOM      3  C   UNL     1      32.124  24.639   9.647  1.00  0.00     0.004 C 
ATOM      4  C   UNL     1      31.957  25.852  10.610  1.00  0.00     0.004 C 
ATOM      5  C   UNL     1      30.457  26.241  10.862  1.00  0.00    -0.004 C 
ATOM      6  C   UNL     1      29.508  25.048  10.557  1.00  0.00     0.007 C 
ATOM      7  C   UNL     1      30.240  23.778  11.130  1.00  0.00    -0.013 C 
ATOM      8  C   UNL     1      28.737  23.867  11.128  1.00  0.00     0.025 C 
ATOM      9  C   UNL     1      28.341  23.955  12.560  1.00  0.00    -0.073 C 
ATOM     10  C   UNL     1      29.370  23.829  13.379  1.00  0.00    -0.027 C 
ATOM     11  C   UNL     1      30.638  23.651  12.629  1.00  0.00     0.035 C 
ATOM     12  C   UNL     1      26.927  24.114  13.026  1.00  0.00     0.039 C 
ENDROOT
BRANCH   5  13
ATOM     13  C   UNL     1      30.175  26.996  12.196  1.00  0.00    -0.014 C 
ATOM     14  C   UNL     1      31.376  27.860  12.621  1.00  0.00     0.007 C 
ATOM     15  C   UNL     1      28.938  27.899  12.064  1.00  0.00     0.007 C 
ENDBRANCH   5  13
TORSDOF 1
ENDMDL
MODEL 3
REMARK VINA RESULT:    -4.469      1.347      3.626
REMARK INTER + INTRA:          -5.250
REMARK INTER:                  -5.063
REMARK INTRA:                  -0.187
REMARK UNBOUND:                -0.520
REMARK SMILES CC1=CC[C@@]23[C@H]([C@@H](C(C)C)CC[C@H]2C)[C@H]13
REMARK SMILES IDX 14 1 13 2 12 3 11 4 7 5 6 6 5 7 15 8 2 9 3 10 4 11 1 12 8 13
REMARK SMILES IDX 9 14 10 15
REMARK H PARENT
REMARK Flexibility Score: inf
ROOT
ATOM      1  C   UNL     1      32.118  27.454  12.823  1.00  0.00     0.008 C 
ATOM      2  C   UNL     1      31.213  26.828  11.755  1.00  0.00    -0.007 C 
ATOM      3  C   UNL     1      29.762  27.422  11.814  1.00  0.00     0.004 C 
ATOM      4  C   UNL     1      28.664  26.391  12.209  1.00  0.00     0.004 C 
ATOM      5  C   UNL     1      28.722  25.070  11.363  1.00  0.00    -0.004 C 
ATOM      6  C   UNL     1      30.130  24.865  10.736  1.00  0.00     0.007 C 
ATOM      7  C   UNL     1      31.150  25.286  11.859  1.00  0.00    -0.013 C 
ATOM      8  C   UNL     1      31.491  24.199  10.875  1.00  0.00     0.025 C 
ATOM      9  C   UNL     1      31.546  22.943  11.671  1.00  0.00    -0.073 C 
ATOM     10  C   UNL     1      31.387  23.156  12.965  1.00  0.00    -0.027 C 
ATOM     11  C   UNL     1      31.184  24.598  13.254  1.00  0.00     0.035 C 
ATOM     12  C   UNL     1      31.803  21.592  11.081  1.00  0.00     0.039 C 
ENDROOT
BRANCH   5  13
ATOM     13  C   UNL     1      28.102  23.811  12.041  1.00  0.00    -0.014 C 
ATOM     14  C   UNL     1      27.990  23.988  13.565  1.00  0.00     0.007 C 
ATOM     15  C   UNL     1      26.705  23.514  11.473  1.00  0.00     0.007 C 
ENDBRANCH   5  13
TORSDOF 1
ENDMDL
MODEL 4
REMARK VINA RESULT:    -4.066      1.397      4.143
REMARK INTER + INTRA:          -4.824
REMARK INTER:                  -4.376
REMARK INTRA:                  -0.448
REMARK UNBOUND:                -0.520
REMARK SMILES CC1=CC[C@@]23[C@H]([C@@H](C(C)C)CC[C@H]2C)[C@H]13
REMARK SMILES IDX 14 1 13 2 12 3 11 4 7 5 6 6 5 7 15 8 2 9 3 10 4 11 1 12 8 13
REMARK SMILES IDX 9 14 10 15
REMARK H PARENT
REMARK Flexibility Score: inf
ROOT
ATOM      1  C   UNL     1      31.494  27.121  11.692  1.00  0.00     0.008 C 
ATOM      2  C   UNL     1      30.958  26.201  12.796  1.00  0.00    -0.007 C 
ATOM      3  C   UNL     1      32.124  25.463  13.542  1.00  0.00     0.004 C 
ATOM      4  C   UNL     1      32.125  23.917  13.357  1.00  0.00     0.004 C 
ATOM      5  C   UNL     1      30.731  23.258  13.652  1.00  0.00    -0.004 C 
ATOM      6  C   UNL     1      29.580  24.296  13.526  1.00  0.00     0.007 C 
ATOM      7  C   UNL     1      29.941  25.165  12.264  1.00  0.00    -0.013 C 
ATOM      8  C   UNL     1      28.506  24.890  12.627  1.00  0.00     0.025 C 
ATOM      9  C   UNL     1      27.980  24.017  11.542  1.00  0.00    -0.073 C 
ATOM     10  C   UNL     1      28.857  23.833  10.571  1.00  0.00    -0.027 C 
ATOM     11  C   UNL     1      30.129  24.543  10.851  1.00  0.00     0.035 C 
ATOM     12  C   UNL     1      26.595  23.452  11.525  1.00  0.00     0.039 C 
ENDROOT
BRANCH   5  13
ATOM     13  C   UNL     1      30.476  21.888  12.954  1.00  0.00    -0.014 C 
ATOM     14  C   UNL     1      31.657  21.484  12.054  1.00  0.00     0.007 C 
ATOM     15  C   UNL     1      30.241  20.778  13.991  1.00  0.00     0.007 C 
ENDBRANCH   5  13
TORSDOF 1
ENDMDL
MODEL 5
REMARK VINA RESULT:    -3.552      1.159      3.823
REMARK INTER + INTRA:          -4.279
REMARK INTER:                  -3.908
REMARK INTRA:                  -0.372
REMARK UNBOUND:                -0.520
REMARK SMILES CC1=CC[C@@]23[C@H]([C@@H](C(C)C)CC[C@H]2C)[C@H]13
REMARK SMILES IDX 14 1 13 2 12 3 11 4 7 5 6 6 5 7 15 8 2 9 3 10 4 11 1 12 8 13
REMARK SMILES IDX 9 14 10 15
REMARK H PARENT
REMARK Flexibility Score: inf
ROOT
ATOM      1  C   UNL     1      27.536  26.436  12.250  1.00  0.00     0.008 C 
ATOM      2  C   UNL     1      27.784  24.935  12.061  1.00  0.00    -0.007 C 
ATOM      3  C   UNL     1      27.481  24.133  13.375  1.00  0.00     0.004 C 
ATOM      4  C   UNL     1      28.728  23.448  14.008  1.00  0.00     0.004 C 
ATOM      5  C   UNL     1      29.556  22.597  12.981  1.00  0.00    -0.004 C 
ATOM      6  C   UNL     1      29.279  23.054  11.520  1.00  0.00     0.007 C 
ATOM      7  C   UNL     1      29.222  24.626  11.581  1.00  0.00    -0.013 C 
ATOM      8  C   UNL     1      29.741  23.920  10.357  1.00  0.00     0.025 C 
ATOM      9  C   UNL     1      31.193  24.243  10.297  1.00  0.00    -0.073 C 
ATOM     10  C   UNL     1      31.561  25.099  11.233  1.00  0.00    -0.027 C 
ATOM     11  C   UNL     1      30.414  25.484  12.093  1.00  0.00     0.035 C 
ATOM     12  C   UNL     1      32.125  23.700   9.259  1.00  0.00     0.039 C 
ENDROOT
BRANCH   5  13
ATOM     13  C   UNL     1      31.056  22.383  13.342  1.00  0.00    -0.014 C 
ATOM     14  C   UNL     1      31.487  23.277  14.518  1.00  0.00     0.007 C 
ATOM     15  C   UNL     1      31.328  20.915  13.710  1.00  0.00     0.007 C 
ENDBRANCH   5  13
TORSDOF 1
ENDMDL
MODEL 6
REMARK VINA RESULT:    -3.431      1.281      4.765
REMARK INTER + INTRA:          -4.151
REMARK INTER:                  -3.669
REMARK INTRA:                  -0.482
REMARK UNBOUND:                -0.520
REMARK SMILES CC1=CC[C@@]23[C@H]([C@@H](C(C)C)CC[C@H]2C)[C@H]13
REMARK SMILES IDX 14 1 13 2 12 3 11 4 7 5 6 6 5 7 15 8 2 9 3 10 4 11 1 12 8 13
REMARK SMILES IDX 9 14 10 15
REMARK H PARENT
REMARK Flexibility Score: inf
ROOT
ATOM      1  C   UNL     1      29.639  28.345  12.149  1.00  0.00     0.008 C 
ATOM      2  C   UNL     1      30.753  27.305  12.318  1.00  0.00    -0.007 C 
ATOM      3  C   UNL     1      31.815  27.411  11.168  1.00  0.00     0.004 C 
ATOM      4  C   UNL     1      31.882  26.161  10.241  1.00  0.00     0.004 C 
ATOM      5  C   UNL     1      32.006  24.810  11.032  1.00  0.00    -0.004 C 
ATOM      6  C   UNL     1      31.501  24.965  12.494  1.00  0.00     0.007 C 
ATOM      7  C   UNL     1      30.209  25.859  12.394  1.00  0.00    -0.013 C 
ATOM      8  C   UNL     1      30.332  24.795  13.452  1.00  0.00     0.025 C 
ATOM      9  C   UNL     1      29.320  23.763  13.099  1.00  0.00    -0.073 C 
ATOM     10  C   UNL     1      28.574  24.116  12.067  1.00  0.00    -0.027 C 
ATOM     11  C   UNL     1      28.974  25.446  11.543  1.00  0.00     0.035 C 
ATOM     12  C   UNL     1      29.129  22.488  13.859  1.00  0.00     0.039 C 
ENDROOT
BRANCH   5  13
ATOM     13  C   UNL     1      31.499  23.543  10.280  1.00  0.00    -0.014 C 
ATOM     14  C   UNL     1      32.125  23.430   8.878  1.00  0.00     0.007 C 
ATOM     15  C   UNL     1      31.825  22.267  11.072  1.00  0.00     0.007 C 
ENDBRANCH   5  13
TORSDOF 1
ENDMDL
MODEL 7
REMARK VINA RESULT:    -3.361      1.401      3.479
REMARK INTER + INTRA:          -4.077
REMARK INTER:                  -3.582
REMARK INTRA:                  -0.495
REMARK UNBOUND:                -0.520
REMARK SMILES CC1=CC[C@@]23[C@H]([C@@H](C(C)C)CC[C@H]2C)[C@H]13
REMARK SMILES IDX 14 1 13 2 12 3 11 4 7 5 6 6 5 7 15 8 2 9 3 10 4 11 1 12 8 13
REMARK SMILES IDX 9 14 10 15
REMARK H PARENT
REMARK Flexibility Score: inf
ROOT
ATOM      1  C   UNL     1      30.262  20.694  14.576  1.00  0.00     0.008 C 
ATOM      2  C   UNL     1      30.707  21.541  13.378  1.00  0.00    -0.007 C 
ATOM      3  C   UNL     1      32.123  22.173  13.617  1.00  0.00     0.004 C 
ATOM      4  C   UNL     1      32.124  23.728  13.700  1.00  0.00     0.004 C 
ATOM      5  C   UNL     1      31.371  24.412  12.505  1.00  0.00    -0.004 C 
ATOM      6  C   UNL     1      30.367  23.431  11.836  1.00  0.00     0.007 C 
ATOM      7  C   UNL     1      29.692  22.654  13.027  1.00  0.00    -0.013 C 
ATOM      8  C   UNL     1      28.925  22.951  11.766  1.00  0.00     0.025 C 
ATOM      9  C   UNL     1      27.873  23.928  12.160  1.00  0.00    -0.073 C 
ATOM     10  C   UNL     1      27.857  24.157  13.461  1.00  0.00    -0.027 C 
ATOM     11  C   UNL     1      28.911  23.380  14.159  1.00  0.00     0.035 C 
ATOM     12  C   UNL     1      26.905  24.544  11.199  1.00  0.00     0.039 C 
ENDROOT
BRANCH   5  13
ATOM     13  C   UNL     1      30.821  25.842  12.789  1.00  0.00    -0.014 C 
ATOM     14  C   UNL     1      31.901  26.751  13.401  1.00  0.00     0.007 C 
ATOM     15  C   UNL     1      30.297  26.495  11.499  1.00  0.00     0.007 C 
ENDBRANCH   5  13
TORSDOF 1
ENDMDL
MODEL 8
REMARK VINA RESULT:    -3.231      1.227      3.891
REMARK INTER + INTRA:          -3.940
REMARK INTER:                  -3.557
REMARK INTRA:                  -0.383
REMARK UNBOUND:                -0.520
REMARK SMILES CC1=CC[C@@]23[C@H]([C@@H](C(C)C)CC[C@H]2C)[C@H]13
REMARK SMILES IDX 14 1 13 2 12 3 11 4 7 5 6 6 5 7 15 8 2 9 3 10 4 11 1 12 8 13
REMARK SMILES IDX 9 14 10 15
REMARK H PARENT
REMARK Flexibility Score: inf
ROOT
ATOM      1  C   UNL     1      26.696  23.376  11.269  1.00  0.00     0.008 C 
ATOM      2  C   UNL     1      27.474  24.250  12.260  1.00  0.00    -0.007 C 
ATOM      3  C   UNL     1      27.402  25.767  11.867  1.00  0.00     0.004 C 
ATOM      4  C   UNL     1      28.773  26.391  11.470  1.00  0.00     0.004 C 
ATOM      5  C   UNL     1      29.907  26.111  12.519  1.00  0.00    -0.004 C 
ATOM      6  C   UNL     1      29.570  24.871  13.394  1.00  0.00     0.007 C 
ATOM      7  C   UNL     1      28.952  23.817  12.401  1.00  0.00    -0.013 C 
ATOM      8  C   UNL     1      29.759  23.374  13.593  1.00  0.00     0.025 C 
ATOM      9  C   UNL     1      31.001  22.775  13.033  1.00  0.00    -0.073 C 
ATOM     10  C   UNL     1      30.985  22.717  11.713  1.00  0.00    -0.027 C 
ATOM     11  C   UNL     1      29.729  23.285  11.163  1.00  0.00     0.035 C 
ATOM     12  C   UNL     1      32.123  22.247  13.871  1.00  0.00     0.039 C 
ENDROOT
BRANCH   5  13
ATOM     13  C   UNL     1      31.362  26.163  11.963  1.00  0.00    -0.014 C 
ATOM     14  C   UNL     1      31.377  26.249  10.427  1.00  0.00     0.007 C 
ATOM     15  C   UNL     1      32.125  27.369  12.534  1.00  0.00     0.007 C 
ENDBRANCH   5  13
TORSDOF 1
ENDMDL
MODEL 9
REMARK VINA RESULT:    -2.620      1.460      2.534
REMARK INTER + INTRA:          -3.294
REMARK INTER:                  -3.235
REMARK INTRA:                  -0.059
REMARK UNBOUND:                -0.520
REMARK SMILES CC1=CC[C@@]23[C@H]([C@@H](C(C)C)CC[C@H]2C)[C@H]13
REMARK SMILES IDX 14 1 13 2 12 3 11 4 7 5 6 6 5 7 15 8 2 9 3 10 4 11 1 12 8 13
REMARK SMILES IDX 9 14 10 15
REMARK H PARENT
REMARK Flexibility Score: inf
ROOT
ATOM      1  C   UNL     1      32.121  23.311   9.340  1.00  0.00     0.008 C 
ATOM      2  C   UNL     1      31.968  23.428  10.861  1.00  0.00    -0.007 C 
ATOM      3  C   UNL     1      31.362  22.120  11.479  1.00  0.00     0.004 C 
ATOM      4  C   UNL     1      29.957  22.308  12.124  1.00  0.00     0.004 C 
ATOM      5  C   UNL     1      29.893  23.514  13.127  1.00  0.00    -0.004 C 
ATOM      6  C   UNL     1      31.029  24.539  12.848  1.00  0.00     0.007 C 
ATOM      7  C   UNL     1      31.114  24.648  11.280  1.00  0.00    -0.013 C 
ATOM      8  C   UNL     1      31.420  25.835  12.154  1.00  0.00     0.025 C 
ATOM      9  C   UNL     1      30.329  26.813  11.895  1.00  0.00    -0.073 C 
ATOM     10  C   UNL     1      29.506  26.413  10.941  1.00  0.00    -0.027 C 
ATOM     11  C   UNL     1      29.902  25.085  10.409  1.00  0.00     0.035 C 
ATOM     12  C   UNL     1      30.204  28.128  12.598  1.00  0.00     0.039 C 
ENDROOT
BRANCH   5  13
ATOM     13  C   UNL     1      28.478  24.128  13.349  1.00  0.00    -0.014 C 
ATOM     14  C   UNL     1      27.546  23.843  12.158  1.00  0.00     0.007 C 
ATOM     15  C   UNL     1      27.832  23.569  14.628  1.00  0.00     0.007 C 
ENDBRANCH   5  13
TORSDOF 1
ENDMDL
