MODEL 1
REMARK VINA RESULT:     3.895      0.000      0.000
REMARK INTER + INTRA:           4.099
REMARK INTER:                   4.123
REMARK INTRA:                  -0.024
REMARK UNBOUND:                -0.024
REMARK SMILES O=C([O-])c1cccnc1
REMARK SMILES IDX 4 1 5 2 9 3 6 4 8 5 7 6 2 7 1 8 3 9
REMARK H PARENT
REMARK Flexibility Score: inf
ROOT
ATOM      1  C   UNL     1     103.992 104.185 102.521  1.00  0.00     0.016 A 
ATOM      2  C   UNL     1     103.905 103.201 101.524  1.00  0.00     0.013 A 
ATOM      3  C   UNL     1     103.720 103.817 103.851  1.00  0.00     0.120 A 
ATOM      4  C   UNL     1     103.556 101.892 101.860  1.00  0.00     0.021 A 
ATOM      5  N   UNL     1     103.383 102.534 104.152  1.00  0.00    -0.264 NA
ATOM      6  C   UNL     1     103.296 101.574 103.194  1.00  0.00     0.111 A 
ENDROOT
BRANCH   1   7
ATOM      7  C   UNL     1     104.360 105.576 102.178  1.00  0.00     0.073 C 
ATOM      8  O   UNL     1     104.585 105.903 100.983  1.00  0.00    -0.545 OA
ATOM      9  O   UNL     1     104.459 106.544 103.172  1.00  0.00    -0.545 OA
ENDBRANCH   1   7
TORSDOF 1
ENDMDL
MODEL 2
REMARK VINA RESULT:     3.911      2.444      3.533
REMARK INTER + INTRA:           4.115
REMARK INTER:                   4.139
REMARK INTRA:                  -0.024
REMARK UNBOUND:                -0.024
REMARK SMILES O=C([O-])c1cccnc1
REMARK SMILES IDX 4 1 5 2 9 3 6 4 8 5 7 6 2 7 1 8 3 9
REMARK H PARENT
REMARK Flexibility Score: inf
ROOT
ATOM      1  C   UNL     1     104.013 104.153 102.506  1.00  0.00     0.016 A 
ATOM      2  C   UNL     1     104.094 105.151 101.521  1.00  0.00     0.013 A 
ATOM      3  C   UNL     1     104.289 104.505 103.839  1.00  0.00     0.120 A 
ATOM      4  C   UNL     1     104.442 106.456 101.873  1.00  0.00     0.021 A 
ATOM      5  N   UNL     1     104.625 105.785 104.155  1.00  0.00    -0.264 NA
ATOM      6  C   UNL     1     104.706 106.757 103.210  1.00  0.00     0.111 A 
ENDROOT
BRANCH   1   7
ATOM      7  C   UNL     1     103.646 102.767 102.146  1.00  0.00     0.073 C 
ATOM      8  O   UNL     1     103.419 102.454 100.947  1.00  0.00    -0.545 OA
ATOM      9  O   UNL     1     103.550 101.787 103.128  1.00  0.00    -0.545 OA
ENDBRANCH   1   7
TORSDOF 1
ENDMDL
MODEL 3
REMARK VINA RESULT:     3.912      4.096      4.747
REMARK INTER + INTRA:           4.116
REMARK INTER:                   4.140
REMARK INTRA:                  -0.024
REMARK UNBOUND:                -0.024
REMARK SMILES O=C([O-])c1cccnc1
REMARK SMILES IDX 4 1 5 2 9 3 6 4 8 5 7 6 2 7 1 8 3 9
REMARK H PARENT
REMARK Flexibility Score: inf
ROOT
ATOM      1  C   UNL     1     103.991 104.177 107.273  1.00  0.00     0.016 A 
ATOM      2  C   UNL     1     103.898 103.213 106.257  1.00  0.00     0.013 A 
ATOM      3  C   UNL     1     103.708 103.786 108.594  1.00  0.00     0.120 A 
ATOM      4  C   UNL     1     103.534 101.901 106.566  1.00  0.00     0.021 A 
ATOM      5  N   UNL     1     103.356 102.502 108.869  1.00  0.00    -0.264 NA
ATOM      6  C   UNL     1     103.264 101.561 107.893  1.00  0.00     0.111 A 
ENDROOT
BRANCH   1   7
ATOM      7  C   UNL     1     104.374 105.570 106.958  1.00  0.00     0.073 C 
ATOM      8  O   UNL     1     104.594 105.921 105.768  1.00  0.00    -0.545 OA
ATOM      9  O   UNL     1     104.496 106.514 107.972  1.00  0.00    -0.545 OA
ENDBRANCH   1   7
TORSDOF 1
ENDMDL
MODEL 4
REMARK VINA RESULT:     3.915      4.738      5.914
REMARK INTER + INTRA:           4.119
REMARK INTER:                   4.143
REMARK INTRA:                  -0.024
REMARK UNBOUND:                -0.024
REMARK SMILES O=C([O-])c1cccnc1
REMARK SMILES IDX 4 1 5 2 9 3 6 4 8 5 7 6 2 7 1 8 3 9
REMARK H PARENT
REMARK Flexibility Score: inf
ROOT
ATOM      1  C   UNL     1     104.010 104.137 107.262  1.00  0.00     0.016 A 
ATOM      2  C   UNL     1     104.119 105.133 106.280  1.00  0.00     0.013 A 
ATOM      3  C   UNL     1     104.270 104.485 108.600  1.00  0.00     0.120 A 
ATOM      4  C   UNL     1     104.477 106.435 106.637  1.00  0.00     0.021 A 
ATOM      5  N   UNL     1     104.616 105.760 108.922  1.00  0.00    -0.264 NA
ATOM      6  C   UNL     1     104.724 106.732 107.978  1.00  0.00     0.111 A 
ENDROOT
BRANCH   1   7
ATOM      7  C   UNL     1     103.633 102.755 106.896  1.00  0.00     0.073 C 
ATOM      8  O   UNL     1     103.411 102.448 105.695  1.00  0.00    -0.545 OA
ATOM      9  O   UNL     1     103.519 101.773 107.875  1.00  0.00    -0.545 OA
ENDBRANCH   1   7
TORSDOF 1
ENDMDL
MODEL 5
REMARK VINA RESULT:     4.045      4.638      6.101
REMARK INTER + INTRA:           4.257
REMARK INTER:                   4.280
REMARK INTRA:                  -0.023
REMARK UNBOUND:                -0.024
REMARK SMILES O=C([O-])c1cccnc1
REMARK SMILES IDX 4 1 5 2 9 3 6 4 8 5 7 6 2 7 1 8 3 9
REMARK H PARENT
REMARK Flexibility Score: inf
ROOT
ATOM      1  C   UNL     1     104.007 103.939 107.231  1.00  0.00     0.016 A 
ATOM      2  C   UNL     1     104.291 104.779 108.319  1.00  0.00     0.013 A 
ATOM      3  C   UNL     1     104.080 104.477 105.934  1.00  0.00     0.120 A 
ATOM      4  C   UNL     1     104.638 106.113 108.104  1.00  0.00     0.021 A 
ATOM      5  N   UNL     1     104.422 105.781 105.751  1.00  0.00    -0.264 NA
ATOM      6  C   UNL     1     104.699 106.602 106.797  1.00  0.00     0.111 A 
ENDROOT
BRANCH   1   7
ATOM      7  C   UNL     1     103.637 102.524 107.447  1.00  0.00     0.073 C 
ATOM      8  O   UNL     1     103.239 102.130 108.576  1.00  0.00    -0.545 OA
ATOM      9  O   UNL     1     103.721 101.607 106.405  1.00  0.00    -0.545 OA
ENDBRANCH   1   7
TORSDOF 1
ENDMDL
