MODEL 1
REMARK VINA RESULT:     9.922      0.000      0.000
REMARK INTER + INTRA:          14.841
REMARK INTER:                  16.303
REMARK INTRA:                  -1.462
REMARK UNBOUND:                -1.462
REMARK SMILES COc1ccc([C@H]2CC(=O)c3c(O)cc(O[C@@H]4O[C@@H](CO[C@@H]5O[C@H](C)[C@H](O)[C@H](O)[C@@H]5O)[C@H](O)[C@H](O)[C@@H]4O)cc3O2)cc1O
REMARK SMILES IDX 19 1 32 2 34 3 36 4 17 5 18 6 20 7 21 8 22 9 25 10 24 11
REMARK SMILES IDX 26 12 23 13 28 14 30 15 27 16 29 18 31 20 33 22 35 24 16 26
REMARK SMILES IDX 15 27 14 28 38 29 12 30 39 31 11 32 40 33 9 34 7 35 10 36
REMARK SMILES IDX 8 37 13 38 6 40 41 41 5 42 42 43 4 44 3 45 43 46 2 48 1 49
REMARK SMILES IDX 37 50
REMARK H PARENT 27 17 29 19 31 21 33 23 35 25 13 39 43 47 37 51
REMARK Flexibility Score: inf
ROOT
ATOM      1  C   UNL     1     -12.922 -25.946   0.265  1.00  0.00     0.180 C 
ATOM      2  C   UNL     1     -11.415 -25.600   0.035  1.00  0.00     0.177 C 
ATOM      3  C   UNL     1     -11.120 -25.482  -1.468  1.00  0.00     0.180 C 
ATOM      4  C   UNL     1     -12.064 -24.454  -2.125  1.00  0.00     0.214 C 
ATOM      5  C   UNL     1     -13.513 -24.587  -1.566  1.00  0.00     0.339 C 
ATOM      6  O   UNL     1     -13.696 -25.839  -0.924  1.00  0.00    -0.332 OA
ENDROOT
BRANCH   1   7
ATOM      7  C   UNL     1     -13.078 -27.377   0.800  1.00  0.00     0.198 C 
BRANCH   7   8
ATOM      8  O   UNL     1     -14.107 -28.052   0.096  1.00  0.00    -0.347 OA
BRANCH   8   9
ATOM      9  C   UNL     1     -13.600 -28.849  -0.963  1.00  0.00     0.281 C 
ATOM     10  C   UNL     1     -16.635 -28.842  -1.117  1.00  0.00     0.041 C 
ATOM     11  C   UNL     1     -15.615 -29.402  -2.125  1.00  0.00     0.150 C 
ATOM     12  C   UNL     1     -15.381 -30.944  -2.037  1.00  0.00     0.174 C 
ATOM     13  O   UNL     1     -14.401 -28.660  -2.125  1.00  0.00    -0.344 OA
ATOM     14  C   UNL     1     -13.920 -31.260  -1.677  1.00  0.00     0.179 C 
ATOM     15  C   UNL     1     -13.448 -30.342  -0.543  1.00  0.00     0.202 C 
BRANCH  12  16
ATOM     16  O   UNL     1     -16.254 -31.534  -1.100  1.00  0.00    -0.388 OA
ATOM     17  H   UNL     1     -17.020 -30.912  -0.979  1.00  0.00     0.211 HD
ENDBRANCH  12  16
BRANCH  14  18
ATOM     18  O   UNL     1     -13.791 -32.609  -1.307  1.00  0.00    -0.387 OA
ATOM     19  H   UNL     1     -12.909 -32.916  -1.642  1.00  0.00     0.211 HD
ENDBRANCH  14  18
BRANCH  15  20
ATOM     20  O   UNL     1     -14.190 -30.615   0.620  1.00  0.00    -0.385 OA
ATOM     21  H   UNL     1     -15.084 -30.195   0.502  1.00  0.00     0.211 HD
ENDBRANCH  15  20
ENDBRANCH   8   9
ENDBRANCH   7   8
ENDBRANCH   1   7
BRANCH   2  22
ATOM     22  O   UNL     1     -11.093 -24.391   0.672  1.00  0.00    -0.387 OA
ATOM     23  H   UNL     1     -11.713 -23.704   0.308  1.00  0.00     0.211 HD
ENDBRANCH   2  22
BRANCH   3  24
ATOM     24  O   UNL     1      -9.779 -25.126  -1.687  1.00  0.00    -0.387 OA
ATOM     25  H   UNL     1      -9.691 -24.913  -2.653  1.00  0.00     0.211 HD
ENDBRANCH   3  24
BRANCH   5  26
ATOM     26  O   UNL     1     -13.862 -23.519  -0.671  1.00  0.00    -0.462 OA
BRANCH  26  27
ATOM     27  C   UNL     1     -14.873 -23.554   0.305  1.00  0.00     0.130 A 
ATOM     28  C   UNL     1     -14.515 -23.298   1.632  1.00  0.00     0.093 A 
ATOM     29  C   UNL     1     -16.219 -23.828  -0.001  1.00  0.00     0.094 A 
ATOM     30  C   UNL     1     -15.478 -23.291   2.651  1.00  0.00     0.133 A 
ATOM     31  C   UNL     1     -17.188 -23.832   1.006  1.00  0.00     0.138 A 
ATOM     32  C   UNL     1     -16.827 -23.552   2.337  1.00  0.00     0.102 A 
ATOM     33  O   UNL     1     -18.518 -24.120   0.673  1.00  0.00    -0.484 OA
ATOM     34  C   UNL     1     -17.904 -23.517   3.350  1.00  0.00     0.174 C 
ATOM     35  C   UNL     1     -19.566 -24.293   1.637  1.00  0.00     0.211 C 
ATOM     36  O   UNL     1     -17.642 -23.493   4.582  1.00  0.00    -0.294 OA
ATOM     37  C   UNL     1     -19.332 -23.439   2.897  1.00  0.00     0.131 C 
BRANCH  30  38
ATOM     38  O   UNL     1     -15.095 -23.010   3.964  1.00  0.00    -0.507 OA
ATOM     39  H   UNL     1     -15.362 -23.610   4.735  1.00  0.00     0.293 HD
ENDBRANCH  30  38
BRANCH  35  40
ATOM     40  C   UNL     1     -19.762 -25.757   1.985  1.00  0.00    -0.003 A 
ATOM     41  C   UNL     1     -19.729 -26.719   0.961  1.00  0.00     0.057 A 
ATOM     42  C   UNL     1     -20.039 -26.175   3.298  1.00  0.00     0.011 A 
ATOM     43  C   UNL     1     -19.936 -28.075   1.246  1.00  0.00     0.158 A 
ATOM     44  C   UNL     1     -20.246 -27.527   3.585  1.00  0.00     0.051 A 
ATOM     45  C   UNL     1     -20.190 -28.490   2.560  1.00  0.00     0.160 A 
BRANCH  43  46
ATOM     46  O   UNL     1     -19.892 -29.022   0.223  1.00  0.00    -0.504 OA
ATOM     47  H   UNL     1     -19.728 -28.755  -0.741  1.00  0.00     0.293 HD
ENDBRANCH  43  46
BRANCH  45  48
ATOM     48  O   UNL     1     -20.387 -29.858   2.806  1.00  0.00    -0.493 OA
ATOM     49  C   UNL     1     -20.833 -30.396   4.045  1.00  0.00     0.278 C 
ENDBRANCH  45  48
ENDBRANCH  35  40
ENDBRANCH  26  27
ENDBRANCH   5  26
BRANCH   4  50
ATOM     50  O   UNL     1     -11.577 -23.147  -1.930  1.00  0.00    -0.384 OA
ATOM     51  H   UNL     1     -10.706 -23.227  -1.456  1.00  0.00     0.211 HD
ENDBRANCH   4  50
TORSDOF 15
ENDMDL
MODEL 2
REMARK VINA RESULT:    10.681      1.103      1.520
REMARK INTER + INTRA:          16.087
REMARK INTER:                  17.076
REMARK INTRA:                  -0.989
REMARK UNBOUND:                -1.462
REMARK SMILES COc1ccc([C@H]2CC(=O)c3c(O)cc(O[C@@H]4O[C@@H](CO[C@@H]5O[C@H](C)[C@H](O)[C@H](O)[C@@H]5O)[C@H](O)[C@H](O)[C@@H]4O)cc3O2)cc1O
REMARK SMILES IDX 19 1 32 2 34 3 36 4 17 5 18 6 20 7 21 8 22 9 25 10 24 11
REMARK SMILES IDX 26 12 23 13 28 14 30 15 27 16 29 18 31 20 33 22 35 24 16 26
REMARK SMILES IDX 15 27 14 28 38 29 12 30 39 31 11 32 40 33 9 34 7 35 10 36
REMARK SMILES IDX 8 37 13 38 6 40 41 41 5 42 42 43 4 44 3 45 43 46 2 48 1 49
REMARK SMILES IDX 37 50
REMARK H PARENT 27 17 29 19 31 21 33 23 35 25 13 39 43 47 37 51
REMARK Flexibility Score: inf
ROOT
ATOM      1  C   UNL     1     -13.121 -26.262   0.454  1.00  0.00     0.180 C 
ATOM      2  C   UNL     1     -11.625 -25.808   0.415  1.00  0.00     0.177 C 
ATOM      3  C   UNL     1     -11.210 -25.466  -1.024  1.00  0.00     0.180 C 
ATOM      4  C   UNL     1     -12.159 -24.408  -1.623  1.00  0.00     0.214 C 
ATOM      5  C   UNL     1     -13.639 -24.694  -1.226  1.00  0.00     0.339 C 
ATOM      6  O   UNL     1     -13.795 -26.031  -0.778  1.00  0.00    -0.332 OA
ENDROOT
BRANCH   1   7
ATOM      7  C   UNL     1     -13.228 -27.759   0.775  1.00  0.00     0.198 C 
BRANCH   7   8
ATOM      8  O   UNL     1     -14.310 -28.335   0.062  1.00  0.00    -0.347 OA
BRANCH   8   9
ATOM      9  C   UNL     1     -13.883 -29.007  -1.113  1.00  0.00     0.281 C 
ATOM     10  C   UNL     1     -16.882 -29.395  -0.805  1.00  0.00     0.041 C 
ATOM     11  C   UNL     1     -15.974 -29.767  -1.990  1.00  0.00     0.150 C 
ATOM     12  C   UNL     1     -15.540 -31.266  -2.043  1.00  0.00     0.174 C 
ATOM     13  O   UNL     1     -14.877 -28.870  -2.124  1.00  0.00    -0.344 OA
ATOM     14  C   UNL     1     -14.013 -31.402  -1.931  1.00  0.00     0.179 C 
ATOM     15  C   UNL     1     -13.484 -30.485  -0.822  1.00  0.00     0.202 C 
BRANCH  12  16
ATOM     16  O   UNL     1     -16.173 -32.010  -1.027  1.00  0.00    -0.388 OA
ATOM     17  H   UNL     1     -17.078 -31.618  -0.895  1.00  0.00     0.211 HD
ENDBRANCH  12  16
BRANCH  14  18
ATOM     18  O   UNL     1     -13.661 -32.738  -1.676  1.00  0.00    -0.387 OA
ATOM     19  H   UNL     1     -13.828 -33.243  -2.514  1.00  0.00     0.211 HD
ENDBRANCH  14  18
BRANCH  15  20
ATOM     20  O   UNL     1     -13.992 -30.908   0.419  1.00  0.00    -0.385 OA
ATOM     21  H   UNL     1     -14.197 -30.090   0.945  1.00  0.00     0.211 HD
ENDBRANCH  15  20
ENDBRANCH   8   9
ENDBRANCH   7   8
ENDBRANCH   1   7
BRANCH   2  22
ATOM     22  O   UNL     1     -11.438 -24.684   1.236  1.00  0.00    -0.387 OA
ATOM     23  H   UNL     1     -11.390 -23.896   0.632  1.00  0.00     0.211 HD
ENDBRANCH   2  22
BRANCH   3  24
ATOM     24  O   UNL     1      -9.881 -25.014  -1.066  1.00  0.00    -0.387 OA
ATOM     25  H   UNL     1      -9.458 -25.433  -1.861  1.00  0.00     0.211 HD
ENDBRANCH   3  24
BRANCH   5  26
ATOM     26  O   UNL     1     -14.133 -23.781  -0.233  1.00  0.00    -0.462 OA
BRANCH  26  27
ATOM     27  C   UNL     1     -15.437 -23.753   0.291  1.00  0.00     0.130 A 
ATOM     28  C   UNL     1     -15.704 -22.876   1.346  1.00  0.00     0.093 A 
ATOM     29  C   UNL     1     -16.476 -24.563  -0.206  1.00  0.00     0.094 A 
ATOM     30  C   UNL     1     -16.990 -22.779   1.897  1.00  0.00     0.133 A 
ATOM     31  C   UNL     1     -17.759 -24.482   0.340  1.00  0.00     0.138 A 
ATOM     32  C   UNL     1     -18.029 -23.582   1.386  1.00  0.00     0.102 A 
ATOM     33  O   UNL     1     -18.770 -25.310  -0.169  1.00  0.00    -0.484 OA
ATOM     34  C   UNL     1     -19.419 -23.502   1.886  1.00  0.00     0.174 C 
ATOM     35  C   UNL     1     -20.081 -25.417   0.404  1.00  0.00     0.211 C 
ATOM     36  O   UNL     1     -19.695 -22.893   2.953  1.00  0.00    -0.294 OA
ATOM     37  C   UNL     1     -20.525 -24.100   1.069  1.00  0.00     0.131 C 
BRANCH  30  38
ATOM     38  O   UNL     1     -17.231 -21.878   2.936  1.00  0.00    -0.507 OA
ATOM     39  H   UNL     1     -16.534 -21.685   3.645  1.00  0.00     0.293 HD
ENDBRANCH  30  38
BRANCH  35  40
ATOM     40  C   UNL     1     -20.169 -26.585   1.369  1.00  0.00    -0.003 A 
ATOM     41  C   UNL     1     -20.321 -26.334   2.743  1.00  0.00     0.057 A 
ATOM     42  C   UNL     1     -20.039 -27.915   0.934  1.00  0.00     0.011 A 
ATOM     43  C   UNL     1     -20.375 -27.390   3.662  1.00  0.00     0.158 A 
ATOM     44  C   UNL     1     -20.092 -28.971   1.849  1.00  0.00     0.051 A 
ATOM     45  C   UNL     1     -20.267 -28.716   3.222  1.00  0.00     0.160 A 
BRANCH  43  46
ATOM     46  O   UNL     1     -20.535 -27.130   5.023  1.00  0.00    -0.504 OA
ATOM     47  H   UNL     1     -19.868 -26.565   5.537  1.00  0.00     0.293 HD
ENDBRANCH  43  46
BRANCH  45  48
ATOM     48  O   UNL     1     -20.331 -29.747   4.173  1.00  0.00    -0.493 OA
ATOM     49  C   UNL     1     -21.525 -30.168   4.821  1.00  0.00     0.278 C 
ENDBRANCH  45  48
ENDBRANCH  35  40
ENDBRANCH  26  27
ENDBRANCH   5  26
BRANCH   4  50
ATOM     50  O   UNL     1     -11.777 -23.118  -1.210  1.00  0.00    -0.384 OA
ATOM     51  H   UNL     1     -10.895 -23.203  -0.759  1.00  0.00     0.211 HD
ENDBRANCH   4  50
TORSDOF 15
ENDMDL
