MODEL 1
REMARK VINA RESULT:     7.873      0.000      0.000
REMARK INTER + INTRA:           8.103
REMARK INTER:                   8.103
REMARK INTRA:                   0.000
REMARK UNBOUND:                 0.000
REMARK SMILES Oc1ccc2[nH]ccc2c1
REMARK SMILES IDX 3 1 4 2 5 3 9 4 8 5 7 6 6 7 10 8 2 9 1 11
REMARK H PARENT 6 10 1 12
REMARK Flexibility Score: inf
ROOT
ATOM      1  C   UNL     1     -27.303  14.611  -3.309  1.00  0.00     0.048 A 
ATOM      2  C   UNL     1     -28.587  14.055  -3.451  1.00  0.00     0.030 A 
ATOM      3  C   UNL     1     -29.573  14.456  -2.550  1.00  0.00     0.046 A 
ATOM      4  C   UNL     1     -29.313  15.360  -1.555  1.00  0.00     0.003 A 
ATOM      5  C   UNL     1     -30.481  15.540  -0.847  1.00  0.00     0.028 A 
ATOM      6  C   UNL     1     -31.412  14.712  -1.467  1.00  0.00     0.083 A 
ATOM      7  N   UNL     1     -30.853  14.052  -2.506  1.00  0.00    -0.361 N 
ATOM      8  C   UNL     1     -28.053  15.930  -1.388  1.00  0.00     0.056 A 
ATOM      9  C   UNL     1     -27.033  15.547  -2.280  1.00  0.00     0.116 A 
ATOM     10  H   UNL     1     -31.322  13.371  -3.142  1.00  0.00     0.166 HD
ENDROOT
BRANCH   9  11
ATOM     11  O   UNL     1     -25.761  16.098  -2.142  1.00  0.00    -0.508 OA
ATOM     12  H   UNL     1     -24.927  15.569  -2.371  1.00  0.00     0.293 HD
ENDBRANCH   9  11
TORSDOF 1
ENDMDL
MODEL 2
REMARK VINA RESULT:     8.248      2.192      3.472
REMARK INTER + INTRA:           8.489
REMARK INTER:                   8.489
REMARK INTRA:                   0.000
REMARK UNBOUND:                 0.000
REMARK SMILES Oc1ccc2[nH]ccc2c1
REMARK SMILES IDX 3 1 4 2 5 3 9 4 8 5 7 6 6 7 10 8 2 9 1 11
REMARK H PARENT 6 10 1 12
REMARK Flexibility Score: inf
ROOT
ATOM      1  C   UNL     1     -31.179  14.580  -1.508  1.00  0.00     0.048 A 
ATOM      2  C   UNL     1     -30.467  14.040  -2.595  1.00  0.00     0.030 A 
ATOM      3  C   UNL     1     -29.140  14.431  -2.762  1.00  0.00     0.046 A 
ATOM      4  C   UNL     1     -28.536  15.312  -1.905  1.00  0.00     0.003 A 
ATOM      5  C   UNL     1     -27.241  15.488  -2.341  1.00  0.00     0.028 A 
ATOM      6  C   UNL     1     -27.126  14.685  -3.472  1.00  0.00     0.083 A 
ATOM      7  N   UNL     1     -28.288  14.041  -3.725  1.00  0.00    -0.361 N 
ATOM      8  C   UNL     1     -29.211  15.864  -0.819  1.00  0.00     0.056 A 
ATOM      9  C   UNL     1     -30.554  15.491  -0.620  1.00  0.00     0.116 A 
ATOM     10  H   UNL     1     -28.480  13.378  -4.507  1.00  0.00     0.166 HD
ENDROOT
BRANCH   9  11
ATOM     11  O   UNL     1     -31.259  16.024   0.457  1.00  0.00    -0.508 OA
ATOM     12  H   UNL     1     -30.791  16.537   1.194  1.00  0.00     0.293 HD
ENDBRANCH   9  11
TORSDOF 1
ENDMDL
MODEL 3
REMARK VINA RESULT:     8.641      2.621      4.081
REMARK INTER + INTRA:           8.894
REMARK INTER:                   8.894
REMARK INTRA:                   0.000
REMARK UNBOUND:                 0.000
REMARK SMILES Oc1ccc2[nH]ccc2c1
REMARK SMILES IDX 3 1 4 2 5 3 9 4 8 5 7 6 6 7 10 8 2 9 1 11
REMARK H PARENT 6 10 1 12
REMARK Flexibility Score: inf
ROOT
ATOM      1  C   UNL     1     -30.580  15.499  -0.933  1.00  0.00     0.048 A 
ATOM      2  C   UNL     1     -29.266  16.001  -0.940  1.00  0.00     0.030 A 
ATOM      3  C   UNL     1     -28.371  15.470  -1.867  1.00  0.00     0.046 A 
ATOM      4  C   UNL     1     -28.745  14.492  -2.749  1.00  0.00     0.003 A 
ATOM      5  C   UNL     1     -27.644  14.189  -3.520  1.00  0.00     0.028 A 
ATOM      6  C   UNL     1     -26.632  15.023  -3.050  1.00  0.00     0.083 A 
ATOM      7  N   UNL     1     -27.082  15.803  -2.041  1.00  0.00    -0.361 N 
ATOM      8  C   UNL     1     -30.037  13.974  -2.770  1.00  0.00     0.056 A 
ATOM      9  C   UNL     1     -30.968  14.486  -1.846  1.00  0.00     0.116 A 
ATOM     10  H   UNL     1     -26.536  16.516  -1.509  1.00  0.00     0.166 HD
ENDROOT
BRANCH   9  11
ATOM     11  O   UNL     1     -32.270  13.990  -1.840  1.00  0.00    -0.508 OA
ATOM     12  H   UNL     1     -33.049  14.545  -2.176  1.00  0.00     0.293 HD
ENDBRANCH   9  11
TORSDOF 1
ENDMDL
MODEL 4
REMARK VINA RESULT:     8.884      1.513      2.202
REMARK INTER + INTRA:           9.144
REMARK INTER:                   9.144
REMARK INTRA:                   0.000
REMARK UNBOUND:                 0.000
REMARK SMILES Oc1ccc2[nH]ccc2c1
REMARK SMILES IDX 3 1 4 2 5 3 9 4 8 5 7 6 6 7 10 8 2 9 1 11
REMARK H PARENT 6 10 1 12
REMARK Flexibility Score: inf
ROOT
ATOM      1  C   UNL     1     -27.320  15.392  -2.483  1.00  0.00     0.048 A 
ATOM      2  C   UNL     1     -28.066  15.904  -1.406  1.00  0.00     0.030 A 
ATOM      3  C   UNL     1     -29.396  15.504  -1.287  1.00  0.00     0.046 A 
ATOM      4  C   UNL     1     -29.971  14.643  -2.182  1.00  0.00     0.003 A 
ATOM      5  C   UNL     1     -31.277  14.452  -1.789  1.00  0.00     0.028 A 
ATOM      6  C   UNL     1     -31.430  15.230  -0.644  1.00  0.00     0.083 A 
ATOM      7  N   UNL     1     -30.277  15.871  -0.342  1.00  0.00    -0.361 N 
ATOM      8  C   UNL     1     -29.261  14.118  -3.259  1.00  0.00     0.056 A 
ATOM      9  C   UNL     1     -27.914  14.501  -3.410  1.00  0.00     0.116 A 
ATOM     10  H   UNL     1     -30.111  16.516   0.462  1.00  0.00     0.166 HD
ENDROOT
BRANCH   9  11
ATOM     11  O   UNL     1     -27.175  13.994  -4.477  1.00  0.00    -0.508 OA
ATOM     12  H   UNL     1     -27.571  13.918  -5.407  1.00  0.00     0.293 HD
ENDBRANCH   9  11
TORSDOF 1
ENDMDL
MODEL 5
REMARK VINA RESULT:     9.983      2.370      3.543
REMARK INTER + INTRA:          10.275
REMARK INTER:                  10.275
REMARK INTRA:                   0.000
REMARK UNBOUND:                 0.000
REMARK SMILES Oc1ccc2[nH]ccc2c1
REMARK SMILES IDX 3 1 4 2 5 3 9 4 8 5 7 6 6 7 10 8 2 9 1 11
REMARK H PARENT 6 10 1 12
REMARK Flexibility Score: inf
ROOT
ATOM      1  C   UNL     1     -28.777  15.932  -0.314  1.00  0.00     0.048 A 
ATOM      2  C   UNL     1     -27.757  15.629  -1.235  1.00  0.00     0.030 A 
ATOM      3  C   UNL     1     -28.128  15.065  -2.455  1.00  0.00     0.046 A 
ATOM      4  C   UNL     1     -29.437  14.808  -2.759  1.00  0.00     0.003 A 
ATOM      5  C   UNL     1     -29.466  14.258  -4.022  1.00  0.00     0.028 A 
ATOM      6  C   UNL     1     -28.135  14.208  -4.427  1.00  0.00     0.083 A 
ATOM      7  N   UNL     1     -27.322  14.703  -3.466  1.00  0.00    -0.361 N 
ATOM      8  C   UNL     1     -30.471  15.096  -1.872  1.00  0.00     0.056 A 
ATOM      9  C   UNL     1     -30.133  15.667  -0.629  1.00  0.00     0.116 A 
ATOM     10  H   UNL     1     -26.282  14.784  -3.506  1.00  0.00     0.166 HD
ENDROOT
BRANCH   9  11
ATOM     11  O   UNL     1     -31.142  15.967   0.283  1.00  0.00    -0.508 OA
ATOM     12  H   UNL     1     -31.706  15.240   0.707  1.00  0.00     0.293 HD
ENDBRANCH   9  11
TORSDOF 1
ENDMDL
