MODEL 1
REMARK VINA RESULT:    -3.463      0.000      0.000
REMARK INTER + INTRA:          -5.534
REMARK INTER:                  -5.285
REMARK INTRA:                  -0.249
REMARK UNBOUND:                -0.249
REMARK SMILES CC1=CCC[C@@H](C)C(=O)C[C@@H](C(C)C)C(=O)C1
REMARK SMILES IDX 8 1 9 2 6 3 7 4 5 5 4 6 3 7 2 8 1 9 10 11 11 12 15 13 16 14
REMARK SMILES IDX 17 15 12 17 13 18 14 19
REMARK H PARENT
REMARK Flexibility Score: 70.00
ROOT
ATOM      1  C   UNL     1      10.508 -23.246  40.818  1.00  0.00     0.136 C 
ATOM      2  O   UNL     1       9.895 -22.192  40.912  1.00  0.00    -0.299 OA
ENDROOT
BRANCH   1   3
ATOM      3  C   UNL     1      11.830 -23.409  41.542  1.00  0.00     0.053 C 
ATOM      4  C   UNL     1      11.861 -22.478  42.758  1.00  0.00     0.016 C 
BRANCH   3   5
ATOM      5  C   UNL     1      13.040 -23.121  40.620  1.00  0.00     0.015 C 
BRANCH   5   6
ATOM      6  C   UNL     1      14.071 -24.260  40.568  1.00  0.00     0.028 C 
BRANCH   6   7
ATOM      7  C   UNL     1      14.310 -24.728  39.153  1.00  0.00    -0.028 C 
ATOM      8  C   UNL     1      13.733 -25.812  38.585  1.00  0.00    -0.070 CG0
ATOM      9  C   UNL     1      14.071 -26.126  37.150  1.00  0.00     0.039 C 
ATOM     10  G   UNL     1      12.761 -26.712  39.328  1.00  0.00     0.000 G0
ENDBRANCH   6   7
ENDBRANCH   5   6
ENDBRANCH   3   5
ENDBRANCH   1   3
BRANCH   1  11
ATOM     11  C   UNL     1       9.902 -24.379  40.023  1.00  0.00     0.087 C 
BRANCH  11  12
ATOM     12  C   UNL     1      10.505 -25.764  40.368  1.00  0.00     0.066 C 
BRANCH  12  13
ATOM     13  C   UNL     1      11.307 -26.334  39.201  1.00  0.00     0.140 C 
ATOM     14  O   UNL     1      10.747 -26.517  38.130  1.00  0.00    -0.299 OA
BRANCH  13  15
ATOM     15  C   UNL     1      12.764 -26.734  39.317  1.00  0.00     0.106 CG0
ATOM     16  G   UNL     1      13.726 -25.800  38.604  1.00  0.00     0.000 G0
ENDBRANCH  13  15
ENDBRANCH  12  13
BRANCH  12  17
ATOM     17  C   UNL     1       9.412 -26.751  40.886  1.00  0.00    -0.006 C 
ATOM     18  C   UNL     1       8.098 -26.018  41.194  1.00  0.00     0.008 C 
ATOM     19  C   UNL     1       9.842 -27.584  42.108  1.00  0.00     0.008 C 
ENDBRANCH  12  17
ENDBRANCH  11  12
ENDBRANCH   1  11
TORSDOF 1
ENDMDL
MODEL 2
REMARK VINA RESULT:    -3.300      2.274      4.211
REMARK INTER + INTRA:          -5.284
REMARK INTER:                  -4.806
REMARK INTRA:                  -0.478
REMARK UNBOUND:                -0.249
REMARK SMILES CC1=CCC[C@@H](C)C(=O)C[C@@H](C(C)C)C(=O)C1
REMARK SMILES IDX 8 1 9 2 6 3 7 4 5 5 4 6 3 7 2 8 1 9 10 11 11 12 15 13 16 14
REMARK SMILES IDX 17 15 12 17 13 18 14 19
REMARK H PARENT
REMARK Flexibility Score: 70.00
ROOT
ATOM      1  C   UNL     1      10.923 -25.000  39.454  1.00  0.00     0.136 C 
ATOM      2  O   UNL     1       9.932 -24.905  38.745  1.00  0.00    -0.299 OA
ENDROOT
BRANCH   1   3
ATOM      3  C   UNL     1      10.778 -24.898  40.960  1.00  0.00     0.053 C 
ATOM      4  C   UNL     1       9.711 -25.890  41.434  1.00  0.00     0.016 C 
BRANCH   3   5
ATOM      5  C   UNL     1      10.414 -23.465  41.417  1.00  0.00     0.015 C 
BRANCH   5   6
ATOM      6  C   UNL     1      11.575 -22.705  42.078  1.00  0.00     0.028 C 
BRANCH   6   7
ATOM      7  C   UNL     1      12.160 -21.668  41.149  1.00  0.00    -0.028 C 
ATOM      8  C   UNL     1      13.371 -21.753  40.553  1.00  0.00    -0.070 CG0
ATOM      9  C   UNL     1      13.792 -20.631  39.638  1.00  0.00     0.039 C 
ATOM     10  G   UNL     1      14.312 -22.927  40.763  1.00  0.00     0.000 G0
ENDBRANCH   6   7
ENDBRANCH   5   6
ENDBRANCH   3   5
ENDBRANCH   1   3
BRANCH   1  11
ATOM     11  C   UNL     1      12.264 -25.267  38.811  1.00  0.00     0.087 C 
BRANCH  11  12
ATOM     12  C   UNL     1      13.442 -25.264  39.818  1.00  0.00     0.066 C 
BRANCH  12  13
ATOM     13  C   UNL     1      14.283 -23.997  39.693  1.00  0.00     0.140 C 
ATOM     14  O   UNL     1      14.985 -23.846  38.703  1.00  0.00    -0.299 OA
BRANCH  13  15
ATOM     15  C   UNL     1      14.332 -22.929  40.767  1.00  0.00     0.106 CG0
ATOM     16  G   UNL     1      13.365 -21.779  40.547  1.00  0.00     0.000 G0
ENDBRANCH  13  15
ENDBRANCH  12  13
BRANCH  12  17
ATOM     17  C   UNL     1      14.295 -26.567  39.704  1.00  0.00    -0.006 C 
ATOM     18  C   UNL     1      13.432 -27.766  39.284  1.00  0.00     0.008 C 
ATOM     19  C   UNL     1      15.085 -26.916  40.979  1.00  0.00     0.008 C 
ENDBRANCH  12  17
ENDBRANCH  11  12
ENDBRANCH   1  11
TORSDOF 1
ENDMDL
MODEL 3
REMARK VINA RESULT:    -3.223      1.657      3.828
REMARK INTER + INTRA:          -5.167
REMARK INTER:                  -4.878
REMARK INTRA:                  -0.289
REMARK UNBOUND:                -0.249
REMARK SMILES CC1=CCC[C@@H](C)C(=O)C[C@@H](C(C)C)C(=O)C1
REMARK SMILES IDX 8 1 9 2 6 3 7 4 5 5 4 6 3 7 2 8 1 9 10 11 11 12 15 13 16 14
REMARK SMILES IDX 17 15 12 17 13 18 14 19
REMARK H PARENT
REMARK Flexibility Score: 70.00
ROOT
ATOM      1  C   UNL     1       9.935 -24.909  40.323  1.00  0.00     0.136 C 
ATOM      2  O   UNL     1       9.528 -24.108  39.495  1.00  0.00    -0.299 OA
ENDROOT
BRANCH   1   3
ATOM      3  C   UNL     1       9.208 -26.227  40.509  1.00  0.00     0.053 C 
ATOM      4  C   UNL     1       9.587 -26.828  41.866  1.00  0.00     0.016 C 
BRANCH   3   5
ATOM      5  C   UNL     1       9.522 -27.233  39.375  1.00  0.00     0.015 C 
BRANCH   5   6
ATOM      6  C   UNL     1      10.843 -27.996  39.564  1.00  0.00     0.028 C 
BRANCH   6   7
ATOM      7  C   UNL     1      11.847 -27.642  38.493  1.00  0.00    -0.028 C 
ATOM      8  C   UNL     1      12.985 -26.940  38.696  1.00  0.00    -0.070 CG0
ATOM      9  C   UNL     1      13.886 -26.691  37.514  1.00  0.00     0.039 C 
ATOM     10  G   UNL     1      13.390 -26.403  40.058  1.00  0.00     0.000 G0
ENDBRANCH   6   7
ENDBRANCH   5   6
ENDBRANCH   3   5
ENDBRANCH   1   3
BRANCH   1  11
ATOM     11  C   UNL     1      11.187 -24.586  41.105  1.00  0.00     0.087 C 
BRANCH  11  12
ATOM     12  C   UNL     1      12.311 -23.963  40.239  1.00  0.00     0.066 C 
BRANCH  12  13
ATOM     13  C   UNL     1      13.522 -24.886  40.142  1.00  0.00     0.140 C 
ATOM     14  O   UNL     1      14.639 -24.394  40.082  1.00  0.00    -0.299 OA
BRANCH  13  15
ATOM     15  C   UNL     1      13.406 -26.395  40.066  1.00  0.00     0.106 CG0
ATOM     16  G   UNL     1      12.982 -26.921  38.705  1.00  0.00     0.000 G0
ENDBRANCH  13  15
ENDBRANCH  12  13
BRANCH  12  17
ATOM     17  C   UNL     1      12.685 -22.529  40.732  1.00  0.00    -0.006 C 
ATOM     18  C   UNL     1      11.614 -21.967  41.680  1.00  0.00     0.008 C 
ATOM     19  C   UNL     1      12.957 -21.523  39.599  1.00  0.00     0.008 C 
ENDBRANCH  12  17
ENDBRANCH  11  12
ENDBRANCH   1  11
TORSDOF 1
ENDMDL
MODEL 4
REMARK VINA RESULT:    -3.210      1.705      2.425
REMARK INTER + INTRA:          -5.147
REMARK INTER:                  -4.827
REMARK INTRA:                  -0.319
REMARK UNBOUND:                -0.249
REMARK SMILES CC1=CCC[C@@H](C)C(=O)C[C@@H](C(C)C)C(=O)C1
REMARK SMILES IDX 8 1 9 2 6 3 7 4 5 5 4 6 3 7 2 8 1 9 10 11 11 12 15 13 16 14
REMARK SMILES IDX 17 15 12 17 13 18 14 19
REMARK H PARENT
REMARK Flexibility Score: 70.00
ROOT
ATOM      1  C   UNL     1      11.805 -22.360  41.431  1.00  0.00     0.136 C 
ATOM      2  O   UNL     1      11.133 -22.672  42.402  1.00  0.00    -0.299 OA
ENDROOT
BRANCH   1   3
ATOM      3  C   UNL     1      12.908 -21.330  41.584  1.00  0.00     0.053 C 
ATOM      4  C   UNL     1      13.266 -20.763  40.207  1.00  0.00     0.016 C 
BRANCH   3   5
ATOM      5  C   UNL     1      14.169 -21.921  42.261  1.00  0.00     0.015 C 
BRANCH   5   6
ATOM      6  C   UNL     1      15.193 -22.505  41.275  1.00  0.00     0.028 C 
BRANCH   6   7
ATOM      7  C   UNL     1      15.360 -23.993  41.465  1.00  0.00    -0.028 C 
ATOM      8  C   UNL     1      14.979 -24.938  40.575  1.00  0.00    -0.070 CG0
ATOM      9  C   UNL     1      15.239 -26.383  40.920  1.00  0.00     0.039 C 
ATOM     10  G   UNL     1      14.314 -24.603  39.252  1.00  0.00     0.000 G0
ENDBRANCH   6   7
ENDBRANCH   5   6
ENDBRANCH   3   5
ENDBRANCH   1   3
BRANCH   1  11
ATOM     11  C   UNL     1      11.553 -23.050  40.110  1.00  0.00     0.087 C 
BRANCH  11  12
ATOM     12  C   UNL     1      11.814 -24.576  40.153  1.00  0.00     0.066 C 
BRANCH  12  13
ATOM     13  C   UNL     1      12.865 -24.995  39.129  1.00  0.00     0.140 C 
ATOM     14  O   UNL     1      12.531 -25.710  38.195  1.00  0.00    -0.299 OA
BRANCH  13  15
ATOM     15  C   UNL     1      14.325 -24.606  39.238  1.00  0.00     0.106 CG0
ATOM     16  G   UNL     1      14.966 -24.952  40.571  1.00  0.00     0.000 G0
ENDBRANCH  13  15
ENDBRANCH  12  13
BRANCH  12  17
ATOM     17  C   UNL     1      10.486 -25.387  40.018  1.00  0.00    -0.006 C 
ATOM     18  C   UNL     1       9.330 -24.492  39.548  1.00  0.00     0.008 C 
ATOM     19  C   UNL     1      10.075 -26.140  41.297  1.00  0.00     0.008 C 
ENDBRANCH  12  17
ENDBRANCH  11  12
ENDBRANCH   1  11
TORSDOF 1
ENDMDL
MODEL 5
REMARK VINA RESULT:    -3.188      1.845      4.450
REMARK INTER + INTRA:          -5.114
REMARK INTER:                  -4.627
REMARK INTRA:                  -0.487
REMARK UNBOUND:                -0.249
REMARK SMILES CC1=CCC[C@@H](C)C(=O)C[C@@H](C(C)C)C(=O)C1
REMARK SMILES IDX 8 1 9 2 6 3 7 4 5 5 4 6 3 7 2 8 1 9 10 11 11 12 15 13 16 14
REMARK SMILES IDX 17 15 12 17 13 18 14 19
REMARK H PARENT
REMARK Flexibility Score: 70.00
ROOT
ATOM      1  C   UNL     1      13.333 -24.993  38.510  1.00  0.00     0.136 C 
ATOM      2  O   UNL     1      13.515 -25.358  37.358  1.00  0.00    -0.299 OA
ENDROOT
BRANCH   1   3
ATOM      3  C   UNL     1      14.003 -25.740  39.646  1.00  0.00     0.053 C 
ATOM      4  C   UNL     1      15.522 -25.575  39.537  1.00  0.00     0.016 C 
BRANCH   3   5
ATOM      5  C   UNL     1      13.630 -27.243  39.658  1.00  0.00     0.015 C 
BRANCH   5   6
ATOM      6  C   UNL     1      12.393 -27.574  40.508  1.00  0.00     0.028 C 
BRANCH   6   7
ATOM      7  C   UNL     1      11.133 -27.580  39.677  1.00  0.00    -0.028 C 
ATOM      8  C   UNL     1      10.117 -26.695  39.799  1.00  0.00    -0.070 CG0
ATOM      9  C   UNL     1       8.937 -26.838  38.871  1.00  0.00     0.039 C 
ATOM     10  G   UNL     1      10.122 -25.571  40.820  1.00  0.00     0.000 G0
ENDBRANCH   6   7
ENDBRANCH   5   6
ENDBRANCH   3   5
ENDBRANCH   1   3
BRANCH   1  11
ATOM     11  C   UNL     1      12.484 -23.769  38.767  1.00  0.00     0.087 C 
BRANCH  11  12
ATOM     12  C   UNL     1      11.922 -23.701  40.209  1.00  0.00     0.066 C 
BRANCH  12  13
ATOM     13  C   UNL     1      10.483 -24.204  40.275  1.00  0.00     0.140 C 
ATOM     14  O   UNL     1       9.580 -23.467  39.908  1.00  0.00    -0.299 OA
BRANCH  13  15
ATOM     15  C   UNL     1      10.109 -25.567  40.823  1.00  0.00     0.106 CG0
ATOM     16  G   UNL     1      10.113 -26.678  39.787  1.00  0.00     0.000 G0
ENDBRANCH  13  15
ENDBRANCH  12  13
BRANCH  12  17
ATOM     17  C   UNL     1      12.090 -22.275  40.823  1.00  0.00    -0.006 C 
ATOM     18  C   UNL     1      13.125 -21.450  40.042  1.00  0.00     0.008 C 
ATOM     19  C   UNL     1      12.444 -22.271  42.321  1.00  0.00     0.008 C 
ENDBRANCH  12  17
ENDBRANCH  11  12
ENDBRANCH   1  11
TORSDOF 1
ENDMDL
MODEL 6
REMARK VINA RESULT:    -3.094      2.225      3.967
REMARK INTER + INTRA:          -4.971
REMARK INTER:                  -4.584
REMARK INTRA:                  -0.387
REMARK UNBOUND:                -0.249
REMARK SMILES CC1=CCC[C@@H](C)C(=O)C[C@@H](C(C)C)C(=O)C1
REMARK SMILES IDX 8 1 9 2 6 3 7 4 5 5 4 6 3 7 2 8 1 9 10 11 11 12 15 13 16 14
REMARK SMILES IDX 17 15 12 17 13 18 14 19
REMARK H PARENT
REMARK Flexibility Score: 70.00
ROOT
ATOM      1  C   UNL     1      13.727 -25.008  38.238  1.00  0.00     0.136 C 
ATOM      2  O   UNL     1      13.815 -24.214  37.313  1.00  0.00    -0.299 OA
ENDROOT
BRANCH   1   3
ATOM      3  C   UNL     1      14.981 -25.439  38.973  1.00  0.00     0.053 C 
ATOM      4  C   UNL     1      15.973 -24.273  39.013  1.00  0.00     0.016 C 
BRANCH   3   5
ATOM      5  C   UNL     1      15.643 -26.679  38.323  1.00  0.00     0.015 C 
BRANCH   5   6
ATOM      6  C   UNL     1      14.793 -27.957  38.405  1.00  0.00     0.028 C 
BRANCH   6   7
ATOM      7  C   UNL     1      14.746 -28.504  39.812  1.00  0.00    -0.028 C 
ATOM      8  C   UNL     1      13.621 -28.676  40.542  1.00  0.00    -0.070 CG0
ATOM      9  C   UNL     1      13.756 -29.253  41.928  1.00  0.00     0.039 C 
ATOM     10  G   UNL     1      12.239 -28.320  40.022  1.00  0.00     0.000 G0
ENDBRANCH   6   7
ENDBRANCH   5   6
ENDBRANCH   3   5
ENDBRANCH   1   3
BRANCH   1  11
ATOM     11  C   UNL     1      12.361 -25.500  38.658  1.00  0.00     0.087 C 
BRANCH  11  12
ATOM     12  C   UNL     1      12.209 -25.656  40.192  1.00  0.00     0.066 C 
BRANCH  12  13
ATOM     13  C   UNL     1      11.654 -27.028  40.564  1.00  0.00     0.140 C 
ATOM     14  O   UNL     1      10.732 -27.099  41.363  1.00  0.00    -0.299 OA
BRANCH  13  15
ATOM     15  C   UNL     1      12.226 -28.324  40.024  1.00  0.00     0.106 CG0
ATOM     16  G   UNL     1      13.621 -28.649  40.529  1.00  0.00     0.000 G0
ENDBRANCH  13  15
ENDBRANCH  12  13
BRANCH  12  17
ATOM     17  C   UNL     1      11.379 -24.485  40.807  1.00  0.00    -0.006 C 
ATOM     18  C   UNL     1      10.322 -23.969  39.817  1.00  0.00     0.008 C 
ATOM     19  C   UNL     1      12.231 -23.309  41.319  1.00  0.00     0.008 C 
ENDBRANCH  12  17
ENDBRANCH  11  12
ENDBRANCH   1  11
TORSDOF 1
ENDMDL
MODEL 7
REMARK VINA RESULT:    -3.040      1.836      4.312
REMARK INTER + INTRA:          -4.888
REMARK INTER:                  -4.495
REMARK INTRA:                  -0.393
REMARK UNBOUND:                -0.249
REMARK SMILES CC1=CCC[C@@H](C)C(=O)C[C@@H](C(C)C)C(=O)C1
REMARK SMILES IDX 8 1 9 2 6 3 7 4 5 5 4 6 3 7 2 8 1 9 10 11 11 12 15 13 16 14
REMARK SMILES IDX 17 15 12 17 13 18 14 19
REMARK H PARENT
REMARK Flexibility Score: 70.00
ROOT
ATOM      1  C   UNL     1      13.293 -23.637  41.089  1.00  0.00     0.136 C 
ATOM      2  O   UNL     1      13.754 -22.999  42.024  1.00  0.00    -0.299 OA
ENDROOT
BRANCH   1   3
ATOM      3  C   UNL     1      12.394 -22.945  40.083  1.00  0.00     0.053 C 
ATOM      4  C   UNL     1      13.002 -21.591  39.706  1.00  0.00     0.016 C 
BRANCH   3   5
ATOM      5  C   UNL     1      10.955 -22.751  40.622  1.00  0.00     0.015 C 
BRANCH   5   6
ATOM      6  C   UNL     1       9.907 -23.648  39.945  1.00  0.00     0.028 C 
BRANCH   6   7
ATOM      7  C   UNL     1       9.412 -24.725  40.880  1.00  0.00    -0.028 C 
ATOM      8  C   UNL     1       9.682 -26.045  40.757  1.00  0.00    -0.070 CG0
ATOM      9  C   UNL     1       9.119 -26.984  41.794  1.00  0.00     0.039 C 
ATOM     10  G   UNL     1      10.527 -26.612  39.630  1.00  0.00     0.000 G0
ENDBRANCH   6   7
ENDBRANCH   5   6
ENDBRANCH   3   5
ENDBRANCH   1   3
BRANCH   1  11
ATOM     11  C   UNL     1      13.675 -25.091  40.932  1.00  0.00     0.087 C 
BRANCH  11  12
ATOM     12  C   UNL     1      13.083 -25.749  39.660  1.00  0.00     0.066 C 
BRANCH  12  13
ATOM     13  C   UNL     1      12.011 -26.778  40.008  1.00  0.00     0.140 C 
ATOM     14  O   UNL     1      12.341 -27.808  40.578  1.00  0.00    -0.299 OA
BRANCH  13  15
ATOM     15  C   UNL     1      10.552 -26.609  39.635  1.00  0.00     0.106 CG0
ATOM     16  G   UNL     1       9.683 -26.056  40.751  1.00  0.00     0.000 G0
ENDBRANCH  13  15
ENDBRANCH  12  13
BRANCH  12  17
ATOM     17  C   UNL     1      14.204 -26.333  38.744  1.00  0.00    -0.006 C 
ATOM     18  C   UNL     1      15.597 -25.881  39.207  1.00  0.00     0.008 C 
ATOM     19  C   UNL     1      14.024 -26.016  37.248  1.00  0.00     0.008 C 
ENDBRANCH  12  17
ENDBRANCH  11  12
ENDBRANCH   1  11
TORSDOF 1
ENDMDL
MODEL 8
REMARK VINA RESULT:    -3.007      2.836      4.829
REMARK INTER + INTRA:          -4.838
REMARK INTER:                  -4.715
REMARK INTRA:                  -0.123
REMARK UNBOUND:                -0.249
REMARK SMILES CC1=CCC[C@@H](C)C(=O)C[C@@H](C(C)C)C(=O)C1
REMARK SMILES IDX 8 1 9 2 6 3 7 4 5 5 4 6 3 7 2 8 1 9 10 11 11 12 15 13 16 14
REMARK SMILES IDX 17 15 12 17 13 18 14 19
REMARK H PARENT
REMARK Flexibility Score: 70.00
ROOT
ATOM      1  C   UNL     1      12.384 -26.853  38.438  1.00  0.00     0.136 C 
ATOM      2  O   UNL     1      12.789 -26.461  37.353  1.00  0.00    -0.299 OA
ENDROOT
BRANCH   1   3
ATOM      3  C   UNL     1      12.743 -28.248  38.911  1.00  0.00     0.053 C 
ATOM      4  C   UNL     1      14.234 -28.297  39.260  1.00  0.00     0.016 C 
BRANCH   3   5
ATOM      5  C   UNL     1      12.407 -29.328  37.854  1.00  0.00     0.015 C 
BRANCH   5   6
ATOM      6  C   UNL     1      10.913 -29.678  37.771  1.00  0.00     0.028 C 
BRANCH   6   7
ATOM      7  C   UNL     1      10.255 -29.021  36.581  1.00  0.00    -0.028 C 
ATOM      8  C   UNL     1       9.228 -28.144  36.646  1.00  0.00    -0.070 CG0
ATOM      9  C   UNL     1       8.702 -27.569  35.356  1.00  0.00     0.039 C 
ATOM     10  G   UNL     1       8.593 -27.715  37.958  1.00  0.00     0.000 G0
ENDBRANCH   6   7
ENDBRANCH   5   6
ENDBRANCH   3   5
ENDBRANCH   1   3
BRANCH   1  11
ATOM     11  C   UNL     1      11.577 -25.913  39.304  1.00  0.00     0.087 C 
BRANCH  11  12
ATOM     12  C   UNL     1      10.197 -26.486  39.714  1.00  0.00     0.066 C 
BRANCH  12  13
ATOM     13  C   UNL     1       9.209 -26.457  38.552  1.00  0.00     0.140 C 
ATOM     14  O   UNL     1       8.857 -25.377  38.099  1.00  0.00    -0.299 OA
BRANCH  13  15
ATOM     15  C   UNL     1       8.598 -27.709  37.956  1.00  0.00     0.106 CG0
ATOM     16  G   UNL     1       9.214 -28.137  36.635  1.00  0.00     0.000 G0
ENDBRANCH  13  15
ENDBRANCH  12  13
BRANCH  12  17
ATOM     17  C   UNL     1       9.643 -25.783  40.993  1.00  0.00    -0.006 C 
ATOM     18  C   UNL     1       8.175 -26.160  41.247  1.00  0.00     0.008 C 
ATOM     19  C   UNL     1       9.793 -24.251  40.985  1.00  0.00     0.008 C 
ENDBRANCH  12  17
ENDBRANCH  11  12
ENDBRANCH   1  11
TORSDOF 1
ENDMDL
MODEL 9
REMARK VINA RESULT:    -2.995      2.116      4.552
REMARK INTER + INTRA:          -4.819
REMARK INTER:                  -4.906
REMARK INTRA:                   0.087
REMARK UNBOUND:                -0.249
REMARK SMILES CC1=CCC[C@@H](C)C(=O)C[C@@H](C(C)C)C(=O)C1
REMARK SMILES IDX 8 1 9 2 6 3 7 4 5 5 4 6 3 7 2 8 1 9 10 11 11 12 15 13 16 14
REMARK SMILES IDX 17 15 12 17 13 18 14 19
REMARK H PARENT
REMARK Flexibility Score: 70.00
ROOT
ATOM      1  C   UNL     1      11.981 -24.265  39.673  1.00  0.00     0.136 C 
ATOM      2  O   UNL     1      12.470 -23.726  38.691  1.00  0.00    -0.299 OA
ENDROOT
BRANCH   1   3
ATOM      3  C   UNL     1      10.548 -23.954  40.060  1.00  0.00     0.053 C 
ATOM      4  C   UNL     1      10.478 -22.542  40.651  1.00  0.00     0.016 C 
BRANCH   3   5
ATOM      5  C   UNL     1       9.979 -24.981  41.069  1.00  0.00     0.015 C 
BRANCH   5   6
ATOM      6  C   UNL     1       9.041 -26.023  40.438  1.00  0.00     0.028 C 
BRANCH   6   7
ATOM      7  C   UNL     1       8.971 -27.282  41.269  1.00  0.00    -0.028 C 
ATOM      8  C   UNL     1       9.797 -28.345  41.139  1.00  0.00    -0.070 CG0
ATOM      9  C   UNL     1       9.597 -29.516  42.067  1.00  0.00     0.039 C 
ATOM     10  G   UNL     1      10.913 -28.401  40.110  1.00  0.00     0.000 G0
ENDBRANCH   6   7
ENDBRANCH   5   6
ENDBRANCH   3   5
ENDBRANCH   1   3
BRANCH   1  11
ATOM     11  C   UNL     1      12.802 -25.271  40.446  1.00  0.00     0.087 C 
BRANCH  11  12
ATOM     12  C   UNL     1      12.906 -26.649  39.746  1.00  0.00     0.066 C 
BRANCH  12  13
ATOM     13  C   UNL     1      12.214 -27.743  40.555  1.00  0.00     0.140 C 
ATOM     14  O   UNL     1      12.731 -28.130  41.593  1.00  0.00    -0.299 OA
BRANCH  13  15
ATOM     15  C   UNL     1      10.930 -28.413  40.109  1.00  0.00     0.106 CG0
ATOM     16  G   UNL     1       9.806 -28.352  41.129  1.00  0.00     0.000 G0
ENDBRANCH  13  15
ENDBRANCH  12  13
BRANCH  12  17
ATOM     17  C   UNL     1      14.386 -27.004  39.398  1.00  0.00    -0.006 C 
ATOM     18  C   UNL     1      15.151 -25.773  38.887  1.00  0.00     0.008 C 
ATOM     19  C   UNL     1      14.537 -28.164  38.396  1.00  0.00     0.008 C 
ENDBRANCH  12  17
ENDBRANCH  11  12
ENDBRANCH   1  11
TORSDOF 1
ENDMDL
