MODEL 1
REMARK VINA RESULT:     1.485      0.000      0.000
REMARK INTER + INTRA:           1.906
REMARK INTER:                   2.006
REMARK INTRA:                  -0.100
REMARK UNBOUND:                -0.100
REMARK SMILES [NH3+]CCCC[C@H]([NH3+])C(=O)[O-]
REMARK SMILES IDX 4 1 3 2 2 3 1 4 5 8 6 9 7 10 8 14 9 15 10 16
REMARK H PARENT 1 5 1 6 1 7 7 11 7 12 7 13
REMARK Flexibility Score: inf
ROOT
ATOM      1  C   UNL     1      -1.126  -2.353  -9.857  1.00  0.00     0.012 C 
ENDROOT
BRANCH   1   2
ATOM      2  C   UNL     1       0.198  -1.659 -10.210  1.00  0.00     0.061 C 
BRANCH   2   3
ATOM      3  C   UNL     1       0.703  -0.742  -9.083  1.00  0.00     0.258 C 
BRANCH   3   4
ATOM      4  N   UNL     1       1.896   0.011  -9.476  1.00  0.00    -0.358 N 
ATOM      5  H   UNL     1       2.168  -0.225 -10.456  1.00  0.00     0.344 HD
ATOM      6  H   UNL     1       1.682   1.033  -9.430  1.00  0.00     0.344 HD
ATOM      7  H   UNL     1       2.688  -0.196  -8.824  1.00  0.00     0.344 HD
ENDBRANCH   3   4
ENDBRANCH   2   3
ENDBRANCH   1   2
BRANCH   1   8
ATOM      8  C   UNL     1      -1.750  -3.008 -11.099  1.00  0.00     0.072 C 
BRANCH   8   9
ATOM      9  C   UNL     1      -2.350  -4.400 -10.801  1.00  0.00     0.227 C 
BRANCH   9  10
ATOM     10  N   UNL     1      -1.892  -4.926  -9.507  1.00  0.00    -0.350 N 
ATOM     11  H   UNL     1      -1.111  -4.333  -9.138  1.00  0.00     0.345 HD
ATOM     12  H   UNL     1      -1.521  -5.895  -9.623  1.00  0.00     0.345 HD
ATOM     13  H   UNL     1      -2.672  -4.933  -8.811  1.00  0.00     0.345 HD
ENDBRANCH   9  10
BRANCH   9  14
ATOM     14  C   UNL     1      -1.987  -5.355 -11.907  1.00  0.00     0.099 C 
ATOM     15  O   UNL     1      -1.495  -4.927 -12.985  1.00  0.00    -0.544 OA
ATOM     16  O   UNL     1      -2.215  -6.717 -11.752  1.00  0.00    -0.544 OA
ENDBRANCH   9  14
ENDBRANCH   8   9
ENDBRANCH   1   8
TORSDOF 7
ENDMDL
MODEL 2
REMARK VINA RESULT:     1.709      3.602      5.688
REMARK INTER + INTRA:           2.208
REMARK INTER:                   2.291
REMARK INTRA:                  -0.082
REMARK UNBOUND:                -0.100
REMARK SMILES [NH3+]CCCC[C@H]([NH3+])C(=O)[O-]
REMARK SMILES IDX 4 1 3 2 2 3 1 4 5 8 6 9 7 10 8 14 9 15 10 16
REMARK H PARENT 1 5 1 6 1 7 7 11 7 12 7 13
REMARK Flexibility Score: inf
ROOT
ATOM      1  C   UNL     1      -1.476  -2.591 -10.791  1.00  0.00     0.012 C 
ENDROOT
BRANCH   1   2
ATOM      2  C   UNL     1      -1.879  -4.046 -10.505  1.00  0.00     0.061 C 
BRANCH   2   3
ATOM      3  C   UNL     1      -2.502  -4.737 -11.730  1.00  0.00     0.258 C 
BRANCH   3   4
ATOM      4  N   UNL     1      -2.275  -6.184 -11.721  1.00  0.00    -0.358 N 
ATOM      5  H   UNL     1      -1.536  -6.440 -12.413  1.00  0.00     0.344 HD
ATOM      6  H   UNL     1      -1.949  -6.471 -10.770  1.00  0.00     0.344 HD
ATOM      7  H   UNL     1      -3.162  -6.693 -11.939  1.00  0.00     0.344 HD
ENDBRANCH   3   4
ENDBRANCH   2   3
ENDBRANCH   1   2
BRANCH   1   8
ATOM      8  C   UNL     1      -0.558  -2.049  -9.685  1.00  0.00     0.072 C 
BRANCH   8   9
ATOM      9  C   UNL     1       0.559  -1.134 -10.232  1.00  0.00     0.227 C 
BRANCH   9  10
ATOM     10  N   UNL     1       1.629  -1.908 -10.879  1.00  0.00    -0.350 N 
ATOM     11  H   UNL     1       1.227  -2.502 -11.642  1.00  0.00     0.345 HD
ATOM     12  H   UNL     1       2.079  -2.548 -10.187  1.00  0.00     0.345 HD
ATOM     13  H   UNL     1       2.353  -1.273 -11.287  1.00  0.00     0.345 HD
ENDBRANCH   9  10
BRANCH   9  14
ATOM     14  C   UNL     1       1.125  -0.300  -9.113  1.00  0.00     0.099 C 
ATOM     15  O   UNL     1       0.524  -0.220  -8.010  1.00  0.00    -0.544 OA
ATOM     16  O   UNL     1       2.308   0.404  -9.302  1.00  0.00    -0.544 OA
ENDBRANCH   9  14
ENDBRANCH   8   9
ENDBRANCH   1   8
TORSDOF 7
ENDMDL
MODEL 3
REMARK VINA RESULT:     2.315      5.411      7.123
REMARK INTER + INTRA:           3.027
REMARK INTER:                   3.130
REMARK INTRA:                  -0.102
REMARK UNBOUND:                -0.100
REMARK SMILES [NH3+]CCCC[C@H]([NH3+])C(=O)[O-]
REMARK SMILES IDX 4 1 3 2 2 3 1 4 5 8 6 9 7 10 8 14 9 15 10 16
REMARK H PARENT 1 5 1 6 1 7 7 11 7 12 7 13
REMARK Flexibility Score: inf
ROOT
ATOM      1  C   UNL     1      -0.797   1.637  -6.094  1.00  0.00     0.012 C 
ENDROOT
BRANCH   1   2
ATOM      2  C   UNL     1      -1.142   2.708  -5.049  1.00  0.00     0.061 C 
BRANCH   2   3
ATOM      3  C   UNL     1      -2.603   3.180  -5.146  1.00  0.00     0.258 C 
BRANCH   3   4
ATOM      4  N   UNL     1      -2.781   4.537  -4.625  1.00  0.00    -0.358 N 
ATOM      5  H   UNL     1      -3.797   4.764  -4.542  1.00  0.00     0.344 HD
ATOM      6  H   UNL     1      -2.353   4.593  -3.672  1.00  0.00     0.344 HD
ATOM      7  H   UNL     1      -2.307   5.231  -5.247  1.00  0.00     0.344 HD
ENDBRANCH   3   4
ENDBRANCH   2   3
ENDBRANCH   1   2
BRANCH   1   8
ATOM      8  C   UNL     1       0.722   1.433  -6.190  1.00  0.00     0.072 C 
BRANCH   8   9
ATOM      9  C   UNL     1       1.106   0.009  -6.651  1.00  0.00     0.227 C 
BRANCH   9  10
ATOM     10  N   UNL     1       2.383  -0.426  -6.069  1.00  0.00    -0.350 N 
ATOM     11  H   UNL     1       2.556   0.081  -5.169  1.00  0.00     0.345 HD
ATOM     12  H   UNL     1       3.171  -0.196  -6.715  1.00  0.00     0.345 HD
ATOM     13  H   UNL     1       2.376  -1.456  -5.884  1.00  0.00     0.345 HD
ENDBRANCH   9  10
BRANCH   9  14
ATOM     14  C   UNL     1       1.178  -0.034  -8.154  1.00  0.00     0.099 C 
ATOM     15  O   UNL     1       0.313  -0.666  -8.817  1.00  0.00    -0.544 OA
ATOM     16  O   UNL     1       2.216   0.607  -8.818  1.00  0.00    -0.544 OA
ENDBRANCH   9  14
ENDBRANCH   8   9
ENDBRANCH   1   8
TORSDOF 7
ENDMDL
MODEL 4
REMARK VINA RESULT:     2.399      4.407      6.314
REMARK INTER + INTRA:           3.141
REMARK INTER:                   3.247
REMARK INTRA:                  -0.106
REMARK UNBOUND:                -0.100
REMARK SMILES [NH3+]CCCC[C@H]([NH3+])C(=O)[O-]
REMARK SMILES IDX 4 1 3 2 2 3 1 4 5 8 6 9 7 10 8 14 9 15 10 16
REMARK H PARENT 1 5 1 6 1 7 7 11 7 12 7 13
REMARK Flexibility Score: inf
ROOT
ATOM      1  C   UNL     1       0.918  -1.242 -10.333  1.00  0.00     0.012 C 
ENDROOT
BRANCH   1   2
ATOM      2  C   UNL     1      -0.004  -2.353 -10.856  1.00  0.00     0.061 C 
BRANCH   2   3
ATOM      3  C   UNL     1      -1.317  -2.453 -10.061  1.00  0.00     0.258 C 
BRANCH   3   4
ATOM      4  N   UNL     1      -1.913  -3.788 -10.146  1.00  0.00    -0.358 N 
ATOM      5  H   UNL     1      -2.805  -3.823  -9.603  1.00  0.00     0.344 HD
ATOM      6  H   UNL     1      -2.129  -4.000 -11.147  1.00  0.00     0.344 HD
ATOM      7  H   UNL     1      -1.246  -4.509  -9.787  1.00  0.00     0.344 HD
ENDBRANCH   3   4
ENDBRANCH   2   3
ENDBRANCH   1   2
BRANCH   1   8
ATOM      8  C   UNL     1       0.496  -0.795  -8.924  1.00  0.00     0.072 C 
BRANCH   8   9
ATOM      9  C   UNL     1       1.334   0.391  -8.398  1.00  0.00     0.227 C 
BRANCH   9  10
ATOM     10  N   UNL     1       2.718   0.341  -8.890  1.00  0.00    -0.350 N 
ATOM     11  H   UNL     1       3.385   0.432  -8.088  1.00  0.00     0.345 HD
ATOM     12  H   UNL     1       2.899   1.138  -9.540  1.00  0.00     0.345 HD
ATOM     13  H   UNL     1       2.905  -0.561  -9.387  1.00  0.00     0.345 HD
ENDBRANCH   9  10
BRANCH   9  14
ATOM     14  C   UNL     1       1.318   0.394  -6.893  1.00  0.00     0.099 C 
ATOM     15  O   UNL     1       2.160  -0.281  -6.243  1.00  0.00    -0.544 OA
ATOM     16  O   UNL     1       0.356   1.129  -6.211  1.00  0.00    -0.544 OA
ENDBRANCH   9  14
ENDBRANCH   8   9
ENDBRANCH   1   8
TORSDOF 7
ENDMDL
MODEL 5
REMARK VINA RESULT:     2.839      6.636      7.978
REMARK INTER + INTRA:           3.736
REMARK INTER:                   3.539
REMARK INTRA:                   0.197
REMARK UNBOUND:                -0.100
REMARK SMILES [NH3+]CCCC[C@H]([NH3+])C(=O)[O-]
REMARK SMILES IDX 4 1 3 2 2 3 1 4 5 8 6 9 7 10 8 14 9 15 10 16
REMARK H PARENT 1 5 1 6 1 7 7 11 7 12 7 13
REMARK Flexibility Score: inf
ROOT
ATOM      1  C   UNL     1      -0.429   2.256  -5.480  1.00  0.00     0.012 C 
ENDROOT
BRANCH   1   2
ATOM      2  C   UNL     1      -1.912   2.656  -5.441  1.00  0.00     0.061 C 
BRANCH   2   3
ATOM      3  C   UNL     1      -2.248   3.560  -4.243  1.00  0.00     0.258 C 
BRANCH   3   4
ATOM      4  N   UNL     1      -2.892   4.809  -4.657  1.00  0.00    -0.358 N 
ATOM      5  H   UNL     1      -2.186   5.574  -4.731  1.00  0.00     0.344 HD
ATOM      6  H   UNL     1      -3.327   4.670  -5.597  1.00  0.00     0.344 HD
ATOM      7  H   UNL     1      -3.641   5.075  -3.977  1.00  0.00     0.344 HD
ENDBRANCH   3   4
ENDBRANCH   2   3
ENDBRANCH   1   2
BRANCH   1   8
ATOM      8  C   UNL     1      -0.246   0.897  -6.173  1.00  0.00     0.072 C 
BRANCH   8   9
ATOM      9  C   UNL     1       1.122   0.768  -6.880  1.00  0.00     0.227 C 
BRANCH   9  10
ATOM     10  N   UNL     1       1.078  -0.209  -7.977  1.00  0.00    -0.350 N 
ATOM     11  H   UNL     1       1.661  -1.044  -7.734  1.00  0.00     0.345 HD
ATOM     12  H   UNL     1       1.475   0.209  -8.848  1.00  0.00     0.345 HD
ATOM     13  H   UNL     1       0.096  -0.521  -8.159  1.00  0.00     0.345 HD
ENDBRANCH   9  10
BRANCH   9  14
ATOM     14  C   UNL     1       2.175   0.377  -5.878  1.00  0.00     0.099 C 
ATOM     15  O   UNL     1       2.082   0.745  -4.677  1.00  0.00    -0.544 OA
ATOM     16  O   UNL     1       3.270  -0.379  -6.280  1.00  0.00    -0.544 OA
ENDBRANCH   9  14
ENDBRANCH   8   9
ENDBRANCH   1   8
TORSDOF 7
ENDMDL
MODEL 6
REMARK VINA RESULT:     3.155      1.418      1.830
REMARK INTER + INTRA:           4.163
REMARK INTER:                   4.177
REMARK INTRA:                  -0.014
REMARK UNBOUND:                -0.100
REMARK SMILES [NH3+]CCCC[C@H]([NH3+])C(=O)[O-]
REMARK SMILES IDX 4 1 3 2 2 3 1 4 5 8 6 9 7 10 8 14 9 15 10 16
REMARK H PARENT 1 5 1 6 1 7 7 11 7 12 7 13
REMARK Flexibility Score: inf
ROOT
ATOM      1  C   UNL     1      -2.081  -3.078 -10.584  1.00  0.00     0.012 C 
ENDROOT
BRANCH   1   2
ATOM      2  C   UNL     1      -1.122  -2.320  -9.654  1.00  0.00     0.061 C 
BRANCH   2   3
ATOM      3  C   UNL     1       0.157  -1.858 -10.374  1.00  0.00     0.258 C 
BRANCH   3   4
ATOM      4  N   UNL     1       0.967  -0.966  -9.542  1.00  0.00    -0.358 N 
ATOM      5  H   UNL     1       1.665  -0.457 -10.128  1.00  0.00     0.344 HD
ATOM      6  H   UNL     1       0.340  -0.262  -9.089  1.00  0.00     0.344 HD
ATOM      7  H   UNL     1       1.455  -1.509  -8.793  1.00  0.00     0.344 HD
ENDBRANCH   3   4
ENDBRANCH   2   3
ENDBRANCH   1   2
BRANCH   1   8
ATOM      8  C   UNL     1      -2.047  -4.587 -10.295  1.00  0.00     0.072 C 
BRANCH   8   9
ATOM      9  C   UNL     1      -2.603  -5.430 -11.463  1.00  0.00     0.227 C 
BRANCH   9  10
ATOM     10  N   UNL     1      -2.254  -6.851 -11.324  1.00  0.00    -0.350 N 
ATOM     11  H   UNL     1      -2.952  -7.332 -10.710  1.00  0.00     0.345 HD
ATOM     12  H   UNL     1      -1.318  -6.949 -10.871  1.00  0.00     0.345 HD
ATOM     13  H   UNL     1      -2.238  -7.324 -12.257  1.00  0.00     0.345 HD
ENDBRANCH   9  10
BRANCH   9  14
ATOM     14  C   UNL     1      -2.083  -4.892 -12.770  1.00  0.00     0.099 C 
ATOM     15  O   UNL     1      -0.914  -5.165 -13.152  1.00  0.00    -0.544 OA
ATOM     16  O   UNL     1      -2.886  -4.072 -13.552  1.00  0.00    -0.544 OA
ENDBRANCH   9  14
ENDBRANCH   8   9
ENDBRANCH   1   8
TORSDOF 7
ENDMDL
MODEL 7
REMARK VINA RESULT:     3.262      4.165      5.269
REMARK INTER + INTRA:           4.307
REMARK INTER:                   4.450
REMARK INTRA:                  -0.143
REMARK UNBOUND:                -0.100
REMARK SMILES [NH3+]CCCC[C@H]([NH3+])C(=O)[O-]
REMARK SMILES IDX 4 1 3 2 2 3 1 4 5 8 6 9 7 10 8 14 9 15 10 16
REMARK H PARENT 1 5 1 6 1 7 7 11 7 12 7 13
REMARK Flexibility Score: inf
ROOT
ATOM      1  C   UNL     1       0.795   0.762  -6.636  1.00  0.00     0.012 C 
ENDROOT
BRANCH   1   2
ATOM      2  C   UNL     1       1.565  -0.153  -5.672  1.00  0.00     0.061 C 
BRANCH   2   3
ATOM      3  C   UNL     1       3.006   0.326  -5.427  1.00  0.00     0.258 C 
BRANCH   3   4
ATOM      4  N   UNL     1       3.939  -0.190  -6.431  1.00  0.00    -0.358 N 
ATOM      5  H   UNL     1       4.571  -0.904  -6.006  1.00  0.00     0.344 HD
ATOM      6  H   UNL     1       3.393  -0.647  -7.197  1.00  0.00     0.344 HD
ATOM      7  H   UNL     1       4.502   0.590  -6.840  1.00  0.00     0.344 HD
ENDBRANCH   3   4
ENDBRANCH   2   3
ENDBRANCH   1   2
BRANCH   1   8
ATOM      8  C   UNL     1       0.326  -0.016  -7.875  1.00  0.00     0.072 C 
BRANCH   8   9
ATOM      9  C   UNL     1       1.492  -0.418  -8.804  1.00  0.00     0.227 C 
BRANCH   9  10
ATOM     10  N   UNL     1       2.252   0.754  -9.263  1.00  0.00    -0.350 N 
ATOM     11  H   UNL     1       2.844   0.494 -10.087  1.00  0.00     0.345 HD
ATOM     12  H   UNL     1       2.893   1.087  -8.508  1.00  0.00     0.345 HD
ATOM     13  H   UNL     1       1.607   1.531  -9.539  1.00  0.00     0.345 HD
ENDBRANCH   9  10
BRANCH   9  14
ATOM     14  C   UNL     1       0.959  -1.186  -9.984  1.00  0.00     0.099 C 
ATOM     15  O   UNL     1       1.636  -1.283 -11.042  1.00  0.00    -0.544 OA
ATOM     16  O   UNL     1      -0.298  -1.775  -9.918  1.00  0.00    -0.544 OA
ENDBRANCH   9  14
ENDBRANCH   8   9
ENDBRANCH   1   8
TORSDOF 7
ENDMDL
MODEL 8
REMARK VINA RESULT:     3.383      7.348      8.777
REMARK INTER + INTRA:           4.470
REMARK INTER:                   4.537
REMARK INTRA:                  -0.067
REMARK UNBOUND:                -0.100
REMARK SMILES [NH3+]CCCC[C@H]([NH3+])C(=O)[O-]
REMARK SMILES IDX 4 1 3 2 2 3 1 4 5 8 6 9 7 10 8 14 9 15 10 16
REMARK H PARENT 1 5 1 6 1 7 7 11 7 12 7 13
REMARK Flexibility Score: inf
ROOT
ATOM      1  C   UNL     1      -0.611   1.130  -6.348  1.00  0.00     0.012 C 
ENDROOT
BRANCH   1   2
ATOM      2  C   UNL     1       0.861   0.814  -6.653  1.00  0.00     0.061 C 
BRANCH   2   3
ATOM      3  C   UNL     1       1.032  -0.021  -7.933  1.00  0.00     0.258 C 
BRANCH   3   4
ATOM      4  N   UNL     1       2.177   0.421  -8.733  1.00  0.00    -0.358 N 
ATOM      5  H   UNL     1       3.050  -0.052  -8.410  1.00  0.00     0.344 HD
ATOM      6  H   UNL     1       2.012   0.163  -9.732  1.00  0.00     0.344 HD
ATOM      7  H   UNL     1       2.286   1.459  -8.669  1.00  0.00     0.344 HD
ENDBRANCH   3   4
ENDBRANCH   2   3
ENDBRANCH   1   2
BRANCH   1   8
ATOM      8  C   UNL     1      -0.728   2.347  -5.416  1.00  0.00     0.072 C 
BRANCH   8   9
ATOM      9  C   UNL     1      -2.186   2.637  -4.996  1.00  0.00     0.227 C 
BRANCH   9  10
ATOM     10  N   UNL     1      -3.102   2.600  -6.145  1.00  0.00    -0.350 N 
ATOM     11  H   UNL     1      -2.807   1.847  -6.811  1.00  0.00     0.345 HD
ATOM     12  H   UNL     1      -3.069   3.506  -6.663  1.00  0.00     0.345 HD
ATOM     13  H   UNL     1      -4.083   2.413  -5.833  1.00  0.00     0.345 HD
ENDBRANCH   9  10
BRANCH   9  14
ATOM     14  C   UNL     1      -2.259   3.980  -4.317  1.00  0.00     0.099 C 
ATOM     15  O   UNL     1      -1.908   4.107  -3.115  1.00  0.00    -0.544 OA
ATOM     16  O   UNL     1      -2.738   5.084  -5.012  1.00  0.00    -0.544 OA
ENDBRANCH   9  14
ENDBRANCH   8   9
ENDBRANCH   1   8
TORSDOF 7
ENDMDL
MODEL 9
REMARK VINA RESULT:     3.430      2.951      5.156
REMARK INTER + INTRA:           4.534
REMARK INTER:                   4.622
REMARK INTRA:                  -0.088
REMARK UNBOUND:                -0.100
REMARK SMILES [NH3+]CCCC[C@H]([NH3+])C(=O)[O-]
REMARK SMILES IDX 4 1 3 2 2 3 1 4 5 8 6 9 7 10 8 14 9 15 10 16
REMARK H PARENT 1 5 1 6 1 7 7 11 7 12 7 13
REMARK Flexibility Score: inf
ROOT
ATOM      1  C   UNL     1      -2.129  -4.416 -10.777  1.00  0.00     0.012 C 
ENDROOT
BRANCH   1   2
ATOM      2  C   UNL     1      -2.351  -5.084 -12.141  1.00  0.00     0.061 C 
BRANCH   2   3
ATOM      3  C   UNL     1      -2.151  -6.608 -12.093  1.00  0.00     0.258 C 
BRANCH   3   4
ATOM      4  N   UNL     1      -2.152  -7.122 -10.721  1.00  0.00    -0.358 N 
ATOM      5  H   UNL     1      -1.380  -6.686 -10.170  1.00  0.00     0.344 HD
ATOM      6  H   UNL     1      -3.061  -6.875 -10.267  1.00  0.00     0.344 HD
ATOM      7  H   UNL     1      -2.050  -8.163 -10.722  1.00  0.00     0.344 HD
ENDBRANCH   3   4
ENDBRANCH   2   3
ENDBRANCH   1   2
BRANCH   1   8
ATOM      8  C   UNL     1      -1.361  -3.094 -10.931  1.00  0.00     0.072 C 
BRANCH   8   9
ATOM      9  C   UNL     1      -0.991  -2.457  -9.574  1.00  0.00     0.227 C 
BRANCH   9  10
ATOM     10  N   UNL     1      -2.137  -1.766  -8.966  1.00  0.00    -0.350 N 
ATOM     11  H   UNL     1      -2.345  -0.887  -9.495  1.00  0.00     0.345 HD
ATOM     12  H   UNL     1      -1.913  -1.494  -7.982  1.00  0.00     0.345 HD
ATOM     13  H   UNL     1      -2.986  -2.377  -8.973  1.00  0.00     0.345 HD
ENDBRANCH   9  10
BRANCH   9  14
ATOM     14  C   UNL     1       0.155  -1.497  -9.761  1.00  0.00     0.099 C 
ATOM     15  O   UNL     1       0.874  -1.554 -10.793  1.00  0.00    -0.544 OA
ATOM     16  O   UNL     1       0.437  -0.554  -8.780  1.00  0.00    -0.544 OA
ENDBRANCH   9  14
ENDBRANCH   8   9
ENDBRANCH   1   8
TORSDOF 7
ENDMDL
