MODEL 1
REMARK VINA RESULT:    -6.661      0.000      0.000
REMARK INTER + INTRA:         -12.019
REMARK INTER:                 -10.165
REMARK INTRA:                  -1.854
REMARK UNBOUND:                -1.854
REMARK SMILES CC(=O)CCC=C(C)CCC=C(C)CCC=C(C)C
REMARK SMILES IDX 10 1 11 2 12 3 13 4 14 5 15 6 16 7 18 8 17 9 19 10 9 11 7 12
REMARK SMILES IDX 6 13 8 14 5 15 4 16 2 17 3 18 1 19
REMARK H PARENT
REMARK Flexibility Score: inf
ROOT
ATOM      1  C   UNL     1     -13.384 -16.022  31.839  1.00  0.00     0.032 C 
ENDROOT
BRANCH   1   2
ATOM      2  C   UNL     1     -12.210 -15.871  32.781  1.00  0.00    -0.028 C 
ATOM      3  C   UNL     1     -10.905 -16.018  32.453  1.00  0.00    -0.077 C 
ATOM      4  C   UNL     1      -9.876 -15.792  33.531  1.00  0.00     0.039 C 
BRANCH   3   5
ATOM      5  C   UNL     1     -10.431 -16.403  31.064  1.00  0.00     0.034 C 
BRANCH   5   6
ATOM      6  C   UNL     1     -10.253 -17.921  30.938  1.00  0.00     0.032 C 
BRANCH   6   7
ATOM      7  C   UNL     1     -11.121 -18.471  29.835  1.00  0.00    -0.028 C 
ATOM      8  C   UNL     1     -12.817 -19.962  28.819  1.00  0.00     0.039 C 
ATOM      9  C   UNL     1     -11.971 -19.514  29.983  1.00  0.00    -0.080 C 
ATOM     10  C   UNL     1     -12.078 -20.285  31.275  1.00  0.00     0.039 C 
ENDBRANCH   6   7
ENDBRANCH   5   6
ENDBRANCH   3   5
ENDBRANCH   1   2
BRANCH   1  11
ATOM     11  C   UNL     1     -13.980 -14.655  31.474  1.00  0.00     0.034 C 
BRANCH  11  12
ATOM     12  C   UNL     1     -13.817 -14.341  30.000  1.00  0.00    -0.077 C 
ATOM     13  C   UNL     1     -12.954 -15.077  29.264  1.00  0.00    -0.028 C 
ATOM     14  C   UNL     1     -14.620 -13.211  29.400  1.00  0.00     0.039 C 
BRANCH  13  15
ATOM     15  C   UNL     1     -12.716 -14.899  27.782  1.00  0.00     0.035 C 
BRANCH  15  16
ATOM     16  C   UNL     1     -12.500 -16.244  27.080  1.00  0.00     0.079 C 
BRANCH  16  17
ATOM     17  C   UNL     1     -11.038 -16.562  26.913  1.00  0.00     0.130 C 
ATOM     18  O   UNL     1     -10.215 -16.035  27.644  1.00  0.00    -0.300 OA
ATOM     19  C   UNL     1     -10.585 -17.505  25.840  1.00  0.00     0.087 C 
ENDBRANCH  16  17
ENDBRANCH  15  16
ENDBRANCH  13  15
ENDBRANCH  11  12
ENDBRANCH   1  11
TORSDOF 9
ENDMDL
MODEL 2
REMARK VINA RESULT:    -6.630      1.545      4.465
REMARK INTER + INTRA:         -11.972
REMARK INTER:                 -10.219
REMARK INTRA:                  -1.753
REMARK UNBOUND:                -1.854
REMARK SMILES CC(=O)CCC=C(C)CCC=C(C)CCC=C(C)C
REMARK SMILES IDX 10 1 11 2 12 3 13 4 14 5 15 6 16 7 18 8 17 9 19 10 9 11 7 12
REMARK SMILES IDX 6 13 8 14 5 15 4 16 2 17 3 18 1 19
REMARK H PARENT
REMARK Flexibility Score: inf
ROOT
ATOM      1  C   UNL     1     -13.737 -15.757  32.264  1.00  0.00     0.032 C 
ENDROOT
BRANCH   1   2
ATOM      2  C   UNL     1     -14.036 -14.684  31.240  1.00  0.00    -0.028 C 
ATOM      3  C   UNL     1     -13.596 -14.663  29.960  1.00  0.00    -0.077 C 
ATOM      4  C   UNL     1     -14.033 -13.518  29.083  1.00  0.00     0.039 C 
BRANCH   3   5
ATOM      5  C   UNL     1     -12.686 -15.725  29.372  1.00  0.00     0.034 C 
BRANCH   5   6
ATOM      6  C   UNL     1     -11.443 -15.098  28.729  1.00  0.00     0.032 C 
BRANCH   6   7
ATOM      7  C   UNL     1     -10.750 -16.090  27.830  1.00  0.00    -0.028 C 
ATOM      8  C   UNL     1     -10.495 -17.566  25.859  1.00  0.00     0.039 C 
ATOM      9  C   UNL     1     -11.291 -16.604  26.701  1.00  0.00    -0.080 C 
ATOM     10  C   UNL     1     -12.698 -16.278  26.267  1.00  0.00     0.039 C 
ENDBRANCH   6   7
ENDBRANCH   5   6
ENDBRANCH   3   5
ENDBRANCH   1   2
BRANCH   1  11
ATOM     11  C   UNL     1     -12.490 -15.405  33.086  1.00  0.00     0.034 C 
BRANCH  11  12
ATOM     12  C   UNL     1     -11.298 -16.260  32.704  1.00  0.00    -0.077 C 
ATOM     13  C   UNL     1     -11.502 -17.384  31.980  1.00  0.00    -0.028 C 
ATOM     14  C   UNL     1      -9.918 -15.832  33.145  1.00  0.00     0.039 C 
BRANCH  13  15
ATOM     15  C   UNL     1     -10.409 -18.312  31.500  1.00  0.00     0.035 C 
BRANCH  15  16
ATOM     16  C   UNL     1     -10.662 -18.785  30.065  1.00  0.00     0.079 C 
BRANCH  16  17
ATOM     17  C   UNL     1     -11.915 -19.612  29.960  1.00  0.00     0.130 C 
ATOM     18  O   UNL     1     -12.192 -20.411  30.841  1.00  0.00    -0.300 OA
ATOM     19  C   UNL     1     -12.816 -19.477  28.770  1.00  0.00     0.087 C 
ENDBRANCH  16  17
ENDBRANCH  15  16
ENDBRANCH  13  15
ENDBRANCH  11  12
ENDBRANCH   1  11
TORSDOF 9
ENDMDL
MODEL 3
REMARK VINA RESULT:    -6.521      1.855      4.846
REMARK INTER + INTRA:         -11.806
REMARK INTER:                 -10.953
REMARK INTRA:                  -0.853
REMARK UNBOUND:                -1.854
REMARK SMILES CC(=O)CCC=C(C)CCC=C(C)CCC=C(C)C
REMARK SMILES IDX 10 1 11 2 12 3 13 4 14 5 15 6 16 7 18 8 17 9 19 10 9 11 7 12
REMARK SMILES IDX 6 13 8 14 5 15 4 16 2 17 3 18 1 19
REMARK H PARENT
REMARK Flexibility Score: inf
ROOT
ATOM      1  C   UNL     1     -10.466 -18.038  29.166  1.00  0.00     0.032 C 
ENDROOT
BRANCH   1   2
ATOM      2  C   UNL     1     -11.660 -18.768  28.591  1.00  0.00    -0.028 C 
ATOM      3  C   UNL     1     -12.423 -19.678  29.242  1.00  0.00    -0.077 C 
ATOM      4  C   UNL     1     -13.595 -20.272  28.505  1.00  0.00     0.039 C 
BRANCH   3   5
ATOM      5  C   UNL     1     -12.152 -20.130  30.665  1.00  0.00     0.034 C 
BRANCH   5   6
ATOM      6  C   UNL     1     -11.670 -18.964  31.537  1.00  0.00     0.032 C 
BRANCH   6   7
ATOM      7  C   UNL     1     -12.821 -18.062  31.904  1.00  0.00    -0.028 C 
ATOM      8  C   UNL     1     -13.917 -15.933  32.534  1.00  0.00     0.039 C 
ATOM      9  C   UNL     1     -12.693 -16.750  32.211  1.00  0.00    -0.080 C 
ATOM     10  C   UNL     1     -11.347 -16.071  32.284  1.00  0.00     0.039 C 
ENDBRANCH   6   7
ENDBRANCH   5   6
ENDBRANCH   3   5
ENDBRANCH   1   2
BRANCH   1  11
ATOM     11  C   UNL     1     -10.119 -16.799  28.328  1.00  0.00     0.034 C 
BRANCH  11  12
ATOM     12  C   UNL     1     -11.360 -16.060  27.867  1.00  0.00    -0.077 C 
ATOM     13  C   UNL     1     -11.911 -15.132  28.682  1.00  0.00    -0.028 C 
ATOM     14  C   UNL     1     -11.945 -16.385  26.513  1.00  0.00     0.039 C 
BRANCH  13  15
ATOM     15  C   UNL     1     -13.124 -14.296  28.341  1.00  0.00     0.035 C 
BRANCH  15  16
ATOM     16  C   UNL     1     -13.906 -13.900  29.598  1.00  0.00     0.079 C 
BRANCH  16  17
ATOM     17  C   UNL     1     -15.001 -12.915  29.291  1.00  0.00     0.130 C 
ATOM     18  O   UNL     1     -14.718 -11.761  29.009  1.00  0.00    -0.300 OA
ATOM     19  C   UNL     1     -16.438 -13.335  29.348  1.00  0.00     0.087 C 
ENDBRANCH  16  17
ENDBRANCH  15  16
ENDBRANCH  13  15
ENDBRANCH  11  12
ENDBRANCH   1  11
TORSDOF 9
ENDMDL
MODEL 4
REMARK VINA RESULT:    -6.351      1.755      4.491
REMARK INTER + INTRA:         -11.546
REMARK INTER:                 -10.502
REMARK INTRA:                  -1.043
REMARK UNBOUND:                -1.854
REMARK SMILES CC(=O)CCC=C(C)CCC=C(C)CCC=C(C)C
REMARK SMILES IDX 10 1 11 2 12 3 13 4 14 5 15 6 16 7 18 8 17 9 19 10 9 11 7 12
REMARK SMILES IDX 6 13 8 14 5 15 4 16 2 17 3 18 1 19
REMARK H PARENT
REMARK Flexibility Score: inf
ROOT
ATOM      1  C   UNL     1     -13.617 -15.362  27.316  1.00  0.00     0.032 C 
ENDROOT
BRANCH   1   2
ATOM      2  C   UNL     1     -12.602 -16.045  26.427  1.00  0.00    -0.028 C 
ATOM      3  C   UNL     1     -11.456 -16.637  26.839  1.00  0.00    -0.077 C 
ATOM      4  C   UNL     1     -10.588 -17.295  25.798  1.00  0.00     0.039 C 
BRANCH   3   5
ATOM      5  C   UNL     1     -11.003 -16.663  28.287  1.00  0.00     0.034 C 
BRANCH   5   6
ATOM      6  C   UNL     1     -10.249 -17.959  28.610  1.00  0.00     0.032 C 
BRANCH   6   7
ATOM      7  C   UNL     1     -10.765 -18.572  29.887  1.00  0.00    -0.028 C 
ATOM      8  C   UNL     1     -12.231 -19.997  31.283  1.00  0.00     0.039 C 
ATOM      9  C   UNL     1     -11.820 -19.416  29.955  1.00  0.00    -0.080 C 
ATOM     10  C   UNL     1     -12.640 -19.773  28.740  1.00  0.00     0.039 C 
ENDBRANCH   6   7
ENDBRANCH   5   6
ENDBRANCH   3   5
ENDBRANCH   1   2
BRANCH   1  11
ATOM     11  C   UNL     1     -12.956 -14.277  28.178  1.00  0.00     0.034 C 
BRANCH  11  12
ATOM     12  C   UNL     1     -13.815 -13.897  29.368  1.00  0.00    -0.077 C 
ATOM     13  C   UNL     1     -13.809 -14.691  30.462  1.00  0.00    -0.028 C 
ATOM     14  C   UNL     1     -14.653 -12.642  29.294  1.00  0.00     0.039 C 
BRANCH  13  15
ATOM     15  C   UNL     1     -14.586 -14.419  31.730  1.00  0.00     0.035 C 
BRANCH  15  16
ATOM     16  C   UNL     1     -13.817 -14.881  32.972  1.00  0.00     0.079 C 
BRANCH  16  17
ATOM     17  C   UNL     1     -13.161 -16.219  32.761  1.00  0.00     0.130 C 
ATOM     18  O   UNL     1     -13.822 -17.241  32.855  1.00  0.00    -0.300 OA
ATOM     19  C   UNL     1     -11.696 -16.306  32.455  1.00  0.00     0.087 C 
ENDBRANCH  16  17
ENDBRANCH  15  16
ENDBRANCH  13  15
ENDBRANCH  11  12
ENDBRANCH   1  11
TORSDOF 9
ENDMDL
MODEL 5
REMARK VINA RESULT:    -6.197      1.955      6.270
REMARK INTER + INTRA:         -11.311
REMARK INTER:                  -9.922
REMARK INTRA:                  -1.389
REMARK UNBOUND:                -1.854
REMARK SMILES CC(=O)CCC=C(C)CCC=C(C)CCC=C(C)C
REMARK SMILES IDX 10 1 11 2 12 3 13 4 14 5 15 6 16 7 18 8 17 9 19 10 9 11 7 12
REMARK SMILES IDX 6 13 8 14 5 15 4 16 2 17 3 18 1 19
REMARK H PARENT
REMARK Flexibility Score: inf
ROOT
ATOM      1  C   UNL     1     -11.092 -18.153  28.071  1.00  0.00     0.032 C 
ENDROOT
BRANCH   1   2
ATOM      2  C   UNL     1     -12.013 -17.388  27.146  1.00  0.00    -0.028 C 
ATOM      3  C   UNL     1     -12.484 -16.136  27.353  1.00  0.00    -0.077 C 
ATOM      4  C   UNL     1     -13.367 -15.531  26.292  1.00  0.00     0.039 C 
BRANCH   3   5
ATOM      5  C   UNL     1     -12.173 -15.321  28.594  1.00  0.00     0.034 C 
BRANCH   5   6
ATOM      6  C   UNL     1     -12.895 -13.968  28.567  1.00  0.00     0.032 C 
BRANCH   6   7
ATOM      7  C   UNL     1     -14.306 -14.106  29.079  1.00  0.00    -0.028 C 
ATOM      8  C   UNL     1     -16.576 -13.333  29.696  1.00  0.00     0.039 C 
ATOM      9  C   UNL     1     -15.176 -13.076  29.201  1.00  0.00    -0.080 C 
ATOM     10  C   UNL     1     -14.782 -11.653  28.895  1.00  0.00     0.039 C 
ENDBRANCH   6   7
ENDBRANCH   5   6
ENDBRANCH   3   5
ENDBRANCH   1   2
BRANCH   1  11
ATOM     11  C   UNL     1     -11.872 -19.184  28.899  1.00  0.00     0.034 C 
BRANCH  11  12
ATOM     12  C   UNL     1     -11.864 -18.848  30.377  1.00  0.00    -0.077 C 
ATOM     13  C   UNL     1     -11.441 -17.625  30.769  1.00  0.00    -0.028 C 
ATOM     14  C   UNL     1     -12.328 -19.890  31.367  1.00  0.00     0.039 C 
BRANCH  13  15
ATOM     15  C   UNL     1     -11.411 -17.140  32.201  1.00  0.00     0.035 C 
BRANCH  15  16
ATOM     16  C   UNL     1     -12.199 -15.837  32.371  1.00  0.00     0.079 C 
BRANCH  16  17
ATOM     17  C   UNL     1     -13.643 -16.094  32.708  1.00  0.00     0.130 C 
ATOM     18  O   UNL     1     -13.982 -17.188  33.133  1.00  0.00    -0.300 OA
ATOM     19  C   UNL     1     -14.672 -15.023  32.508  1.00  0.00     0.087 C 
ENDBRANCH  16  17
ENDBRANCH  15  16
ENDBRANCH  13  15
ENDBRANCH  11  12
ENDBRANCH   1  11
TORSDOF 9
ENDMDL
MODEL 6
REMARK VINA RESULT:    -6.038      1.523      4.723
REMARK INTER + INTRA:         -11.068
REMARK INTER:                  -8.927
REMARK INTRA:                  -2.141
REMARK UNBOUND:                -1.854
REMARK SMILES CC(=O)CCC=C(C)CCC=C(C)CCC=C(C)C
REMARK SMILES IDX 10 1 11 2 12 3 13 4 14 5 15 6 16 7 18 8 17 9 19 10 9 11 7 12
REMARK SMILES IDX 6 13 8 14 5 15 4 16 2 17 3 18 1 19
REMARK H PARENT
REMARK Flexibility Score: inf
ROOT
ATOM      1  C   UNL     1     -11.978 -17.893  32.115  1.00  0.00     0.032 C 
ENDROOT
BRANCH   1   2
ATOM      2  C   UNL     1     -13.104 -16.960  32.504  1.00  0.00    -0.028 C 
ATOM      3  C   UNL     1     -13.404 -15.785  31.903  1.00  0.00    -0.077 C 
ATOM      4  C   UNL     1     -14.591 -15.012  32.418  1.00  0.00     0.039 C 
BRANCH   3   5
ATOM      5  C   UNL     1     -12.605 -15.209  30.749  1.00  0.00     0.034 C 
BRANCH   5   6
ATOM      6  C   UNL     1     -13.479 -15.030  29.501  1.00  0.00     0.032 C 
BRANCH   6   7
ATOM      7  C   UNL     1     -13.555 -13.578  29.105  1.00  0.00    -0.028 C 
ATOM      8  C   UNL     1     -14.650 -11.392  28.713  1.00  0.00     0.039 C 
ATOM      9  C   UNL     1     -14.695 -12.849  29.096  1.00  0.00    -0.080 C 
ATOM     10  C   UNL     1     -16.037 -13.456  29.421  1.00  0.00     0.039 C 
ENDBRANCH   6   7
ENDBRANCH   5   6
ENDBRANCH   3   5
ENDBRANCH   1   2
BRANCH   1  11
ATOM     11  C   UNL     1     -12.466 -18.974  31.141  1.00  0.00     0.034 C 
BRANCH  11  12
ATOM     12  C   UNL     1     -11.924 -18.764  29.741  1.00  0.00    -0.077 C 
ATOM     13  C   UNL     1     -10.846 -17.966  29.568  1.00  0.00    -0.028 C 
ATOM     14  C   UNL     1     -12.607 -19.450  28.582  1.00  0.00     0.039 C 
BRANCH  13  15
ATOM     15  C   UNL     1     -10.179 -17.694  28.239  1.00  0.00     0.035 C 
BRANCH  15  16
ATOM     16  C   UNL     1     -10.663 -16.375  27.626  1.00  0.00     0.079 C 
BRANCH  16  17
ATOM     17  C   UNL     1     -11.449 -16.599  26.362  1.00  0.00     0.130 C 
ATOM     18  O   UNL     1     -10.869 -16.920  25.336  1.00  0.00    -0.300 OA
ATOM     19  C   UNL     1     -12.935 -16.412  26.350  1.00  0.00     0.087 C 
ENDBRANCH  16  17
ENDBRANCH  15  16
ENDBRANCH  13  15
ENDBRANCH  11  12
ENDBRANCH   1  11
TORSDOF 9
ENDMDL
MODEL 7
REMARK VINA RESULT:    -5.980      1.567      5.970
REMARK INTER + INTRA:         -10.980
REMARK INTER:                 -10.125
REMARK INTRA:                  -0.856
REMARK UNBOUND:                -1.854
REMARK SMILES CC(=O)CCC=C(C)CCC=C(C)CCC=C(C)C
REMARK SMILES IDX 10 1 11 2 12 3 13 4 14 5 15 6 16 7 18 8 17 9 19 10 9 11 7 12
REMARK SMILES IDX 6 13 8 14 5 15 4 16 2 17 3 18 1 19
REMARK H PARENT
REMARK Flexibility Score: inf
ROOT
ATOM      1  C   UNL     1     -13.119 -18.914  28.272  1.00  0.00     0.032 C 
ENDROOT
BRANCH   1   2
ATOM      2  C   UNL     1     -11.984 -18.416  27.404  1.00  0.00    -0.028 C 
ATOM      3  C   UNL     1     -11.863 -17.168  26.894  1.00  0.00    -0.077 C 
ATOM      4  C   UNL     1     -10.636 -16.856  26.077  1.00  0.00     0.039 C 
BRANCH   3   5
ATOM      5  C   UNL     1     -12.898 -16.078  27.099  1.00  0.00     0.034 C 
BRANCH   5   6
ATOM      6  C   UNL     1     -12.520 -15.164  28.271  1.00  0.00     0.032 C 
BRANCH   6   7
ATOM      7  C   UNL     1     -13.301 -13.876  28.218  1.00  0.00    -0.028 C 
ATOM      8  C   UNL     1     -14.774 -12.084  29.082  1.00  0.00     0.039 C 
ATOM      9  C   UNL     1     -14.060 -13.402  29.233  1.00  0.00    -0.080 C 
ATOM     10  C   UNL     1     -14.255 -14.172  30.515  1.00  0.00     0.039 C 
ENDBRANCH   6   7
ENDBRANCH   5   6
ENDBRANCH   3   5
ENDBRANCH   1   2
BRANCH   1  11
ATOM     11  C   UNL     1     -12.659 -20.065  29.177  1.00  0.00     0.034 C 
BRANCH  11  12
ATOM     12  C   UNL     1     -11.719 -19.591  30.267  1.00  0.00    -0.077 C 
ATOM     13  C   UNL     1     -10.845 -18.596  29.993  1.00  0.00    -0.028 C 
ATOM     14  C   UNL     1     -11.786 -20.245  31.627  1.00  0.00     0.039 C 
BRANCH  13  15
ATOM     15  C   UNL     1      -9.875 -18.001  30.988  1.00  0.00     0.035 C 
BRANCH  15  16
ATOM     16  C   UNL     1     -10.110 -16.498  31.173  1.00  0.00     0.079 C 
BRANCH  16  17
ATOM     17  C   UNL     1     -10.949 -16.206  32.387  1.00  0.00     0.130 C 
ATOM     18  O   UNL     1     -10.426 -15.749  33.391  1.00  0.00    -0.300 OA
ATOM     19  C   UNL     1     -12.421 -16.490  32.378  1.00  0.00     0.087 C 
ENDBRANCH  16  17
ENDBRANCH  15  16
ENDBRANCH  13  15
ENDBRANCH  11  12
ENDBRANCH   1  11
TORSDOF 9
ENDMDL
MODEL 8
REMARK VINA RESULT:    -5.974      1.856      4.610
REMARK INTER + INTRA:         -10.971
REMARK INTER:                  -9.647
REMARK INTRA:                  -1.323
REMARK UNBOUND:                -1.854
REMARK SMILES CC(=O)CCC=C(C)CCC=C(C)CCC=C(C)C
REMARK SMILES IDX 10 1 11 2 12 3 13 4 14 5 15 6 16 7 18 8 17 9 19 10 9 11 7 12
REMARK SMILES IDX 6 13 8 14 5 15 4 16 2 17 3 18 1 19
REMARK H PARENT
REMARK Flexibility Score: inf
ROOT
ATOM      1  C   UNL     1     -11.196 -18.430  31.978  1.00  0.00     0.032 C 
ENDROOT
BRANCH   1   2
ATOM      2  C   UNL     1     -12.128 -18.837  30.858  1.00  0.00    -0.028 C 
ATOM      3  C   UNL     1     -11.793 -18.963  29.553  1.00  0.00    -0.077 C 
ATOM      4  C   UNL     1     -12.861 -19.413  28.590  1.00  0.00     0.039 C 
BRANCH   3   5
ATOM      5  C   UNL     1     -10.405 -18.668  29.015  1.00  0.00     0.034 C 
BRANCH   5   6
ATOM      6  C   UNL     1     -10.253 -17.187  28.647  1.00  0.00     0.032 C 
BRANCH   6   7
ATOM      7  C   UNL     1     -11.544 -16.640  28.093  1.00  0.00    -0.028 C 
ATOM      8  C   UNL     1     -13.172 -16.026  26.331  1.00  0.00     0.039 C 
ATOM      9  C   UNL     1     -11.835 -16.563  26.774  1.00  0.00    -0.080 C 
ATOM     10  C   UNL     1     -10.843 -16.962  25.709  1.00  0.00     0.039 C 
ENDBRANCH   6   7
ENDBRANCH   5   6
ENDBRANCH   3   5
ENDBRANCH   1   2
BRANCH   1  11
ATOM     11  C   UNL     1     -11.122 -16.903  32.109  1.00  0.00     0.034 C 
BRANCH  11  12
ATOM     12  C   UNL     1     -12.477 -16.250  31.922  1.00  0.00    -0.077 C 
ATOM     13  C   UNL     1     -12.637 -15.342  30.933  1.00  0.00    -0.028 C 
ATOM     14  C   UNL     1     -13.607 -16.631  32.849  1.00  0.00     0.039 C 
BRANCH  13  15
ATOM     15  C   UNL     1     -13.935 -14.638  30.610  1.00  0.00     0.035 C 
BRANCH  15  16
ATOM     16  C   UNL     1     -13.839 -13.855  29.296  1.00  0.00     0.079 C 
BRANCH  16  17
ATOM     17  C   UNL     1     -14.961 -12.862  29.151  1.00  0.00     0.130 C 
ATOM     18  O   UNL     1     -14.707 -11.684  28.956  1.00  0.00    -0.300 OA
ATOM     19  C   UNL     1     -16.388 -13.307  29.264  1.00  0.00     0.087 C 
ENDBRANCH  16  17
ENDBRANCH  15  16
ENDBRANCH  13  15
ENDBRANCH  11  12
ENDBRANCH   1  11
TORSDOF 9
ENDMDL
MODEL 9
REMARK VINA RESULT:    -5.288      1.292      4.273
REMARK INTER + INTRA:          -9.924
REMARK INTER:                  -7.841
REMARK INTRA:                  -2.083
REMARK UNBOUND:                -1.854
REMARK SMILES CC(=O)CCC=C(C)CCC=C(C)CCC=C(C)C
REMARK SMILES IDX 10 1 11 2 12 3 13 4 14 5 15 6 16 7 18 8 17 9 19 10 9 11 7 12
REMARK SMILES IDX 6 13 8 14 5 15 4 16 2 17 3 18 1 19
REMARK H PARENT
REMARK Flexibility Score: inf
ROOT
ATOM      1  C   UNL     1     -13.042 -14.004  29.200  1.00  0.00     0.032 C 
ENDROOT
BRANCH   1   2
ATOM      2  C   UNL     1     -13.260 -14.754  27.904  1.00  0.00    -0.028 C 
ATOM      3  C   UNL     1     -12.480 -15.749  27.422  1.00  0.00    -0.077 C 
ATOM      4  C   UNL     1     -12.884 -16.397  26.123  1.00  0.00     0.039 C 
BRANCH   3   5
ATOM      5  C   UNL     1     -11.223 -16.237  28.119  1.00  0.00     0.034 C 
BRANCH   5   6
ATOM      6  C   UNL     1     -10.945 -17.711  27.798  1.00  0.00     0.032 C 
BRANCH   6   7
ATOM      7  C   UNL     1     -11.102 -18.564  29.031  1.00  0.00    -0.028 C 
ATOM      8  C   UNL     1     -12.177 -20.241  30.502  1.00  0.00     0.039 C 
ATOM      9  C   UNL     1     -12.137 -19.410  29.245  1.00  0.00    -0.080 C 
ATOM     10  C   UNL     1     -13.290 -19.527  28.280  1.00  0.00     0.039 C 
ENDBRANCH   6   7
ENDBRANCH   5   6
ENDBRANCH   3   5
ENDBRANCH   1   2
BRANCH   1  11
ATOM     11  C   UNL     1     -14.228 -14.196  30.156  1.00  0.00     0.034 C 
BRANCH  11  12
ATOM     12  C   UNL     1     -13.853 -15.024  31.368  1.00  0.00    -0.077 C 
ATOM     13  C   UNL     1     -13.065 -16.111  31.202  1.00  0.00    -0.028 C 
ATOM     14  C   UNL     1     -14.372 -14.612  32.725  1.00  0.00     0.039 C 
BRANCH  13  15
ATOM     15  C   UNL     1     -12.585 -17.008  32.320  1.00  0.00     0.035 C 
BRANCH  15  16
ATOM     16  C   UNL     1     -11.087 -17.307  32.197  1.00  0.00     0.079 C 
BRANCH  16  17
ATOM     17  C   UNL     1     -10.260 -16.050  32.215  1.00  0.00     0.130 C 
ATOM     18  O   UNL     1      -9.875 -15.562  31.163  1.00  0.00    -0.300 OA
ATOM     19  C   UNL     1      -9.888 -15.404  33.515  1.00  0.00     0.087 C 
ENDBRANCH  16  17
ENDBRANCH  15  16
ENDBRANCH  13  15
ENDBRANCH  11  12
ENDBRANCH   1  11
TORSDOF 9
ENDMDL
