MODEL 1
REMARK VINA RESULT:    -2.356      0.000      0.000
REMARK INTER + INTRA:          -3.184
REMARK INTER:                  -2.907
REMARK INTRA:                  -0.277
REMARK UNBOUND:                -0.277
REMARK SMILES CCCCC=CC(C)=O
REMARK SMILES IDX 4 1 3 2 2 3 1 4 5 5 6 6 7 7 9 8 8 9
REMARK H PARENT
REMARK Flexibility Score: inf
ROOT
ATOM      1  C   UNL     1     171.246 170.474 149.152  1.00  0.00     0.027 C 
ENDROOT
BRANCH   1   2
ATOM      2  C   UNL     1     170.942 171.504 150.248  1.00  0.00     0.004 C 
BRANCH   2   3
ATOM      3  C   UNL     1     170.700 170.817 151.596  1.00  0.00    -0.003 C 
ATOM      4  C   UNL     1     169.208 170.648 151.869  1.00  0.00     0.004 C 
ENDBRANCH   2   3
ENDBRANCH   1   2
BRANCH   1   5
ATOM      5  C   UNL     1     170.321 170.635 147.982  1.00  0.00    -0.023 C 
ATOM      6  C   UNL     1     169.405 171.610 147.943  1.00  0.00     0.042 C 
BRANCH   6   7
ATOM      7  C   UNL     1     168.478 171.778 146.809  1.00  0.00     0.152 C 
ATOM      8  O   UNL     1     167.230 171.718 146.980  1.00  0.00    -0.295 OA
ATOM      9  C   UNL     1     169.023 172.017 145.437  1.00  0.00     0.093 C 
ENDBRANCH   6   7
ENDBRANCH   1   5
TORSDOF 4
ENDMDL
MODEL 2
REMARK VINA RESULT:    -2.232     23.622     24.258
REMARK INTER + INTRA:          -3.031
REMARK INTER:                  -2.793
REMARK INTRA:                  -0.237
REMARK UNBOUND:                -0.277
REMARK SMILES CCCCC=CC(C)=O
REMARK SMILES IDX 4 1 3 2 2 3 1 4 5 5 6 6 7 7 9 8 8 9
REMARK H PARENT
REMARK Flexibility Score: inf
ROOT
ATOM      1  C   UNL     1     153.014 152.284 149.678  1.00  0.00     0.027 C 
ENDROOT
BRANCH   1   2
ATOM      2  C   UNL     1     152.697 153.784 149.643  1.00  0.00     0.004 C 
BRANCH   2   3
ATOM      3  C   UNL     1     152.868 154.415 151.029  1.00  0.00    -0.003 C 
ATOM      4  C   UNL     1     153.264 153.369 152.066  1.00  0.00     0.004 C 
ENDBRANCH   2   3
ENDBRANCH   1   2
BRANCH   1   5
ATOM      5  C   UNL     1     154.095 151.933 148.699  1.00  0.00    -0.023 C 
ATOM      6  C   UNL     1     154.242 152.601 147.549  1.00  0.00     0.042 C 
BRANCH   6   7
ATOM      7  C   UNL     1     155.288 152.263 146.568  1.00  0.00     0.152 C 
ATOM      8  O   UNL     1     154.985 151.875 145.407  1.00  0.00    -0.295 OA
ATOM      9  C   UNL     1     156.729 152.377 146.953  1.00  0.00     0.093 C 
ENDBRANCH   6   7
ENDBRANCH   1   5
TORSDOF 4
ENDMDL
MODEL 3
REMARK VINA RESULT:    -2.224      1.253      2.431
REMARK INTER + INTRA:          -3.022
REMARK INTER:                  -2.859
REMARK INTRA:                  -0.163
REMARK UNBOUND:                -0.277
REMARK SMILES CCCCC=CC(C)=O
REMARK SMILES IDX 4 1 3 2 2 3 1 4 5 5 6 6 7 7 9 8 8 9
REMARK H PARENT
REMARK Flexibility Score: inf
ROOT
ATOM      1  C   UNL     1     169.731 171.951 147.943  1.00  0.00     0.027 C 
ENDROOT
BRANCH   1   2
ATOM      2  C   UNL     1     170.379 170.561 147.978  1.00  0.00     0.004 C 
BRANCH   2   3
ATOM      3  C   UNL     1     171.314 170.420 149.184  1.00  0.00    -0.003 C 
ATOM      4  C   UNL     1     170.983 171.448 150.261  1.00  0.00     0.004 C 
ENDBRANCH   2   3
ENDBRANCH   1   2
BRANCH   1   5
ATOM      5  C   UNL     1     168.684 172.037 146.872  1.00  0.00    -0.023 C 
ATOM      6  C   UNL     1     168.980 171.821 145.585  1.00  0.00     0.042 C 
BRANCH   6   7
ATOM      7  C   UNL     1     167.969 171.914 144.516  1.00  0.00     0.152 C 
ATOM      8  O   UNL     1     166.738 171.904 144.789  1.00  0.00    -0.295 OA
ATOM      9  C   UNL     1     168.407 172.016 143.090  1.00  0.00     0.093 C 
ENDBRANCH   6   7
ENDBRANCH   1   5
TORSDOF 4
ENDMDL
MODEL 4
REMARK VINA RESULT:    -2.208      2.743      5.245
REMARK INTER + INTRA:          -3.001
REMARK INTER:                  -2.738
REMARK INTRA:                  -0.263
REMARK UNBOUND:                -0.277
REMARK SMILES CCCCC=CC(C)=O
REMARK SMILES IDX 4 1 3 2 2 3 1 4 5 5 6 6 7 7 9 8 8 9
REMARK H PARENT
REMARK Flexibility Score: inf
ROOT
ATOM      1  C   UNL     1     171.127 171.269 149.400  1.00  0.00     0.027 C 
ENDROOT
BRANCH   1   2
ATOM      2  C   UNL     1     171.643 169.873 149.027  1.00  0.00     0.004 C 
BRANCH   2   3
ATOM      3  C   UNL     1     170.845 169.287 147.857  1.00  0.00    -0.003 C 
ATOM      4  C   UNL     1     169.803 170.280 147.348  1.00  0.00     0.004 C 
ENDBRANCH   2   3
ENDBRANCH   1   2
BRANCH   1   5
ATOM      5  C   UNL     1     170.899 171.387 150.879  1.00  0.00    -0.023 C 
ATOM      6  C   UNL     1     170.741 170.305 151.651  1.00  0.00     0.042 C 
BRANCH   6   7
ATOM      7  C   UNL     1     170.503 170.400 153.103  1.00  0.00     0.152 C 
ATOM      8  O   UNL     1     169.330 170.445 153.563  1.00  0.00    -0.295 OA
ATOM      9  C   UNL     1     171.665 170.446 154.042  1.00  0.00     0.093 C 
ENDBRANCH   6   7
ENDBRANCH   1   5
TORSDOF 4
ENDMDL
MODEL 5
REMARK VINA RESULT:    -2.176      1.599      1.812
REMARK INTER + INTRA:          -2.962
REMARK INTER:                  -2.807
REMARK INTRA:                  -0.155
REMARK UNBOUND:                -0.277
REMARK SMILES CCCCC=CC(C)=O
REMARK SMILES IDX 4 1 3 2 2 3 1 4 5 5 6 6 7 7 9 8 8 9
REMARK H PARENT
REMARK Flexibility Score: inf
ROOT
ATOM      1  C   UNL     1     171.124 169.849 150.156  1.00  0.00     0.027 C 
ENDROOT
BRANCH   1   2
ATOM      2  C   UNL     1     170.584 171.026 150.979  1.00  0.00     0.004 C 
BRANCH   2   3
ATOM      3  C   UNL     1     170.166 170.571 152.381  1.00  0.00    -0.003 C 
ATOM      4  C   UNL     1     171.378 170.157 153.211  1.00  0.00     0.004 C 
ENDBRANCH   2   3
ENDBRANCH   1   2
BRANCH   1   5
ATOM      5  C   UNL     1     171.056 170.137 148.685  1.00  0.00    -0.023 C 
ATOM      6  C   UNL     1     169.929 170.571 148.108  1.00  0.00     0.042 C 
BRANCH   6   7
ATOM      7  C   UNL     1     169.837 170.846 146.663  1.00  0.00     0.152 C 
ATOM      8  O   UNL     1     170.274 170.017 145.819  1.00  0.00    -0.295 OA
ATOM      9  C   UNL     1     169.224 172.125 146.191  1.00  0.00     0.093 C 
ENDBRANCH   6   7
ENDBRANCH   1   5
TORSDOF 4
ENDMDL
MODEL 6
REMARK VINA RESULT:    -2.146     24.046     24.719
REMARK INTER + INTRA:          -2.925
REMARK INTER:                  -2.741
REMARK INTRA:                  -0.184
REMARK UNBOUND:                -0.277
REMARK SMILES CCCCC=CC(C)=O
REMARK SMILES IDX 4 1 3 2 2 3 1 4 5 5 6 6 7 7 9 8 8 9
REMARK H PARENT
REMARK Flexibility Score: inf
ROOT
ATOM      1  C   UNL     1     153.459 153.894 153.315  1.00  0.00     0.027 C 
ENDROOT
BRANCH   1   2
ATOM      2  C   UNL     1     152.168 153.839 154.141  1.00  0.00     0.004 C 
BRANCH   2   3
ATOM      3  C   UNL     1     152.369 153.019 155.420  1.00  0.00    -0.003 C 
ATOM      4  C   UNL     1     153.850 152.877 155.758  1.00  0.00     0.004 C 
ENDBRANCH   2   3
ENDBRANCH   1   2
BRANCH   1   5
ATOM      5  C   UNL     1     153.276 153.244 151.975  1.00  0.00    -0.023 C 
ATOM      6  C   UNL     1     153.190 153.967 150.852  1.00  0.00     0.042 C 
BRANCH   6   7
ATOM      7  C   UNL     1     152.996 153.349 149.528  1.00  0.00     0.152 C 
ATOM      8  O   UNL     1     152.668 154.048 148.531  1.00  0.00    -0.295 OA
ATOM      9  C   UNL     1     153.186 151.875 149.365  1.00  0.00     0.093 C 
ENDBRANCH   6   7
ENDBRANCH   1   5
TORSDOF 4
ENDMDL
MODEL 7
REMARK VINA RESULT:    -2.073     23.261     23.815
REMARK INTER + INTRA:          -2.835
REMARK INTER:                  -2.583
REMARK INTRA:                  -0.252
REMARK UNBOUND:                -0.277
REMARK SMILES CCCCC=CC(C)=O
REMARK SMILES IDX 4 1 3 2 2 3 1 4 5 5 6 6 7 7 9 8 8 9
REMARK H PARENT
REMARK Flexibility Score: inf
ROOT
ATOM      1  C   UNL     1     155.455 152.848 149.071  1.00  0.00     0.027 C 
ENDROOT
BRANCH   1   2
ATOM      2  C   UNL     1     154.277 151.875 149.204  1.00  0.00     0.004 C 
BRANCH   2   3
ATOM      3  C   UNL     1     153.062 152.567 149.831  1.00  0.00    -0.003 C 
ATOM      4  C   UNL     1     152.621 153.768 149.000  1.00  0.00     0.004 C 
ENDBRANCH   2   3
ENDBRANCH   1   2
BRANCH   1   5
ATOM      5  C   UNL     1     156.234 152.590 147.814  1.00  0.00    -0.023 C 
ATOM      6  C   UNL     1     155.634 152.528 146.619  1.00  0.00     0.042 C 
BRANCH   6   7
ATOM      7  C   UNL     1     156.378 152.263 145.375  1.00  0.00     0.152 C 
ATOM      8  O   UNL     1     157.636 152.351 145.343  1.00  0.00    -0.295 OA
ATOM      9  C   UNL     1     155.635 151.888 144.133  1.00  0.00     0.093 C 
ENDBRANCH   6   7
ENDBRANCH   1   5
TORSDOF 4
ENDMDL
MODEL 8
REMARK VINA RESULT:    -2.060      1.880      2.848
REMARK INTER + INTRA:          -2.818
REMARK INTER:                  -2.682
REMARK INTRA:                  -0.137
REMARK UNBOUND:                -0.277
REMARK SMILES CCCCC=CC(C)=O
REMARK SMILES IDX 4 1 3 2 2 3 1 4 5 5 6 6 7 7 9 8 8 9
REMARK H PARENT
REMARK Flexibility Score: inf
ROOT
ATOM      1  C   UNL     1     169.306 171.111 147.785  1.00  0.00     0.027 C 
ENDROOT
BRANCH   1   2
ATOM      2  C   UNL     1     170.102 172.125 148.616  1.00  0.00     0.004 C 
BRANCH   2   3
ATOM      3  C   UNL     1     170.999 171.416 149.637  1.00  0.00    -0.003 C 
ATOM      4  C   UNL     1     171.532 170.099 149.082  1.00  0.00     0.004 C 
ENDBRANCH   2   3
ENDBRANCH   1   2
BRANCH   1   5
ATOM      5  C   UNL     1     168.256 171.790 146.956  1.00  0.00    -0.023 C 
ATOM      6  C   UNL     1     167.305 171.093 146.324  1.00  0.00     0.042 C 
BRANCH   6   7
ATOM      7  C   UNL     1     166.273 171.740 145.494  1.00  0.00     0.152 C 
ATOM      8  O   UNL     1     166.488 171.996 144.278  1.00  0.00    -0.295 OA
ATOM      9  C   UNL     1     164.955 172.102 146.101  1.00  0.00     0.093 C 
ENDBRANCH   6   7
ENDBRANCH   1   5
TORSDOF 4
ENDMDL
MODEL 9
REMARK VINA RESULT:    -2.041     23.715     24.700
REMARK INTER + INTRA:          -2.795
REMARK INTER:                  -2.537
REMARK INTRA:                  -0.258
REMARK UNBOUND:                -0.277
REMARK SMILES CCCCC=CC(C)=O
REMARK SMILES IDX 4 1 3 2 2 3 1 4 5 5 6 6 7 7 9 8 8 9
REMARK H PARENT
REMARK Flexibility Score: inf
ROOT
ATOM      1  C   UNL     1     152.949 153.811 149.600  1.00  0.00     0.027 C 
ENDROOT
BRANCH   1   2
ATOM      2  C   UNL     1     153.004 152.286 149.445  1.00  0.00     0.004 C 
BRANCH   2   3
ATOM      3  C   UNL     1     154.085 151.875 148.439  1.00  0.00    -0.003 C 
ATOM      4  C   UNL     1     154.645 153.089 147.704  1.00  0.00     0.004 C 
ENDBRANCH   2   3
ENDBRANCH   1   2
BRANCH   1   5
ATOM      5  C   UNL     1     153.025 154.215 151.043  1.00  0.00    -0.023 C 
ATOM      6  C   UNL     1     153.347 153.336 152.000  1.00  0.00     0.042 C 
BRANCH   6   7
ATOM      7  C   UNL     1     153.414 153.708 153.424  1.00  0.00     0.152 C 
ATOM      8  O   UNL     1     154.516 153.997 153.965  1.00  0.00    -0.295 OA
ATOM      9  C   UNL     1     152.162 153.741 154.240  1.00  0.00     0.093 C 
ENDBRANCH   6   7
ENDBRANCH   1   5
TORSDOF 4
ENDMDL
