MODEL 1
REMARK VINA RESULT:     5.215      0.000      0.000
REMARK INTER + INTRA:           6.189
REMARK INTER:                   6.587
REMARK INTRA:                  -0.398
REMARK UNBOUND:                -0.398
REMARK SMILES O=C(C=Cc1ccc(O)cc1)c1ccc(O)cc1O
REMARK SMILES IDX 4 1 3 2 5 3 6 4 7 5 8 6 11 7 10 8 9 9 2 11 1 12 12 13 18 14
REMARK SMILES IDX 13 15 17 16 14 17 15 18 19 19 16 21
REMARK H PARENT 9 10 19 20 16 22
REMARK Flexibility Score: inf
ROOT
ATOM      1  C   UNL     1      11.273  12.546  36.916  1.00  0.00     0.012 C 
ATOM      2  C   UNL     1      11.523  12.903  35.648  1.00  0.00     0.053 C 
ENDROOT
BRANCH   1   3
ATOM      3  C   UNL     1      12.282  12.608  38.002  1.00  0.00    -0.025 A 
ATOM      4  C   UNL     1      11.931  12.127  39.275  1.00  0.00     0.012 A 
ATOM      5  C   UNL     1      12.853  12.156  40.325  1.00  0.00     0.047 A 
ATOM      6  C   UNL     1      14.143  12.658  40.116  1.00  0.00     0.115 A 
ATOM      7  C   UNL     1      13.588  13.097  37.796  1.00  0.00     0.012 A 
ATOM      8  C   UNL     1      14.507  13.125  38.850  1.00  0.00     0.047 A 
BRANCH   6   9
ATOM      9  O   UNL     1      15.069  12.693  41.155  1.00  0.00    -0.508 OA
ATOM     10  H   UNL     1      16.010  12.334  41.038  1.00  0.00     0.293 HD
ENDBRANCH   6   9
ENDBRANCH   1   3
BRANCH   2  11
ATOM     11  C   UNL     1      10.487  12.842  34.594  1.00  0.00     0.189 C 
ATOM     12  O   UNL     1      10.786  13.123  33.400  1.00  0.00    -0.289 OA
BRANCH  11  13
ATOM     13  C   UNL     1       9.105  12.407  34.904  1.00  0.00     0.064 A 
ATOM     14  C   UNL     1       8.500  11.316  34.240  1.00  0.00     0.130 A 
ATOM     15  C   UNL     1       8.384  13.082  35.906  1.00  0.00     0.020 A 
ATOM     16  C   UNL     1       7.184  10.948  34.557  1.00  0.00     0.093 A 
ATOM     17  C   UNL     1       7.077  12.704  36.218  1.00  0.00     0.047 A 
ATOM     18  C   UNL     1       6.471  11.642  35.543  1.00  0.00     0.119 A 
BRANCH  14  19
ATOM     19  O   UNL     1       9.210  10.581  33.290  1.00  0.00    -0.507 OA
ATOM     20  H   UNL     1       9.347  10.923  32.346  1.00  0.00     0.293 HD
ENDBRANCH  14  19
BRANCH  18  21
ATOM     21  O   UNL     1       5.165  11.279  35.863  1.00  0.00    -0.508 OA
ATOM     22  H   UNL     1       4.928  10.331  36.130  1.00  0.00     0.293 HD
ENDBRANCH  18  21
ENDBRANCH  11  13
ENDBRANCH   2  11
TORSDOF 6
ENDMDL
MODEL 2
REMARK VINA RESULT:     5.400      0.258      1.139
REMARK INTER + INTRA:           6.422
REMARK INTER:                   6.920
REMARK INTRA:                  -0.498
REMARK UNBOUND:                -0.398
REMARK SMILES O=C(C=Cc1ccc(O)cc1)c1ccc(O)cc1O
REMARK SMILES IDX 4 1 3 2 5 3 6 4 7 5 8 6 11 7 10 8 9 9 2 11 1 12 12 13 18 14
REMARK SMILES IDX 13 15 17 16 14 17 15 18 19 19 16 21
REMARK H PARENT 9 10 19 20 16 22
REMARK Flexibility Score: inf
ROOT
ATOM      1  C   UNL     1      11.435  12.443  37.023  1.00  0.00     0.012 C 
ATOM      2  C   UNL     1      11.683  12.959  35.810  1.00  0.00     0.053 C 
ENDROOT
BRANCH   1   3
ATOM      3  C   UNL     1      12.375  12.542  38.167  1.00  0.00    -0.025 A 
ATOM      4  C   UNL     1      13.679  13.006  37.929  1.00  0.00     0.012 A 
ATOM      5  C   UNL     1      14.595  13.125  38.978  1.00  0.00     0.047 A 
ATOM      6  C   UNL     1      14.216  12.792  40.284  1.00  0.00     0.115 A 
ATOM      7  C   UNL     1      11.997  12.224  39.487  1.00  0.00     0.012 A 
ATOM      8  C   UNL     1      12.915  12.344  40.535  1.00  0.00     0.047 A 
BRANCH   6   9
ATOM      9  O   UNL     1      15.120  12.906  41.338  1.00  0.00    -0.508 OA
ATOM     10  H   UNL     1      16.120  12.831  41.188  1.00  0.00     0.293 HD
ENDBRANCH   6   9
ENDBRANCH   1   3
BRANCH   2  11
ATOM     11  C   UNL     1      10.716  12.854  34.697  1.00  0.00     0.189 C 
ATOM     12  O   UNL     1      11.080  13.125  33.519  1.00  0.00    -0.289 OA
BRANCH  11  13
ATOM     13  C   UNL     1       9.330  12.385  34.930  1.00  0.00     0.064 A 
ATOM     14  C   UNL     1       8.801  11.257  34.261  1.00  0.00     0.130 A 
ATOM     15  C   UNL     1       8.526  13.064  35.862  1.00  0.00     0.020 A 
ATOM     16  C   UNL     1       7.478  10.858  34.502  1.00  0.00     0.093 A 
ATOM     17  C   UNL     1       7.212  12.654  36.100  1.00  0.00     0.047 A 
ATOM     18  C   UNL     1       6.683  11.556  35.420  1.00  0.00     0.119 A 
BRANCH  14  19
ATOM     19  O   UNL     1       9.593  10.519  33.380  1.00  0.00    -0.507 OA
ATOM     20  H   UNL     1      10.599  10.636  33.342  1.00  0.00     0.293 HD
ENDBRANCH  14  19
BRANCH  18  21
ATOM     21  O   UNL     1       5.369  11.162  35.664  1.00  0.00    -0.508 OA
ATOM     22  H   UNL     1       4.636  11.308  34.981  1.00  0.00     0.293 HD
ENDBRANCH  18  21
ENDBRANCH  11  13
ENDBRANCH   2  11
TORSDOF 6
ENDMDL
MODEL 3
REMARK VINA RESULT:     7.182      1.369      1.633
REMARK INTER + INTRA:           8.674
REMARK INTER:                   9.221
REMARK INTRA:                  -0.548
REMARK UNBOUND:                -0.398
REMARK SMILES O=C(C=Cc1ccc(O)cc1)c1ccc(O)cc1O
REMARK SMILES IDX 4 1 3 2 5 3 6 4 7 5 8 6 11 7 10 8 9 9 2 11 1 12 12 13 18 14
REMARK SMILES IDX 13 15 17 16 14 17 15 18 19 19 16 21
REMARK H PARENT 9 10 19 20 16 22
REMARK Flexibility Score: inf
ROOT
ATOM      1  C   UNL     1      11.486  12.307  35.472  1.00  0.00     0.012 C 
ATOM      2  C   UNL     1      10.509  13.125  35.054  1.00  0.00     0.053 C 
ENDROOT
BRANCH   1   3
ATOM      3  C   UNL     1      12.282  12.538  36.702  1.00  0.00    -0.025 A 
ATOM      4  C   UNL     1      11.666  12.345  37.950  1.00  0.00     0.012 A 
ATOM      5  C   UNL     1      12.380  12.541  39.134  1.00  0.00     0.047 A 
ATOM      6  C   UNL     1      13.726  12.925  39.090  1.00  0.00     0.115 A 
ATOM      7  C   UNL     1      13.642  12.909  36.666  1.00  0.00     0.012 A 
ATOM      8  C   UNL     1      14.354  13.106  37.854  1.00  0.00     0.047 A 
BRANCH   6   9
ATOM      9  O   UNL     1      14.448  13.125  40.264  1.00  0.00    -0.508 OA
ATOM     10  H   UNL     1      14.290  13.936  40.852  1.00  0.00     0.293 HD
ENDBRANCH   6   9
ENDBRANCH   1   3
BRANCH   2  11
ATOM     11  C   UNL     1       9.726  12.853  33.829  1.00  0.00     0.189 C 
ATOM     12  O   UNL     1      10.222  13.104  32.696  1.00  0.00    -0.289 OA
BRANCH  11  13
ATOM     13  C   UNL     1       8.378  12.242  33.904  1.00  0.00     0.064 A 
ATOM     14  C   UNL     1       7.446  12.359  32.848  1.00  0.00     0.130 A 
ATOM     15  C   UNL     1       8.026  11.501  35.046  1.00  0.00     0.020 A 
ATOM     16  C   UNL     1       6.176  11.776  32.968  1.00  0.00     0.093 A 
ATOM     17  C   UNL     1       6.761  10.919  35.153  1.00  0.00     0.047 A 
ATOM     18  C   UNL     1       5.832  11.057  34.120  1.00  0.00     0.119 A 
BRANCH  14  19
ATOM     19  O   UNL     1       7.787  13.029  31.672  1.00  0.00    -0.507 OA
ATOM     20  H   UNL     1       7.211  13.772  31.296  1.00  0.00     0.293 HD
ENDBRANCH  14  19
BRANCH  18  21
ATOM     21  O   UNL     1       4.573  10.474  34.244  1.00  0.00    -0.508 OA
ATOM     22  H   UNL     1       4.427   9.486  34.074  1.00  0.00     0.293 HD
ENDBRANCH  18  21
ENDBRANCH  11  13
ENDBRANCH   2  11
TORSDOF 6
ENDMDL
