MODEL 1
REMARK VINA RESULT:    -6.781      0.000      0.000
REMARK INTER + INTRA:          -7.378
REMARK INTER:                  -7.177
REMARK INTRA:                  -0.201
REMARK UNBOUND:                -0.201
REMARK SMILES CC1=CC[C@@H]2[C@H]3[C@@H](C(C)C)CC[C@]2(C)[C@@H]13
REMARK SMILES IDX 1 1 2 2 3 3 4 4 5 5 6 6 15 7 13 8 12 9 11 10 7 11 14 12 8 13
REMARK SMILES IDX 9 14 10 15
REMARK H PARENT
REMARK Flexibility Score: inf
ROOT
ATOM      1  C   UNL     1     112.812 109.125 112.098  1.00  0.00     0.039 C 
ATOM      2  C   UNL     1     112.050 110.168 111.337  1.00  0.00    -0.073 C 
ATOM      3  C   UNL     1     111.109 110.952 111.929  1.00  0.00    -0.027 C 
ATOM      4  C   UNL     1     110.373 111.993 111.076  1.00  0.00     0.031 C 
ATOM      5  C   UNL     1     110.850 111.917 109.589  1.00  0.00     0.003 C 
ATOM      6  C   UNL     1     110.861 110.424 109.186  1.00  0.00     0.004 C 
ATOM      7  C   UNL     1     112.265 110.353 109.834  1.00  0.00     0.024 C 
ATOM      8  C   UNL     1     112.392 111.856 109.491  1.00  0.00    -0.022 C 
ATOM      9  C   UNL     1     112.811 112.045 108.006  1.00  0.00     0.008 C 
ATOM     10  C   UNL     1     112.219 110.959 107.069  1.00  0.00     0.005 C 
ATOM     11  C   UNL     1     110.940 110.253 107.637  1.00  0.00    -0.005 C 
ATOM     12  C   UNL     1     113.232 112.765 110.420  1.00  0.00     0.012 C 
ENDROOT
BRANCH  11  13
ATOM     13  C   UNL     1     109.643 110.710 106.888  1.00  0.00    -0.014 C 
ATOM     14  C   UNL     1     109.888 112.014 106.106  1.00  0.00     0.007 C 
ATOM     15  C   UNL     1     109.109 109.647 105.909  1.00  0.00     0.007 C 
ENDBRANCH  11  13
TORSDOF 1
ENDMDL
MODEL 2
REMARK VINA RESULT:    -6.773      1.256      3.222
REMARK INTER + INTRA:          -7.369
REMARK INTER:                  -7.125
REMARK INTRA:                  -0.244
REMARK UNBOUND:                -0.201
REMARK SMILES CC1=CC[C@@H]2[C@H]3[C@@H](C(C)C)CC[C@]2(C)[C@@H]13
REMARK SMILES IDX 1 1 2 2 3 3 4 4 5 5 6 6 15 7 13 8 12 9 11 10 7 11 14 12 8 13
REMARK SMILES IDX 9 14 10 15
REMARK H PARENT
REMARK Flexibility Score: inf
ROOT
ATOM      1  C   UNL     1     109.505 113.216 111.959  1.00  0.00     0.039 C 
ATOM      2  C   UNL     1     110.248 112.138 111.228  1.00  0.00    -0.073 C 
ATOM      3  C   UNL     1     111.189 111.367 111.836  1.00  0.00    -0.027 C 
ATOM      4  C   UNL     1     111.903 110.287 111.015  1.00  0.00     0.031 C 
ATOM      5  C   UNL     1     111.407 110.312 109.533  1.00  0.00     0.003 C 
ATOM      6  C   UNL     1     111.404 111.788 109.072  1.00  0.00     0.004 C 
ATOM      7  C   UNL     1     110.010 111.898 109.736  1.00  0.00     0.024 C 
ATOM      8  C   UNL     1     109.864 110.383 109.453  1.00  0.00    -0.022 C 
ATOM      9  C   UNL     1     109.423 110.142 107.982  1.00  0.00     0.008 C 
ATOM     10  C   UNL     1     110.013 111.186 106.996  1.00  0.00     0.005 C 
ATOM     11  C   UNL     1     111.305 111.900 107.519  1.00  0.00    -0.005 C 
ATOM     12  C   UNL     1     109.029 109.519 110.427  1.00  0.00     0.012 C 
ENDROOT
BRANCH  11  13
ATOM     13  C   UNL     1     112.588 111.403 106.771  1.00  0.00    -0.014 C 
ATOM     14  C   UNL     1     112.277 110.166 105.908  1.00  0.00     0.007 C 
ATOM     15  C   UNL     1     113.213 112.483 105.868  1.00  0.00     0.007 C 
ENDBRANCH  11  13
TORSDOF 1
ENDMDL
MODEL 3
REMARK VINA RESULT:    -6.752      3.145      5.806
REMARK INTER + INTRA:          -7.348
REMARK INTER:                  -7.118
REMARK INTRA:                  -0.230
REMARK UNBOUND:                -0.201
REMARK SMILES CC1=CC[C@@H]2[C@H]3[C@@H](C(C)C)CC[C@]2(C)[C@@H]13
REMARK SMILES IDX 1 1 2 2 3 3 4 4 5 5 6 6 15 7 13 8 12 9 11 10 7 11 14 12 8 13
REMARK SMILES IDX 9 14 10 15
REMARK H PARENT
REMARK Flexibility Score: inf
ROOT
ATOM      1  C   UNL     1     109.523 113.224 116.874  1.00  0.00     0.039 C 
ATOM      2  C   UNL     1     110.264 112.146 116.143  1.00  0.00    -0.073 C 
ATOM      3  C   UNL     1     111.193 111.363 116.755  1.00  0.00    -0.027 C 
ATOM      4  C   UNL     1     111.907 110.284 115.932  1.00  0.00     0.031 C 
ATOM      5  C   UNL     1     111.427 110.324 114.445  1.00  0.00     0.003 C 
ATOM      6  C   UNL     1     111.441 111.804 113.997  1.00  0.00     0.004 C 
ATOM      7  C   UNL     1     110.041 111.920 114.646  1.00  0.00     0.024 C 
ATOM      8  C   UNL     1     109.885 110.409 114.349  1.00  0.00    -0.022 C 
ATOM      9  C   UNL     1     109.459 110.183 112.872  1.00  0.00     0.008 C 
ATOM     10  C   UNL     1     110.067 111.230 111.901  1.00  0.00     0.005 C 
ATOM     11  C   UNL     1     111.360 111.929 112.444  1.00  0.00    -0.005 C 
ATOM     12  C   UNL     1     109.033 109.543 115.308  1.00  0.00     0.012 C 
ENDROOT
BRANCH  11  13
ATOM     13  C   UNL     1     112.647 111.428 111.705  1.00  0.00    -0.014 C 
ATOM     14  C   UNL     1     112.350 110.160 110.882  1.00  0.00     0.007 C 
ATOM     15  C   UNL     1     113.252 112.488 110.767  1.00  0.00     0.007 C 
ENDBRANCH  11  13
TORSDOF 1
ENDMDL
MODEL 4
REMARK VINA RESULT:    -6.747      1.934      3.288
REMARK INTER + INTRA:          -7.342
REMARK INTER:                  -7.054
REMARK INTRA:                  -0.288
REMARK UNBOUND:                -0.201
REMARK SMILES CC1=CC[C@@H]2[C@H]3[C@@H](C(C)C)CC[C@]2(C)[C@@H]13
REMARK SMILES IDX 1 1 2 2 3 3 4 4 5 5 6 6 15 7 13 8 12 9 11 10 7 11 14 12 8 13
REMARK SMILES IDX 9 14 10 15
REMARK H PARENT
REMARK Flexibility Score: inf
ROOT
ATOM      1  C   UNL     1     109.131 109.537 114.994  1.00  0.00     0.039 C 
ATOM      2  C   UNL     1     109.519 110.565 113.974  1.00  0.00    -0.073 C 
ATOM      3  C   UNL     1     108.890 111.767 113.881  1.00  0.00    -0.027 C 
ATOM      4  C   UNL     1     109.349 112.760 112.806  1.00  0.00     0.031 C 
ATOM      5  C   UNL     1     110.497 112.140 111.945  1.00  0.00     0.003 C 
ATOM      6  C   UNL     1     110.065 110.704 111.568  1.00  0.00     0.004 C 
ATOM      7  C   UNL     1     110.616 110.273 112.948  1.00  0.00     0.024 C 
ATOM      8  C   UNL     1     111.578 111.480 112.833  1.00  0.00    -0.022 C 
ATOM      9  C   UNL     1     112.804 111.119 111.948  1.00  0.00     0.008 C 
ATOM     10  C   UNL     1     112.452 110.139 110.798  1.00  0.00     0.005 C 
ATOM     11  C   UNL     1     110.935 110.135 110.404  1.00  0.00    -0.005 C 
ATOM     12  C   UNL     1     112.023 112.206 114.124  1.00  0.00     0.012 C 
ENDROOT
BRANCH  11  13
ATOM     13  C   UNL     1     110.688 110.844 109.030  1.00  0.00    -0.014 C 
ATOM     14  C   UNL     1     111.904 110.680 108.099  1.00  0.00     0.007 C 
ATOM     15  C   UNL     1     109.439 110.318 108.299  1.00  0.00     0.007 C 
ENDBRANCH  11  13
TORSDOF 1
ENDMDL
MODEL 5
REMARK VINA RESULT:    -6.738      1.816      3.924
REMARK INTER + INTRA:          -7.333
REMARK INTER:                  -7.044
REMARK INTRA:                  -0.289
REMARK UNBOUND:                -0.201
REMARK SMILES CC1=CC[C@@H]2[C@H]3[C@@H](C(C)C)CC[C@]2(C)[C@@H]13
REMARK SMILES IDX 1 1 2 2 3 3 4 4 5 5 6 6 15 7 13 8 12 9 11 10 7 11 14 12 8 13
REMARK SMILES IDX 9 14 10 15
REMARK H PARENT
REMARK Flexibility Score: inf
ROOT
ATOM      1  C   UNL     1     113.155 112.733 115.011  1.00  0.00     0.039 C 
ATOM      2  C   UNL     1     112.756 111.712 113.988  1.00  0.00    -0.073 C 
ATOM      3  C   UNL     1     113.364 110.498 113.902  1.00  0.00    -0.027 C 
ATOM      4  C   UNL     1     112.896 109.513 112.824  1.00  0.00     0.031 C 
ATOM      5  C   UNL     1     111.766 110.152 111.954  1.00  0.00     0.003 C 
ATOM      6  C   UNL     1     112.226 111.580 111.578  1.00  0.00     0.004 C 
ATOM      7  C   UNL     1     111.672 112.023 112.955  1.00  0.00     0.024 C 
ATOM      8  C   UNL     1     110.690 110.833 112.833  1.00  0.00    -0.022 C 
ATOM      9  C   UNL     1     109.477 111.214 111.940  1.00  0.00     0.008 C 
ATOM     10  C   UNL     1     109.855 112.186 110.790  1.00  0.00     0.005 C 
ATOM     11  C   UNL     1     111.375 112.163 110.408  1.00  0.00    -0.005 C 
ATOM     12  C   UNL     1     110.222 110.116 114.122  1.00  0.00     0.012 C 
ENDROOT
BRANCH  11  13
ATOM     13  C   UNL     1     111.619 111.448 109.037  1.00  0.00    -0.014 C 
ATOM     14  C   UNL     1     110.385 111.573 108.123  1.00  0.00     0.007 C 
ATOM     15  C   UNL     1     112.842 112.000 108.282  1.00  0.00     0.007 C 
ENDBRANCH  11  13
TORSDOF 1
ENDMDL
MODEL 6
REMARK VINA RESULT:    -6.687      3.781      5.847
REMARK INTER + INTRA:          -7.278
REMARK INTER:                  -6.994
REMARK INTRA:                  -0.284
REMARK UNBOUND:                -0.201
REMARK SMILES CC1=CC[C@@H]2[C@H]3[C@@H](C(C)C)CC[C@]2(C)[C@@H]13
REMARK SMILES IDX 1 1 2 2 3 3 4 4 5 5 6 6 15 7 13 8 12 9 11 10 7 11 14 12 8 13
REMARK SMILES IDX 9 14 10 15
REMARK H PARENT
REMARK Flexibility Score: inf
ROOT
ATOM      1  C   UNL     1     109.501 110.251 118.169  1.00  0.00     0.039 C 
ATOM      2  C   UNL     1     109.938 111.120 117.028  1.00  0.00    -0.073 C 
ATOM      3  C   UNL     1     109.594 112.434 116.946  1.00  0.00    -0.027 C 
ATOM      4  C   UNL     1     110.081 113.251 115.743  1.00  0.00     0.031 C 
ATOM      5  C   UNL     1     110.896 112.347 114.763  1.00  0.00     0.003 C 
ATOM      6  C   UNL     1     110.090 111.042 114.562  1.00  0.00     0.004 C 
ATOM      7  C   UNL     1     110.751 110.540 115.869  1.00  0.00     0.024 C 
ATOM      8  C   UNL     1     111.930 111.479 115.518  1.00  0.00    -0.022 C 
ATOM      9  C   UNL     1     112.876 110.807 114.484  1.00  0.00     0.008 C 
ATOM     10  C   UNL     1     112.120 109.900 113.476  1.00  0.00     0.005 C 
ATOM     11  C   UNL     1     110.599 110.242 113.323  1.00  0.00    -0.005 C 
ATOM     12  C   UNL     1     112.740 112.123 116.669  1.00  0.00     0.012 C 
ENDROOT
BRANCH  11  13
ATOM     13  C   UNL     1     110.294 110.942 111.956  1.00  0.00    -0.014 C 
ATOM     14  C   UNL     1     111.537 110.936 111.046  1.00  0.00     0.007 C 
ATOM     15  C   UNL     1     109.128 110.286 111.193  1.00  0.00     0.007 C 
ENDBRANCH  11  13
TORSDOF 1
ENDMDL
MODEL 7
REMARK VINA RESULT:    -6.666      1.407      4.679
REMARK INTER + INTRA:          -7.257
REMARK INTER:                  -6.968
REMARK INTRA:                  -0.289
REMARK UNBOUND:                -0.201
REMARK SMILES CC1=CC[C@@H]2[C@H]3[C@@H](C(C)C)CC[C@]2(C)[C@@H]13
REMARK SMILES IDX 1 1 2 2 3 3 4 4 5 5 6 6 15 7 13 8 12 9 11 10 7 11 14 12 8 13
REMARK SMILES IDX 9 14 10 15
REMARK H PARENT
REMARK Flexibility Score: inf
ROOT
ATOM      1  C   UNL     1     110.234 112.888 105.936  1.00  0.00     0.039 C 
ATOM      2  C   UNL     1     110.236 111.931 107.090  1.00  0.00    -0.073 C 
ATOM      3  C   UNL     1     109.422 110.842 107.129  1.00  0.00    -0.027 C 
ATOM      4  C   UNL     1     109.486 109.916 108.349  1.00  0.00     0.031 C 
ATOM      5  C   UNL     1     110.511 110.461 109.396  1.00  0.00     0.003 C 
ATOM      6  C   UNL     1     110.240 111.974 109.561  1.00  0.00     0.004 C 
ATOM      7  C   UNL     1     111.127 112.178 108.309  1.00  0.00     0.024 C 
ATOM      8  C   UNL     1     111.843 110.871 108.724  1.00  0.00    -0.022 C 
ATOM      9  C   UNL     1     112.899 111.153 109.829  1.00  0.00     0.008 C 
ATOM     10  C   UNL     1     112.471 112.288 110.797  1.00  0.00     0.005 C 
ATOM     11  C   UNL     1     110.926 112.540 110.843  1.00  0.00    -0.005 C 
ATOM     12  C   UNL     1     112.429 109.958 107.620  1.00  0.00     0.012 C 
ENDROOT
BRANCH  11  13
ATOM     13  C   UNL     1     110.290 112.020 112.177  1.00  0.00    -0.014 C 
ATOM     14  C   UNL     1     111.366 111.832 113.262  1.00  0.00     0.007 C 
ATOM     15  C   UNL     1     109.200 112.958 112.727  1.00  0.00     0.007 C 
ENDBRANCH  11  13
TORSDOF 1
ENDMDL
MODEL 8
REMARK VINA RESULT:    -6.637      3.426      6.910
REMARK INTER + INTRA:          -7.226
REMARK INTER:                  -6.937
REMARK INTRA:                  -0.289
REMARK UNBOUND:                -0.201
REMARK SMILES CC1=CC[C@@H]2[C@H]3[C@@H](C(C)C)CC[C@]2(C)[C@@H]13
REMARK SMILES IDX 1 1 2 2 3 3 4 4 5 5 6 6 15 7 13 8 12 9 11 10 7 11 14 12 8 13
REMARK SMILES IDX 9 14 10 15
REMARK H PARENT
REMARK Flexibility Score: inf
ROOT
ATOM      1  C   UNL     1     112.129 109.126 110.876  1.00  0.00     0.039 C 
ATOM      2  C   UNL     1     112.100 110.155 111.966  1.00  0.00    -0.073 C 
ATOM      3  C   UNL     1     112.962 111.207 111.991  1.00  0.00    -0.027 C 
ATOM      4  C   UNL     1     112.866 112.212 113.144  1.00  0.00     0.031 C 
ATOM      5  C   UNL     1     111.751 111.783 114.152  1.00  0.00     0.003 C 
ATOM      6  C   UNL     1     111.938 110.273 114.429  1.00  0.00     0.004 C 
ATOM      7  C   UNL     1     111.123 110.028 113.136  1.00  0.00     0.024 C 
ATOM      8  C   UNL     1     110.446 111.390 113.420  1.00  0.00    -0.022 C 
ATOM      9  C   UNL     1     109.309 111.228 114.468  1.00  0.00     0.008 C 
ATOM     10  C   UNL     1     109.619 110.141 115.531  1.00  0.00     0.005 C 
ATOM     11  C   UNL     1     111.145 109.823 115.695  1.00  0.00    -0.005 C 
ATOM     12  C   UNL     1     109.976 112.254 112.225  1.00  0.00     0.012 C 
ENDROOT
BRANCH  11  13
ATOM     13  C   UNL     1     111.719 110.400 117.033  1.00  0.00    -0.014 C 
ATOM     14  C   UNL     1     110.605 110.567 118.083  1.00  0.00     0.007 C 
ATOM     15  C   UNL     1     112.831 109.523 117.637  1.00  0.00     0.007 C 
ENDBRANCH  11  13
TORSDOF 1
ENDMDL
MODEL 9
REMARK VINA RESULT:    -6.627      3.517      7.024
REMARK INTER + INTRA:          -7.215
REMARK INTER:                  -6.926
REMARK INTRA:                  -0.289
REMARK UNBOUND:                -0.201
REMARK SMILES CC1=CC[C@@H]2[C@H]3[C@@H](C(C)C)CC[C@]2(C)[C@@H]13
REMARK SMILES IDX 1 1 2 2 3 3 4 4 5 5 6 6 15 7 13 8 12 9 11 10 7 11 14 12 8 13
REMARK SMILES IDX 9 14 10 15
REMARK H PARENT
REMARK Flexibility Score: inf
ROOT
ATOM      1  C   UNL     1     110.219 112.931 110.849  1.00  0.00     0.039 C 
ATOM      2  C   UNL     1     110.201 111.951 111.984  1.00  0.00    -0.073 C 
ATOM      3  C   UNL     1     109.377 110.869 111.994  1.00  0.00    -0.027 C 
ATOM      4  C   UNL     1     109.420 109.918 113.196  1.00  0.00     0.031 C 
ATOM      5  C   UNL     1     110.440 110.433 114.263  1.00  0.00     0.003 C 
ATOM      6  C   UNL     1     110.180 111.945 114.456  1.00  0.00     0.004 C 
ATOM      7  C   UNL     1     111.082 112.166 113.217  1.00  0.00     0.024 C 
ATOM      8  C   UNL     1     111.782 110.844 113.612  1.00  0.00    -0.022 C 
ATOM      9  C   UNL     1     112.830 111.094 114.733  1.00  0.00     0.008 C 
ATOM     10  C   UNL     1     112.402 112.214 115.720  1.00  0.00     0.005 C 
ATOM     11  C   UNL     1     110.859 112.479 115.755  1.00  0.00    -0.005 C 
ATOM     12  C   UNL     1     112.371 109.948 112.497  1.00  0.00     0.012 C 
ENDROOT
BRANCH  11  13
ATOM     13  C   UNL     1     110.206 111.939 117.072  1.00  0.00    -0.014 C 
ATOM     14  C   UNL     1     111.281 111.598 118.120  1.00  0.00     0.007 C 
ATOM     15  C   UNL     1     109.210 112.932 117.699  1.00  0.00     0.007 C 
ENDBRANCH  11  13
TORSDOF 1
ENDMDL
