MODEL 1
REMARK VINA RESULT:    -6.822      0.000      0.000
REMARK INTER + INTRA:          -7.676
REMARK INTER:                  -7.619
REMARK INTRA:                  -0.057
REMARK UNBOUND:                -0.057
REMARK SMILES COc1cc2ccc(=O)oc2c(O)c1O
REMARK SMILES IDX 3 1 14 2 12 3 11 4 5 5 4 6 6 7 7 8 8 9 9 10 10 11 2 12 1 13
REMARK SMILES IDX 15 14 13 16
REMARK H PARENT 15 15 13 17
REMARK Flexibility Score: inf
ROOT
ATOM      1  C   UNL     1     -35.734  13.514  57.150  1.00  0.00     0.165 A 
ATOM      2  C   UNL     1     -35.964  14.246  55.975  1.00  0.00     0.204 A 
ATOM      3  C   UNL     1     -35.039  15.215  55.546  1.00  0.00     0.205 A 
ATOM      4  C   UNL     1     -33.875  15.452  56.298  1.00  0.00     0.184 A 
ATOM      5  C   UNL     1     -33.643  14.716  57.480  1.00  0.00     0.025 A 
ATOM      6  C   UNL     1     -34.568  13.754  57.901  1.00  0.00     0.062 A 
ATOM      7  C   UNL     1     -32.476  14.972  58.209  1.00  0.00     0.020 A 
ATOM      8  C   UNL     1     -31.582  15.940  57.753  1.00  0.00     0.094 A 
ATOM      9  C   UNL     1     -31.876  16.630  56.573  1.00  0.00     0.336 A 
ATOM     10  O   UNL     1     -31.083  17.507  56.144  1.00  0.00    -0.246 OA
ATOM     11  O   UNL     1     -32.993  16.366  55.900  1.00  0.00    -0.419 OA
ENDROOT
BRANCH   1  12
ATOM     12  O   UNL     1     -36.688  12.558  57.537  1.00  0.00    -0.493 OA
ATOM     13  C   UNL     1     -37.115  12.340  58.877  1.00  0.00     0.278 C 
ENDBRANCH   1  12
BRANCH   2  14
ATOM     14  O   UNL     1     -37.125  13.997  55.241  1.00  0.00    -0.502 OA
ATOM     15  H   UNL     1     -37.147  13.335  54.474  1.00  0.00     0.293 HD
ENDBRANCH   2  14
BRANCH   3  16
ATOM     16  O   UNL     1     -35.285  15.933  54.374  1.00  0.00    -0.502 OA
ATOM     17  H   UNL     1     -36.092  15.753  53.790  1.00  0.00     0.293 HD
ENDBRANCH   3  16
TORSDOF 3
ENDMDL
MODEL 2
REMARK VINA RESULT:    -6.815      2.349      2.957
REMARK INTER + INTRA:          -7.669
REMARK INTER:                  -7.600
REMARK INTRA:                  -0.069
REMARK UNBOUND:                -0.057
REMARK SMILES COc1cc2ccc(=O)oc2c(O)c1O
REMARK SMILES IDX 3 1 14 2 12 3 11 4 5 5 4 6 6 7 7 8 8 9 9 10 10 11 2 12 1 13
REMARK SMILES IDX 15 14 13 16
REMARK H PARENT 15 15 13 17
REMARK Flexibility Score: inf
ROOT
ATOM      1  C   UNL     1     -34.736  12.245  57.655  1.00  0.00     0.165 A 
ATOM      2  C   UNL     1     -34.874  12.898  58.890  1.00  0.00     0.204 A 
ATOM      3  C   UNL     1     -34.162  14.083  59.153  1.00  0.00     0.205 A 
ATOM      4  C   UNL     1     -33.307  14.617  58.174  1.00  0.00     0.184 A 
ATOM      5  C   UNL     1     -33.167  13.961  56.932  1.00  0.00     0.025 A 
ATOM      6  C   UNL     1     -33.879  12.783  56.677  1.00  0.00     0.062 A 
ATOM      7  C   UNL     1     -32.309  14.515  55.976  1.00  0.00     0.020 A 
ATOM      8  C   UNL     1     -31.620  15.689  56.272  1.00  0.00     0.094 A 
ATOM      9  C   UNL     1     -31.806  16.285  57.523  1.00  0.00     0.336 A 
ATOM     10  O   UNL     1     -31.194  17.347  57.811  1.00  0.00    -0.246 OA
ATOM     11  O   UNL     1     -32.628  15.737  58.414  1.00  0.00    -0.419 OA
ENDROOT
BRANCH   1  12
ATOM     12  O   UNL     1     -35.468  11.066  57.440  1.00  0.00    -0.493 OA
ATOM     13  C   UNL     1     -36.673  10.990  56.686  1.00  0.00     0.278 C 
ENDBRANCH   1  12
BRANCH   2  14
ATOM     14  O   UNL     1     -35.727  12.353  59.850  1.00  0.00    -0.502 OA
ATOM     15  H   UNL     1     -36.125  12.909  60.598  1.00  0.00     0.293 HD
ENDBRANCH   2  14
BRANCH   3  16
ATOM     16  O   UNL     1     -34.312  14.717  60.388  1.00  0.00    -0.502 OA
ATOM     17  H   UNL     1     -33.837  15.583  60.611  1.00  0.00     0.293 HD
ENDBRANCH   3  16
TORSDOF 3
ENDMDL
MODEL 3
REMARK VINA RESULT:    -6.769      7.504      8.586
REMARK INTER + INTRA:          -7.618
REMARK INTER:                  -7.557
REMARK INTRA:                  -0.060
REMARK UNBOUND:                -0.057
REMARK SMILES COc1cc2ccc(=O)oc2c(O)c1O
REMARK SMILES IDX 3 1 14 2 12 3 11 4 5 5 4 6 6 7 7 8 8 9 9 10 10 11 2 12 1 13
REMARK SMILES IDX 15 14 13 16
REMARK H PARENT 15 15 13 17
REMARK Flexibility Score: inf
ROOT
ATOM      1  C   UNL     1     -26.889  18.146  58.783  1.00  0.00     0.165 A 
ATOM      2  C   UNL     1     -27.940  19.017  59.114  1.00  0.00     0.204 A 
ATOM      3  C   UNL     1     -28.762  19.556  58.109  1.00  0.00     0.205 A 
ATOM      4  C   UNL     1     -28.532  19.223  56.763  1.00  0.00     0.184 A 
ATOM      5  C   UNL     1     -27.476  18.348  56.429  1.00  0.00     0.025 A 
ATOM      6  C   UNL     1     -26.661  17.814  57.434  1.00  0.00     0.062 A 
ATOM      7  C   UNL     1     -27.269  18.033  55.081  1.00  0.00     0.020 A 
ATOM      8  C   UNL     1     -28.104  18.587  54.112  1.00  0.00     0.094 A 
ATOM      9  C   UNL     1     -29.131  19.446  54.515  1.00  0.00     0.336 A 
ATOM     10  O   UNL     1     -29.896  19.957  53.657  1.00  0.00    -0.246 OA
ATOM     11  O   UNL     1     -29.305  19.729  55.804  1.00  0.00    -0.419 OA
ENDROOT
BRANCH   1  12
ATOM     12  O   UNL     1     -26.096  17.634  59.822  1.00  0.00    -0.493 OA
ATOM     13  C   UNL     1     -24.673  17.655  59.838  1.00  0.00     0.278 C 
ENDBRANCH   1  12
BRANCH   2  14
ATOM     14  O   UNL     1     -28.153  19.336  60.456  1.00  0.00    -0.502 OA
ATOM     15  H   UNL     1     -28.278  18.625  61.167  1.00  0.00     0.293 HD
ENDBRANCH   2  14
BRANCH   3  16
ATOM     16  O   UNL     1     -29.802  20.420  58.458  1.00  0.00    -0.502 OA
ATOM     17  H   UNL     1     -30.048  21.225  57.895  1.00  0.00     0.293 HD
ENDBRANCH   3  16
TORSDOF 3
ENDMDL
MODEL 4
REMARK VINA RESULT:    -6.726      2.310      2.906
REMARK INTER + INTRA:          -7.569
REMARK INTER:                  -7.513
REMARK INTRA:                  -0.056
REMARK UNBOUND:                -0.057
REMARK SMILES COc1cc2ccc(=O)oc2c(O)c1O
REMARK SMILES IDX 3 1 14 2 12 3 11 4 5 5 4 6 6 7 7 8 8 9 9 10 10 11 2 12 1 13
REMARK SMILES IDX 15 14 13 16
REMARK H PARENT 15 15 13 17
REMARK Flexibility Score: inf
ROOT
ATOM      1  C   UNL     1     -35.187  12.982  55.598  1.00  0.00     0.165 A 
ATOM      2  C   UNL     1     -34.023  12.205  55.495  1.00  0.00     0.204 A 
ATOM      3  C   UNL     1     -32.766  12.760  55.800  1.00  0.00     0.205 A 
ATOM      4  C   UNL     1     -32.675  14.100  56.211  1.00  0.00     0.184 A 
ATOM      5  C   UNL     1     -33.846  14.883  56.315  1.00  0.00     0.025 A 
ATOM      6  C   UNL     1     -35.093  14.325  56.010  1.00  0.00     0.062 A 
ATOM      7  C   UNL     1     -33.725  16.215  56.727  1.00  0.00     0.020 A 
ATOM      8  C   UNL     1     -32.464  16.730  57.020  1.00  0.00     0.094 A 
ATOM      9  C   UNL     1     -31.348  15.898  56.896  1.00  0.00     0.336 A 
ATOM     10  O   UNL     1     -30.200  16.343  57.156  1.00  0.00    -0.246 OA
ATOM     11  O   UNL     1     -31.491  14.635  56.502  1.00  0.00    -0.419 OA
ENDROOT
BRANCH   1  12
ATOM     12  O   UNL     1     -36.418  12.383  55.283  1.00  0.00    -0.493 OA
ATOM     13  C   UNL     1     -37.048  12.456  54.009  1.00  0.00     0.278 C 
ENDBRANCH   1  12
BRANCH   2  14
ATOM     14  O   UNL     1     -34.133  10.876  55.085  1.00  0.00    -0.502 OA
ATOM     15  H   UNL     1     -34.360  10.128  55.731  1.00  0.00     0.293 HD
ENDBRANCH   2  14
BRANCH   3  16
ATOM     16  O   UNL     1     -31.620  11.971  55.691  1.00  0.00    -0.502 OA
ATOM     17  H   UNL     1     -31.255  11.438  56.470  1.00  0.00     0.293 HD
ENDBRANCH   3  16
TORSDOF 3
ENDMDL
MODEL 5
REMARK VINA RESULT:    -6.668      7.545      8.673
REMARK INTER + INTRA:          -7.504
REMARK INTER:                  -7.446
REMARK INTRA:                  -0.058
REMARK UNBOUND:                -0.057
REMARK SMILES COc1cc2ccc(=O)oc2c(O)c1O
REMARK SMILES IDX 3 1 14 2 12 3 11 4 5 5 4 6 6 7 7 8 8 9 9 10 10 11 2 12 1 13
REMARK SMILES IDX 15 14 13 16
REMARK H PARENT 15 15 13 17
REMARK Flexibility Score: inf
ROOT
ATOM      1  C   UNL     1     -28.020  19.196  54.228  1.00  0.00     0.165 A 
ATOM      2  C   UNL     1     -27.421  18.384  55.203  1.00  0.00     0.204 A 
ATOM      3  C   UNL     1     -27.823  18.471  56.549  1.00  0.00     0.205 A 
ATOM      4  C   UNL     1     -28.831  19.377  56.920  1.00  0.00     0.184 A 
ATOM      5  C   UNL     1     -29.434  20.195  55.939  1.00  0.00     0.025 A 
ATOM      6  C   UNL     1     -29.030  20.102  54.603  1.00  0.00     0.062 A 
ATOM      7  C   UNL     1     -30.435  21.088  56.337  1.00  0.00     0.020 A 
ATOM      8  C   UNL     1     -30.807  21.147  57.679  1.00  0.00     0.094 A 
ATOM      9  C   UNL     1     -30.167  20.308  58.596  1.00  0.00     0.336 A 
ATOM     10  O   UNL     1     -30.487  20.345  59.813  1.00  0.00    -0.246 OA
ATOM     11  O   UNL     1     -29.218  19.468  58.191  1.00  0.00    -0.419 OA
ENDROOT
BRANCH   1  12
ATOM     12  O   UNL     1     -27.585  19.071  52.898  1.00  0.00    -0.493 OA
ATOM     13  C   UNL     1     -27.299  20.167  52.036  1.00  0.00     0.278 C 
ENDBRANCH   1  12
BRANCH   2  14
ATOM     14  O   UNL     1     -26.422  17.490  54.816  1.00  0.00    -0.502 OA
ATOM     15  H   UNL     1     -25.439  17.735  54.841  1.00  0.00     0.293 HD
ENDBRANCH   2  14
BRANCH   3  16
ATOM     16  O   UNL     1     -27.214  17.655  57.504  1.00  0.00    -0.502 OA
ATOM     17  H   UNL     1     -27.024  17.976  58.446  1.00  0.00     0.293 HD
ENDBRANCH   3  16
TORSDOF 3
ENDMDL
MODEL 6
REMARK VINA RESULT:    -6.652      1.987      5.302
REMARK INTER + INTRA:          -7.487
REMARK INTER:                  -7.434
REMARK INTRA:                  -0.052
REMARK UNBOUND:                -0.057
REMARK SMILES COc1cc2ccc(=O)oc2c(O)c1O
REMARK SMILES IDX 3 1 14 2 12 3 11 4 5 5 4 6 6 7 7 8 8 9 9 10 10 11 2 12 1 13
REMARK SMILES IDX 15 14 13 16
REMARK H PARENT 15 15 13 17
REMARK Flexibility Score: inf
ROOT
ATOM      1  C   UNL     1     -33.149  15.384  57.930  1.00  0.00     0.165 A 
ATOM      2  C   UNL     1     -33.540  14.464  58.916  1.00  0.00     0.204 A 
ATOM      3  C   UNL     1     -34.441  13.429  58.607  1.00  0.00     0.205 A 
ATOM      4  C   UNL     1     -34.954  13.313  57.304  1.00  0.00     0.184 A 
ATOM      5  C   UNL     1     -34.561  14.237  56.311  1.00  0.00     0.025 A 
ATOM      6  C   UNL     1     -33.664  15.265  56.625  1.00  0.00     0.062 A 
ATOM      7  C   UNL     1     -35.087  14.098  55.022  1.00  0.00     0.020 A 
ATOM      8  C   UNL     1     -35.978  13.060  54.754  1.00  0.00     0.094 A 
ATOM      9  C   UNL     1     -36.322  12.181  55.785  1.00  0.00     0.336 A 
ATOM     10  O   UNL     1     -37.124  11.236  55.564  1.00  0.00    -0.246 OA
ATOM     11  O   UNL     1     -35.807  12.336  57.002  1.00  0.00    -0.419 OA
ENDROOT
BRANCH   1  12
ATOM     12  O   UNL     1     -32.248  16.399  58.286  1.00  0.00    -0.493 OA
ATOM     13  C   UNL     1     -31.419  17.102  57.368  1.00  0.00     0.278 C 
ENDBRANCH   1  12
BRANCH   2  14
ATOM     14  O   UNL     1     -33.021  14.595  60.204  1.00  0.00    -0.502 OA
ATOM     15  H   UNL     1     -32.213  14.070  60.517  1.00  0.00     0.293 HD
ENDBRANCH   2  14
BRANCH   3  16
ATOM     16  O   UNL     1     -34.819  12.524  59.601  1.00  0.00    -0.502 OA
ATOM     17  H   UNL     1     -35.571  12.717  60.251  1.00  0.00     0.293 HD
ENDBRANCH   3  16
TORSDOF 3
ENDMDL
MODEL 7
REMARK VINA RESULT:    -6.459      7.491      8.086
REMARK INTER + INTRA:          -7.270
REMARK INTER:                  -7.218
REMARK INTRA:                  -0.052
REMARK UNBOUND:                -0.057
REMARK SMILES COc1cc2ccc(=O)oc2c(O)c1O
REMARK SMILES IDX 3 1 14 2 12 3 11 4 5 5 4 6 6 7 7 8 8 9 9 10 10 11 2 12 1 13
REMARK SMILES IDX 15 14 13 16
REMARK H PARENT 15 15 13 17
REMARK Flexibility Score: inf
ROOT
ATOM      1  C   UNL     1     -30.153  21.457  57.790  1.00  0.00     0.165 A 
ATOM      2  C   UNL     1     -30.045  21.043  56.453  1.00  0.00     0.204 A 
ATOM      3  C   UNL     1     -29.293  19.902  56.118  1.00  0.00     0.205 A 
ATOM      4  C   UNL     1     -28.645  19.171  57.128  1.00  0.00     0.184 A 
ATOM      5  C   UNL     1     -28.753  19.586  58.473  1.00  0.00     0.025 A 
ATOM      6  C   UNL     1     -29.502  20.722  58.799  1.00  0.00     0.062 A 
ATOM      7  C   UNL     1     -28.098  18.838  59.458  1.00  0.00     0.020 A 
ATOM      8  C   UNL     1     -27.362  17.713  59.089  1.00  0.00     0.094 A 
ATOM      9  C   UNL     1     -27.299  17.361  57.737  1.00  0.00     0.336 A 
ATOM     10  O   UNL     1     -26.640  16.349  57.382  1.00  0.00    -0.246 OA
ATOM     11  O   UNL     1     -27.931  18.089  56.821  1.00  0.00    -0.419 OA
ENDROOT
BRANCH   1  12
ATOM     12  O   UNL     1     -30.914  22.602  58.074  1.00  0.00    -0.493 OA
ATOM     13  C   UNL     1     -30.730  23.432  59.215  1.00  0.00     0.278 C 
ENDBRANCH   1  12
BRANCH   2  14
ATOM     14  O   UNL     1     -30.695  21.782  55.464  1.00  0.00    -0.502 OA
ATOM     15  H   UNL     1     -30.817  22.786  55.533  1.00  0.00     0.293 HD
ENDBRANCH   2  14
BRANCH   3  16
ATOM     16  O   UNL     1     -29.198  19.507  54.783  1.00  0.00    -0.502 OA
ATOM     17  H   UNL     1     -29.560  18.621  54.454  1.00  0.00     0.293 HD
ENDBRANCH   3  16
TORSDOF 3
ENDMDL
MODEL 8
REMARK VINA RESULT:    -6.437      2.253      5.367
REMARK INTER + INTRA:          -7.246
REMARK INTER:                  -7.194
REMARK INTRA:                  -0.052
REMARK UNBOUND:                -0.057
REMARK SMILES COc1cc2ccc(=O)oc2c(O)c1O
REMARK SMILES IDX 3 1 14 2 12 3 11 4 5 5 4 6 6 7 7 8 8 9 9 10 10 11 2 12 1 13
REMARK SMILES IDX 15 14 13 16
REMARK H PARENT 15 15 13 17
REMARK Flexibility Score: inf
ROOT
ATOM      1  C   UNL     1     -32.206  14.474  56.589  1.00  0.00     0.165 A 
ATOM      2  C   UNL     1     -31.985  13.165  56.134  1.00  0.00     0.204 A 
ATOM      3  C   UNL     1     -32.966  12.173  56.312  1.00  0.00     0.205 A 
ATOM      4  C   UNL     1     -34.177  12.494  56.950  1.00  0.00     0.184 A 
ATOM      5  C   UNL     1     -34.400  13.810  57.408  1.00  0.00     0.025 A 
ATOM      6  C   UNL     1     -33.419  14.792  57.227  1.00  0.00     0.062 A 
ATOM      7  C   UNL     1     -35.615  14.102  58.038  1.00  0.00     0.020 A 
ATOM      8  C   UNL     1     -36.564  13.093  58.197  1.00  0.00     0.094 A 
ATOM      9  C   UNL     1     -36.275  11.812  57.719  1.00  0.00     0.336 A 
ATOM     10  O   UNL     1     -37.118  10.886  57.852  1.00  0.00    -0.246 OA
ATOM     11  O   UNL     1     -35.112  11.562  57.123  1.00  0.00    -0.419 OA
ENDROOT
BRANCH   1  12
ATOM     12  O   UNL     1     -31.196  15.429  56.388  1.00  0.00    -0.493 OA
ATOM     13  C   UNL     1     -31.037  16.612  57.163  1.00  0.00     0.278 C 
ENDBRANCH   1  12
BRANCH   2  14
ATOM     14  O   UNL     1     -30.776  12.865  55.504  1.00  0.00    -0.502 OA
ATOM     15  H   UNL     1     -30.522  11.919  55.245  1.00  0.00     0.293 HD
ENDBRANCH   2  14
BRANCH   3  16
ATOM     16  O   UNL     1     -32.727  10.876  55.853  1.00  0.00    -0.502 OA
ATOM     17  H   UNL     1     -31.943  10.324  56.178  1.00  0.00     0.293 HD
ENDBRANCH   3  16
TORSDOF 3
ENDMDL
MODEL 9
REMARK VINA RESULT:    -6.398      4.206      8.127
REMARK INTER + INTRA:          -7.203
REMARK INTER:                  -7.281
REMARK INTRA:                   0.079
REMARK UNBOUND:                -0.057
REMARK SMILES COc1cc2ccc(=O)oc2c(O)c1O
REMARK SMILES IDX 3 1 14 2 12 3 11 4 5 5 4 6 6 7 7 8 8 9 9 10 10 11 2 12 1 13
REMARK SMILES IDX 15 14 13 16
REMARK H PARENT 15 15 13 17
REMARK Flexibility Score: inf
ROOT
ATOM      1  C   UNL     1     -27.872  20.234  57.597  1.00  0.00     0.165 A 
ATOM      2  C   UNL     1     -29.079  20.948  57.667  1.00  0.00     0.204 A 
ATOM      3  C   UNL     1     -30.310  20.277  57.559  1.00  0.00     0.205 A 
ATOM      4  C   UNL     1     -30.334  18.883  57.380  1.00  0.00     0.184 A 
ATOM      5  C   UNL     1     -29.121  18.165  57.310  1.00  0.00     0.025 A 
ATOM      6  C   UNL     1     -27.899  18.839  57.418  1.00  0.00     0.062 A 
ATOM      7  C   UNL     1     -29.175  16.778  57.132  1.00  0.00     0.020 A 
ATOM      8  C   UNL     1     -30.414  16.148  57.028  1.00  0.00     0.094 A 
ATOM      9  C   UNL     1     -31.575  16.922  57.107  1.00  0.00     0.336 A 
ATOM     10  O   UNL     1     -32.704  16.373  57.016  1.00  0.00    -0.246 OA
ATOM     11  O   UNL     1     -31.495  18.239  57.276  1.00  0.00    -0.419 OA
ENDROOT
BRANCH   1  12
ATOM     12  O   UNL     1     -26.668  20.949  57.711  1.00  0.00    -0.493 OA
ATOM     13  C   UNL     1     -26.105  21.752  56.679  1.00  0.00     0.278 C 
ENDBRANCH   1  12
BRANCH   2  14
ATOM     14  O   UNL     1     -29.035  22.331  57.845  1.00  0.00    -0.502 OA
ATOM     15  H   UNL     1     -28.184  22.816  58.105  1.00  0.00     0.293 HD
ENDBRANCH   2  14
BRANCH   3  16
ATOM     16  O   UNL     1     -31.500  21.004  57.630  1.00  0.00    -0.502 OA
ATOM     17  H   UNL     1     -31.564  21.889  58.117  1.00  0.00     0.293 HD
ENDBRANCH   3  16
TORSDOF 3
ENDMDL
