MODEL 1
REMARK VINA RESULT:    -3.398      0.000      0.000
REMARK INTER + INTRA:          -5.943
REMARK INTER:                  -5.185
REMARK INTRA:                  -0.758
REMARK UNBOUND:                -0.758
REMARK SMILES O=C([O-])CCCCCCCCC(=O)[O-]
REMARK SMILES IDX 7 1 6 2 5 3 4 4 2 5 1 6 3 7 8 8 9 9 10 10 11 11 12 12 13 13
REMARK SMILES IDX 14 14
REMARK H PARENT
REMARK Flexibility Score: inf
ROOT
ATOM      1  C   UNL     1      61.930  33.246  59.690  1.00  0.00     0.000 C 
ENDROOT
BRANCH   1   2
ATOM      2  C   UNL     1      61.358  34.419  60.496  1.00  0.00     0.000 C 
BRANCH   2   3
ATOM      3  C   UNL     1      62.479  35.218  61.176  1.00  0.00     0.006 C 
BRANCH   3   4
ATOM      4  C   UNL     1      63.784  34.417  61.280  1.00  0.00     0.053 C 
BRANCH   4   5
ATOM      5  C   UNL     1      64.968  35.224  60.841  1.00  0.00     0.041 C 
ATOM      6  O   UNL     1      65.312  35.237  59.630  1.00  0.00    -0.550 OA
ATOM      7  O   UNL     1      65.712  35.933  61.775  1.00  0.00    -0.550 OA
ENDBRANCH   4   5
ENDBRANCH   3   4
ENDBRANCH   2   3
ENDBRANCH   1   2
BRANCH   1   8
ATOM      8  C   UNL     1      61.169  31.947  59.994  1.00  0.00     0.000 C 
BRANCH   8   9
ATOM      9  C   UNL     1      60.955  31.724  61.500  1.00  0.00     0.000 C 
BRANCH   9  10
ATOM     10  C   UNL     1      61.560  30.402  61.994  1.00  0.00     0.006 C 
BRANCH  10  11
ATOM     11  C   UNL     1      63.074  30.371  61.760  1.00  0.00     0.053 C 
BRANCH  11  12
ATOM     12  C   UNL     1      63.461  29.143  60.998  1.00  0.00     0.041 C 
ATOM     13  O   UNL     1      63.290  28.004  61.503  1.00  0.00    -0.550 OA
ATOM     14  O   UNL     1      64.055  29.260  59.747  1.00  0.00    -0.550 OA
ENDBRANCH  11  12
ENDBRANCH  10  11
ENDBRANCH   9  10
ENDBRANCH   8   9
ENDBRANCH   1   8
TORSDOF 9
ENDMDL
MODEL 2
REMARK VINA RESULT:    -3.396      1.181      1.478
REMARK INTER + INTRA:          -5.940
REMARK INTER:                  -5.148
REMARK INTRA:                  -0.791
REMARK UNBOUND:                -0.758
REMARK SMILES O=C([O-])CCCCCCCCC(=O)[O-]
REMARK SMILES IDX 7 1 6 2 5 3 4 4 2 5 1 6 3 7 8 8 9 9 10 10 11 11 12 12 13 13
REMARK SMILES IDX 14 14
REMARK H PARENT
REMARK Flexibility Score: inf
ROOT
ATOM      1  C   UNL     1      61.319  32.892  59.734  1.00  0.00     0.000 C 
ENDROOT
BRANCH   1   2
ATOM      2  C   UNL     1      61.867  33.736  60.891  1.00  0.00     0.000 C 
BRANCH   2   3
ATOM      3  C   UNL     1      61.664  35.235  60.624  1.00  0.00     0.006 C 
BRANCH   3   4
ATOM      4  C   UNL     1      62.709  36.100  61.342  1.00  0.00     0.053 C 
BRANCH   4   5
ATOM      5  C   UNL     1      64.105  35.644  61.047  1.00  0.00     0.041 C 
ATOM      6  O   UNL     1      64.557  35.704  59.873  1.00  0.00    -0.550 OA
ATOM      7  O   UNL     1      64.897  35.123  62.063  1.00  0.00    -0.550 OA
ENDBRANCH   4   5
ENDBRANCH   3   4
ENDBRANCH   2   3
ENDBRANCH   1   2
BRANCH   1   8
ATOM      8  C   UNL     1      60.602  31.640  60.259  1.00  0.00     0.000 C 
BRANCH   8   9
ATOM      9  C   UNL     1      61.120  31.193  61.635  1.00  0.00     0.000 C 
BRANCH   9  10
ATOM     10  C   UNL     1      61.881  29.860  61.576  1.00  0.00     0.006 C 
BRANCH  10  11
ATOM     11  C   UNL     1      63.361  30.058  61.920  1.00  0.00     0.053 C 
BRANCH  11  12
ATOM     12  C   UNL     1      64.098  30.628  60.750  1.00  0.00     0.041 C 
ATOM     13  O   UNL     1      64.778  31.678  60.881  1.00  0.00    -0.550 OA
ATOM     14  O   UNL     1      63.995  30.024  59.503  1.00  0.00    -0.550 OA
ENDBRANCH  11  12
ENDBRANCH  10  11
ENDBRANCH   9  10
ENDBRANCH   8   9
ENDBRANCH   1   8
TORSDOF 9
ENDMDL
MODEL 3
REMARK VINA RESULT:    -3.315     12.982     14.285
REMARK INTER + INTRA:          -5.816
REMARK INTER:                  -5.261
REMARK INTRA:                  -0.555
REMARK UNBOUND:                -0.758
REMARK SMILES O=C([O-])CCCCCCCCC(=O)[O-]
REMARK SMILES IDX 7 1 6 2 5 3 4 4 2 5 1 6 3 7 8 8 9 9 10 10 11 11 12 12 13 13
REMARK SMILES IDX 14 14
REMARK H PARENT
REMARK Flexibility Score: inf
ROOT
ATOM      1  C   UNL     1      58.378  29.127  49.805  1.00  0.00     0.000 C 
ENDROOT
BRANCH   1   2
ATOM      2  C   UNL     1      59.617  28.352  49.341  1.00  0.00     0.000 C 
BRANCH   2   3
ATOM      3  C   UNL     1      59.330  26.845  49.271  1.00  0.00     0.006 C 
BRANCH   3   4
ATOM      4  C   UNL     1      60.524  26.002  49.740  1.00  0.00     0.053 C 
BRANCH   4   5
ATOM      5  C   UNL     1      60.083  24.757  50.447  1.00  0.00     0.041 C 
ATOM      6  O   UNL     1      58.868  24.590  50.737  1.00  0.00    -0.550 OA
ATOM      7  O   UNL     1      61.016  23.796  50.814  1.00  0.00    -0.550 OA
ENDBRANCH   4   5
ENDBRANCH   3   4
ENDBRANCH   2   3
ENDBRANCH   1   2
BRANCH   1   8
ATOM      8  C   UNL     1      57.332  28.180  50.410  1.00  0.00     0.000 C 
BRANCH   8   9
ATOM      9  C   UNL     1      55.921  28.791  50.431  1.00  0.00     0.000 C 
BRANCH   9  10
ATOM     10  C   UNL     1      54.816  27.726  50.489  1.00  0.00     0.006 C 
BRANCH  10  11
ATOM     11  C   UNL     1      55.304  26.398  49.900  1.00  0.00     0.053 C 
BRANCH  11  12
ATOM     12  C   UNL     1      54.202  25.387  49.908  1.00  0.00     0.041 C 
ATOM     13  O   UNL     1      53.561  25.141  48.853  1.00  0.00    -0.550 OA
ATOM     14  O   UNL     1      53.852  24.749  51.092  1.00  0.00    -0.550 OA
ENDBRANCH  11  12
ENDBRANCH  10  11
ENDBRANCH   9  10
ENDBRANCH   8   9
ENDBRANCH   1   8
TORSDOF 9
ENDMDL
MODEL 4
REMARK VINA RESULT:    -3.276      1.189      5.288
REMARK INTER + INTRA:          -5.758
REMARK INTER:                  -5.095
REMARK INTRA:                  -0.662
REMARK UNBOUND:                -0.758
REMARK SMILES O=C([O-])CCCCCCCCC(=O)[O-]
REMARK SMILES IDX 7 1 6 2 5 3 4 4 2 5 1 6 3 7 8 8 9 9 10 10 11 11 12 12 13 13
REMARK SMILES IDX 14 14
REMARK H PARENT
REMARK Flexibility Score: inf
ROOT
ATOM      1  C   UNL     1      60.724  31.840  61.317  1.00  0.00     0.000 C 
ENDROOT
BRANCH   1   2
ATOM      2  C   UNL     1      61.029  30.341  61.224  1.00  0.00     0.000 C 
BRANCH   2   3
ATOM      3  C   UNL     1      62.202  29.959  62.139  1.00  0.00     0.006 C 
BRANCH   3   4
ATOM      4  C   UNL     1      63.263  29.125  61.407  1.00  0.00     0.053 C 
BRANCH   4   5
ATOM      5  C   UNL     1      64.134  29.976  60.533  1.00  0.00     0.041 C 
ATOM      6  O   UNL     1      64.239  29.721  59.304  1.00  0.00    -0.550 OA
ATOM      7  O   UNL     1      64.855  31.028  61.081  1.00  0.00    -0.550 OA
ENDBRANCH   4   5
ENDBRANCH   3   4
ENDBRANCH   2   3
ENDBRANCH   1   2
BRANCH   1   8
ATOM      8  C   UNL     1      61.546  32.634  60.292  1.00  0.00     0.000 C 
BRANCH   8   9
ATOM      9  C   UNL     1      62.505  33.639  60.950  1.00  0.00     0.000 C 
BRANCH   9  10
ATOM     10  C   UNL     1      62.259  35.082  60.487  1.00  0.00     0.006 C 
BRANCH  10  11
ATOM     11  C   UNL     1      62.933  36.083  61.432  1.00  0.00     0.053 C 
BRANCH  11  12
ATOM     12  C   UNL     1      64.421  35.988  61.321  1.00  0.00     0.041 C 
ATOM     13  O   UNL     1      65.122  35.804  62.350  1.00  0.00    -0.550 OA
ATOM     14  O   UNL     1      65.038  36.150  60.086  1.00  0.00    -0.550 OA
ENDBRANCH  11  12
ENDBRANCH  10  11
ENDBRANCH   9  10
ENDBRANCH   8   9
ENDBRANCH   1   8
TORSDOF 9
ENDMDL
MODEL 5
REMARK VINA RESULT:    -3.267      2.102      5.974
REMARK INTER + INTRA:          -5.743
REMARK INTER:                  -4.972
REMARK INTRA:                  -0.771
REMARK UNBOUND:                -0.758
REMARK SMILES O=C([O-])CCCCCCCCC(=O)[O-]
REMARK SMILES IDX 7 1 6 2 5 3 4 4 2 5 1 6 3 7 8 8 9 9 10 10 11 11 12 12 13 13
REMARK SMILES IDX 14 14
REMARK H PARENT
REMARK Flexibility Score: inf
ROOT
ATOM      1  C   UNL     1      62.935  33.106  60.185  1.00  0.00     0.000 C 
ENDROOT
BRANCH   1   2
ATOM      2  C   UNL     1      61.529  33.078  60.798  1.00  0.00     0.000 C 
BRANCH   2   3
ATOM      3  C   UNL     1      60.968  31.649  60.825  1.00  0.00     0.006 C 
BRANCH   3   4
ATOM      4  C   UNL     1      61.281  30.926  62.142  1.00  0.00     0.053 C 
BRANCH   4   5
ATOM      5  C   UNL     1      62.252  29.803  61.943  1.00  0.00     0.041 C 
ATOM      6  O   UNL     1      61.837  28.618  61.838  1.00  0.00    -0.550 OA
ATOM      7  O   UNL     1      63.616  30.059  61.907  1.00  0.00    -0.550 OA
ENDBRANCH   4   5
ENDBRANCH   3   4
ENDBRANCH   2   3
ENDBRANCH   1   2
BRANCH   1   8
ATOM      8  C   UNL     1      63.989  33.466  61.243  1.00  0.00     0.000 C 
BRANCH   8   9
ATOM      9  C   UNL     1      64.591  34.863  61.027  1.00  0.00     0.000 C 
BRANCH   9  10
ATOM     10  C   UNL     1      63.755  35.975  61.679  1.00  0.00     0.006 C 
BRANCH  10  11
ATOM     11  C   UNL     1      63.300  37.001  60.636  1.00  0.00     0.053 C 
BRANCH  11  12
ATOM     12  C   UNL     1      61.916  36.690  60.164  1.00  0.00     0.041 C 
ATOM     13  O   UNL     1      61.687  36.528  58.937  1.00  0.00    -0.550 OA
ATOM     14  O   UNL     1      60.869  36.627  61.075  1.00  0.00    -0.550 OA
ENDBRANCH  11  12
ENDBRANCH  10  11
ENDBRANCH   9  10
ENDBRANCH   8   9
ENDBRANCH   1   8
TORSDOF 9
ENDMDL
MODEL 6
REMARK VINA RESULT:    -3.260     12.280     14.226
REMARK INTER + INTRA:          -5.733
REMARK INTER:                  -5.079
REMARK INTRA:                  -0.654
REMARK UNBOUND:                -0.758
REMARK SMILES O=C([O-])CCCCCCCCC(=O)[O-]
REMARK SMILES IDX 7 1 6 2 5 3 4 4 2 5 1 6 3 7 8 8 9 9 10 10 11 11 12 12 13 13
REMARK SMILES IDX 14 14
REMARK H PARENT
REMARK Flexibility Score: inf
ROOT
ATOM      1  C   UNL     1      57.978  28.756  51.293  1.00  0.00     0.000 C 
ENDROOT
BRANCH   1   2
ATOM      2  C   UNL     1      56.672  28.000  51.563  1.00  0.00     0.000 C 
BRANCH   2   3
ATOM      3  C   UNL     1      55.877  27.793  50.266  1.00  0.00     0.006 C 
BRANCH   3   4
ATOM      4  C   UNL     1      55.668  26.307  49.944  1.00  0.00     0.053 C 
BRANCH   4   5
ATOM      5  C   UNL     1      54.245  26.013  49.575  1.00  0.00     0.041 C 
ATOM      6  O   UNL     1      53.913  24.855  49.206  1.00  0.00    -0.550 OA
ATOM      7  O   UNL     1      53.294  27.024  49.608  1.00  0.00    -0.550 OA
ENDBRANCH   4   5
ENDBRANCH   3   4
ENDBRANCH   2   3
ENDBRANCH   1   2
BRANCH   1   8
ATOM      8  C   UNL     1      58.134  29.068  49.797  1.00  0.00     0.000 C 
BRANCH   8   9
ATOM      9  C   UNL     1      59.407  28.455  49.193  1.00  0.00     0.000 C 
BRANCH   9  10
ATOM     10  C   UNL     1      59.426  26.922  49.284  1.00  0.00     0.006 C 
BRANCH  10  11
ATOM     11  C   UNL     1      60.837  26.409  49.589  1.00  0.00     0.053 C 
BRANCH  11  12
ATOM     12  C   UNL     1      60.793  24.975  50.013  1.00  0.00     0.041 C 
ATOM     13  O   UNL     1      59.688  24.393  50.163  1.00  0.00    -0.550 OA
ATOM     14  O   UNL     1      61.974  24.296  50.288  1.00  0.00    -0.550 OA
ENDBRANCH  11  12
ENDBRANCH  10  11
ENDBRANCH   9  10
ENDBRANCH   8   9
ENDBRANCH   1   8
TORSDOF 9
ENDMDL
MODEL 7
REMARK VINA RESULT:    -3.232     12.726     14.299
REMARK INTER + INTRA:          -5.690
REMARK INTER:                  -5.032
REMARK INTRA:                  -0.657
REMARK UNBOUND:                -0.758
REMARK SMILES O=C([O-])CCCCCCCCC(=O)[O-]
REMARK SMILES IDX 7 1 6 2 5 3 4 4 2 5 1 6 3 7 8 8 9 9 10 10 11 11 12 12 13 13
REMARK SMILES IDX 14 14
REMARK H PARENT
REMARK Flexibility Score: inf
ROOT
ATOM      1  C   UNL     1      59.904  28.446  49.618  1.00  0.00     0.000 C 
ENDROOT
BRANCH   1   2
ATOM      2  C   UNL     1      59.765  26.988  49.164  1.00  0.00     0.000 C 
BRANCH   2   3
ATOM      3  C   UNL     1      60.327  26.026  50.220  1.00  0.00     0.006 C 
BRANCH   3   4
ATOM      4  C   UNL     1      59.446  24.783  50.402  1.00  0.00     0.053 C 
BRANCH   4   5
ATOM      5  C   UNL     1      60.264  23.533  50.518  1.00  0.00     0.041 C 
ATOM      6  O   UNL     1      60.360  22.939  51.625  1.00  0.00    -0.550 OA
ATOM      7  O   UNL     1      60.947  23.041  49.413  1.00  0.00    -0.550 OA
ENDBRANCH   4   5
ENDBRANCH   3   4
ENDBRANCH   2   3
ENDBRANCH   1   2
BRANCH   1   8
ATOM      8  C   UNL     1      58.566  29.190  49.496  1.00  0.00     0.000 C 
BRANCH   8   9
ATOM      9  C   UNL     1      57.659  28.982  50.719  1.00  0.00     0.000 C 
BRANCH   9  10
ATOM     10  C   UNL     1      56.244  28.525  50.335  1.00  0.00     0.006 C 
BRANCH  10  11
ATOM     11  C   UNL     1      56.145  26.996  50.329  1.00  0.00     0.053 C 
BRANCH  11  12
ATOM     12  C   UNL     1      54.810  26.559  49.817  1.00  0.00     0.041 C 
ATOM     13  O   UNL     1      54.697  25.480  49.180  1.00  0.00    -0.550 OA
ATOM     14  O   UNL     1      53.695  27.369  50.002  1.00  0.00    -0.550 OA
ENDBRANCH  11  12
ENDBRANCH  10  11
ENDBRANCH   9  10
ENDBRANCH   8   9
ENDBRANCH   1   8
TORSDOF 9
ENDMDL
MODEL 8
REMARK VINA RESULT:    -3.215      1.727      2.376
REMARK INTER + INTRA:          -5.665
REMARK INTER:                  -5.289
REMARK INTRA:                  -0.376
REMARK UNBOUND:                -0.758
REMARK SMILES O=C([O-])CCCCCCCCC(=O)[O-]
REMARK SMILES IDX 7 1 6 2 5 3 4 4 2 5 1 6 3 7 8 8 9 9 10 10 11 11 12 12 13 13
REMARK SMILES IDX 14 14
REMARK H PARENT
REMARK Flexibility Score: inf
ROOT
ATOM      1  C   UNL     1      60.999  31.979  60.989  1.00  0.00     0.000 C 
ENDROOT
BRANCH   1   2
ATOM      2  C   UNL     1      62.369  32.663  60.916  1.00  0.00     0.000 C 
BRANCH   2   3
ATOM      3  C   UNL     1      62.221  34.191  60.884  1.00  0.00     0.006 C 
BRANCH   3   4
ATOM      4  C   UNL     1      63.540  34.896  60.541  1.00  0.00     0.053 C 
BRANCH   4   5
ATOM      5  C   UNL     1      63.905  35.924  61.568  1.00  0.00     0.041 C 
ATOM      6  O   UNL     1      63.191  36.951  61.717  1.00  0.00    -0.550 OA
ATOM      7  O   UNL     1      65.050  35.765  62.338  1.00  0.00    -0.550 OA
ENDBRANCH   4   5
ENDBRANCH   3   4
ENDBRANCH   2   3
ENDBRANCH   1   2
BRANCH   1   8
ATOM      8  C   UNL     1      61.053  30.732  61.884  1.00  0.00     0.000 C 
BRANCH   8   9
ATOM      9  C   UNL     1      62.479  30.181  62.047  1.00  0.00     0.000 C 
BRANCH   9  10
ATOM     10  C   UNL     1      62.737  28.942  61.177  1.00  0.00     0.006 C 
BRANCH  10  11
ATOM     11  C   UNL     1      61.657  27.880  61.402  1.00  0.00     0.053 C 
BRANCH  11  12
ATOM     12  C   UNL     1      62.227  26.695  62.116  1.00  0.00     0.041 C 
ATOM     13  O   UNL     1      61.693  26.277  63.176  1.00  0.00    -0.550 OA
ATOM     14  O   UNL     1      63.378  26.082  61.635  1.00  0.00    -0.550 OA
ENDBRANCH  11  12
ENDBRANCH  10  11
ENDBRANCH   9  10
ENDBRANCH   8   9
ENDBRANCH   1   8
TORSDOF 9
ENDMDL
MODEL 9
REMARK VINA RESULT:    -3.206     11.973     14.171
REMARK INTER + INTRA:          -5.651
REMARK INTER:                  -5.202
REMARK INTRA:                  -0.449
REMARK UNBOUND:                -0.758
REMARK SMILES O=C([O-])CCCCCCCCC(=O)[O-]
REMARK SMILES IDX 7 1 6 2 5 3 4 4 2 5 1 6 3 7 8 8 9 9 10 10 11 11 12 12 13 13
REMARK SMILES IDX 14 14
REMARK H PARENT
REMARK Flexibility Score: inf
ROOT
ATOM      1  C   UNL     1      57.006  28.111  50.400  1.00  0.00     0.000 C 
ENDROOT
BRANCH   1   2
ATOM      2  C   UNL     1      55.606  28.698  50.618  1.00  0.00     0.000 C 
BRANCH   2   3
ATOM      3  C   UNL     1      54.524  27.763  50.060  1.00  0.00     0.006 C 
BRANCH   3   4
ATOM      4  C   UNL     1      55.045  26.338  49.836  1.00  0.00     0.053 C 
BRANCH   4   5
ATOM      5  C   UNL     1      54.134  25.311  50.437  1.00  0.00     0.041 C 
ATOM      6  O   UNL     1      53.501  24.514  49.694  1.00  0.00    -0.550 OA
ATOM      7  O   UNL     1      53.958  25.255  51.813  1.00  0.00    -0.550 OA
ENDBRANCH   4   5
ENDBRANCH   3   4
ENDBRANCH   2   3
ENDBRANCH   1   2
BRANCH   1   8
ATOM      8  C   UNL     1      58.052  29.225  50.249  1.00  0.00     0.000 C 
BRANCH   8   9
ATOM      9  C   UNL     1      58.971  29.015  49.035  1.00  0.00     0.000 C 
BRANCH   9  10
ATOM     10  C   UNL     1      59.810  27.733  49.144  1.00  0.00     0.006 C 
BRANCH  10  11
ATOM     11  C   UNL     1      60.763  27.802  50.341  1.00  0.00     0.053 C 
BRANCH  11  12
ATOM     12  C   UNL     1      62.109  28.293  49.913  1.00  0.00     0.041 C 
ATOM     13  O   UNL     1      62.722  29.147  50.605  1.00  0.00    -0.550 OA
ATOM     14  O   UNL     1      62.666  27.843  48.721  1.00  0.00    -0.550 OA
ENDBRANCH  11  12
ENDBRANCH  10  11
ENDBRANCH   9  10
ENDBRANCH   8   9
ENDBRANCH   1   8
TORSDOF 9
ENDMDL
