MODEL 1
REMARK VINA RESULT:    -4.170      0.000      0.000
REMARK INTER + INTRA:          -6.921
REMARK INTER:                  -6.364
REMARK INTRA:                  -0.556
REMARK UNBOUND:                -0.556
REMARK SMILES CC1=CCC[C@H](C)C(=O)C[C@@H](C(C)C)C(=O)C1
REMARK SMILES IDX 8 1 9 2 6 3 7 4 5 5 4 6 3 7 2 8 1 9 10 11 11 12 15 13 16 14
REMARK SMILES IDX 17 15 12 17 13 18 14 19
REMARK H PARENT
REMARK Flexibility Score: 70.00
ROOT
ATOM      1  C   UNL     1     -13.841  12.199 -29.560  1.00  0.00     0.136 C 
ATOM      2  O   UNL     1     -13.796  11.052 -29.136  1.00  0.00    -0.299 OA
ENDROOT
BRANCH   1   3
ATOM      3  C   UNL     1     -13.345  13.338 -28.684  1.00  0.00     0.053 C 
ATOM      4  C   UNL     1     -13.627  13.099 -27.193  1.00  0.00     0.016 C 
BRANCH   3   5
ATOM      5  C   UNL     1     -11.837  13.633 -28.914  1.00  0.00     0.015 C 
BRANCH   5   6
ATOM      6  C   UNL     1     -11.613  14.473 -30.190  1.00  0.00     0.028 C 
BRANCH   6   7
ATOM      7  C   UNL     1     -12.420  15.746 -30.266  1.00  0.00    -0.028 C 
ATOM      8  C   UNL     1     -13.557  15.963 -30.980  1.00  0.00    -0.070 CG0
ATOM      9  C   UNL     1     -14.285  17.259 -30.710  1.00  0.00     0.039 C 
ATOM     10  G   UNL     1     -14.050  15.114 -32.151  1.00  0.00     0.000 G0
ENDBRANCH   6   7
ENDBRANCH   5   6
ENDBRANCH   3   5
ENDBRANCH   1   3
BRANCH   1  11
ATOM     11  C   UNL     1     -14.323  12.410 -30.983  1.00  0.00     0.087 C 
BRANCH  11  12
ATOM     12  C   UNL     1     -15.624  13.237 -31.209  1.00  0.00     0.066 C 
BRANCH  12  13
ATOM     13  C   UNL     1     -15.433  14.507 -32.042  1.00  0.00     0.140 C 
ATOM     14  O   UNL     1     -16.333  14.933 -32.750  1.00  0.00    -0.299 OA
BRANCH  13  15
ATOM     15  C   UNL     1     -14.055  15.122 -32.145  1.00  0.00     0.106 CG0
ATOM     16  G   UNL     1     -13.572  15.964 -30.965  1.00  0.00     0.000 G0
ENDBRANCH  13  15
ENDBRANCH  12  13
BRANCH  12  17
ATOM     17  C   UNL     1     -16.530  13.360 -29.937  1.00  0.00    -0.006 C 
ATOM     18  C   UNL     1     -17.939  12.798 -30.187  1.00  0.00     0.008 C 
ATOM     19  C   UNL     1     -16.623  14.768 -29.328  1.00  0.00     0.008 C 
ENDBRANCH  12  17
ENDBRANCH  11  12
ENDBRANCH   1  11
TORSDOF 1
ENDMDL
MODEL 2
REMARK VINA RESULT:    -3.975      2.201      4.029
REMARK INTER + INTRA:          -6.623
REMARK INTER:                  -6.169
REMARK INTRA:                  -0.454
REMARK UNBOUND:                -0.556
REMARK SMILES CC1=CCC[C@H](C)C(=O)C[C@@H](C(C)C)C(=O)C1
REMARK SMILES IDX 8 1 9 2 6 3 7 4 5 5 4 6 3 7 2 8 1 9 10 11 11 12 15 13 16 14
REMARK SMILES IDX 17 15 12 17 13 18 14 19
REMARK H PARENT
REMARK Flexibility Score: 70.00
ROOT
ATOM      1  C   UNL     1     -12.280  14.272 -28.944  1.00  0.00     0.136 C 
ATOM      2  O   UNL     1     -11.838  15.373 -28.644  1.00  0.00    -0.299 OA
ENDROOT
BRANCH   1   3
ATOM      3  C   UNL     1     -12.203  13.137 -27.936  1.00  0.00     0.053 C 
ATOM      4  C   UNL     1     -12.289  13.633 -26.484  1.00  0.00     0.016 C 
BRANCH   3   5
ATOM      5  C   UNL     1     -13.278  12.048 -28.205  1.00  0.00     0.015 C 
BRANCH   5   6
ATOM      6  C   UNL     1     -14.566  12.313 -27.397  1.00  0.00     0.028 C 
BRANCH   6   7
ATOM      7  C   UNL     1     -15.824  11.726 -27.990  1.00  0.00    -0.028 C 
ATOM      8  C   UNL     1     -16.551  12.210 -29.032  1.00  0.00    -0.070 CG0
ATOM      9  C   UNL     1     -17.644  11.314 -29.566  1.00  0.00     0.039 C 
ATOM     10  G   UNL     1     -16.488  13.637 -29.576  1.00  0.00     0.000 G0
ENDBRANCH   6   7
ENDBRANCH   5   6
ENDBRANCH   3   5
ENDBRANCH   1   3
BRANCH   1  11
ATOM     11  C   UNL     1     -12.960  14.126 -30.292  1.00  0.00     0.087 C 
BRANCH  11  12
ATOM     12  C   UNL     1     -14.329  14.838 -30.512  1.00  0.00     0.066 C 
BRANCH  12  13
ATOM     13  C   UNL     1     -15.510  13.890 -30.732  1.00  0.00     0.140 C 
ATOM     14  O   UNL     1     -15.773  13.464 -31.846  1.00  0.00    -0.299 OA
BRANCH  13  15
ATOM     15  C   UNL     1     -16.479  13.643 -29.597  1.00  0.00     0.106 CG0
ATOM     16  G   UNL     1     -16.555  12.223 -29.036  1.00  0.00     0.000 G0
ENDBRANCH  13  15
ENDBRANCH  12  13
BRANCH  12  17
ATOM     17  C   UNL     1     -14.251  16.093 -31.446  1.00  0.00    -0.006 C 
ATOM     18  C   UNL     1     -13.060  16.007 -32.415  1.00  0.00     0.008 C 
ATOM     19  C   UNL     1     -14.248  17.451 -30.726  1.00  0.00     0.008 C 
ENDBRANCH  12  17
ENDBRANCH  11  12
ENDBRANCH   1  11
TORSDOF 1
ENDMDL
MODEL 3
REMARK VINA RESULT:    -3.902      2.229      5.257
REMARK INTER + INTRA:          -6.512
REMARK INTER:                  -6.215
REMARK INTRA:                  -0.296
REMARK UNBOUND:                -0.556
REMARK SMILES CC1=CCC[C@H](C)C(=O)C[C@@H](C(C)C)C(=O)C1
REMARK SMILES IDX 8 1 9 2 6 3 7 4 5 5 4 6 3 7 2 8 1 9 10 11 11 12 15 13 16 14
REMARK SMILES IDX 17 15 12 17 13 18 14 19
REMARK H PARENT
REMARK Flexibility Score: 70.00
ROOT
ATOM      1  C   UNL     1     -14.143  16.084 -31.239  1.00  0.00     0.136 C 
ATOM      2  O   UNL     1     -13.761  16.974 -31.987  1.00  0.00    -0.299 OA
ENDROOT
BRANCH   1   3
ATOM      3  C   UNL     1     -15.432  15.344 -31.557  1.00  0.00     0.053 C 
ATOM      4  C   UNL     1     -15.218  14.191 -32.549  1.00  0.00     0.016 C 
BRANCH   3   5
ATOM      5  C   UNL     1     -16.141  14.835 -30.272  1.00  0.00     0.015 C 
BRANCH   5   6
ATOM      6  C   UNL     1     -16.358  13.307 -30.314  1.00  0.00     0.028 C 
BRANCH   6   7
ATOM      7  C   UNL     1     -16.424  12.634 -28.965  1.00  0.00    -0.028 C 
ATOM      8  C   UNL     1     -15.390  12.358 -28.127  1.00  0.00    -0.070 CG0
ATOM      9  C   UNL     1     -15.754  11.876 -26.742  1.00  0.00     0.039 C 
ATOM     10  G   UNL     1     -13.914  12.309 -28.518  1.00  0.00     0.000 G0
ENDBRANCH   6   7
ENDBRANCH   5   6
ENDBRANCH   3   5
ENDBRANCH   1   3
BRANCH   1  11
ATOM     11  C   UNL     1     -13.254  15.715 -30.068  1.00  0.00     0.087 C 
BRANCH  11  12
ATOM     12  C   UNL     1     -12.810  14.228 -29.915  1.00  0.00     0.066 C 
BRANCH  12  13
ATOM     13  C   UNL     1     -13.136  13.603 -28.556  1.00  0.00     0.140 C 
ATOM     14  O   UNL     1     -12.649  14.049 -27.528  1.00  0.00    -0.299 OA
BRANCH  13  15
ATOM     15  C   UNL     1     -13.905  12.301 -28.508  1.00  0.00     0.106 CG0
ATOM     16  G   UNL     1     -15.381  12.372 -28.119  1.00  0.00     0.000 G0
ENDBRANCH  13  15
ENDBRANCH  12  13
BRANCH  12  17
ATOM     17  C   UNL     1     -11.392  13.923 -30.506  1.00  0.00    -0.006 C 
ATOM     18  C   UNL     1     -10.910  15.049 -31.436  1.00  0.00     0.008 C 
ATOM     19  C   UNL     1     -11.249  12.562 -31.207  1.00  0.00     0.008 C 
ENDBRANCH  12  17
ENDBRANCH  11  12
ENDBRANCH   1  11
TORSDOF 1
ENDMDL
MODEL 4
REMARK VINA RESULT:    -3.860      2.014      4.807
REMARK INTER + INTRA:          -6.447
REMARK INTER:                  -6.327
REMARK INTRA:                  -0.121
REMARK UNBOUND:                -0.556
REMARK SMILES CC1=CCC[C@H](C)C(=O)C[C@@H](C(C)C)C(=O)C1
REMARK SMILES IDX 8 1 9 2 6 3 7 4 5 5 4 6 3 7 2 8 1 9 10 11 11 12 15 13 16 14
REMARK SMILES IDX 17 15 12 17 13 18 14 19
REMARK H PARENT
REMARK Flexibility Score: 70.00
ROOT
ATOM      1  C   UNL     1     -16.782  14.423 -30.703  1.00  0.00     0.136 C 
ATOM      2  O   UNL     1     -17.032  14.531 -31.896  1.00  0.00    -0.299 OA
ENDROOT
BRANCH   1   3
ATOM      3  C   UNL     1     -17.817  13.807 -29.776  1.00  0.00     0.053 C 
ATOM      4  C   UNL     1     -18.457  12.542 -30.368  1.00  0.00     0.016 C 
BRANCH   3   5
ATOM      5  C   UNL     1     -17.233  13.515 -28.366  1.00  0.00     0.015 C 
BRANCH   5   6
ATOM      6  C   UNL     1     -17.048  12.000 -28.134  1.00  0.00     0.028 C 
BRANCH   6   7
ATOM      7  C   UNL     1     -15.624  11.561 -27.892  1.00  0.00    -0.028 C 
ATOM      8  C   UNL     1     -14.561  11.705 -28.726  1.00  0.00    -0.070 CG0
ATOM      9  C   UNL     1     -13.203  11.374 -28.152  1.00  0.00     0.039 C 
ATOM     10  G   UNL     1     -14.636  11.983 -30.227  1.00  0.00     0.000 G0
ENDBRANCH   6   7
ENDBRANCH   5   6
ENDBRANCH   3   5
ENDBRANCH   1   3
BRANCH   1  11
ATOM     11  C   UNL     1     -15.403  14.842 -30.229  1.00  0.00     0.087 C 
BRANCH  11  12
ATOM     12  C   UNL     1     -14.167  14.420 -31.080  1.00  0.00     0.066 C 
BRANCH  12  13
ATOM     13  C   UNL     1     -13.681  12.991 -30.829  1.00  0.00     0.140 C 
ATOM     14  O   UNL     1     -12.596  12.615 -31.247  1.00  0.00    -0.299 OA
BRANCH  13  15
ATOM     15  C   UNL     1     -14.637  11.979 -30.238  1.00  0.00     0.106 CG0
ATOM     16  G   UNL     1     -14.543  11.720 -28.734  1.00  0.00     0.000 G0
ENDBRANCH  13  15
ENDBRANCH  12  13
BRANCH  12  17
ATOM     17  C   UNL     1     -13.066  15.528 -31.196  1.00  0.00    -0.006 C 
ATOM     18  C   UNL     1     -12.299  15.707 -29.875  1.00  0.00     0.008 C 
ATOM     19  C   UNL     1     -13.554  16.891 -31.712  1.00  0.00     0.008 C 
ENDBRANCH  12  17
ENDBRANCH  11  12
ENDBRANCH   1  11
TORSDOF 1
ENDMDL
MODEL 5
REMARK VINA RESULT:    -3.782      1.524      2.037
REMARK INTER + INTRA:          -6.329
REMARK INTER:                  -6.285
REMARK INTRA:                  -0.043
REMARK UNBOUND:                -0.556
REMARK SMILES CC1=CCC[C@H](C)C(=O)C[C@@H](C(C)C)C(=O)C1
REMARK SMILES IDX 8 1 9 2 6 3 7 4 5 5 4 6 3 7 2 8 1 9 10 11 11 12 15 13 16 14
REMARK SMILES IDX 17 15 12 17 13 18 14 19
REMARK H PARENT
REMARK Flexibility Score: 70.00
ROOT
ATOM      1  C   UNL     1     -13.535  13.318 -29.166  1.00  0.00     0.136 C 
ATOM      2  O   UNL     1     -13.671  13.489 -27.962  1.00  0.00    -0.299 OA
ENDROOT
BRANCH   1   3
ATOM      3  C   UNL     1     -12.339  13.930 -29.877  1.00  0.00     0.053 C 
ATOM      4  C   UNL     1     -11.028  13.729 -29.102  1.00  0.00     0.016 C 
BRANCH   3   5
ATOM      5  C   UNL     1     -12.198  13.406 -31.333  1.00  0.00     0.015 C 
BRANCH   5   6
ATOM      6  C   UNL     1     -12.894  14.345 -32.342  1.00  0.00     0.028 C 
BRANCH   6   7
ATOM      7  C   UNL     1     -13.194  15.730 -31.823  1.00  0.00    -0.028 C 
ATOM      8  C   UNL     1     -14.328  16.154 -31.205  1.00  0.00    -0.070 CG0
ATOM      9  C   UNL     1     -14.286  17.534 -30.590  1.00  0.00     0.039 C 
ATOM     10  G   UNL     1     -15.682  15.447 -31.244  1.00  0.00     0.000 G0
ENDBRANCH   6   7
ENDBRANCH   5   6
ENDBRANCH   3   5
ENDBRANCH   1   3
BRANCH   1  11
ATOM     11  C   UNL     1     -14.539  12.426 -29.871  1.00  0.00     0.087 C 
BRANCH  11  12
ATOM     12  C   UNL     1     -15.929  13.026 -30.244  1.00  0.00     0.066 C 
BRANCH  12  13
ATOM     13  C   UNL     1     -16.036  14.542 -30.062  1.00  0.00     0.140 C 
ATOM     14  O   UNL     1     -16.540  15.019 -29.056  1.00  0.00    -0.299 OA
BRANCH  13  15
ATOM     15  C   UNL     1     -15.701  15.451 -31.224  1.00  0.00     0.106 CG0
ATOM     16  G   UNL     1     -14.336  16.138 -31.207  1.00  0.00     0.000 G0
ENDBRANCH  13  15
ENDBRANCH  12  13
BRANCH  12  17
ATOM     17  C   UNL     1     -17.144  12.171 -29.750  1.00  0.00    -0.006 C 
ATOM     18  C   UNL     1     -18.485  12.785 -30.186  1.00  0.00     0.008 C 
ATOM     19  C   UNL     1     -17.167  11.866 -28.244  1.00  0.00     0.008 C 
ENDBRANCH  12  17
ENDBRANCH  11  12
ENDBRANCH   1  11
TORSDOF 1
ENDMDL
MODEL 6
REMARK VINA RESULT:    -3.731      1.907      3.868
REMARK INTER + INTRA:          -6.250
REMARK INTER:                  -5.950
REMARK INTRA:                  -0.301
REMARK UNBOUND:                -0.556
REMARK SMILES CC1=CCC[C@H](C)C(=O)C[C@@H](C(C)C)C(=O)C1
REMARK SMILES IDX 8 1 9 2 6 3 7 4 5 5 4 6 3 7 2 8 1 9 10 11 11 12 15 13 16 14
REMARK SMILES IDX 17 15 12 17 13 18 14 19
REMARK H PARENT
REMARK Flexibility Score: 70.00
ROOT
ATOM      1  C   UNL     1     -13.216  13.248 -29.148  1.00  0.00     0.136 C 
ATOM      2  O   UNL     1     -12.984  14.324 -28.613  1.00  0.00    -0.299 OA
ENDROOT
BRANCH   1   3
ATOM      3  C   UNL     1     -13.264  11.987 -28.301  1.00  0.00     0.053 C 
ATOM      4  C   UNL     1     -12.426  12.109 -27.018  1.00  0.00     0.016 C 
BRANCH   3   5
ATOM      5  C   UNL     1     -14.722  11.570 -27.963  1.00  0.00     0.015 C 
BRANCH   5   6
ATOM      6  C   UNL     1     -15.649  12.798 -27.848  1.00  0.00     0.028 C 
BRANCH   6   7
ATOM      7  C   UNL     1     -16.927  12.710 -28.647  1.00  0.00    -0.028 C 
ATOM      8  C   UNL     1     -17.238  13.382 -29.787  1.00  0.00    -0.070 CG0
ATOM      9  C   UNL     1     -18.495  12.949 -30.505  1.00  0.00     0.039 C 
ATOM     10  G   UNL     1     -16.543  14.646 -30.294  1.00  0.00     0.000 G0
ENDBRANCH   6   7
ENDBRANCH   5   6
ENDBRANCH   3   5
ENDBRANCH   1   3
BRANCH   1  11
ATOM     11  C   UNL     1     -13.524  13.249 -30.633  1.00  0.00     0.087 C 
BRANCH  11  12
ATOM     12  C   UNL     1     -14.104  14.549 -31.268  1.00  0.00     0.066 C 
BRANCH  12  13
ATOM     13  C   UNL     1     -15.616  14.522 -31.503  1.00  0.00     0.140 C 
ATOM     14  O   UNL     1     -16.076  14.552 -32.635  1.00  0.00    -0.299 OA
BRANCH  13  15
ATOM     15  C   UNL     1     -16.550  14.665 -30.321  1.00  0.00     0.106 CG0
ATOM     16  G   UNL     1     -17.218  13.394 -29.797  1.00  0.00     0.000 G0
ENDBRANCH  13  15
ENDBRANCH  12  13
BRANCH  12  17
ATOM     17  C   UNL     1     -13.224  15.142 -32.420  1.00  0.00    -0.006 C 
ATOM     18  C   UNL     1     -11.820  14.516 -32.442  1.00  0.00     0.008 C 
ATOM     19  C   UNL     1     -13.119  16.675 -32.446  1.00  0.00     0.008 C 
ENDBRANCH  12  17
ENDBRANCH  11  12
ENDBRANCH   1  11
TORSDOF 1
ENDMDL
MODEL 7
REMARK VINA RESULT:    -3.725      2.096      3.857
REMARK INTER + INTRA:          -6.240
REMARK INTER:                  -6.352
REMARK INTRA:                   0.112
REMARK UNBOUND:                -0.556
REMARK SMILES CC1=CCC[C@H](C)C(=O)C[C@@H](C(C)C)C(=O)C1
REMARK SMILES IDX 8 1 9 2 6 3 7 4 5 5 4 6 3 7 2 8 1 9 10 11 11 12 15 13 16 14
REMARK SMILES IDX 17 15 12 17 13 18 14 19
REMARK H PARENT
REMARK Flexibility Score: 70.00
ROOT
ATOM      1  C   UNL     1     -14.094  15.762 -30.615  1.00  0.00     0.136 C 
ATOM      2  O   UNL     1     -14.095  16.891 -30.143  1.00  0.00    -0.299 OA
ENDROOT
BRANCH   1   3
ATOM      3  C   UNL     1     -12.830  15.226 -31.267  1.00  0.00     0.053 C 
ATOM      4  C   UNL     1     -12.575  15.846 -32.650  1.00  0.00     0.016 C 
BRANCH   3   5
ATOM      5  C   UNL     1     -11.586  15.400 -30.353  1.00  0.00     0.015 C 
BRANCH   5   6
ATOM      6  C   UNL     1     -11.165  14.061 -29.712  1.00  0.00     0.028 C 
BRANCH   6   7
ATOM      7  C   UNL     1     -11.832  13.745 -28.395  1.00  0.00    -0.028 C 
ATOM      8  C   UNL     1     -12.663  12.706 -28.117  1.00  0.00    -0.070 CG0
ATOM      9  C   UNL     1     -13.021  12.497 -26.664  1.00  0.00     0.039 C 
ATOM     10  G   UNL     1     -13.409  11.860 -29.149  1.00  0.00     0.000 G0
ENDBRANCH   6   7
ENDBRANCH   5   6
ENDBRANCH   3   5
ENDBRANCH   1   3
BRANCH   1  11
ATOM     11  C   UNL     1     -15.348  14.924 -30.447  1.00  0.00     0.087 C 
BRANCH  11  12
ATOM     12  C   UNL     1     -15.272  13.649 -29.554  1.00  0.00     0.066 C 
BRANCH  12  13
ATOM     13  C   UNL     1     -14.359  12.546 -30.097  1.00  0.00     0.140 C 
ATOM     14  O   UNL     1     -14.505  12.113 -31.230  1.00  0.00    -0.299 OA
BRANCH  13  15
ATOM     15  C   UNL     1     -13.404  11.849 -29.154  1.00  0.00     0.106 CG0
ATOM     16  G   UNL     1     -12.673  12.714 -28.128  1.00  0.00     0.000 G0
ENDBRANCH  13  15
ENDBRANCH  12  13
BRANCH  12  17
ATOM     17  C   UNL     1     -16.654  13.195 -28.974  1.00  0.00    -0.006 C 
ATOM     18  C   UNL     1     -16.543  12.787 -27.495  1.00  0.00     0.008 C 
ATOM     19  C   UNL     1     -17.376  12.098 -29.772  1.00  0.00     0.008 C 
ENDBRANCH  12  17
ENDBRANCH  11  12
ENDBRANCH   1  11
TORSDOF 1
ENDMDL
MODEL 8
REMARK VINA RESULT:    -3.285      1.921      4.779
REMARK INTER + INTRA:          -5.569
REMARK INTER:                  -6.316
REMARK INTRA:                   0.747
REMARK UNBOUND:                -0.556
REMARK SMILES CC1=CCC[C@H](C)C(=O)C[C@@H](C(C)C)C(=O)C1
REMARK SMILES IDX 8 1 9 2 6 3 7 4 5 5 4 6 3 7 2 8 1 9 10 11 11 12 15 13 16 14
REMARK SMILES IDX 17 15 12 17 13 18 14 19
REMARK H PARENT
REMARK Flexibility Score: 70.00
ROOT
ATOM      1  C   UNL     1     -13.620  15.799 -30.697  1.00  0.00     0.136 C 
ATOM      2  O   UNL     1     -14.329  16.728 -30.333  1.00  0.00    -0.299 OA
ENDROOT
BRANCH   1   3
ATOM      3  C   UNL     1     -13.641  15.370 -32.155  1.00  0.00     0.053 C 
ATOM      4  C   UNL     1     -12.290  14.808 -32.622  1.00  0.00     0.016 C 
BRANCH   3   5
ATOM      5  C   UNL     1     -14.784  14.359 -32.447  1.00  0.00     0.015 C 
BRANCH   5   6
ATOM      6  C   UNL     1     -16.138  14.863 -31.904  1.00  0.00     0.028 C 
BRANCH   6   7
ATOM      7  C   UNL     1     -16.976  13.819 -31.207  1.00  0.00    -0.028 C 
ATOM      8  C   UNL     1     -16.564  12.906 -30.288  1.00  0.00    -0.070 CG0
ATOM      9  C   UNL     1     -17.646  12.119 -29.586  1.00  0.00     0.039 C 
ATOM     10  G   UNL     1     -15.117  12.476 -30.045  1.00  0.00     0.000 G0
ENDBRANCH   6   7
ENDBRANCH   5   6
ENDBRANCH   3   5
ENDBRANCH   1   3
BRANCH   1  11
ATOM     11  C   UNL     1     -12.690  15.176 -29.674  1.00  0.00     0.087 C 
BRANCH  11  12
ATOM     12  C   UNL     1     -12.892  13.674 -29.308  1.00  0.00     0.066 C 
BRANCH  12  13
ATOM     13  C   UNL     1     -14.342  13.282 -29.011  1.00  0.00     0.140 C 
ATOM     14  O   UNL     1     -14.828  13.469 -27.906  1.00  0.00    -0.299 OA
BRANCH  13  15
ATOM     15  C   UNL     1     -15.110  12.471 -30.031  1.00  0.00     0.106 CG0
ATOM     16  G   UNL     1     -16.559  12.876 -30.301  1.00  0.00     0.000 G0
ENDBRANCH  13  15
ENDBRANCH  12  13
BRANCH  12  17
ATOM     17  C   UNL     1     -11.797  13.101 -28.346  1.00  0.00    -0.006 C 
ATOM     18  C   UNL     1     -11.445  11.644 -28.689  1.00  0.00     0.008 C 
ATOM     19  C   UNL     1     -12.105  13.230 -26.845  1.00  0.00     0.008 C 
ENDBRANCH  12  17
ENDBRANCH  11  12
ENDBRANCH   1  11
TORSDOF 1
ENDMDL
MODEL 9
REMARK VINA RESULT:    -3.273      2.274      4.635
REMARK INTER + INTRA:          -5.551
REMARK INTER:                  -5.403
REMARK INTRA:                  -0.149
REMARK UNBOUND:                -0.556
REMARK SMILES CC1=CCC[C@H](C)C(=O)C[C@@H](C(C)C)C(=O)C1
REMARK SMILES IDX 8 1 9 2 6 3 7 4 5 5 4 6 3 7 2 8 1 9 10 11 11 12 15 13 16 14
REMARK SMILES IDX 17 15 12 17 13 18 14 19
REMARK H PARENT
REMARK Flexibility Score: 70.00
ROOT
ATOM      1  C   UNL     1     -15.471  14.365 -30.210  1.00  0.00     0.136 C 
ATOM      2  O   UNL     1     -15.837  15.424 -29.719  1.00  0.00    -0.299 OA
ENDROOT
BRANCH   1   3
ATOM      3  C   UNL     1     -16.031  13.059 -29.672  1.00  0.00     0.053 C 
ATOM      4  C   UNL     1     -17.567  13.015 -29.717  1.00  0.00     0.016 C 
BRANCH   3   5
ATOM      5  C   UNL     1     -15.429  11.825 -30.397  1.00  0.00     0.015 C 
BRANCH   5   6
ATOM      6  C   UNL     1     -14.639  10.926 -29.422  1.00  0.00     0.028 C 
BRANCH   6   7
ATOM      7  C   UNL     1     -14.261  11.579 -28.115  1.00  0.00    -0.028 C 
ATOM      8  C   UNL     1     -13.391  12.606 -27.925  1.00  0.00    -0.070 CG0
ATOM      9  C   UNL     1     -13.358  13.216 -26.542  1.00  0.00     0.039 C 
ATOM     10  G   UNL     1     -12.323  13.065 -28.917  1.00  0.00     0.000 G0
ENDBRANCH   6   7
ENDBRANCH   5   6
ENDBRANCH   3   5
ENDBRANCH   1   3
BRANCH   1  11
ATOM     11  C   UNL     1     -14.528  14.424 -31.397  1.00  0.00     0.087 C 
BRANCH  11  12
ATOM     12  C   UNL     1     -12.996  14.313 -31.131  1.00  0.00     0.066 C 
BRANCH  12  13
ATOM     13  C   UNL     1     -12.600  14.380 -29.654  1.00  0.00     0.140 C 
ATOM     14  O   UNL     1     -12.351  15.450 -29.119  1.00  0.00    -0.299 OA
BRANCH  13  15
ATOM     15  C   UNL     1     -12.319  13.095 -28.906  1.00  0.00     0.106 CG0
ATOM     16  G   UNL     1     -13.389  12.600 -27.934  1.00  0.00     0.000 G0
ENDBRANCH  13  15
ENDBRANCH  12  13
BRANCH  12  17
ATOM     17  C   UNL     1     -12.115  15.133 -32.132  1.00  0.00    -0.006 C 
ATOM     18  C   UNL     1     -12.863  16.365 -32.670  1.00  0.00     0.008 C 
ATOM     19  C   UNL     1     -11.518  14.328 -33.298  1.00  0.00     0.008 C 
ENDBRANCH  12  17
ENDBRANCH  11  12
ENDBRANCH   1  11
TORSDOF 1
ENDMDL
