MODEL 1
REMARK VINA RESULT:    -1.883      0.000      0.000
REMARK INTER + INTRA:          -5.079
REMARK INTER:                  -3.534
REMARK INTRA:                  -1.546
REMARK UNBOUND:                -1.546
REMARK SMILES CCCCCCCCC=CCCCCCCCC(=O)[O-]
REMARK SMILES IDX 10 1 9 2 11 3 12 4 13 5 14 6 15 7 16 8 17 9 18 10 19 11
REMARK SMILES IDX 20 12 8 13 7 14 6 15 5 16 4 17 3 18 2 19 1 20
REMARK H PARENT
REMARK Flexibility Score: inf
ROOT
ATOM      1  C   UNL     1      28.263  16.818  10.134  1.00  0.00    -0.031 C 
ATOM      2  C   UNL     1      28.037  18.035  10.665  1.00  0.00    -0.031 C 
ENDROOT
BRANCH   1   3
ATOM      3  C   UNL     1      27.996  15.514  10.841  1.00  0.00     0.027 C 
BRANCH   3   4
ATOM      4  C   UNL     1      29.288  14.954  11.452  1.00  0.00     0.004 C 
BRANCH   4   5
ATOM      5  C   UNL     1      29.051  13.662  12.249  1.00  0.00     0.000 C 
BRANCH   5   6
ATOM      6  C   UNL     1      28.684  13.934  13.716  1.00  0.00     0.000 C 
BRANCH   6   7
ATOM      7  C   UNL     1      28.750  15.437  14.028  1.00  0.00     0.000 C 
BRANCH   7   8
ATOM      8  C   UNL     1      27.402  15.999  14.508  1.00  0.00     0.006 C 
BRANCH   8   9
ATOM      9  C   UNL     1      26.213  15.131  14.074  1.00  0.00     0.053 C 
BRANCH   9  10
ATOM     10  C   UNL     1      24.927  15.874  14.252  1.00  0.00     0.041 C 
ATOM     11  O   UNL     1      24.807  16.723  15.174  1.00  0.00    -0.550 OA
ATOM     12  O   UNL     1      23.848  15.610  13.416  1.00  0.00    -0.550 OA
ENDBRANCH   9  10
ENDBRANCH   8   9
ENDBRANCH   7   8
ENDBRANCH   6   7
ENDBRANCH   5   6
ENDBRANCH   4   5
ENDBRANCH   3   4
ENDBRANCH   1   3
BRANCH   2  13
ATOM     13  C   UNL     1      27.563  18.282  12.078  1.00  0.00     0.027 C 
BRANCH  13  14
ATOM     14  C   UNL     1      27.785  19.738  12.521  1.00  0.00     0.004 C 
BRANCH  14  15
ATOM     15  C   UNL     1      28.865  19.912  13.604  1.00  0.00     0.000 C 
BRANCH  15  16
ATOM     16  C   UNL     1      29.811  18.703  13.707  1.00  0.00     0.000 C 
BRANCH  16  17
ATOM     17  C   UNL     1      30.224  18.411  15.163  1.00  0.00    -0.000 C 
BRANCH  17  18
ATOM     18  C   UNL     1      30.785  19.639  15.901  1.00  0.00    -0.000 C 
BRANCH  18  19
ATOM     19  C   UNL     1      30.776  19.474  17.426  1.00  0.00    -0.003 C 
ATOM     20  C   UNL     1      30.840  20.829  18.125  1.00  0.00     0.004 C 
ENDBRANCH  18  19
ENDBRANCH  17  18
ENDBRANCH  16  17
ENDBRANCH  15  16
ENDBRANCH  14  15
ENDBRANCH  13  14
ENDBRANCH   2  13
TORSDOF 15
ENDMDL
MODEL 2
REMARK VINA RESULT:    -1.786      2.441      5.759
REMARK INTER + INTRA:          -4.899
REMARK INTER:                  -3.452
REMARK INTRA:                  -1.447
REMARK UNBOUND:                -1.546
REMARK SMILES CCCCCCCCC=CCCCCCCCC(=O)[O-]
REMARK SMILES IDX 10 1 9 2 11 3 12 4 13 5 14 6 15 7 16 8 17 9 18 10 19 11
REMARK SMILES IDX 20 12 8 13 7 14 6 15 5 16 4 17 3 18 2 19 1 20
REMARK H PARENT
REMARK Flexibility Score: inf
ROOT
ATOM      1  C   UNL     1      27.958  16.150  10.524  1.00  0.00    -0.031 C 
ATOM      2  C   UNL     1      28.317  14.861  10.682  1.00  0.00    -0.031 C 
ENDROOT
BRANCH   1   3
ATOM      3  C   UNL     1      28.682  17.320  11.138  1.00  0.00     0.027 C 
BRANCH   3   4
ATOM      4  C   UNL     1      27.787  18.568  11.145  1.00  0.00     0.004 C 
BRANCH   4   5
ATOM      5  C   UNL     1      27.808  19.299  12.496  1.00  0.00     0.000 C 
BRANCH   5   6
ATOM      6  C   UNL     1      28.660  18.570  13.547  1.00  0.00     0.000 C 
BRANCH   6   7
ATOM      7  C   UNL     1      29.667  19.529  14.199  1.00  0.00     0.000 C 
BRANCH   7   8
ATOM      8  C   UNL     1      30.585  18.822  15.209  1.00  0.00     0.006 C 
BRANCH   8   9
ATOM      9  C   UNL     1      31.396  19.808  16.061  1.00  0.00     0.053 C 
BRANCH   9  10
ATOM     10  C   UNL     1      30.818  19.913  17.437  1.00  0.00     0.041 C 
ATOM     11  O   UNL     1      31.000  20.953  18.123  1.00  0.00    -0.550 OA
ATOM     12  O   UNL     1      30.103  18.850  17.975  1.00  0.00    -0.550 OA
ENDBRANCH   9  10
ENDBRANCH   8   9
ENDBRANCH   7   8
ENDBRANCH   6   7
ENDBRANCH   5   6
ENDBRANCH   4   5
ENDBRANCH   3   4
ENDBRANCH   1   3
BRANCH   2  13
ATOM     13  C   UNL     1      29.447  14.386  11.565  1.00  0.00     0.027 C 
BRANCH  13  14
ATOM     14  C   UNL     1      28.998  13.291  12.546  1.00  0.00     0.004 C 
BRANCH  14  15
ATOM     15  C   UNL     1      28.615  13.810  13.943  1.00  0.00     0.000 C 
BRANCH  15  16
ATOM     16  C   UNL     1      28.743  15.339  14.069  1.00  0.00     0.000 C 
BRANCH  16  17
ATOM     17  C   UNL     1      27.383  16.014  14.342  1.00  0.00    -0.000 C 
BRANCH  17  18
ATOM     18  C   UNL     1      26.205  15.339  13.619  1.00  0.00    -0.000 C 
BRANCH  18  19
ATOM     19  C   UNL     1      24.846  15.936  14.008  1.00  0.00    -0.003 C 
ATOM     20  C   UNL     1      24.855  16.423  15.454  1.00  0.00     0.004 C 
ENDBRANCH  18  19
ENDBRANCH  17  18
ENDBRANCH  16  17
ENDBRANCH  15  16
ENDBRANCH  14  15
ENDBRANCH  13  14
ENDBRANCH   2  13
TORSDOF 15
ENDMDL
MODEL 3
REMARK VINA RESULT:    -1.622      2.694      5.530
REMARK INTER + INTRA:          -4.590
REMARK INTER:                  -3.456
REMARK INTRA:                  -1.134
REMARK UNBOUND:                -1.546
REMARK SMILES CCCCCCCCC=CCCCCCCCC(=O)[O-]
REMARK SMILES IDX 10 1 9 2 11 3 12 4 13 5 14 6 15 7 16 8 17 9 18 10 19 11
REMARK SMILES IDX 20 12 8 13 7 14 6 15 5 16 4 17 3 18 2 19 1 20
REMARK H PARENT
REMARK Flexibility Score: inf
ROOT
ATOM      1  C   UNL     1      29.121  14.623  11.310  1.00  0.00    -0.031 C 
ATOM      2  C   UNL     1      29.201  13.957  12.479  1.00  0.00    -0.031 C 
ENDROOT
BRANCH   1   3
ATOM      3  C   UNL     1      28.101  15.687  11.001  1.00  0.00     0.027 C 
BRANCH   3   4
ATOM      4  C   UNL     1      28.611  17.069  11.432  1.00  0.00     0.004 C 
BRANCH   4   5
ATOM      5  C   UNL     1      27.822  18.217  10.784  1.00  0.00     0.000 C 
BRANCH   5   6
ATOM      6  C   UNL     1      27.543  19.367  11.765  1.00  0.00     0.000 C 
BRANCH   6   7
ATOM      7  C   UNL     1      27.913  18.965  13.200  1.00  0.00     0.000 C 
BRANCH   7   8
ATOM      8  C   UNL     1      29.205  19.640  13.687  1.00  0.00     0.006 C 
BRANCH   8   9
ATOM      9  C   UNL     1      30.137  18.668  14.424  1.00  0.00     0.053 C 
BRANCH   9  10
ATOM     10  C   UNL     1      30.996  19.404  15.404  1.00  0.00     0.041 C 
ATOM     11  O   UNL     1      32.205  19.633  15.139  1.00  0.00    -0.550 OA
ATOM     12  O   UNL     1      30.468  19.814  16.623  1.00  0.00    -0.550 OA
ENDBRANCH   9  10
ENDBRANCH   8   9
ENDBRANCH   7   8
ENDBRANCH   6   7
ENDBRANCH   5   6
ENDBRANCH   4   5
ENDBRANCH   3   4
ENDBRANCH   1   3
BRANCH   2  13
ATOM     13  C   UNL     1      28.230  14.115  13.625  1.00  0.00     0.027 C 
BRANCH  13  14
ATOM     14  C   UNL     1      28.420  15.446  14.371  1.00  0.00     0.004 C 
BRANCH  14  15
ATOM     15  C   UNL     1      27.162  16.331  14.416  1.00  0.00     0.000 C 
BRANCH  15  16
ATOM     16  C   UNL     1      25.908  15.616  13.881  1.00  0.00     0.000 C 
BRANCH  16  17
ATOM     17  C   UNL     1      24.620  16.109  14.571  1.00  0.00    -0.000 C 
BRANCH  17  18
ATOM     18  C   UNL     1      24.865  16.735  15.955  1.00  0.00    -0.000 C 
BRANCH  18  19
ATOM     19  C   UNL     1      23.772  17.734  16.359  1.00  0.00    -0.003 C 
ATOM     20  C   UNL     1      23.812  18.013  17.859  1.00  0.00     0.004 C 
ENDBRANCH  18  19
ENDBRANCH  17  18
ENDBRANCH  16  17
ENDBRANCH  15  16
ENDBRANCH  14  15
ENDBRANCH  13  14
ENDBRANCH   2  13
TORSDOF 15
ENDMDL
MODEL 4
REMARK VINA RESULT:    -1.576      5.179      8.841
REMARK INTER + INTRA:          -4.504
REMARK INTER:                  -3.653
REMARK INTRA:                  -0.851
REMARK UNBOUND:                -1.546
REMARK SMILES CCCCCCCCC=CCCCCCCCC(=O)[O-]
REMARK SMILES IDX 10 1 9 2 11 3 12 4 13 5 14 6 15 7 16 8 17 9 18 10 19 11
REMARK SMILES IDX 20 12 8 13 7 14 6 15 5 16 4 17 3 18 2 19 1 20
REMARK H PARENT
REMARK Flexibility Score: inf
ROOT
ATOM      1  C   UNL     1      31.362  19.688  15.566  1.00  0.00    -0.031 C 
ATOM      2  C   UNL     1      30.110  19.297  15.259  1.00  0.00    -0.031 C 
ENDROOT
BRANCH   1   3
ATOM      3  C   UNL     1      32.591  19.317  14.778  1.00  0.00     0.027 C 
BRANCH   3   4
ATOM      4  C   UNL     1      33.801  20.142  15.237  1.00  0.00     0.004 C 
BRANCH   4   5
ATOM      5  C   UNL     1      34.766  20.464  14.086  1.00  0.00     0.000 C 
BRANCH   5   6
ATOM      6  C   UNL     1      35.987  21.274  14.551  1.00  0.00     0.000 C 
BRANCH   6   7
ATOM      7  C   UNL     1      35.822  22.761  14.206  1.00  0.00     0.000 C 
BRANCH   7   8
ATOM      8  C   UNL     1      35.492  23.619  15.438  1.00  0.00     0.006 C 
BRANCH   8   9
ATOM      9  C   UNL     1      35.139  25.067  15.071  1.00  0.00     0.053 C 
BRANCH   9  10
ATOM     10  C   UNL     1      33.831  25.461  15.683  1.00  0.00     0.041 C 
ATOM     11  O   UNL     1      32.932  25.986  14.975  1.00  0.00    -0.550 OA
ATOM     12  O   UNL     1      33.615  25.276  17.044  1.00  0.00    -0.550 OA
ENDBRANCH   9  10
ENDBRANCH   8   9
ENDBRANCH   7   8
ENDBRANCH   6   7
ENDBRANCH   5   6
ENDBRANCH   4   5
ENDBRANCH   3   4
ENDBRANCH   1   3
BRANCH   2  13
ATOM     13  C   UNL     1      29.756  18.358  14.130  1.00  0.00     0.027 C 
BRANCH  13  14
ATOM     14  C   UNL     1      29.253  16.998  14.640  1.00  0.00     0.004 C 
BRANCH  14  15
ATOM     15  C   UNL     1      27.765  16.725  14.355  1.00  0.00     0.000 C 
BRANCH  15  16
ATOM     16  C   UNL     1      27.492  15.269  13.938  1.00  0.00     0.000 C 
BRANCH  16  17
ATOM     17  C   UNL     1      28.774  14.549  13.472  1.00  0.00    -0.000 C 
BRANCH  17  18
ATOM     18  C   UNL     1      29.013  14.642  11.955  1.00  0.00    -0.000 C 
BRANCH  18  19
ATOM     19  C   UNL     1      27.960  15.495  11.236  1.00  0.00    -0.003 C 
ATOM     20  C   UNL     1      28.519  16.869  10.877  1.00  0.00     0.004 C 
ENDBRANCH  18  19
ENDBRANCH  17  18
ENDBRANCH  16  17
ENDBRANCH  15  16
ENDBRANCH  14  15
ENDBRANCH  13  14
ENDBRANCH   2  13
TORSDOF 15
ENDMDL
MODEL 5
REMARK VINA RESULT:    -1.559      4.996      8.088
REMARK INTER + INTRA:          -4.472
REMARK INTER:                  -3.785
REMARK INTRA:                  -0.687
REMARK UNBOUND:                -1.546
REMARK SMILES CCCCCCCCC=CCCCCCCCC(=O)[O-]
REMARK SMILES IDX 10 1 9 2 11 3 12 4 13 5 14 6 15 7 16 8 17 9 18 10 19 11
REMARK SMILES IDX 20 12 8 13 7 14 6 15 5 16 4 17 3 18 2 19 1 20
REMARK H PARENT
REMARK Flexibility Score: inf
ROOT
ATOM      1  C   UNL     1      29.145  19.772  13.661  1.00  0.00    -0.031 C 
ATOM      2  C   UNL     1      28.204  19.454  12.751  1.00  0.00    -0.031 C 
ENDROOT
BRANCH   1   3
ATOM      3  C   UNL     1      29.915  18.768  14.481  1.00  0.00     0.027 C 
BRANCH   3   4
ATOM      4  C   UNL     1      31.010  19.464  15.301  1.00  0.00     0.004 C 
BRANCH   4   5
ATOM      5  C   UNL     1      32.416  19.223  14.731  1.00  0.00     0.000 C 
BRANCH   5   6
ATOM      6  C   UNL     1      33.424  20.293  15.179  1.00  0.00     0.000 C 
BRANCH   6   7
ATOM      7  C   UNL     1      34.605  20.377  14.201  1.00  0.00     0.000 C 
BRANCH   7   8
ATOM      8  C   UNL     1      35.751  21.252  14.734  1.00  0.00     0.006 C 
BRANCH   8   9
ATOM      9  C   UNL     1      35.868  22.589  13.990  1.00  0.00     0.053 C 
BRANCH   9  10
ATOM     10  C   UNL     1      35.746  23.735  14.944  1.00  0.00     0.041 C 
ATOM     11  O   UNL     1      35.530  23.521  16.167  1.00  0.00    -0.550 OA
ATOM     12  O   UNL     1      35.841  25.041  14.481  1.00  0.00    -0.550 OA
ENDBRANCH   9  10
ENDBRANCH   8   9
ENDBRANCH   7   8
ENDBRANCH   6   7
ENDBRANCH   5   6
ENDBRANCH   4   5
ENDBRANCH   3   4
ENDBRANCH   1   3
BRANCH   2  13
ATOM     13  C   UNL     1      27.715  18.051  12.474  1.00  0.00     0.027 C 
BRANCH  13  14
ATOM     14  C   UNL     1      28.557  17.343  11.400  1.00  0.00     0.004 C 
BRANCH  14  15
ATOM     15  C   UNL     1      28.125  15.895  11.110  1.00  0.00     0.000 C 
BRANCH  15  16
ATOM     16  C   UNL     1      28.833  14.867  12.010  1.00  0.00     0.000 C 
BRANCH  16  17
ATOM     17  C   UNL     1      28.700  15.216  13.506  1.00  0.00    -0.000 C 
BRANCH  17  18
ATOM     18  C   UNL     1      27.366  14.767  14.126  1.00  0.00    -0.000 C 
BRANCH  18  19
ATOM     19  C   UNL     1      26.438  15.944  14.458  1.00  0.00    -0.003 C 
ATOM     20  C   UNL     1      24.981  15.591  14.173  1.00  0.00     0.004 C 
ENDBRANCH  18  19
ENDBRANCH  17  18
ENDBRANCH  16  17
ENDBRANCH  15  16
ENDBRANCH  14  15
ENDBRANCH  13  14
ENDBRANCH   2  13
TORSDOF 15
ENDMDL
MODEL 6
REMARK VINA RESULT:    -1.362      4.597      7.624
REMARK INTER + INTRA:          -4.103
REMARK INTER:                  -2.610
REMARK INTRA:                  -1.493
REMARK UNBOUND:                -1.546
REMARK SMILES CCCCCCCCC=CCCCCCCCC(=O)[O-]
REMARK SMILES IDX 10 1 9 2 11 3 12 4 13 5 14 6 15 7 16 8 17 9 18 10 19 11
REMARK SMILES IDX 20 12 8 13 7 14 6 15 5 16 4 17 3 18 2 19 1 20
REMARK H PARENT
REMARK Flexibility Score: inf
ROOT
ATOM      1  C   UNL     1      27.879  19.277  12.871  1.00  0.00    -0.031 C 
ATOM      2  C   UNL     1      27.637  18.270  12.010  1.00  0.00    -0.031 C 
ENDROOT
BRANCH   1   3
ATOM      3  C   UNL     1      29.253  19.714  13.310  1.00  0.00     0.027 C 
BRANCH   3   4
ATOM      4  C   UNL     1      29.779  18.805  14.430  1.00  0.00     0.004 C 
BRANCH   4   5
ATOM      5  C   UNL     1      30.892  19.471  15.254  1.00  0.00     0.000 C 
BRANCH   5   6
ATOM      6  C   UNL     1      32.293  19.185  14.690  1.00  0.00     0.000 C 
BRANCH   6   7
ATOM      7  C   UNL     1      33.309  20.219  15.196  1.00  0.00     0.000 C 
BRANCH   7   8
ATOM      8  C   UNL     1      34.593  20.246  14.351  1.00  0.00     0.006 C 
BRANCH   8   9
ATOM      9  C   UNL     1      35.704  21.089  14.992  1.00  0.00     0.053 C 
BRANCH   9  10
ATOM     10  C   UNL     1      35.727  22.464  14.403  1.00  0.00     0.041 C 
ATOM     11  O   UNL     1      35.912  22.621  13.167  1.00  0.00    -0.550 OA
ATOM     12  O   UNL     1      35.573  23.576  15.222  1.00  0.00    -0.550 OA
ENDBRANCH   9  10
ENDBRANCH   8   9
ENDBRANCH   7   8
ENDBRANCH   6   7
ENDBRANCH   5   6
ENDBRANCH   4   5
ENDBRANCH   3   4
ENDBRANCH   1   3
BRANCH   2  13
ATOM     13  C   UNL     1      28.697  17.371  11.418  1.00  0.00     0.027 C 
BRANCH  13  14
ATOM     14  C   UNL     1      28.150  15.976  11.073  1.00  0.00     0.004 C 
BRANCH  14  15
ATOM     15  C   UNL     1      28.854  14.821  11.807  1.00  0.00     0.000 C 
BRANCH  15  16
ATOM     16  C   UNL     1      28.946  15.044  13.327  1.00  0.00     0.000 C 
BRANCH  16  17
ATOM     17  C   UNL     1      27.575  14.901  14.018  1.00  0.00    -0.000 C 
BRANCH  17  18
ATOM     18  C   UNL     1      27.045  16.217  14.613  1.00  0.00    -0.000 C 
BRANCH  18  19
ATOM     19  C   UNL     1      25.548  16.429  14.352  1.00  0.00    -0.003 C 
ATOM     20  C   UNL     1      24.872  15.124  13.942  1.00  0.00     0.004 C 
ENDBRANCH  18  19
ENDBRANCH  17  18
ENDBRANCH  16  17
ENDBRANCH  15  16
ENDBRANCH  14  15
ENDBRANCH  13  14
ENDBRANCH   2  13
TORSDOF 15
ENDMDL
MODEL 7
REMARK VINA RESULT:    -1.355      3.838      5.585
REMARK INTER + INTRA:          -4.090
REMARK INTER:                  -3.091
REMARK INTRA:                  -0.998
REMARK UNBOUND:                -1.546
REMARK SMILES CCCCCCCCC=CCCCCCCCC(=O)[O-]
REMARK SMILES IDX 10 1 9 2 11 3 12 4 13 5 14 6 15 7 16 8 17 9 18 10 19 11
REMARK SMILES IDX 20 12 8 13 7 14 6 15 5 16 4 17 3 18 2 19 1 20
REMARK H PARENT
REMARK Flexibility Score: inf
ROOT
ATOM      1  C   UNL     1      30.308  19.414  15.333  1.00  0.00    -0.031 C 
ATOM      2  C   UNL     1      31.595  19.560  15.703  1.00  0.00    -0.031 C 
ENDROOT
BRANCH   1   3
ATOM      3  C   UNL     1      29.855  19.040  13.945  1.00  0.00     0.027 C 
BRANCH   3   4
ATOM      4  C   UNL     1      28.631  19.870  13.533  1.00  0.00     0.004 C 
BRANCH   4   5
ATOM      5  C   UNL     1      27.869  19.248  12.352  1.00  0.00     0.000 C 
BRANCH   5   6
ATOM      6  C   UNL     1      27.953  17.713  12.341  1.00  0.00     0.000 C 
BRANCH   6   7
ATOM      7  C   UNL     1      26.882  17.099  13.254  1.00  0.00     0.000 C 
BRANCH   7   8
ATOM      8  C   UNL     1      27.427  15.940  14.105  1.00  0.00     0.006 C 
BRANCH   8   9
ATOM      9  C   UNL     1      28.881  15.588  13.761  1.00  0.00     0.053 C 
BRANCH   9  10
ATOM     10  C   UNL     1      28.931  14.470  12.769  1.00  0.00     0.041 C 
ATOM     11  O   UNL     1      28.991  13.275  13.163  1.00  0.00    -0.550 OA
ATOM     12  O   UNL     1      28.941  14.747  11.407  1.00  0.00    -0.550 OA
ENDBRANCH   9  10
ENDBRANCH   8   9
ENDBRANCH   7   8
ENDBRANCH   6   7
ENDBRANCH   5   6
ENDBRANCH   4   5
ENDBRANCH   3   4
ENDBRANCH   1   3
BRANCH   2  13
ATOM     13  C   UNL     1      32.776  19.456  14.766  1.00  0.00     0.027 C 
BRANCH  13  14
ATOM     14  C   UNL     1      33.950  20.346  15.208  1.00  0.00     0.004 C 
BRANCH  14  15
ATOM     15  C   UNL     1      35.022  20.563  14.125  1.00  0.00     0.000 C 
BRANCH  15  16
ATOM     16  C   UNL     1      36.105  21.571  14.548  1.00  0.00     0.000 C 
BRANCH  16  17
ATOM     17  C   UNL     1      35.994  22.901  13.776  1.00  0.00    -0.000 C 
BRANCH  17  18
ATOM     18  C   UNL     1      35.908  24.136  14.688  1.00  0.00    -0.000 C 
BRANCH  18  19
ATOM     19  C   UNL     1      34.815  24.012  15.758  1.00  0.00    -0.003 C 
ATOM     20  C   UNL     1      35.422  23.909  17.154  1.00  0.00     0.004 C 
ENDBRANCH  18  19
ENDBRANCH  17  18
ENDBRANCH  16  17
ENDBRANCH  15  16
ENDBRANCH  14  15
ENDBRANCH  13  14
ENDBRANCH   2  13
TORSDOF 15
ENDMDL
MODEL 8
REMARK VINA RESULT:    -1.311      5.204      8.708
REMARK INTER + INTRA:          -4.007
REMARK INTER:                  -2.901
REMARK INTRA:                  -1.106
REMARK UNBOUND:                -1.546
REMARK SMILES CCCCCCCCC=CCCCCCCCC(=O)[O-]
REMARK SMILES IDX 10 1 9 2 11 3 12 4 13 5 14 6 15 7 16 8 17 9 18 10 19 11
REMARK SMILES IDX 20 12 8 13 7 14 6 15 5 16 4 17 3 18 2 19 1 20
REMARK H PARENT
REMARK Flexibility Score: inf
ROOT
ATOM      1  C   UNL     1      31.514  19.646  15.666  1.00  0.00    -0.031 C 
ATOM      2  C   UNL     1      30.250  19.282  15.374  1.00  0.00    -0.031 C 
ENDROOT
BRANCH   1   3
ATOM      3  C   UNL     1      32.689  19.474  14.738  1.00  0.00     0.027 C 
BRANCH   3   4
ATOM      4  C   UNL     1      33.872  20.339  15.196  1.00  0.00     0.004 C 
BRANCH   4   5
ATOM      5  C   UNL     1      34.977  20.435  14.133  1.00  0.00     0.000 C 
BRANCH   5   6
ATOM      6  C   UNL     1      35.789  21.736  14.244  1.00  0.00     0.000 C 
BRANCH   6   7
ATOM      7  C   UNL     1      35.078  22.749  15.153  1.00  0.00     0.000 C 
BRANCH   7   8
ATOM      8  C   UNL     1      35.979  23.937  15.528  1.00  0.00     0.006 C 
BRANCH   8   9
ATOM      9  C   UNL     1      35.359  25.289  15.151  1.00  0.00     0.053 C 
BRANCH   9  10
ATOM     10  C   UNL     1      34.028  25.461  15.811  1.00  0.00     0.041 C 
ATOM     11  O   UNL     1      33.915  25.319  17.057  1.00  0.00    -0.550 OA
ATOM     12  O   UNL     1      32.903  25.749  15.046  1.00  0.00    -0.550 OA
ENDBRANCH   9  10
ENDBRANCH   8   9
ENDBRANCH   7   8
ENDBRANCH   6   7
ENDBRANCH   5   6
ENDBRANCH   4   5
ENDBRANCH   3   4
ENDBRANCH   1   3
BRANCH   2  13
ATOM     13  C   UNL     1      29.832  18.568  14.110  1.00  0.00     0.027 C 
BRANCH  13  14
ATOM     14  C   UNL     1      28.776  19.357  13.318  1.00  0.00     0.004 C 
BRANCH  14  15
ATOM     15  C   UNL     1      27.839  18.482  12.467  1.00  0.00     0.000 C 
BRANCH  15  16
ATOM     16  C   UNL     1      28.592  17.417  11.650  1.00  0.00     0.000 C 
BRANCH  16  17
ATOM     17  C   UNL     1      27.954  16.020  11.790  1.00  0.00    -0.000 C 
BRANCH  17  18
ATOM     18  C   UNL     1      28.650  15.128  12.833  1.00  0.00    -0.000 C 
BRANCH  18  19
ATOM     19  C   UNL     1      27.902  15.083  14.172  1.00  0.00    -0.003 C 
ATOM     20  C   UNL     1      26.482  15.622  14.026  1.00  0.00     0.004 C 
ENDBRANCH  18  19
ENDBRANCH  17  18
ENDBRANCH  16  17
ENDBRANCH  15  16
ENDBRANCH  14  15
ENDBRANCH  13  14
ENDBRANCH   2  13
TORSDOF 15
ENDMDL
MODEL 9
REMARK VINA RESULT:    -1.199      2.576      3.494
REMARK INTER + INTRA:          -3.797
REMARK INTER:                  -3.211
REMARK INTRA:                  -0.585
REMARK UNBOUND:                -1.546
REMARK SMILES CCCCCCCCC=CCCCCCCCC(=O)[O-]
REMARK SMILES IDX 10 1 9 2 11 3 12 4 13 5 14 6 15 7 16 8 17 9 18 10 19 11
REMARK SMILES IDX 20 12 8 13 7 14 6 15 5 16 4 17 3 18 2 19 1 20
REMARK H PARENT
REMARK Flexibility Score: inf
ROOT
ATOM      1  C   UNL     1      27.946  19.416  12.361  1.00  0.00    -0.031 C 
ATOM      2  C   UNL     1      28.834  19.735  13.322  1.00  0.00    -0.031 C 
ENDROOT
BRANCH   1   3
ATOM      3  C   UNL     1      27.492  18.013  12.048  1.00  0.00     0.027 C 
BRANCH   3   4
ATOM      4  C   UNL     1      28.610  17.222  11.356  1.00  0.00     0.004 C 
BRANCH   4   5
ATOM      5  C   UNL     1      28.196  15.779  11.030  1.00  0.00     0.000 C 
BRANCH   5   6
ATOM      6  C   UNL     1      28.877  14.750  11.948  1.00  0.00     0.000 C 
BRANCH   6   7
ATOM      7  C   UNL     1      28.803  15.193  13.417  1.00  0.00     0.000 C 
BRANCH   7   8
ATOM      8  C   UNL     1      27.408  14.982  14.026  1.00  0.00     0.006 C 
BRANCH   8   9
ATOM      9  C   UNL     1      26.733  16.301  14.427  1.00  0.00     0.053 C 
BRANCH   9  10
ATOM     10  C   UNL     1      25.253  16.118  14.553  1.00  0.00     0.041 C 
ATOM     11  O   UNL     1      24.628  15.415  13.715  1.00  0.00    -0.550 OA
ATOM     12  O   UNL     1      24.558  16.746  15.579  1.00  0.00    -0.550 OA
ENDBRANCH   9  10
ENDBRANCH   8   9
ENDBRANCH   7   8
ENDBRANCH   6   7
ENDBRANCH   5   6
ENDBRANCH   4   5
ENDBRANCH   3   4
ENDBRANCH   1   3
BRANCH   2  13
ATOM     13  C   UNL     1      29.575  18.732  14.175  1.00  0.00     0.027 C 
BRANCH  13  14
ATOM     14  C   UNL     1      30.603  19.403  15.101  1.00  0.00     0.004 C 
BRANCH  14  15
ATOM     15  C   UNL     1      32.065  19.027  14.802  1.00  0.00     0.000 C 
BRANCH  15  16
ATOM     16  C   UNL     1      33.060  20.132  15.197  1.00  0.00     0.000 C 
BRANCH  16  17
ATOM     17  C   UNL     1      34.313  20.133  14.297  1.00  0.00    -0.000 C 
BRANCH  17  18
ATOM     18  C   UNL     1      35.458  21.005  14.840  1.00  0.00    -0.000 C 
BRANCH  18  19
ATOM     19  C   UNL     1      35.767  22.211  13.942  1.00  0.00    -0.003 C 
ATOM     20  C   UNL     1      35.798  23.504  14.751  1.00  0.00     0.004 C 
ENDBRANCH  18  19
ENDBRANCH  17  18
ENDBRANCH  16  17
ENDBRANCH  15  16
ENDBRANCH  14  15
ENDBRANCH  13  14
ENDBRANCH   2  13
TORSDOF 15
ENDMDL
