MODEL 1
REMARK VINA RESULT:    -4.469      0.000      0.000
REMARK INTER + INTRA:          -9.811
REMARK INTER:                  -8.127
REMARK INTRA:                  -1.685
REMARK UNBOUND:                -1.685
REMARK SMILES CCCCCCCCCCCCCCCC(=O)[O-]
REMARK SMILES IDX 9 1 10 2 11 3 12 4 13 5 14 6 15 7 16 8 17 9 18 10 8 11 7 12
REMARK SMILES IDX 6 13 5 14 4 15 3 16 2 17 1 18
REMARK H PARENT
REMARK Flexibility Score: inf
ROOT
ATOM      1  C   UNL     1      24.899   7.176  15.782  1.00  0.00     0.000 C 
ENDROOT
BRANCH   1   2
ATOM      2  C   UNL     1      23.987   7.306  14.552  1.00  0.00     0.000 C 
BRANCH   2   3
ATOM      3  C   UNL     1      23.212   6.003  14.261  1.00  0.00     0.000 C 
BRANCH   3   4
ATOM      4  C   UNL     1      23.379   4.930  15.351  1.00  0.00     0.000 C 
BRANCH   4   5
ATOM      5  C   UNL     1      24.132   3.687  14.859  1.00  0.00     0.000 C 
BRANCH   5   6
ATOM      6  C   UNL     1      24.731   3.920  13.468  1.00  0.00     0.006 C 
BRANCH   6   7
ATOM      7  C   UNL     1      26.191   3.461  13.414  1.00  0.00     0.053 C 
BRANCH   7   8
ATOM      8  C   UNL     1      26.482   2.787  12.110  1.00  0.00     0.041 C 
ATOM      9  O   UNL     1      27.243   3.334  11.270  1.00  0.00    -0.550 OA
ATOM     10  O   UNL     1      25.868   1.580  11.800  1.00  0.00    -0.550 OA
ENDBRANCH   7   8
ENDBRANCH   6   7
ENDBRANCH   5   6
ENDBRANCH   4   5
ENDBRANCH   3   4
ENDBRANCH   2   3
ENDBRANCH   1   2
BRANCH   1  11
ATOM     11  C   UNL     1      26.369   7.051  15.368  1.00  0.00     0.000 C 
BRANCH  11  12
ATOM     12  C   UNL     1      26.588   7.575  13.944  1.00  0.00    -0.000 C 
BRANCH  12  13
ATOM     13  C   UNL     1      27.743   6.839  13.256  1.00  0.00    -0.000 C 
BRANCH  13  14
ATOM     14  C   UNL     1      28.326   7.676  12.112  1.00  0.00    -0.000 C 
BRANCH  14  15
ATOM     15  C   UNL     1      29.325   8.715  12.643  1.00  0.00    -0.000 C 
BRANCH  15  16
ATOM     16  C   UNL     1      29.282  10.035  11.857  1.00  0.00    -0.000 C 
BRANCH  16  17
ATOM     17  C   UNL     1      28.511  11.139  12.596  1.00  0.00    -0.003 C 
ATOM     18  C   UNL     1      27.022  11.082  12.269  1.00  0.00     0.004 C 
ENDBRANCH  16  17
ENDBRANCH  15  16
ENDBRANCH  14  15
ENDBRANCH  13  14
ENDBRANCH  12  13
ENDBRANCH  11  12
ENDBRANCH   1  11
TORSDOF 14
ENDMDL
MODEL 2
REMARK VINA RESULT:    -4.406      5.344      7.764
REMARK INTER + INTRA:          -9.697
REMARK INTER:                  -8.292
REMARK INTRA:                  -1.405
REMARK UNBOUND:                -1.685
REMARK SMILES CCCCCCCCCCCCCCCC(=O)[O-]
REMARK SMILES IDX 9 1 10 2 11 3 12 4 13 5 14 6 15 7 16 8 17 9 18 10 8 11 7 12
REMARK SMILES IDX 6 13 5 14 4 15 3 16 2 17 1 18
REMARK H PARENT
REMARK Flexibility Score: inf
ROOT
ATOM      1  C   UNL     1      23.238   9.019  18.150  1.00  0.00     0.000 C 
ENDROOT
BRANCH   1   2
ATOM      2  C   UNL     1      21.731   8.995  17.851  1.00  0.00     0.000 C 
BRANCH   2   3
ATOM      3  C   UNL     1      21.123  10.414  17.809  1.00  0.00     0.000 C 
BRANCH   3   4
ATOM      4  C   UNL     1      20.680  10.853  16.403  1.00  0.00     0.000 C 
BRANCH   4   5
ATOM      5  C   UNL     1      21.859  11.202  15.485  1.00  0.00     0.000 C 
BRANCH   5   6
ATOM      6  C   UNL     1      21.589  10.752  14.045  1.00  0.00     0.006 C 
BRANCH   6   7
ATOM      7  C   UNL     1      20.221  11.242  13.563  1.00  0.00     0.053 C 
BRANCH   7   8
ATOM      8  C   UNL     1      20.380  12.254  12.473  1.00  0.00     0.041 C 
ATOM      9  O   UNL     1      21.075  13.286  12.663  1.00  0.00    -0.550 OA
ATOM     10  O   UNL     1      19.717  12.083  11.264  1.00  0.00    -0.550 OA
ENDBRANCH   7   8
ENDBRANCH   6   7
ENDBRANCH   5   6
ENDBRANCH   4   5
ENDBRANCH   3   4
ENDBRANCH   2   3
ENDBRANCH   1   2
BRANCH   1  11
ATOM     11  C   UNL     1      24.039   8.407  16.995  1.00  0.00     0.000 C 
BRANCH  11  12
ATOM     12  C   UNL     1      23.249   7.288  16.307  1.00  0.00    -0.000 C 
BRANCH  12  13
ATOM     13  C   UNL     1      23.449   7.325  14.788  1.00  0.00    -0.000 C 
BRANCH  13  14
ATOM     14  C   UNL     1      23.177   5.952  14.162  1.00  0.00    -0.000 C 
BRANCH  14  15
ATOM     15  C   UNL     1      23.223   4.843  15.225  1.00  0.00    -0.000 C 
BRANCH  15  16
ATOM     16  C   UNL     1      24.115   3.663  14.812  1.00  0.00    -0.000 C 
BRANCH  16  17
ATOM     17  C   UNL     1      25.281   4.090  13.908  1.00  0.00    -0.003 C 
ATOM     18  C   UNL     1      25.528   3.063  12.807  1.00  0.00     0.004 C 
ENDBRANCH  16  17
ENDBRANCH  15  16
ENDBRANCH  14  15
ENDBRANCH  13  14
ENDBRANCH  12  13
ENDBRANCH  11  12
ENDBRANCH   1  11
TORSDOF 14
ENDMDL
MODEL 3
REMARK VINA RESULT:    -4.377      2.527      4.749
REMARK INTER + INTRA:          -9.643
REMARK INTER:                  -8.001
REMARK INTRA:                  -1.643
REMARK UNBOUND:                -1.685
REMARK SMILES CCCCCCCCCCCCCCCC(=O)[O-]
REMARK SMILES IDX 9 1 10 2 11 3 12 4 13 5 14 6 15 7 16 8 17 9 18 10 8 11 7 12
REMARK SMILES IDX 6 13 5 14 4 15 3 16 2 17 1 18
REMARK H PARENT
REMARK Flexibility Score: inf
ROOT
ATOM      1  C   UNL     1      24.927   7.202  13.989  1.00  0.00     0.000 C 
ENDROOT
BRANCH   1   2
ATOM      2  C   UNL     1      23.409   7.027  14.151  1.00  0.00     0.000 C 
BRANCH   2   3
ATOM      3  C   UNL     1      23.014   5.554  14.389  1.00  0.00     0.000 C 
BRANCH   3   4
ATOM      4  C   UNL     1      23.997   4.791  15.293  1.00  0.00     0.000 C 
BRANCH   4   5
ATOM      5  C   UNL     1      24.381   3.414  14.734  1.00  0.00     0.000 C 
BRANCH   5   6
ATOM      6  C   UNL     1      24.976   3.536  13.327  1.00  0.00     0.006 C 
BRANCH   6   7
ATOM      7  C   UNL     1      26.484   3.796  13.388  1.00  0.00     0.053 C 
BRANCH   7   8
ATOM      8  C   UNL     1      27.177   3.134  12.239  1.00  0.00     0.041 C 
ATOM      9  O   UNL     1      28.363   2.730  12.363  1.00  0.00    -0.550 OA
ATOM     10  O   UNL     1      26.532   3.013  11.015  1.00  0.00    -0.550 OA
ENDBRANCH   7   8
ENDBRANCH   6   7
ENDBRANCH   5   6
ENDBRANCH   4   5
ENDBRANCH   3   4
ENDBRANCH   2   3
ENDBRANCH   1   2
BRANCH   1  11
ATOM     11  C   UNL     1      25.365   8.616  14.389  1.00  0.00     0.000 C 
BRANCH  11  12
ATOM     12  C   UNL     1      24.502   9.158  15.535  1.00  0.00    -0.000 C 
BRANCH  12  13
ATOM     13  C   UNL     1      25.176   8.922  16.891  1.00  0.00    -0.000 C 
BRANCH  13  14
ATOM     14  C   UNL     1      24.145   8.545  17.961  1.00  0.00    -0.000 C 
BRANCH  14  15
ATOM     15  C   UNL     1      22.757   8.330  17.337  1.00  0.00    -0.000 C 
BRANCH  15  16
ATOM     16  C   UNL     1      21.614   8.730  18.282  1.00  0.00    -0.000 C 
BRANCH  16  17
ATOM     17  C   UNL     1      21.148  10.178  18.068  1.00  0.00    -0.003 C 
ATOM     18  C   UNL     1      21.304  10.595  16.609  1.00  0.00     0.004 C 
ENDBRANCH  16  17
ENDBRANCH  15  16
ENDBRANCH  14  15
ENDBRANCH  13  14
ENDBRANCH  12  13
ENDBRANCH  11  12
ENDBRANCH   1  11
TORSDOF 14
ENDMDL
MODEL 4
REMARK VINA RESULT:    -4.344      1.168      2.105
REMARK INTER + INTRA:          -9.584
REMARK INTER:                  -8.229
REMARK INTRA:                  -1.355
REMARK UNBOUND:                -1.685
REMARK SMILES CCCCCCCCCCCCCCCC(=O)[O-]
REMARK SMILES IDX 9 1 10 2 11 3 12 4 13 5 14 6 15 7 16 8 17 9 18 10 8 11 7 12
REMARK SMILES IDX 6 13 5 14 4 15 3 16 2 17 1 18
REMARK H PARENT
REMARK Flexibility Score: inf
ROOT
ATOM      1  C   UNL     1      23.376   7.466  15.880  1.00  0.00     0.000 C 
ENDROOT
BRANCH   1   2
ATOM      2  C   UNL     1      23.279   7.236  14.364  1.00  0.00     0.000 C 
BRANCH   2   3
ATOM      3  C   UNL     1      22.976   5.762  14.017  1.00  0.00     0.000 C 
BRANCH   3   4
ATOM      4  C   UNL     1      23.210   4.793  15.188  1.00  0.00     0.000 C 
BRANCH   4   5
ATOM      5  C   UNL     1      24.156   3.638  14.831  1.00  0.00     0.000 C 
BRANCH   5   6
ATOM      6  C   UNL     1      25.108   4.036  13.698  1.00  0.00     0.006 C 
BRANCH   6   7
ATOM      7  C   UNL     1      25.481   2.822  12.841  1.00  0.00     0.053 C 
BRANCH   7   8
ATOM      8  C   UNL     1      26.957   2.582  12.885  1.00  0.00     0.041 C 
ATOM      9  O   UNL     1      27.460   1.904  13.819  1.00  0.00    -0.550 OA
ATOM     10  O   UNL     1      27.783   3.154  11.926  1.00  0.00    -0.550 OA
ENDBRANCH   7   8
ENDBRANCH   6   7
ENDBRANCH   5   6
ENDBRANCH   4   5
ENDBRANCH   3   4
ENDBRANCH   2   3
ENDBRANCH   1   2
BRANCH   1  11
ATOM     11  C   UNL     1      24.772   7.960  16.275  1.00  0.00     0.000 C 
BRANCH  11  12
ATOM     12  C   UNL     1      25.775   7.750  15.134  1.00  0.00    -0.000 C 
BRANCH  12  13
ATOM     13  C   UNL     1      26.211   9.090  14.531  1.00  0.00    -0.000 C 
BRANCH  13  14
ATOM     14  C   UNL     1      26.167   9.044  12.999  1.00  0.00    -0.000 C 
BRANCH  14  15
ATOM     15  C   UNL     1      27.199  10.004  12.389  1.00  0.00    -0.000 C 
BRANCH  15  16
ATOM     16  C   UNL     1      28.324   9.270  11.644  1.00  0.00    -0.000 C 
BRANCH  16  17
ATOM     17  C   UNL     1      28.633   7.892  12.249  1.00  0.00    -0.003 C 
ATOM     18  C   UNL     1      29.803   7.971  13.226  1.00  0.00     0.004 C 
ENDBRANCH  16  17
ENDBRANCH  15  16
ENDBRANCH  14  15
ENDBRANCH  13  14
ENDBRANCH  12  13
ENDBRANCH  11  12
ENDBRANCH   1  11
TORSDOF 14
ENDMDL
MODEL 5
REMARK VINA RESULT:    -4.333      3.097      6.768
REMARK INTER + INTRA:          -9.564
REMARK INTER:                  -7.586
REMARK INTRA:                  -1.978
REMARK UNBOUND:                -1.685
REMARK SMILES CCCCCCCCCCCCCCCC(=O)[O-]
REMARK SMILES IDX 9 1 10 2 11 3 12 4 13 5 14 6 15 7 16 8 17 9 18 10 8 11 7 12
REMARK SMILES IDX 6 13 5 14 4 15 3 16 2 17 1 18
REMARK H PARENT
REMARK Flexibility Score: inf
ROOT
ATOM      1  C   UNL     1      26.903   6.790  15.097  1.00  0.00     0.000 C 
ENDROOT
BRANCH   1   2
ATOM      2  C   UNL     1      27.996   6.306  14.131  1.00  0.00     0.000 C 
BRANCH   2   3
ATOM      3  C   UNL     1      27.966   7.067  12.789  1.00  0.00     0.000 C 
BRANCH   3   4
ATOM      4  C   UNL     1      29.056   8.146  12.668  1.00  0.00     0.000 C 
BRANCH   4   5
ATOM      5  C   UNL     1      28.675   9.278  11.703  1.00  0.00     0.000 C 
BRANCH   5   6
ATOM      6  C   UNL     1      27.182   9.607  11.802  1.00  0.00     0.006 C 
BRANCH   6   7
ATOM      7  C   UNL     1      26.965  11.019  12.355  1.00  0.00     0.053 C 
BRANCH   7   8
ATOM      8  C   UNL     1      26.509  10.960  13.778  1.00  0.00     0.041 C 
ATOM      9  O   UNL     1      27.343  10.774  14.704  1.00  0.00    -0.550 OA
ATOM     10  O   UNL     1      25.156  11.056  14.079  1.00  0.00    -0.550 OA
ENDBRANCH   7   8
ENDBRANCH   6   7
ENDBRANCH   5   6
ENDBRANCH   4   5
ENDBRANCH   3   4
ENDBRANCH   2   3
ENDBRANCH   1   2
BRANCH   1  11
ATOM     11  C   UNL     1      25.757   7.468  14.337  1.00  0.00     0.000 C 
BRANCH  11  12
ATOM     12  C   UNL     1      24.453   7.413  15.141  1.00  0.00    -0.000 C 
BRANCH  12  13
ATOM     13  C   UNL     1      23.246   7.200  14.221  1.00  0.00    -0.000 C 
BRANCH  13  14
ATOM     14  C   UNL     1      23.054   5.714  13.898  1.00  0.00    -0.000 C 
BRANCH  14  15
ATOM     15  C   UNL     1      23.382   4.838  15.117  1.00  0.00    -0.000 C 
BRANCH  15  16
ATOM     16  C   UNL     1      24.293   3.652  14.767  1.00  0.00    -0.000 C 
BRANCH  16  17
ATOM     17  C   UNL     1      25.100   3.885  13.481  1.00  0.00    -0.003 C 
ATOM     18  C   UNL     1      25.850   2.623  13.067  1.00  0.00     0.004 C 
ENDBRANCH  16  17
ENDBRANCH  15  16
ENDBRANCH  14  15
ENDBRANCH  13  14
ENDBRANCH  12  13
ENDBRANCH  11  12
ENDBRANCH   1  11
TORSDOF 14
ENDMDL
MODEL 6
REMARK VINA RESULT:    -4.325     10.362     11.935
REMARK INTER + INTRA:          -9.549
REMARK INTER:                  -8.300
REMARK INTRA:                  -1.248
REMARK UNBOUND:                -1.685
REMARK SMILES CCCCCCCCCCCCCCCC(=O)[O-]
REMARK SMILES IDX 9 1 10 2 11 3 12 4 13 5 14 6 15 7 16 8 17 9 18 10 8 11 7 12
REMARK SMILES IDX 6 13 5 14 4 15 3 16 2 17 1 18
REMARK H PARENT
REMARK Flexibility Score: inf
ROOT
ATOM      1  C   UNL     1      17.850   6.659   3.278  1.00  0.00     0.000 C 
ENDROOT
BRANCH   1   2
ATOM      2  C   UNL     1      17.104   7.137   4.533  1.00  0.00     0.000 C 
BRANCH   2   3
ATOM      3  C   UNL     1      17.995   8.010   5.443  1.00  0.00     0.000 C 
BRANCH   3   4
ATOM      4  C   UNL     1      17.885   7.656   6.936  1.00  0.00     0.000 C 
BRANCH   4   5
ATOM      5  C   UNL     1      16.853   8.514   7.681  1.00  0.00     0.000 C 
BRANCH   5   6
ATOM      6  C   UNL     1      17.524   9.374   8.757  1.00  0.00     0.006 C 
BRANCH   6   7
ATOM      7  C   UNL     1      16.573   9.631   9.929  1.00  0.00     0.053 C 
BRANCH   7   8
ATOM      8  C   UNL     1      16.310  11.096  10.080  1.00  0.00     0.041 C 
ATOM      9  O   UNL     1      17.234  11.871  10.441  1.00  0.00    -0.550 OA
ATOM     10  O   UNL     1      15.031  11.597   9.876  1.00  0.00    -0.550 OA
ENDBRANCH   7   8
ENDBRANCH   6   7
ENDBRANCH   5   6
ENDBRANCH   4   5
ENDBRANCH   3   4
ENDBRANCH   2   3
ENDBRANCH   1   2
BRANCH   1  11
ATOM     11  C   UNL     1      18.942   7.656   2.871  1.00  0.00     0.000 C 
BRANCH  11  12
ATOM     12  C   UNL     1      20.259   6.936   2.561  1.00  0.00    -0.000 C 
BRANCH  12  13
ATOM     13  C   UNL     1      20.378   5.634   3.362  1.00  0.00    -0.000 C 
BRANCH  13  14
ATOM     14  C   UNL     1      21.410   5.772   4.488  1.00  0.00    -0.000 C 
BRANCH  14  15
ATOM     15  C   UNL     1      20.777   5.471   5.855  1.00  0.00    -0.000 C 
BRANCH  15  16
ATOM     16  C   UNL     1      21.791   5.545   7.006  1.00  0.00    -0.000 C 
BRANCH  16  17
ATOM     17  C   UNL     1      23.198   5.938   6.532  1.00  0.00    -0.003 C 
ATOM     18  C   UNL     1      24.165   4.763   6.650  1.00  0.00     0.004 C 
ENDBRANCH  16  17
ENDBRANCH  15  16
ENDBRANCH  14  15
ENDBRANCH  13  14
ENDBRANCH  12  13
ENDBRANCH  11  12
ENDBRANCH   1  11
TORSDOF 14
ENDMDL
MODEL 7
REMARK VINA RESULT:    -4.296      9.283     10.894
REMARK INTER + INTRA:          -9.497
REMARK INTER:                  -8.368
REMARK INTRA:                  -1.129
REMARK UNBOUND:                -1.685
REMARK SMILES CCCCCCCCCCCCCCCC(=O)[O-]
REMARK SMILES IDX 9 1 10 2 11 3 12 4 13 5 14 6 15 7 16 8 17 9 18 10 8 11 7 12
REMARK SMILES IDX 6 13 5 14 4 15 3 16 2 17 1 18
REMARK H PARENT
REMARK Flexibility Score: inf
ROOT
ATOM      1  C   UNL     1      20.675   5.837   3.589  1.00  0.00     0.000 C 
ENDROOT
BRANCH   1   2
ATOM      2  C   UNL     1      20.099   7.178   3.111  1.00  0.00     0.000 C 
BRANCH   2   3
ATOM      3  C   UNL     1      18.555   7.174   3.088  1.00  0.00     0.000 C 
BRANCH   3   4
ATOM      4  C   UNL     1      17.919   7.918   4.274  1.00  0.00     0.000 C 
BRANCH   4   5
ATOM      5  C   UNL     1      16.832   7.099   4.983  1.00  0.00     0.000 C 
BRANCH   5   6
ATOM      6  C   UNL     1      17.133   6.963   6.480  1.00  0.00     0.006 C 
BRANCH   6   7
ATOM      7  C   UNL     1      18.227   7.943   6.913  1.00  0.00     0.053 C 
BRANCH   7   8
ATOM      8  C   UNL     1      17.813   8.680   8.147  1.00  0.00     0.041 C 
ATOM      9  O   UNL     1      16.626   8.605   8.561  1.00  0.00    -0.550 OA
ATOM     10  O   UNL     1      18.723   9.493   8.809  1.00  0.00    -0.550 OA
ENDBRANCH   7   8
ENDBRANCH   6   7
ENDBRANCH   5   6
ENDBRANCH   4   5
ENDBRANCH   3   4
ENDBRANCH   2   3
ENDBRANCH   1   2
BRANCH   1  11
ATOM     11  C   UNL     1      20.744   5.780   5.119  1.00  0.00     0.000 C 
BRANCH  11  12
ATOM     12  C   UNL     1      21.620   4.612   5.589  1.00  0.00    -0.000 C 
BRANCH  12  13
ATOM     13  C   UNL     1      22.720   5.095   6.539  1.00  0.00    -0.000 C 
BRANCH  13  14
ATOM     14  C   UNL     1      23.880   5.729   5.762  1.00  0.00    -0.000 C 
BRANCH  14  15
ATOM     15  C   UNL     1      25.166   4.903   5.922  1.00  0.00    -0.000 C 
BRANCH  15  16
ATOM     16  C   UNL     1      24.973   3.674   6.822  1.00  0.00    -0.000 C 
BRANCH  16  17
ATOM     17  C   UNL     1      26.303   3.024   7.231  1.00  0.00    -0.003 C 
ATOM     18  C   UNL     1      26.650   3.347   8.681  1.00  0.00     0.004 C 
ENDBRANCH  16  17
ENDBRANCH  15  16
ENDBRANCH  14  15
ENDBRANCH  13  14
ENDBRANCH  12  13
ENDBRANCH  11  12
ENDBRANCH   1  11
TORSDOF 14
ENDMDL
MODEL 8
REMARK VINA RESULT:    -4.243      3.541      5.214
REMARK INTER + INTRA:          -9.400
REMARK INTER:                  -8.161
REMARK INTRA:                  -1.239
REMARK UNBOUND:                -1.685
REMARK SMILES CCCCCCCCCCCCCCCC(=O)[O-]
REMARK SMILES IDX 9 1 10 2 11 3 12 4 13 5 14 6 15 7 16 8 17 9 18 10 8 11 7 12
REMARK SMILES IDX 6 13 5 14 4 15 3 16 2 17 1 18
REMARK H PARENT
REMARK Flexibility Score: inf
ROOT
ATOM      1  C   UNL     1      24.147   8.569  16.210  1.00  0.00     0.000 C 
ENDROOT
BRANCH   1   2
ATOM      2  C   UNL     1      24.438   7.507  15.138  1.00  0.00     0.000 C 
BRANCH   2   3
ATOM      3  C   UNL     1      23.229   7.273  14.207  1.00  0.00     0.000 C 
BRANCH   3   4
ATOM      4  C   UNL     1      22.937   5.787  13.939  1.00  0.00     0.000 C 
BRANCH   4   5
ATOM      5  C   UNL     1      23.355   4.874  15.100  1.00  0.00     0.000 C 
BRANCH   5   6
ATOM      6  C   UNL     1      24.229   3.717  14.605  1.00  0.00     0.006 C 
BRANCH   6   7
ATOM      7  C   UNL     1      25.422   4.236  13.797  1.00  0.00     0.053 C 
BRANCH   7   8
ATOM      8  C   UNL     1      26.081   3.116  13.055  1.00  0.00     0.041 C 
ATOM      9  O   UNL     1      25.386   2.294  12.402  1.00  0.00    -0.550 OA
ATOM     10  O   UNL     1      27.458   2.947  13.131  1.00  0.00    -0.550 OA
ENDBRANCH   7   8
ENDBRANCH   6   7
ENDBRANCH   5   6
ENDBRANCH   4   5
ENDBRANCH   3   4
ENDBRANCH   2   3
ENDBRANCH   1   2
BRANCH   1  11
ATOM     11  C   UNL     1      23.017   8.118  17.142  1.00  0.00     0.000 C 
BRANCH  11  12
ATOM     12  C   UNL     1      21.933   9.197  17.258  1.00  0.00    -0.000 C 
BRANCH  12  13
ATOM     13  C   UNL     1      22.251  10.396  16.359  1.00  0.00    -0.000 C 
BRANCH  13  14
ATOM     14  C   UNL     1      21.048  10.759  15.480  1.00  0.00    -0.000 C 
BRANCH  14  15
ATOM     15  C   UNL     1      21.493  11.098  14.049  1.00  0.00    -0.000 C 
BRANCH  15  16
ATOM     16  C   UNL     1      20.322  11.132  13.056  1.00  0.00    -0.000 C 
BRANCH  16  17
ATOM     17  C   UNL     1      20.239  12.456  12.282  1.00  0.00    -0.003 C 
ATOM     18  C   UNL     1      19.195  12.379  11.173  1.00  0.00     0.004 C 
ENDBRANCH  16  17
ENDBRANCH  15  16
ENDBRANCH  14  15
ENDBRANCH  13  14
ENDBRANCH  12  13
ENDBRANCH  11  12
ENDBRANCH   1  11
TORSDOF 14
ENDMDL
MODEL 9
REMARK VINA RESULT:    -4.216      2.914      5.689
REMARK INTER + INTRA:          -9.350
REMARK INTER:                  -7.802
REMARK INTRA:                  -1.549
REMARK UNBOUND:                -1.685
REMARK SMILES CCCCCCCCCCCCCCCC(=O)[O-]
REMARK SMILES IDX 9 1 10 2 11 3 12 4 13 5 14 6 15 7 16 8 17 9 18 10 8 11 7 12
REMARK SMILES IDX 6 13 5 14 4 15 3 16 2 17 1 18
REMARK H PARENT
REMARK Flexibility Score: inf
ROOT
ATOM      1  C   UNL     1      24.347   3.332  14.755  1.00  0.00     0.000 C 
ENDROOT
BRANCH   1   2
ATOM      2  C   UNL     1      25.094   3.450  13.418  1.00  0.00     0.000 C 
BRANCH   2   3
ATOM      3  C   UNL     1      26.369   2.581  13.384  1.00  0.00     0.000 C 
BRANCH   3   4
ATOM      4  C   UNL     1      27.660   3.389  13.163  1.00  0.00     0.000 C 
BRANCH   4   5
ATOM      5  C   UNL     1      27.395   4.870  12.859  1.00  0.00     0.000 C 
BRANCH   5   6
ATOM      6  C   UNL     1      28.008   5.771  13.935  1.00  0.00     0.006 C 
BRANCH   6   7
ATOM      7  C   UNL     1      28.073   7.227  13.463  1.00  0.00     0.053 C 
BRANCH   7   8
ATOM      8  C   UNL     1      29.362   7.858  13.884  1.00  0.00     0.041 C 
ATOM      9  O   UNL     1      30.250   8.116  13.030  1.00  0.00    -0.550 OA
ATOM     10  O   UNL     1      29.605   8.112  15.228  1.00  0.00    -0.550 OA
ENDBRANCH   7   8
ENDBRANCH   6   7
ENDBRANCH   5   6
ENDBRANCH   4   5
ENDBRANCH   3   4
ENDBRANCH   2   3
ENDBRANCH   1   2
BRANCH   1  11
ATOM     11  C   UNL     1      23.712   4.670  15.152  1.00  0.00     0.000 C 
BRANCH  11  12
ATOM     12  C   UNL     1      23.203   5.427  13.920  1.00  0.00    -0.000 C 
BRANCH  12  13
ATOM     13  C   UNL     1      23.682   6.882  13.930  1.00  0.00    -0.000 C 
BRANCH  13  14
ATOM     14  C   UNL     1      24.725   7.112  15.031  1.00  0.00    -0.000 C 
BRANCH  14  15
ATOM     15  C   UNL     1      24.316   8.278  15.943  1.00  0.00    -0.000 C 
BRANCH  15  16
ATOM     16  C   UNL     1      23.274   7.869  16.995  1.00  0.00    -0.000 C 
BRANCH  16  17
ATOM     17  C   UNL     1      22.543   9.075  17.605  1.00  0.00    -0.003 C 
ATOM     18  C   UNL     1      21.365   8.627  18.464  1.00  0.00     0.004 C 
ENDBRANCH  16  17
ENDBRANCH  15  16
ENDBRANCH  14  15
ENDBRANCH  13  14
ENDBRANCH  12  13
ENDBRANCH  11  12
ENDBRANCH   1  11
TORSDOF 14
ENDMDL
