MODEL 1
REMARK VINA RESULT:    -2.879      0.000      0.000
REMARK INTER + INTRA:          -3.959
REMARK INTER:                  -3.720
REMARK INTRA:                  -0.240
REMARK UNBOUND:                -0.240
REMARK SMILES CCCCCCC(=O)[O-]
REMARK SMILES IDX 5 1 6 2 7 3 8 4 9 5 4 6 3 7 2 8 1 9
REMARK H PARENT
REMARK Flexibility Score: inf
ROOT
ATOM      1  C   UNL     1      63.733 130.148  -6.352  1.00  0.00     0.006 C 
ENDROOT
BRANCH   1   2
ATOM      2  C   UNL     1      65.141 129.704  -6.761  1.00  0.00     0.053 C 
BRANCH   2   3
ATOM      3  C   UNL     1      65.750 128.845  -5.699  1.00  0.00     0.041 C 
ATOM      4  O   UNL     1      66.674 128.041  -5.987  1.00  0.00    -0.550 OA
ATOM      5  O   UNL     1      65.331 128.969  -4.380  1.00  0.00    -0.550 OA
ENDBRANCH   2   3
ENDBRANCH   1   2
BRANCH   1   6
ATOM      6  C   UNL     1      62.763 130.062  -7.537  1.00  0.00     0.000 C 
BRANCH   6   7
ATOM      7  C   UNL     1      62.332 128.610  -7.790  1.00  0.00    -0.000 C 
BRANCH   7   8
ATOM      8  C   UNL     1      61.914 127.886  -6.500  1.00  0.00    -0.003 C 
ATOM      9  C   UNL     1      60.400 127.875  -6.292  1.00  0.00     0.004 C 
ENDBRANCH   7   8
ENDBRANCH   6   7
ENDBRANCH   1   6
TORSDOF 5
ENDMDL
MODEL 2
REMARK VINA RESULT:    -2.450     21.703     22.548
REMARK INTER + INTRA:          -3.406
REMARK INTER:                  -3.256
REMARK INTRA:                  -0.150
REMARK UNBOUND:                -0.240
REMARK SMILES CCCCCCC(=O)[O-]
REMARK SMILES IDX 5 1 6 2 7 3 8 4 9 5 4 6 3 7 2 8 1 9
REMARK H PARENT
REMARK Flexibility Score: inf
ROOT
ATOM      1  C   UNL     1      54.441 147.902  -2.122  1.00  0.00     0.006 C 
ENDROOT
BRANCH   1   2
ATOM      2  C   UNL     1      53.133 148.125  -2.888  1.00  0.00     0.053 C 
BRANCH   2   3
ATOM      3  C   UNL     1      53.364 148.021  -4.362  1.00  0.00     0.041 C 
ATOM      4  O   UNL     1      54.528 148.118  -4.829  1.00  0.00    -0.550 OA
ATOM      5  O   UNL     1      52.298 147.768  -5.216  1.00  0.00    -0.550 OA
ENDBRANCH   2   3
ENDBRANCH   1   2
BRANCH   1   6
ATOM      6  C   UNL     1      54.232 148.076  -0.613  1.00  0.00     0.000 C 
BRANCH   6   7
ATOM      7  C   UNL     1      52.737 148.082  -0.263  1.00  0.00    -0.000 C 
BRANCH   7   8
ATOM      8  C   UNL     1      52.471 147.679   1.196  1.00  0.00    -0.003 C 
ATOM      9  C   UNL     1      50.991 147.758   1.572  1.00  0.00     0.004 C 
ENDBRANCH   7   8
ENDBRANCH   6   7
ENDBRANCH   1   6
TORSDOF 5
ENDMDL
MODEL 3
REMARK VINA RESULT:    -2.114     21.534     22.173
REMARK INTER + INTRA:          -2.972
REMARK INTER:                  -2.857
REMARK INTRA:                  -0.115
REMARK UNBOUND:                -0.240
REMARK SMILES CCCCCCC(=O)[O-]
REMARK SMILES IDX 5 1 6 2 7 3 8 4 9 5 4 6 3 7 2 8 1 9
REMARK H PARENT
REMARK Flexibility Score: inf
ROOT
ATOM      1  C   UNL     1      54.308 147.205  -1.246  1.00  0.00     0.006 C 
ENDROOT
BRANCH   1   2
ATOM      2  C   UNL     1      53.195 147.898  -0.454  1.00  0.00     0.053 C 
BRANCH   2   3
ATOM      3  C   UNL     1      53.491 147.861   1.011  1.00  0.00     0.041 C 
ATOM      4  O   UNL     1      52.591 147.546   1.832  1.00  0.00    -0.550 OA
ATOM      5  O   UNL     1      54.777 148.124   1.467  1.00  0.00    -0.550 OA
ENDBRANCH   2   3
ENDBRANCH   1   2
BRANCH   1   6
ATOM      6  C   UNL     1      54.794 148.088  -2.402  1.00  0.00     0.000 C 
BRANCH   6   7
ATOM      7  C   UNL     1      53.759 148.125  -3.536  1.00  0.00    -0.000 C 
BRANCH   7   8
ATOM      8  C   UNL     1      54.377 147.808  -4.908  1.00  0.00    -0.003 C 
ATOM      9  C   UNL     1      53.378 147.961  -6.056  1.00  0.00     0.004 C 
ENDBRANCH   7   8
ENDBRANCH   6   7
ENDBRANCH   1   6
TORSDOF 5
ENDMDL
MODEL 4
REMARK VINA RESULT:    -2.110     22.769     23.511
REMARK INTER + INTRA:          -2.966
REMARK INTER:                  -2.823
REMARK INTRA:                  -0.143
REMARK UNBOUND:                -0.240
REMARK SMILES CCCCCCC(=O)[O-]
REMARK SMILES IDX 5 1 6 2 7 3 8 4 9 5 4 6 3 7 2 8 1 9
REMARK H PARENT
REMARK Flexibility Score: inf
ROOT
ATOM      1  C   UNL     1      52.220 147.219   1.332  1.00  0.00     0.006 C 
ENDROOT
BRANCH   1   2
ATOM      2  C   UNL     1      53.402 148.052   0.827  1.00  0.00     0.053 C 
BRANCH   2   3
ATOM      3  C   UNL     1      53.703 147.722  -0.600  1.00  0.00     0.041 C 
ATOM      4  O   UNL     1      54.744 147.079  -0.896  1.00  0.00    -0.550 OA
ATOM      5  O   UNL     1      52.809 148.080  -1.601  1.00  0.00    -0.550 OA
ENDBRANCH   2   3
ENDBRANCH   1   2
BRANCH   1   6
ATOM      6  C   UNL     1      51.017 148.113   1.661  1.00  0.00     0.000 C 
BRANCH   6   7
ATOM      7  C   UNL     1      49.700 147.427   1.270  1.00  0.00    -0.000 C 
BRANCH   7   8
ATOM      8  C   UNL     1      48.999 148.125   0.093  1.00  0.00    -0.003 C 
ATOM      9  C   UNL     1      47.488 147.891   0.082  1.00  0.00     0.004 C 
ENDBRANCH   7   8
ENDBRANCH   6   7
ENDBRANCH   1   6
TORSDOF 5
ENDMDL
MODEL 5
REMARK VINA RESULT:    -2.082     21.204     22.000
REMARK INTER + INTRA:          -2.930
REMARK INTER:                  -2.792
REMARK INTRA:                  -0.138
REMARK UNBOUND:                -0.240
REMARK SMILES CCCCCCC(=O)[O-]
REMARK SMILES IDX 5 1 6 2 7 3 8 4 9 5 4 6 3 7 2 8 1 9
REMARK H PARENT
REMARK Flexibility Score: inf
ROOT
ATOM      1  C   UNL     1      54.787 148.125  -2.711  1.00  0.00     0.006 C 
ENDROOT
BRANCH   1   2
ATOM      2  C   UNL     1      53.417 148.027  -2.033  1.00  0.00     0.053 C 
BRANCH   2   3
ATOM      3  C   UNL     1      53.574 147.772  -0.568  1.00  0.00     0.041 C 
ATOM      4  O   UNL     1      54.688 147.420  -0.101  1.00  0.00    -0.550 OA
ATOM      5  O   UNL     1      52.500 147.973   0.291  1.00  0.00    -0.550 OA
ENDBRANCH   2   3
ENDBRANCH   1   2
BRANCH   1   6
ATOM      6  C   UNL     1      54.702 147.716  -4.187  1.00  0.00     0.000 C 
BRANCH   6   7
ATOM      7  C   UNL     1      53.352 148.124  -4.792  1.00  0.00    -0.000 C 
BRANCH   7   8
ATOM      8  C   UNL     1      53.334 148.010  -6.325  1.00  0.00    -0.003 C 
ATOM      9  C   UNL     1      51.920 147.886  -6.893  1.00  0.00     0.004 C 
ENDBRANCH   7   8
ENDBRANCH   6   7
ENDBRANCH   1   6
TORSDOF 5
ENDMDL
MODEL 6
REMARK VINA RESULT:    -1.652     22.383     23.161
REMARK INTER + INTRA:          -2.375
REMARK INTER:                  -2.204
REMARK INTRA:                  -0.171
REMARK UNBOUND:                -0.240
REMARK SMILES CCCCCCC(=O)[O-]
REMARK SMILES IDX 5 1 6 2 7 3 8 4 9 5 4 6 3 7 2 8 1 9
REMARK H PARENT
REMARK Flexibility Score: inf
ROOT
ATOM      1  C   UNL     1      52.822 146.687   0.417  1.00  0.00     0.006 C 
ENDROOT
BRANCH   1   2
ATOM      2  C   UNL     1      52.406 147.545   1.617  1.00  0.00     0.053 C 
BRANCH   2   3
ATOM      3  C   UNL     1      50.973 147.955   1.496  1.00  0.00     0.041 C 
ATOM      4  O   UNL     1      50.449 148.104   0.361  1.00  0.00    -0.550 OA
ATOM      5  O   UNL     1      50.200 148.125   2.638  1.00  0.00    -0.550 OA
ENDBRANCH   2   3
ENDBRANCH   1   2
BRANCH   1   6
ATOM      6  C   UNL     1      54.053 147.277  -0.281  1.00  0.00     0.000 C 
BRANCH   6   7
ATOM      7  C   UNL     1      53.643 148.124  -1.495  1.00  0.00    -0.000 C 
BRANCH   7   8
ATOM      8  C   UNL     1      54.707 148.121  -2.604  1.00  0.00    -0.003 C 
ATOM      9  C   UNL     1      54.100 148.125  -4.007  1.00  0.00     0.004 C 
ENDBRANCH   7   8
ENDBRANCH   6   7
ENDBRANCH   1   6
TORSDOF 5
ENDMDL
MODEL 7
REMARK VINA RESULT:    -1.378     23.424     24.406
REMARK INTER + INTRA:          -2.020
REMARK INTER:                  -1.854
REMARK INTRA:                  -0.166
REMARK UNBOUND:                -0.240
REMARK SMILES CCCCCCC(=O)[O-]
REMARK SMILES IDX 5 1 6 2 7 3 8 4 9 5 4 6 3 7 2 8 1 9
REMARK H PARENT
REMARK Flexibility Score: inf
ROOT
ATOM      1  C   UNL     1      50.706 147.535   0.893  1.00  0.00     0.006 C 
ENDROOT
BRANCH   1   2
ATOM      2  C   UNL     1      49.344 148.125   1.272  1.00  0.00     0.053 C 
BRANCH   2   3
ATOM      3  C   UNL     1      48.363 147.935   0.160  1.00  0.00     0.041 C 
ATOM      4  O   UNL     1      48.751 147.948  -1.038  1.00  0.00    -0.550 OA
ATOM      5  O   UNL     1      47.025 147.693   0.446  1.00  0.00    -0.550 OA
ENDBRANCH   2   3
ENDBRANCH   1   2
BRANCH   1   6
ATOM      6  C   UNL     1      51.805 148.034   1.840  1.00  0.00     0.000 C 
BRANCH   6   7
ATOM      7  C   UNL     1      53.155 148.125   1.114  1.00  0.00    -0.000 C 
BRANCH   7   8
ATOM      8  C   UNL     1      53.085 147.601  -0.330  1.00  0.00    -0.003 C 
ATOM      9  C   UNL     1      54.452 147.570  -1.014  1.00  0.00     0.004 C 
ENDBRANCH   7   8
ENDBRANCH   6   7
ENDBRANCH   1   6
TORSDOF 5
ENDMDL
