MODEL 1
REMARK VINA RESULT:    -5.299      0.000      0.000
REMARK INTER + INTRA:         -10.908
REMARK INTER:                  -9.636
REMARK INTRA:                  -1.272
REMARK UNBOUND:                -1.272
REMARK SMILES CCCCCCCCCCCCCC[C@@H](C)C(=O)[O-]
REMARK SMILES IDX 9 1 10 2 11 3 12 4 13 5 14 6 15 7 16 8 17 9 18 10 19 11 8 12
REMARK SMILES IDX 7 13 6 14 5 15 4 16 3 17 2 18 1 19
REMARK H PARENT
REMARK Flexibility Score: inf
ROOT
ATOM      1  C   UNL     1     -21.656  45.942  86.485  1.00  0.00     0.000 C 
ENDROOT
BRANCH   1   2
ATOM      2  C   UNL     1     -23.031  46.375  85.946  1.00  0.00     0.000 C 
BRANCH   2   3
ATOM      3  C   UNL     1     -24.037  46.853  87.009  1.00  0.00     0.000 C 
BRANCH   3   4
ATOM      4  C   UNL     1     -25.420  46.197  86.865  1.00  0.00     0.000 C 
BRANCH   4   5
ATOM      5  C   UNL     1     -26.252  46.258  88.160  1.00  0.00     0.001 C 
BRANCH   5   6
ATOM      6  C   UNL     1     -25.947  45.155  89.195  1.00  0.00     0.009 C 
BRANCH   6   7
ATOM      7  C   UNL     1     -26.700  45.307  90.536  1.00  0.00     0.032 C 
ATOM      8  C   UNL     1     -27.666  46.494  90.475  1.00  0.00     0.014 C 
BRANCH   7   9
ATOM      9  C   UNL     1     -27.457  44.054  90.887  1.00  0.00     0.044 C 
ATOM     10  O   UNL     1     -28.512  43.758  90.267  1.00  0.00    -0.550 OA
ATOM     11  O   UNL     1     -26.998  43.216  91.896  1.00  0.00    -0.550 OA
ENDBRANCH   7   9
ENDBRANCH   6   7
ENDBRANCH   5   6
ENDBRANCH   4   5
ENDBRANCH   3   4
ENDBRANCH   2   3
ENDBRANCH   1   2
BRANCH   1  12
ATOM     12  C   UNL     1     -21.653  44.507  87.042  1.00  0.00     0.000 C 
BRANCH  12  13
ATOM     13  C   UNL     1     -20.331  43.771  86.770  1.00  0.00    -0.000 C 
BRANCH  13  14
ATOM     14  C   UNL     1     -19.848  43.936  85.321  1.00  0.00    -0.000 C 
BRANCH  14  15
ATOM     15  C   UNL     1     -18.412  44.473  85.279  1.00  0.00    -0.000 C 
BRANCH  15  16
ATOM     16  C   UNL     1     -18.157  45.264  83.988  1.00  0.00    -0.000 C 
BRANCH  16  17
ATOM     17  C   UNL     1     -18.973  46.564  83.919  1.00  0.00    -0.000 C 
BRANCH  17  18
ATOM     18  C   UNL     1     -19.666  46.755  82.561  1.00  0.00    -0.003 C 
ATOM     19  C   UNL     1     -21.016  46.043  82.529  1.00  0.00     0.004 C 
ENDBRANCH  17  18
ENDBRANCH  16  17
ENDBRANCH  15  16
ENDBRANCH  14  15
ENDBRANCH  13  14
ENDBRANCH  12  13
ENDBRANCH   1  12
TORSDOF 14
ENDMDL
MODEL 2
REMARK VINA RESULT:    -5.286      4.883      6.520
REMARK INTER + INTRA:         -10.884
REMARK INTER:                  -9.238
REMARK INTRA:                  -1.647
REMARK UNBOUND:                -1.272
REMARK SMILES CCCCCCCCCCCCCC[C@@H](C)C(=O)[O-]
REMARK SMILES IDX 9 1 10 2 11 3 12 4 13 5 14 6 15 7 16 8 17 9 18 10 19 11 8 12
REMARK SMILES IDX 7 13 6 14 5 15 4 16 3 17 2 18 1 19
REMARK H PARENT
REMARK Flexibility Score: inf
ROOT
ATOM      1  C   UNL     1     -20.258  44.461  86.879  1.00  0.00     0.000 C 
ENDROOT
BRANCH   1   2
ATOM      2  C   UNL     1     -20.606  43.277  85.958  1.00  0.00     0.000 C 
BRANCH   2   3
ATOM      3  C   UNL     1     -20.314  41.881  86.539  1.00  0.00     0.000 C 
BRANCH   3   4
ATOM      4  C   UNL     1     -21.384  41.410  87.538  1.00  0.00     0.000 C 
BRANCH   4   5
ATOM      5  C   UNL     1     -20.823  41.174  88.953  1.00  0.00     0.001 C 
BRANCH   5   6
ATOM      6  C   UNL     1     -19.533  40.330  89.022  1.00  0.00     0.009 C 
BRANCH   6   7
ATOM      7  C   UNL     1     -19.645  39.057  89.891  1.00  0.00     0.032 C 
ATOM      8  C   UNL     1     -20.856  39.152  90.824  1.00  0.00     0.014 C 
BRANCH   7   9
ATOM      9  C   UNL     1     -19.753  37.818  89.044  1.00  0.00     0.044 C 
ATOM     10  O   UNL     1     -19.270  36.729  89.452  1.00  0.00    -0.550 OA
ATOM     11  O   UNL     1     -20.388  37.866  87.808  1.00  0.00    -0.550 OA
ENDBRANCH   7   9
ENDBRANCH   6   7
ENDBRANCH   5   6
ENDBRANCH   4   5
ENDBRANCH   3   4
ENDBRANCH   2   3
ENDBRANCH   1   2
BRANCH   1  12
ATOM     12  C   UNL     1     -21.073  45.727  86.564  1.00  0.00     0.000 C 
BRANCH  12  13
ATOM     13  C   UNL     1     -21.797  45.641  85.210  1.00  0.00    -0.000 C 
BRANCH  13  14
ATOM     14  C   UNL     1     -21.441  46.805  84.273  1.00  0.00    -0.000 C 
BRANCH  14  15
ATOM     15  C   UNL     1     -21.102  46.292  82.867  1.00  0.00    -0.000 C 
BRANCH  15  16
ATOM     16  C   UNL     1     -19.692  46.734  82.446  1.00  0.00    -0.000 C 
BRANCH  16  17
ATOM     17  C   UNL     1     -18.678  46.659  83.597  1.00  0.00    -0.000 C 
BRANCH  17  18
ATOM     18  C   UNL     1     -18.182  45.229  83.856  1.00  0.00    -0.003 C 
ATOM     19  C   UNL     1     -17.201  45.191  85.025  1.00  0.00     0.004 C 
ENDBRANCH  17  18
ENDBRANCH  16  17
ENDBRANCH  15  16
ENDBRANCH  14  15
ENDBRANCH  13  14
ENDBRANCH  12  13
ENDBRANCH   1  12
TORSDOF 14
ENDMDL
MODEL 3
REMARK VINA RESULT:    -5.218      4.769      6.712
REMARK INTER + INTRA:         -10.760
REMARK INTER:                  -9.773
REMARK INTRA:                  -0.987
REMARK UNBOUND:                -1.272
REMARK SMILES CCCCCCCCCCCCCC[C@@H](C)C(=O)[O-]
REMARK SMILES IDX 9 1 10 2 11 3 12 4 13 5 14 6 15 7 16 8 17 9 18 10 19 11 8 12
REMARK SMILES IDX 7 13 6 14 5 15 4 16 3 17 2 18 1 19
REMARK H PARENT
REMARK Flexibility Score: inf
ROOT
ATOM      1  C   UNL     1     -21.192  41.826  87.706  1.00  0.00     0.000 C 
ENDROOT
BRANCH   1   2
ATOM      2  C   UNL     1     -20.540  40.658  86.944  1.00  0.00     0.000 C 
BRANCH   2   3
ATOM      3  C   UNL     1     -21.267  39.306  87.059  1.00  0.00     0.000 C 
BRANCH   3   4
ATOM      4  C   UNL     1     -20.303  38.116  87.194  1.00  0.00     0.000 C 
BRANCH   4   5
ATOM      5  C   UNL     1     -19.998  37.752  88.659  1.00  0.00     0.001 C 
BRANCH   5   6
ATOM      6  C   UNL     1     -20.677  38.645  89.718  1.00  0.00     0.009 C 
BRANCH   6   7
ATOM      7  C   UNL     1     -19.762  39.056  90.894  1.00  0.00     0.032 C 
ATOM      8  C   UNL     1     -18.344  38.517  90.682  1.00  0.00     0.014 C 
BRANCH   7   9
ATOM      9  C   UNL     1     -19.717  40.551  91.060  1.00  0.00     0.044 C 
ATOM     10  O   UNL     1     -20.786  41.209  91.160  1.00  0.00    -0.550 OA
ATOM     11  O   UNL     1     -18.497  41.215  91.107  1.00  0.00    -0.550 OA
ENDBRANCH   7   9
ENDBRANCH   6   7
ENDBRANCH   5   6
ENDBRANCH   4   5
ENDBRANCH   3   4
ENDBRANCH   2   3
ENDBRANCH   1   2
BRANCH   1  12
ATOM     12  C   UNL     1     -20.991  43.185  87.012  1.00  0.00     0.000 C 
BRANCH  12  13
ATOM     13  C   UNL     1     -19.972  43.115  85.863  1.00  0.00    -0.000 C 
BRANCH  13  14
ATOM     14  C   UNL     1     -19.644  44.496  85.276  1.00  0.00    -0.000 C 
BRANCH  14  15
ATOM     15  C   UNL     1     -18.128  44.695  85.156  1.00  0.00    -0.000 C 
BRANCH  15  16
ATOM     16  C   UNL     1     -17.797  45.810  84.152  1.00  0.00    -0.000 C 
BRANCH  16  17
ATOM     17  C   UNL     1     -18.986  46.749  83.895  1.00  0.00    -0.000 C 
BRANCH  17  18
ATOM     18  C   UNL     1     -19.515  46.654  82.456  1.00  0.00    -0.003 C 
ATOM     19  C   UNL     1     -21.041  46.636  82.432  1.00  0.00     0.004 C 
ENDBRANCH  17  18
ENDBRANCH  16  17
ENDBRANCH  15  16
ENDBRANCH  14  15
ENDBRANCH  13  14
ENDBRANCH  12  13
ENDBRANCH   1  12
TORSDOF 14
ENDMDL
MODEL 4
REMARK VINA RESULT:    -5.208      1.025      1.442
REMARK INTER + INTRA:         -10.743
REMARK INTER:                  -9.532
REMARK INTRA:                  -1.211
REMARK UNBOUND:                -1.272
REMARK SMILES CCCCCCCCCCCCCC[C@@H](C)C(=O)[O-]
REMARK SMILES IDX 9 1 10 2 11 3 12 4 13 5 14 6 15 7 16 8 17 9 18 10 19 11 8 12
REMARK SMILES IDX 7 13 6 14 5 15 4 16 3 17 2 18 1 19
REMARK H PARENT
REMARK Flexibility Score: inf
ROOT
ATOM      1  C   UNL     1     -21.810  45.611  85.761  1.00  0.00     0.000 C 
ENDROOT
BRANCH   1   2
ATOM      2  C   UNL     1     -23.088  46.271  86.312  1.00  0.00     0.000 C 
BRANCH   2   3
ATOM      3  C   UNL     1     -23.326  46.093  87.823  1.00  0.00     0.000 C 
BRANCH   3   4
ATOM      4  C   UNL     1     -24.681  45.442  88.144  1.00  0.00     0.000 C 
BRANCH   4   5
ATOM      5  C   UNL     1     -25.393  46.097  89.343  1.00  0.00     0.001 C 
BRANCH   5   6
ATOM      6  C   UNL     1     -26.683  45.392  89.813  1.00  0.00     0.009 C 
BRANCH   6   7
ATOM      7  C   UNL     1     -26.538  43.870  90.038  1.00  0.00     0.032 C 
ATOM      8  C   UNL     1     -25.855  43.591  91.381  1.00  0.00     0.014 C 
BRANCH   7   9
ATOM      9  C   UNL     1     -27.874  43.177  89.995  1.00  0.00     0.044 C 
ATOM     10  O   UNL     1     -28.622  43.182  91.007  1.00  0.00    -0.550 OA
ATOM     11  O   UNL     1     -28.291  42.529  88.838  1.00  0.00    -0.550 OA
ENDBRANCH   7   9
ENDBRANCH   6   7
ENDBRANCH   5   6
ENDBRANCH   4   5
ENDBRANCH   3   4
ENDBRANCH   2   3
ENDBRANCH   1   2
BRANCH   1  12
ATOM     12  C   UNL     1     -21.022  44.840  86.835  1.00  0.00     0.000 C 
BRANCH  12  13
ATOM     13  C   UNL     1     -20.385  43.552  86.288  1.00  0.00    -0.000 C 
BRANCH  13  14
ATOM     14  C   UNL     1     -19.508  43.803  85.052  1.00  0.00    -0.000 C 
BRANCH  14  15
ATOM     15  C   UNL     1     -18.289  44.663  85.410  1.00  0.00    -0.000 C 
BRANCH  15  16
ATOM     16  C   UNL     1     -17.836  45.504  84.207  1.00  0.00    -0.000 C 
BRANCH  16  17
ATOM     17  C   UNL     1     -18.797  46.662  83.899  1.00  0.00    -0.000 C 
BRANCH  17  18
ATOM     18  C   UNL     1     -19.369  46.593  82.474  1.00  0.00    -0.003 C 
ATOM     19  C   UNL     1     -20.883  46.785  82.481  1.00  0.00     0.004 C 
ENDBRANCH  17  18
ENDBRANCH  16  17
ENDBRANCH  15  16
ENDBRANCH  14  15
ENDBRANCH  13  14
ENDBRANCH  12  13
ENDBRANCH   1  12
TORSDOF 14
ENDMDL
MODEL 5
REMARK VINA RESULT:    -5.169      1.669      2.466
REMARK INTER + INTRA:         -10.671
REMARK INTER:                  -9.208
REMARK INTRA:                  -1.463
REMARK UNBOUND:                -1.272
REMARK SMILES CCCCCCCCCCCCCC[C@@H](C)C(=O)[O-]
REMARK SMILES IDX 9 1 10 2 11 3 12 4 13 5 14 6 15 7 16 8 17 9 18 10 19 11 8 12
REMARK SMILES IDX 7 13 6 14 5 15 4 16 3 17 2 18 1 19
REMARK H PARENT
REMARK Flexibility Score: inf
ROOT
ATOM      1  C   UNL     1     -22.471  45.260  88.530  1.00  0.00     0.000 C 
ENDROOT
BRANCH   1   2
ATOM      2  C   UNL     1     -23.813  46.007  88.635  1.00  0.00     0.000 C 
BRANCH   2   3
ATOM      3  C   UNL     1     -24.760  45.837  87.432  1.00  0.00     0.000 C 
BRANCH   3   4
ATOM      4  C   UNL     1     -26.244  45.960  87.815  1.00  0.00     0.000 C 
BRANCH   4   5
ATOM      5  C   UNL     1     -26.455  46.484  89.248  1.00  0.00     0.001 C 
BRANCH   5   6
ATOM      6  C   UNL     1     -27.165  45.512  90.212  1.00  0.00     0.009 C 
BRANCH   6   7
ATOM      7  C   UNL     1     -26.733  44.035  90.069  1.00  0.00     0.032 C 
ATOM      8  C   UNL     1     -25.744  43.658  91.175  1.00  0.00     0.014 C 
BRANCH   7   9
ATOM      9  C   UNL     1     -27.918  43.108  90.110  1.00  0.00     0.044 C 
ATOM     10  O   UNL     1     -28.405  42.656  89.040  1.00  0.00    -0.550 OA
ATOM     11  O   UNL     1     -28.481  42.741  91.327  1.00  0.00    -0.550 OA
ENDBRANCH   7   9
ENDBRANCH   6   7
ENDBRANCH   5   6
ENDBRANCH   4   5
ENDBRANCH   3   4
ENDBRANCH   2   3
ENDBRANCH   1   2
BRANCH   1  12
ATOM     12  C   UNL     1     -22.601  43.750  88.797  1.00  0.00     0.000 C 
BRANCH  12  13
ATOM     13  C   UNL     1     -22.126  42.897  87.610  1.00  0.00    -0.000 C 
BRANCH  13  14
ATOM     14  C   UNL     1     -20.703  42.353  87.803  1.00  0.00    -0.000 C 
BRANCH  14  15
ATOM     15  C   UNL     1     -19.978  42.225  86.457  1.00  0.00    -0.000 C 
BRANCH  15  16
ATOM     16  C   UNL     1     -20.324  43.400  85.531  1.00  0.00    -0.000 C 
BRANCH  16  17
ATOM     17  C   UNL     1     -19.481  44.652  85.820  1.00  0.00    -0.000 C 
BRANCH  17  18
ATOM     18  C   UNL     1     -18.071  44.567  85.217  1.00  0.00    -0.003 C 
ATOM     19  C   UNL     1     -17.785  45.768  84.320  1.00  0.00     0.004 C 
ENDBRANCH  17  18
ENDBRANCH  16  17
ENDBRANCH  15  16
ENDBRANCH  14  15
ENDBRANCH  13  14
ENDBRANCH  12  13
ENDBRANCH   1  12
TORSDOF 14
ENDMDL
MODEL 6
REMARK VINA RESULT:    -5.149      3.692      6.509
REMARK INTER + INTRA:         -10.636
REMARK INTER:                  -9.120
REMARK INTRA:                  -1.516
REMARK UNBOUND:                -1.272
REMARK SMILES CCCCCCCCCCCCCC[C@@H](C)C(=O)[O-]
REMARK SMILES IDX 9 1 10 2 11 3 12 4 13 5 14 6 15 7 16 8 17 9 18 10 19 11 8 12
REMARK SMILES IDX 7 13 6 14 5 15 4 16 3 17 2 18 1 19
REMARK H PARENT
REMARK Flexibility Score: inf
ROOT
ATOM      1  C   UNL     1     -18.396  44.624  85.376  1.00  0.00     0.000 C 
ENDROOT
BRANCH   1   2
ATOM      2  C   UNL     1     -19.558  43.625  85.222  1.00  0.00     0.000 C 
BRANCH   2   3
ATOM      3  C   UNL     1     -20.069  43.000  86.533  1.00  0.00     0.000 C 
BRANCH   3   4
ATOM      4  C   UNL     1     -20.109  41.463  86.489  1.00  0.00     0.000 C 
BRANCH   4   5
ATOM      5  C   UNL     1     -21.108  40.859  87.493  1.00  0.00     0.001 C 
BRANCH   5   6
ATOM      6  C   UNL     1     -20.787  39.425  87.966  1.00  0.00     0.009 C 
BRANCH   6   7
ATOM      7  C   UNL     1     -20.674  39.264  89.498  1.00  0.00     0.032 C 
ATOM      8  C   UNL     1     -19.877  38.003  89.846  1.00  0.00     0.014 C 
BRANCH   7   9
ATOM      9  C   UNL     1     -20.025  40.465  90.132  1.00  0.00     0.044 C 
ATOM     10  O   UNL     1     -18.786  40.651  90.012  1.00  0.00    -0.550 OA
ATOM     11  O   UNL     1     -20.788  41.378  90.851  1.00  0.00    -0.550 OA
ENDBRANCH   7   9
ENDBRANCH   6   7
ENDBRANCH   5   6
ENDBRANCH   4   5
ENDBRANCH   3   4
ENDBRANCH   2   3
ENDBRANCH   1   2
BRANCH   1  12
ATOM     12  C   UNL     1     -17.948  45.235  84.036  1.00  0.00     0.000 C 
BRANCH  12  13
ATOM     13  C   UNL     1     -18.699  46.534  83.701  1.00  0.00    -0.000 C 
BRANCH  13  14
ATOM     14  C   UNL     1     -19.693  46.362  82.542  1.00  0.00    -0.000 C 
BRANCH  14  15
ATOM     15  C   UNL     1     -21.139  46.378  83.053  1.00  0.00    -0.000 C 
BRANCH  15  16
ATOM     16  C   UNL     1     -21.219  46.990  84.460  1.00  0.00    -0.000 C 
BRANCH  16  17
ATOM     17  C   UNL     1     -22.431  46.485  85.257  1.00  0.00    -0.000 C 
BRANCH  17  18
ATOM     18  C   UNL     1     -22.070  46.097  86.699  1.00  0.00    -0.003 C 
ATOM     19  C   UNL     1     -23.033  45.043  87.241  1.00  0.00     0.004 C 
ENDBRANCH  17  18
ENDBRANCH  16  17
ENDBRANCH  15  16
ENDBRANCH  14  15
ENDBRANCH  13  14
ENDBRANCH  12  13
ENDBRANCH   1  12
TORSDOF 14
ENDMDL
MODEL 7
REMARK VINA RESULT:    -5.138      1.312      2.462
REMARK INTER + INTRA:         -10.614
REMARK INTER:                  -9.340
REMARK INTRA:                  -1.274
REMARK UNBOUND:                -1.272
REMARK SMILES CCCCCCCCCCCCCC[C@@H](C)C(=O)[O-]
REMARK SMILES IDX 9 1 10 2 11 3 12 4 13 5 14 6 15 7 16 8 17 9 18 10 19 11 8 12
REMARK SMILES IDX 7 13 6 14 5 15 4 16 3 17 2 18 1 19
REMARK H PARENT
REMARK Flexibility Score: inf
ROOT
ATOM      1  C   UNL     1     -21.095  44.965  87.371  1.00  0.00     0.000 C 
ENDROOT
BRANCH   1   2
ATOM      2  C   UNL     1     -22.236  43.946  87.199  1.00  0.00     0.000 C 
BRANCH   2   3
ATOM      3  C   UNL     1     -23.261  43.901  88.347  1.00  0.00     0.000 C 
BRANCH   3   4
ATOM      4  C   UNL     1     -23.823  45.288  88.705  1.00  0.00     0.000 C 
BRANCH   4   5
ATOM      5  C   UNL     1     -25.302  45.246  89.129  1.00  0.00     0.001 C 
BRANCH   5   6
ATOM      6  C   UNL     1     -25.722  44.006  89.947  1.00  0.00     0.009 C 
BRANCH   6   7
ATOM      7  C   UNL     1     -27.036  44.176  90.742  1.00  0.00     0.032 C 
ATOM      8  C   UNL     1     -27.588  45.593  90.566  1.00  0.00     0.014 C 
BRANCH   7   9
ATOM      9  C   UNL     1     -28.072  43.171  90.315  1.00  0.00     0.044 C 
ATOM     10  O   UNL     1     -28.126  42.790  89.116  1.00  0.00    -0.550 OA
ATOM     11  O   UNL     1     -28.973  42.656  91.239  1.00  0.00    -0.550 OA
ENDBRANCH   7   9
ENDBRANCH   6   7
ENDBRANCH   5   6
ENDBRANCH   4   5
ENDBRANCH   3   4
ENDBRANCH   2   3
ENDBRANCH   1   2
BRANCH   1  12
ATOM     12  C   UNL     1     -21.319  46.259  86.570  1.00  0.00     0.000 C 
BRANCH  12  13
ATOM     13  C   UNL     1     -22.064  46.014  85.249  1.00  0.00    -0.000 C 
BRANCH  13  14
ATOM     14  C   UNL     1     -21.519  46.868  84.094  1.00  0.00    -0.000 C 
BRANCH  14  15
ATOM     15  C   UNL     1     -21.012  45.982  82.949  1.00  0.00    -0.000 C 
BRANCH  15  16
ATOM     16  C   UNL     1     -19.529  46.257  82.656  1.00  0.00    -0.000 C 
BRANCH  16  17
ATOM     17  C   UNL     1     -18.743  46.669  83.910  1.00  0.00    -0.000 C 
BRANCH  17  18
ATOM     18  C   UNL     1     -17.650  45.656  84.283  1.00  0.00    -0.003 C 
ATOM     19  C   UNL     1     -18.185  44.601  85.248  1.00  0.00     0.004 C 
ENDBRANCH  17  18
ENDBRANCH  16  17
ENDBRANCH  15  16
ENDBRANCH  14  15
ENDBRANCH  13  14
ENDBRANCH  12  13
ENDBRANCH   1  12
TORSDOF 14
ENDMDL
MODEL 8
REMARK VINA RESULT:    -5.088      4.431      6.722
REMARK INTER + INTRA:         -10.524
REMARK INTER:                  -9.263
REMARK INTRA:                  -1.261
REMARK UNBOUND:                -1.272
REMARK SMILES CCCCCCCCCCCCCC[C@@H](C)C(=O)[O-]
REMARK SMILES IDX 9 1 10 2 11 3 12 4 13 5 14 6 15 7 16 8 17 9 18 10 19 11 8 12
REMARK SMILES IDX 7 13 6 14 5 15 4 16 3 17 2 18 1 19
REMARK H PARENT
REMARK Flexibility Score: inf
ROOT
ATOM      1  C   UNL     1     -19.853  42.261  86.182  1.00  0.00     0.000 C 
ENDROOT
BRANCH   1   2
ATOM      2  C   UNL     1     -20.972  41.789  87.129  1.00  0.00     0.000 C 
BRANCH   2   3
ATOM      3  C   UNL     1     -20.519  40.880  88.286  1.00  0.00     0.000 C 
BRANCH   3   4
ATOM      4  C   UNL     1     -20.803  39.391  88.025  1.00  0.00     0.000 C 
BRANCH   4   5
ATOM      5  C   UNL     1     -20.172  38.465  89.082  1.00  0.00     0.001 C 
BRANCH   5   6
ATOM      6  C   UNL     1     -20.579  38.753  90.542  1.00  0.00     0.009 C 
BRANCH   6   7
ATOM      7  C   UNL     1     -19.409  39.156  91.467  1.00  0.00     0.032 C 
ATOM      8  C   UNL     1     -18.068  38.938  90.759  1.00  0.00     0.014 C 
BRANCH   7   9
ATOM      9  C   UNL     1     -19.523  40.591  91.907  1.00  0.00     0.044 C 
ATOM     10  O   UNL     1     -18.485  41.277  92.101  1.00  0.00    -0.550 OA
ATOM     11  O   UNL     1     -20.772  41.169  92.099  1.00  0.00    -0.550 OA
ENDBRANCH   7   9
ENDBRANCH   6   7
ENDBRANCH   5   6
ENDBRANCH   4   5
ENDBRANCH   3   4
ENDBRANCH   2   3
ENDBRANCH   1   2
BRANCH   1  12
ATOM     12  C   UNL     1     -20.060  43.699  85.675  1.00  0.00     0.000 C 
BRANCH  12  13
ATOM     13  C   UNL     1     -21.066  44.487  86.530  1.00  0.00    -0.000 C 
BRANCH  13  14
ATOM     14  C   UNL     1     -21.698  45.661  85.769  1.00  0.00    -0.000 C 
BRANCH  14  15
ATOM     15  C   UNL     1     -21.301  45.633  84.288  1.00  0.00    -0.000 C 
BRANCH  15  16
ATOM     16  C   UNL     1     -20.510  46.894  83.907  1.00  0.00    -0.000 C 
BRANCH  16  17
ATOM     17  C   UNL     1     -19.166  46.569  83.235  1.00  0.00    -0.000 C 
BRANCH  17  18
ATOM     18  C   UNL     1     -17.965  46.844  84.153  1.00  0.00    -0.003 C 
ATOM     19  C   UNL     1     -17.275  45.544  84.558  1.00  0.00     0.004 C 
ENDBRANCH  17  18
ENDBRANCH  16  17
ENDBRANCH  15  16
ENDBRANCH  14  15
ENDBRANCH  13  14
ENDBRANCH  12  13
ENDBRANCH   1  12
TORSDOF 14
ENDMDL
MODEL 9
REMARK VINA RESULT:    -5.028      3.749      8.677
REMARK INTER + INTRA:         -10.414
REMARK INTER:                  -9.039
REMARK INTRA:                  -1.375
REMARK UNBOUND:                -1.272
REMARK SMILES CCCCCCCCCCCCCC[C@@H](C)C(=O)[O-]
REMARK SMILES IDX 9 1 10 2 11 3 12 4 13 5 14 6 15 7 16 8 17 9 18 10 19 11 8 12
REMARK SMILES IDX 7 13 6 14 5 15 4 16 3 17 2 18 1 19
REMARK H PARENT
REMARK Flexibility Score: inf
ROOT
ATOM      1  C   UNL     1     -23.630  46.079  86.722  1.00  0.00     0.000 C 
ENDROOT
BRANCH   1   2
ATOM      2  C   UNL     1     -23.031  45.793  88.111  1.00  0.00     0.000 C 
BRANCH   2   3
ATOM      3  C   UNL     1     -22.401  44.399  88.286  1.00  0.00     0.000 C 
BRANCH   3   4
ATOM      4  C   UNL     1     -21.715  43.886  87.008  1.00  0.00     0.000 C 
BRANCH   4   5
ATOM      5  C   UNL     1     -20.239  44.314  86.905  1.00  0.00     0.001 C 
BRANCH   5   6
ATOM      6  C   UNL     1     -19.590  44.124  85.518  1.00  0.00     0.009 C 
BRANCH   6   7
ATOM      7  C   UNL     1     -19.183  45.438  84.815  1.00  0.00     0.032 C 
ATOM      8  C   UNL     1     -17.726  45.366  84.348  1.00  0.00     0.014 C 
BRANCH   7   9
ATOM      9  C   UNL     1     -20.077  45.735  83.641  1.00  0.00     0.044 C 
ATOM     10  O   UNL     1     -21.323  45.579  83.740  1.00  0.00    -0.550 OA
ATOM     11  O   UNL     1     -19.537  46.185  82.442  1.00  0.00    -0.550 OA
ENDBRANCH   7   9
ENDBRANCH   6   7
ENDBRANCH   5   6
ENDBRANCH   4   5
ENDBRANCH   3   4
ENDBRANCH   2   3
ENDBRANCH   1   2
BRANCH   1  12
ATOM     12  C   UNL     1     -25.140  46.372  86.767  1.00  0.00     0.000 C 
BRANCH  12  13
ATOM     13  C   UNL     1     -25.868  45.553  87.845  1.00  0.00    -0.000 C 
BRANCH  13  14
ATOM     14  C   UNL     1     -26.599  46.436  88.867  1.00  0.00    -0.000 C 
BRANCH  14  15
ATOM     15  C   UNL     1     -26.374  45.923  90.295  1.00  0.00    -0.000 C 
BRANCH  15  16
ATOM     16  C   UNL     1     -26.294  44.389  90.323  1.00  0.00    -0.000 C 
BRANCH  16  17
ATOM     17  C   UNL     1     -27.274  43.763  91.327  1.00  0.00    -0.000 C 
BRANCH  17  18
ATOM     18  C   UNL     1     -28.478  43.100  90.642  1.00  0.00    -0.003 C 
ATOM     19  C   UNL     1     -28.140  42.690  89.211  1.00  0.00     0.004 C 
ENDBRANCH  17  18
ENDBRANCH  16  17
ENDBRANCH  15  16
ENDBRANCH  14  15
ENDBRANCH  13  14
ENDBRANCH  12  13
ENDBRANCH   1  12
TORSDOF 14
ENDMDL
