MODEL 1
REMARK VINA RESULT:    -4.645      0.000      0.000
REMARK INTER + INTRA:          -5.686
REMARK INTER:                  -5.460
REMARK INTRA:                  -0.226
REMARK UNBOUND:                -0.226
REMARK SMILES COc1cc2ccc(=O)oc2c(OC)c1OC
REMARK SMILES IDX 3 1 15 2 12 3 11 4 5 5 4 6 6 7 7 8 8 9 9 10 10 11 2 12 1 13
REMARK SMILES IDX 16 14 17 15 13 16 14 17
REMARK H PARENT
REMARK Flexibility Score: inf
ROOT
ATOM      1  C   UNL     1       8.861  -7.117 -11.202  1.00  0.00     0.165 A 
ATOM      2  C   UNL     1       8.507  -5.822 -10.728  1.00  0.00     0.207 A 
ATOM      3  C   UNL     1       8.124  -5.657  -9.367  1.00  0.00     0.208 A 
ATOM      4  C   UNL     1       8.099  -6.767  -8.512  1.00  0.00     0.184 A 
ATOM      5  C   UNL     1       8.450  -8.043  -8.988  1.00  0.00     0.025 A 
ATOM      6  C   UNL     1       8.826  -8.213 -10.319  1.00  0.00     0.062 A 
ATOM      7  C   UNL     1       8.412  -9.125  -8.100  1.00  0.00     0.020 A 
ATOM      8  C   UNL     1       8.030  -8.912  -6.776  1.00  0.00     0.094 A 
ATOM      9  C   UNL     1       7.694  -7.617  -6.372  1.00  0.00     0.336 A 
ATOM     10  O   UNL     1       7.347  -7.401  -5.181  1.00  0.00    -0.246 OA
ATOM     11  O   UNL     1       7.740  -6.609  -7.238  1.00  0.00    -0.419 OA
ENDROOT
BRANCH   1  12
ATOM     12  O   UNL     1       9.241  -7.295 -12.541  1.00  0.00    -0.493 OA
ATOM     13  C   UNL     1       9.550  -8.545 -13.149  1.00  0.00     0.278 C 
ENDBRANCH   1  12
BRANCH   2  14
ATOM     14  O   UNL     1       8.519  -4.685 -11.558  1.00  0.00    -0.490 OA
ATOM     15  C   UNL     1       7.570  -4.335 -12.560  1.00  0.00     0.278 C 
ENDBRANCH   2  14
BRANCH   3  16
ATOM     16  O   UNL     1       7.755  -4.423  -8.797  1.00  0.00    -0.490 OA
ATOM     17  C   UNL     1       6.475  -3.800  -8.853  1.00  0.00     0.278 C 
ENDBRANCH   3  16
TORSDOF 3
ENDMDL
MODEL 2
REMARK VINA RESULT:    -4.622     13.249     15.450
REMARK INTER + INTRA:          -5.658
REMARK INTER:                  -5.344
REMARK INTRA:                  -0.314
REMARK UNBOUND:                -0.226
REMARK SMILES COc1cc2ccc(=O)oc2c(OC)c1OC
REMARK SMILES IDX 3 1 15 2 12 3 11 4 5 5 4 6 6 7 7 8 8 9 9 10 10 11 2 12 1 13
REMARK SMILES IDX 16 14 17 15 13 16 14 17
REMARK H PARENT
REMARK Flexibility Score: inf
ROOT
ATOM      1  C   UNL     1      17.708  -0.773 -15.468  1.00  0.00     0.165 A 
ATOM      2  C   UNL     1      18.404   0.226 -14.732  1.00  0.00     0.207 A 
ATOM      3  C   UNL     1      19.515   0.886 -15.329  1.00  0.00     0.208 A 
ATOM      4  C   UNL     1      19.911   0.545 -16.629  1.00  0.00     0.184 A 
ATOM      5  C   UNL     1      19.218  -0.444 -17.350  1.00  0.00     0.025 A 
ATOM      6  C   UNL     1      18.129  -1.095 -16.773  1.00  0.00     0.062 A 
ATOM      7  C   UNL     1      19.646  -0.753 -18.647  1.00  0.00     0.020 A 
ATOM      8  C   UNL     1      20.740  -0.079 -19.187  1.00  0.00     0.094 A 
ATOM      9  C   UNL     1      21.381   0.892 -18.413  1.00  0.00     0.336 A 
ATOM     10  O   UNL     1      22.371   1.514 -18.881  1.00  0.00    -0.246 OA
ATOM     11  O   UNL     1      20.951   1.165 -17.185  1.00  0.00    -0.419 OA
ENDROOT
BRANCH   1  12
ATOM     12  O   UNL     1      16.610  -1.432 -14.894  1.00  0.00    -0.493 OA
ATOM     13  C   UNL     1      16.664  -2.685 -14.219  1.00  0.00     0.278 C 
ENDBRANCH   1  12
BRANCH   2  14
ATOM     14  O   UNL     1      18.036   0.594 -13.424  1.00  0.00    -0.490 OA
ATOM     15  C   UNL     1      18.475   0.006 -12.204  1.00  0.00     0.278 C 
ENDBRANCH   2  14
BRANCH   3  16
ATOM     16  O   UNL     1      20.272   1.888 -14.689  1.00  0.00    -0.490 OA
ATOM     17  C   UNL     1      21.391   1.699 -13.828  1.00  0.00     0.278 C 
ENDBRANCH   3  16
TORSDOF 3
ENDMDL
MODEL 3
REMARK VINA RESULT:    -4.619      2.424      3.388
REMARK INTER + INTRA:          -5.656
REMARK INTER:                  -5.503
REMARK INTRA:                  -0.152
REMARK UNBOUND:                -0.226
REMARK SMILES COc1cc2ccc(=O)oc2c(OC)c1OC
REMARK SMILES IDX 3 1 15 2 12 3 11 4 5 5 4 6 6 7 7 8 8 9 9 10 10 11 2 12 1 13
REMARK SMILES IDX 16 14 17 15 13 16 14 17
REMARK H PARENT
REMARK Flexibility Score: inf
ROOT
ATOM      1  C   UNL     1       8.782  -7.685 -11.041  1.00  0.00     0.165 A 
ATOM      2  C   UNL     1      10.163  -7.356 -10.943  1.00  0.00     0.207 A 
ATOM      3  C   UNL     1      10.646  -6.711  -9.770  1.00  0.00     0.208 A 
ATOM      4  C   UNL     1       9.759  -6.407  -8.728  1.00  0.00     0.184 A 
ATOM      5  C   UNL     1       8.396  -6.736  -8.833  1.00  0.00     0.025 A 
ATOM      6  C   UNL     1       7.915  -7.367  -9.978  1.00  0.00     0.062 A 
ATOM      7  C   UNL     1       7.545  -6.415  -7.768  1.00  0.00     0.020 A 
ATOM      8  C   UNL     1       8.066  -5.783  -6.640  1.00  0.00     0.094 A 
ATOM      9  C   UNL     1       9.431  -5.486  -6.604  1.00  0.00     0.336 A 
ATOM     10  O   UNL     1       9.923  -4.916  -5.595  1.00  0.00    -0.246 OA
ATOM     11  O   UNL     1      10.215  -5.804  -7.630  1.00  0.00    -0.419 OA
ENDROOT
BRANCH   1  12
ATOM     12  O   UNL     1       8.291  -8.321 -12.192  1.00  0.00    -0.493 OA
ATOM     13  C   UNL     1       7.062  -9.035 -12.276  1.00  0.00     0.278 C 
ENDBRANCH   1  12
BRANCH   2  14
ATOM     14  O   UNL     1      11.083  -7.644 -11.969  1.00  0.00    -0.490 OA
ATOM     15  C   UNL     1      11.935  -8.780 -12.072  1.00  0.00     0.278 C 
ENDBRANCH   2  14
BRANCH   3  16
ATOM     16  O   UNL     1      11.991  -6.342  -9.571  1.00  0.00    -0.490 OA
ATOM     17  C   UNL     1      12.746  -5.406 -10.335  1.00  0.00     0.278 C 
ENDBRANCH   3  16
TORSDOF 3
ENDMDL
MODEL 4
REMARK VINA RESULT:    -4.605     21.322     23.162
REMARK INTER + INTRA:          -5.639
REMARK INTER:                  -5.369
REMARK INTRA:                  -0.271
REMARK UNBOUND:                -0.226
REMARK SMILES COc1cc2ccc(=O)oc2c(OC)c1OC
REMARK SMILES IDX 3 1 15 2 12 3 11 4 5 5 4 6 6 7 7 8 8 9 9 10 10 11 2 12 1 13
REMARK SMILES IDX 16 14 17 15 13 16 14 17
REMARK H PARENT
REMARK Flexibility Score: inf
ROOT
ATOM      1  C   UNL     1      23.698   7.427 -16.935  1.00  0.00     0.165 A 
ATOM      2  C   UNL     1      22.630   8.175 -17.506  1.00  0.00     0.207 A 
ATOM      3  C   UNL     1      22.417   8.124 -18.912  1.00  0.00     0.208 A 
ATOM      4  C   UNL     1      23.257   7.343 -19.716  1.00  0.00     0.184 A 
ATOM      5  C   UNL     1      24.309   6.606 -19.144  1.00  0.00     0.025 A 
ATOM      6  C   UNL     1      24.526   6.650 -17.768  1.00  0.00     0.062 A 
ATOM      7  C   UNL     1      25.125   5.838 -19.984  1.00  0.00     0.020 A 
ATOM      8  C   UNL     1      24.874   5.821 -21.355  1.00  0.00     0.094 A 
ATOM      9  C   UNL     1      23.811   6.577 -21.855  1.00  0.00     0.336 A 
ATOM     10  O   UNL     1      23.566   6.577 -23.090  1.00  0.00    -0.246 OA
ATOM     11  O   UNL     1      23.053   7.297 -21.032  1.00  0.00    -0.419 OA
ENDROOT
BRANCH   1  12
ATOM     12  O   UNL     1      23.921   7.466 -15.549  1.00  0.00    -0.493 OA
ATOM     13  C   UNL     1      25.064   8.033 -14.916  1.00  0.00     0.278 C 
ENDBRANCH   1  12
BRANCH   2  14
ATOM     14  O   UNL     1      21.767   8.971 -16.730  1.00  0.00    -0.490 OA
ATOM     15  C   UNL     1      20.600   8.553 -16.029  1.00  0.00     0.278 C 
ENDBRANCH   2  14
BRANCH   3  16
ATOM     16  O   UNL     1      21.391   8.825 -19.578  1.00  0.00    -0.490 OA
ATOM     17  C   UNL     1      20.023   8.446 -19.684  1.00  0.00     0.278 C 
ENDBRANCH   3  16
TORSDOF 3
ENDMDL
MODEL 5
REMARK VINA RESULT:    -4.536     14.876     15.272
REMARK INTER + INTRA:          -5.558
REMARK INTER:                  -5.270
REMARK INTRA:                  -0.288
REMARK UNBOUND:                -0.226
REMARK SMILES COc1cc2ccc(=O)oc2c(OC)c1OC
REMARK SMILES IDX 3 1 15 2 12 3 11 4 5 5 4 6 6 7 7 8 8 9 9 10 10 11 2 12 1 13
REMARK SMILES IDX 16 14 17 15 13 16 14 17
REMARK H PARENT
REMARK Flexibility Score: inf
ROOT
ATOM      1  C   UNL     1      22.916  -5.567 -10.841  1.00  0.00     0.165 A 
ATOM      2  C   UNL     1      22.663  -4.203 -10.523  1.00  0.00     0.207 A 
ATOM      3  C   UNL     1      23.086  -3.690  -9.264  1.00  0.00     0.208 A 
ATOM      4  C   UNL     1      23.742  -4.531  -8.355  1.00  0.00     0.184 A 
ATOM      5  C   UNL     1      23.988  -5.877  -8.677  1.00  0.00     0.025 A 
ATOM      6  C   UNL     1      23.577  -6.388  -9.907  1.00  0.00     0.062 A 
ATOM      7  C   UNL     1      24.647  -6.682  -7.740  1.00  0.00     0.020 A 
ATOM      8  C   UNL     1      25.041  -6.133  -6.521  1.00  0.00     0.094 A 
ATOM      9  C   UNL     1      24.764  -4.787  -6.268  1.00  0.00     0.336 A 
ATOM     10  O   UNL     1      25.111  -4.269  -5.174  1.00  0.00    -0.246 OA
ATOM     11  O   UNL     1      24.137  -4.047  -7.178  1.00  0.00    -0.419 OA
ENDROOT
BRANCH   1  12
ATOM     12  O   UNL     1      22.505  -6.088 -12.078  1.00  0.00    -0.493 OA
ATOM     13  C   UNL     1      21.477  -7.054 -12.264  1.00  0.00     0.278 C 
ENDBRANCH   1  12
BRANCH   2  14
ATOM     14  O   UNL     1      22.007  -3.330 -11.410  1.00  0.00    -0.490 OA
ATOM     15  C   UNL     1      20.608  -3.080 -11.500  1.00  0.00     0.278 C 
ENDBRANCH   2  14
BRANCH   3  16
ATOM     16  O   UNL     1      22.886  -2.358  -8.850  1.00  0.00    -0.490 OA
ATOM     17  C   UNL     1      21.746  -1.830  -8.181  1.00  0.00     0.278 C 
ENDBRANCH   3  16
TORSDOF 3
ENDMDL
MODEL 6
REMARK VINA RESULT:    -4.388     13.422     14.242
REMARK INTER + INTRA:          -5.384
REMARK INTER:                  -5.067
REMARK INTRA:                  -0.317
REMARK UNBOUND:                -0.226
REMARK SMILES COc1cc2ccc(=O)oc2c(OC)c1OC
REMARK SMILES IDX 3 1 15 2 12 3 11 4 5 5 4 6 6 7 7 8 8 9 9 10 10 11 2 12 1 13
REMARK SMILES IDX 16 14 17 15 13 16 14 17
REMARK H PARENT
REMARK Flexibility Score: inf
ROOT
ATOM      1  C   UNL     1      22.217  -2.888  -6.530  1.00  0.00     0.165 A 
ATOM      2  C   UNL     1      22.623  -2.648  -7.873  1.00  0.00     0.207 A 
ATOM      3  C   UNL     1      21.633  -2.433  -8.874  1.00  0.00     0.208 A 
ATOM      4  C   UNL     1      20.276  -2.460  -8.527  1.00  0.00     0.184 A 
ATOM      5  C   UNL     1      19.884  -2.698  -7.198  1.00  0.00     0.025 A 
ATOM      6  C   UNL     1      20.845  -2.910  -6.212  1.00  0.00     0.062 A 
ATOM      7  C   UNL     1      18.516  -2.716  -6.895  1.00  0.00     0.020 A 
ATOM      8  C   UNL     1      17.586  -2.500  -7.910  1.00  0.00     0.094 A 
ATOM      9  C   UNL     1      18.048  -2.270  -9.209  1.00  0.00     0.336 A 
ATOM     10  O   UNL     1      17.225  -2.071 -10.141  1.00  0.00    -0.246 OA
ATOM     11  O   UNL     1      19.352  -2.258  -9.466  1.00  0.00    -0.419 OA
ENDROOT
BRANCH   1  12
ATOM     12  O   UNL     1      23.181  -3.102  -5.533  1.00  0.00    -0.493 OA
ATOM     13  C   UNL     1      23.661  -4.375  -5.112  1.00  0.00     0.278 C 
ENDBRANCH   1  12
BRANCH   2  14
ATOM     14  O   UNL     1      23.976  -2.615  -8.259  1.00  0.00    -0.490 OA
ATOM     15  C   UNL     1      24.798  -3.717  -8.627  1.00  0.00     0.278 C 
ENDBRANCH   2  14
BRANCH   3  16
ATOM     16  O   UNL     1      21.926  -2.188 -10.230  1.00  0.00    -0.490 OA
ATOM     17  C   UNL     1      22.170  -3.158 -11.244  1.00  0.00     0.278 C 
ENDBRANCH   3  16
TORSDOF 3
ENDMDL
MODEL 7
REMARK VINA RESULT:    -4.336     20.572     22.280
REMARK INTER + INTRA:          -5.323
REMARK INTER:                  -5.028
REMARK INTRA:                  -0.296
REMARK UNBOUND:                -0.226
REMARK SMILES COc1cc2ccc(=O)oc2c(OC)c1OC
REMARK SMILES IDX 3 1 15 2 12 3 11 4 5 5 4 6 6 7 7 8 8 9 9 10 10 11 2 12 1 13
REMARK SMILES IDX 16 14 17 15 13 16 14 17
REMARK H PARENT
REMARK Flexibility Score: inf
ROOT
ATOM      1  C   UNL     1      22.547   7.722 -20.441  1.00  0.00     0.165 A 
ATOM      2  C   UNL     1      23.194   7.599 -19.179  1.00  0.00     0.207 A 
ATOM      3  C   UNL     1      22.462   7.876 -17.989  1.00  0.00     0.208 A 
ATOM      4  C   UNL     1      21.119   8.266 -18.074  1.00  0.00     0.184 A 
ATOM      5  C   UNL     1      20.487   8.384 -19.325  1.00  0.00     0.025 A 
ATOM      6  C   UNL     1      21.196   8.115 -20.494  1.00  0.00     0.062 A 
ATOM      7  C   UNL     1      19.143   8.775 -19.363  1.00  0.00     0.020 A 
ATOM      8  C   UNL     1      18.470   9.035 -18.171  1.00  0.00     0.094 A 
ATOM      9  C   UNL     1      19.160   8.898 -16.964  1.00  0.00     0.336 A 
ATOM     10  O   UNL     1      18.572   9.127 -15.875  1.00  0.00    -0.246 OA
ATOM     11  O   UNL     1      20.436   8.524 -16.958  1.00  0.00    -0.419 OA
ENDROOT
BRANCH   1  12
ATOM     12  O   UNL     1      23.255   7.452 -21.622  1.00  0.00    -0.493 OA
ATOM     13  C   UNL     1      23.373   6.172 -22.236  1.00  0.00     0.278 C 
ENDBRANCH   1  12
BRANCH   2  14
ATOM     14  O   UNL     1      24.541   7.212 -19.055  1.00  0.00    -0.490 OA
ATOM     15  C   UNL     1      25.053   5.889 -18.930  1.00  0.00     0.278 C 
ENDBRANCH   2  14
BRANCH   3  16
ATOM     16  O   UNL     1      23.005   7.787 -16.692  1.00  0.00    -0.490 OA
ATOM     17  C   UNL     1      23.827   8.748 -16.038  1.00  0.00     0.278 C 
ENDBRANCH   3  16
TORSDOF 3
ENDMDL
MODEL 8
REMARK VINA RESULT:    -4.300     13.992     14.690
REMARK INTER + INTRA:          -5.281
REMARK INTER:                  -5.004
REMARK INTRA:                  -0.277
REMARK UNBOUND:                -0.226
REMARK SMILES COc1cc2ccc(=O)oc2c(OC)c1OC
REMARK SMILES IDX 3 1 15 2 12 3 11 4 5 5 4 6 6 7 7 8 8 9 9 10 10 11 2 12 1 13
REMARK SMILES IDX 16 14 17 15 13 16 14 17
REMARK H PARENT
REMARK Flexibility Score: inf
ROOT
ATOM      1  C   UNL     1      20.200  -1.576  -7.712  1.00  0.00     0.165 A 
ATOM      2  C   UNL     1      20.534  -1.910  -9.055  1.00  0.00     0.207 A 
ATOM      3  C   UNL     1      21.636  -2.776  -9.306  1.00  0.00     0.208 A 
ATOM      4  C   UNL     1      22.378  -3.286  -8.233  1.00  0.00     0.184 A 
ATOM      5  C   UNL     1      22.042  -2.951  -6.909  1.00  0.00     0.025 A 
ATOM      6  C   UNL     1      20.965  -2.105  -6.654  1.00  0.00     0.062 A 
ATOM      7  C   UNL     1      22.809  -3.485  -5.866  1.00  0.00     0.020 A 
ATOM      8  C   UNL     1      23.878  -4.328  -6.164  1.00  0.00     0.094 A 
ATOM      9  C   UNL     1      24.156  -4.618  -7.502  1.00  0.00     0.336 A 
ATOM     10  O   UNL     1      25.116  -5.378  -7.794  1.00  0.00    -0.246 OA
ATOM     11  O   UNL     1      23.408  -4.097  -8.471  1.00  0.00    -0.419 OA
ENDROOT
BRANCH   1  12
ATOM     12  O   UNL     1      19.117  -0.724  -7.449  1.00  0.00    -0.493 OA
ATOM     13  C   UNL     1      19.186   0.697  -7.378  1.00  0.00     0.278 C 
ENDBRANCH   1  12
BRANCH   2  14
ATOM     14  O   UNL     1      19.812  -1.416 -10.158  1.00  0.00    -0.490 OA
ATOM     15  C   UNL     1      18.670  -1.999 -10.775  1.00  0.00     0.278 C 
ENDBRANCH   2  14
BRANCH   3  16
ATOM     16  O   UNL     1      22.050  -3.169 -10.594  1.00  0.00    -0.490 OA
ATOM     17  C   UNL     1      22.843  -2.417 -11.507  1.00  0.00     0.278 C 
ENDBRANCH   3  16
TORSDOF 3
ENDMDL
MODEL 9
REMARK VINA RESULT:    -4.283     10.467     12.019
REMARK INTER + INTRA:          -5.260
REMARK INTER:                  -4.988
REMARK INTRA:                  -0.272
REMARK UNBOUND:                -0.226
REMARK SMILES COc1cc2ccc(=O)oc2c(OC)c1OC
REMARK SMILES IDX 3 1 15 2 12 3 11 4 5 5 4 6 6 7 7 8 8 9 9 10 10 11 2 12 1 13
REMARK SMILES IDX 16 14 17 15 13 16 14 17
REMARK H PARENT
REMARK Flexibility Score: inf
ROOT
ATOM      1  C   UNL     1      14.940   3.850  -6.518  1.00  0.00     0.165 A 
ATOM      2  C   UNL     1      13.969   3.336  -7.423  1.00  0.00     0.207 A 
ATOM      3  C   UNL     1      12.697   2.934  -6.926  1.00  0.00     0.208 A 
ATOM      4  C   UNL     1      12.417   3.046  -5.558  1.00  0.00     0.184 A 
ATOM      5  C   UNL     1      13.381   3.555  -4.671  1.00  0.00     0.025 A 
ATOM      6  C   UNL     1      14.629   3.951  -5.148  1.00  0.00     0.062 A 
ATOM      7  C   UNL     1      13.059   3.650  -3.312  1.00  0.00     0.020 A 
ATOM      8  C   UNL     1      11.800   3.243  -2.875  1.00  0.00     0.094 A 
ATOM      9  C   UNL     1      10.890   2.746  -3.813  1.00  0.00     0.336 A 
ATOM     10  O   UNL     1       9.746   2.373  -3.441  1.00  0.00    -0.246 OA
ATOM     11  O   UNL     1      11.224   2.668  -5.097  1.00  0.00    -0.419 OA
ENDROOT
BRANCH   1  12
ATOM     12  O   UNL     1      16.199   4.252  -6.992  1.00  0.00    -0.493 OA
ATOM     13  C   UNL     1      16.504   5.535  -7.530  1.00  0.00     0.278 C 
ENDBRANCH   1  12
BRANCH   2  14
ATOM     14  O   UNL     1      14.216   3.208  -8.802  1.00  0.00    -0.490 OA
ATOM     15  C   UNL     1      14.771   2.087  -9.481  1.00  0.00     0.278 C 
ENDBRANCH   2  14
BRANCH   3  16
ATOM     16  O   UNL     1      11.667   2.412  -7.734  1.00  0.00    -0.490 OA
ATOM     17  C   UNL     1      10.754   3.149  -8.541  1.00  0.00     0.278 C 
ENDBRANCH   3  16
TORSDOF 3
ENDMDL
