MODEL 1
REMARK VINA RESULT:    -6.489      0.000      0.000
REMARK INTER + INTRA:         -10.306
REMARK INTER:                  -9.524
REMARK INTRA:                  -0.782
REMARK UNBOUND:                -0.782
REMARK SMILES O=c1c(O[C@H]2O[C@H](CO)[C@H](O)[C@H](O)[C@@H]2O)c(-c2ccc(O)c(O)c2)oc2cc(O)cc(O)c12
REMARK SMILES IDX 4 1 3 2 16 3 25 4 2 5 26 6 1 7 33 8 27 9 31 10 28 11 30 12
REMARK SMILES IDX 17 13 18 14 19 15 20 16 24 17 22 18 21 19 23 21 32 23 29 25
REMARK SMILES IDX 5 27 14 28 6 29 12 30 7 31 10 32 15 33 13 35 8 37 9 38 11 40
REMARK H PARENT 21 20 23 22 32 24 29 26 15 34 13 36 9 39 11 41
REMARK Flexibility Score: inf
ROOT
ATOM      1  O   UNL     1      18.365  -3.776 -15.611  1.00  0.00    -0.454 OA
ENDROOT
BRANCH   1   2
ATOM      2  C   UNL     1      17.753  -2.572 -15.224  1.00  0.00     0.214 A 
ATOM      3  C   UNL     1      17.849  -1.399 -15.988  1.00  0.00     0.180 A 
ATOM      4  O   UNL     1      17.075  -0.362 -15.692  1.00  0.00    -0.452 OA
ATOM      5  C   UNL     1      16.947  -2.579 -14.081  1.00  0.00     0.239 A 
ATOM      6  C   UNL     1      16.220  -0.352 -14.677  1.00  0.00     0.146 A 
ATOM      7  O   UNL     1      16.918  -3.628 -13.387  1.00  0.00    -0.285 OA
ATOM      8  C   UNL     1      16.129  -1.457 -13.787  1.00  0.00     0.111 A 
ATOM      9  C   UNL     1      15.398   0.764 -14.512  1.00  0.00     0.094 A 
ATOM     10  C   UNL     1      15.180  -1.392 -12.718  1.00  0.00     0.134 A 
ATOM     11  C   UNL     1      14.432   0.794 -13.507  1.00  0.00     0.123 A 
ATOM     12  C   UNL     1      14.333  -0.278 -12.616  1.00  0.00     0.093 A 
BRANCH   3  13
ATOM     13  C   UNL     1      18.747  -1.289 -17.149  1.00  0.00     0.025 A 
ATOM     14  C   UNL     1      18.534  -2.063 -18.298  1.00  0.00     0.016 A 
ATOM     15  C   UNL     1      19.417  -1.971 -19.383  1.00  0.00     0.051 A 
ATOM     16  C   UNL     1      20.506  -1.087 -19.335  1.00  0.00     0.157 A 
ATOM     17  C   UNL     1      19.858  -0.432 -17.090  1.00  0.00     0.062 A 
ATOM     18  C   UNL     1      20.722  -0.310 -18.189  1.00  0.00     0.158 A 
BRANCH  16  19
ATOM     19  O   UNL     1      21.370  -0.975 -20.423  1.00  0.00    -0.504 OA
ATOM     20  H   UNL     1      21.967  -1.743 -20.701  1.00  0.00     0.293 HD
ENDBRANCH  16  19
BRANCH  18  21
ATOM     21  O   UNL     1      21.781   0.591 -18.151  1.00  0.00    -0.504 OA
ATOM     22  H   UNL     1      21.863   1.342 -18.830  1.00  0.00     0.293 HD
ENDBRANCH  18  21
ENDBRANCH   3  13
BRANCH  10  23
ATOM     23  O   UNL     1      15.036  -2.371 -11.729  1.00  0.00    -0.507 OA
ATOM     24  H   UNL     1      14.961  -3.362 -11.890  1.00  0.00     0.293 HD
ENDBRANCH  10  23
BRANCH  11  25
ATOM     25  O   UNL     1      13.594   1.902 -13.383  1.00  0.00    -0.508 OA
ATOM     26  H   UNL     1      13.260   2.401 -14.201  1.00  0.00     0.293 HD
ENDBRANCH  11  25
ENDBRANCH   1   2
BRANCH   1  27
ATOM     27  C   UNL     1      17.920  -4.616 -16.689  1.00  0.00     0.339 C 
ATOM     28  C   UNL     1      16.493  -5.213 -16.480  1.00  0.00     0.214 C 
ATOM     29  O   UNL     1      18.860  -5.655 -16.907  1.00  0.00    -0.332 OA
ATOM     30  C   UNL     1      16.494  -6.255 -15.350  1.00  0.00     0.180 C 
ATOM     31  C   UNL     1      18.971  -6.489 -15.762  1.00  0.00     0.179 C 
ATOM     32  C   UNL     1      17.653  -7.264 -15.520  1.00  0.00     0.177 C 
BRANCH  28  33
ATOM     33  O   UNL     1      16.006  -5.806 -17.662  1.00  0.00    -0.384 OA
ATOM     34  H   UNL     1      15.118  -5.397 -17.855  1.00  0.00     0.211 HD
ENDBRANCH  28  33
BRANCH  30  35
ATOM     35  O   UNL     1      15.258  -6.922 -15.315  1.00  0.00    -0.387 OA
ATOM     36  H   UNL     1      14.737  -6.517 -14.574  1.00  0.00     0.211 HD
ENDBRANCH  30  35
BRANCH  31  37
ATOM     37  C   UNL     1      20.197  -7.405 -15.933  1.00  0.00     0.191 C 
BRANCH  37  38
ATOM     38  O   UNL     1      20.284  -7.983 -17.212  1.00  0.00    -0.394 OA
ATOM     39  H   UNL     1      19.681  -7.473 -17.816  1.00  0.00     0.210 HD
ENDBRANCH  37  38
ENDBRANCH  31  37
BRANCH  32  40
ATOM     40  O   UNL     1      17.375  -8.128 -16.596  1.00  0.00    -0.387 OA
ATOM     41  H   UNL     1      17.264  -7.554 -17.402  1.00  0.00     0.211 HD
ENDBRANCH  32  40
ENDBRANCH   1  27
TORSDOF 12
ENDMDL
MODEL 2
REMARK VINA RESULT:    -6.463      3.017      6.827
REMARK INTER + INTRA:         -10.267
REMARK INTER:                  -9.035
REMARK INTRA:                  -1.232
REMARK UNBOUND:                -0.782
REMARK SMILES O=c1c(O[C@H]2O[C@H](CO)[C@H](O)[C@H](O)[C@@H]2O)c(-c2ccc(O)c(O)c2)oc2cc(O)cc(O)c12
REMARK SMILES IDX 4 1 3 2 16 3 25 4 2 5 26 6 1 7 33 8 27 9 31 10 28 11 30 12
REMARK SMILES IDX 17 13 18 14 19 15 20 16 24 17 22 18 21 19 23 21 32 23 29 25
REMARK SMILES IDX 5 27 14 28 6 29 12 30 7 31 10 32 15 33 13 35 8 37 9 38 11 40
REMARK H PARENT 21 20 23 22 32 24 29 26 15 34 13 36 9 39 11 41
REMARK Flexibility Score: inf
ROOT
ATOM      1  O   UNL     1      17.186  -2.900 -11.847  1.00  0.00    -0.454 OA
ENDROOT
BRANCH   1   2
ATOM      2  C   UNL     1      16.750  -3.522 -13.028  1.00  0.00     0.214 A 
ATOM      3  C   UNL     1      16.783  -2.880 -14.275  1.00  0.00     0.180 A 
ATOM      4  O   UNL     1      16.570  -3.585 -15.379  1.00  0.00    -0.452 OA
ATOM      5  C   UNL     1      16.355  -4.862 -12.961  1.00  0.00     0.239 A 
ATOM      6  C   UNL     1      16.289  -4.883 -15.377  1.00  0.00     0.146 A 
ATOM      7  O   UNL     1      16.286  -5.400 -11.825  1.00  0.00    -0.285 OA
ATOM      8  C   UNL     1      16.133  -5.595 -14.157  1.00  0.00     0.111 A 
ATOM      9  C   UNL     1      16.166  -5.537 -16.604  1.00  0.00     0.094 A 
ATOM     10  C   UNL     1      15.842  -6.994 -14.219  1.00  0.00     0.134 A 
ATOM     11  C   UNL     1      15.945  -6.913 -16.657  1.00  0.00     0.123 A 
ATOM     12  C   UNL     1      15.779  -7.630 -15.468  1.00  0.00     0.093 A 
BRANCH   3  13
ATOM     13  C   UNL     1      17.098  -1.449 -14.413  1.00  0.00     0.025 A 
ATOM     14  C   UNL     1      16.075  -0.494 -14.513  1.00  0.00     0.016 A 
ATOM     15  C   UNL     1      16.391   0.862 -14.676  1.00  0.00     0.051 A 
ATOM     16  C   UNL     1      17.731   1.275 -14.717  1.00  0.00     0.157 A 
ATOM     17  C   UNL     1      18.438  -1.036 -14.491  1.00  0.00     0.062 A 
ATOM     18  C   UNL     1      18.757   0.325 -14.617  1.00  0.00     0.158 A 
BRANCH  16  19
ATOM     19  O   UNL     1      18.047   2.625 -14.853  1.00  0.00    -0.504 OA
ATOM     20  H   UNL     1      18.319   3.186 -14.055  1.00  0.00     0.293 HD
ENDBRANCH  16  19
BRANCH  18  21
ATOM     21  O   UNL     1      20.086   0.736 -14.624  1.00  0.00    -0.504 OA
ATOM     22  H   UNL     1      20.793   0.254 -14.078  1.00  0.00     0.293 HD
ENDBRANCH  18  21
ENDBRANCH   3  13
BRANCH  10  23
ATOM     23  O   UNL     1      15.592  -7.799 -13.103  1.00  0.00    -0.507 OA
ATOM     24  H   UNL     1      16.273  -8.082 -12.417  1.00  0.00     0.293 HD
ENDBRANCH  10  23
BRANCH  11  25
ATOM     25  O   UNL     1      15.864  -7.556 -17.892  1.00  0.00    -0.508 OA
ATOM     26  H   UNL     1      15.169  -7.283 -18.580  1.00  0.00     0.293 HD
ENDBRANCH  11  25
ENDBRANCH   1   2
BRANCH   1  27
ATOM     27  C   UNL     1      16.321  -2.331 -10.849  1.00  0.00     0.339 C 
ATOM     28  C   UNL     1      16.156  -0.783 -10.960  1.00  0.00     0.214 C 
ATOM     29  O   UNL     1      16.784  -2.685  -9.556  1.00  0.00    -0.332 OA
ATOM     30  C   UNL     1      17.461  -0.065 -10.583  1.00  0.00     0.180 C 
ATOM     31  C   UNL     1      18.080  -2.156  -9.318  1.00  0.00     0.179 C 
ATOM     32  C   UNL     1      18.038  -0.610  -9.256  1.00  0.00     0.177 C 
BRANCH  28  33
ATOM     33  O   UNL     1      15.111  -0.317 -10.138  1.00  0.00    -0.384 OA
ATOM     34  H   UNL     1      14.620  -1.115  -9.801  1.00  0.00     0.211 HD
ENDBRANCH  28  33
BRANCH  30  35
ATOM     35  O   UNL     1      17.234   1.319 -10.492  1.00  0.00    -0.387 OA
ATOM     36  H   UNL     1      16.845   1.602 -11.360  1.00  0.00     0.211 HD
ENDBRANCH  30  35
BRANCH  31  37
ATOM     37  C   UNL     1      18.653  -2.804  -8.043  1.00  0.00     0.191 C 
BRANCH  37  38
ATOM     38  O   UNL     1      17.938  -3.941  -7.629  1.00  0.00    -0.394 OA
ATOM     39  H   UNL     1      17.308  -3.659  -6.914  1.00  0.00     0.210 HD
ENDBRANCH  37  38
ENDBRANCH  31  37
BRANCH  32  40
ATOM     40  O   UNL     1      17.244  -0.173  -8.179  1.00  0.00    -0.387 OA
ATOM     41  H   UNL     1      16.336  -0.559  -8.318  1.00  0.00     0.211 HD
ENDBRANCH  32  40
ENDBRANCH   1  27
TORSDOF 12
ENDMDL
MODEL 3
REMARK VINA RESULT:    -6.455      2.649      7.093
REMARK INTER + INTRA:         -10.256
REMARK INTER:                  -9.169
REMARK INTRA:                  -1.087
REMARK UNBOUND:                -0.782
REMARK SMILES O=c1c(O[C@H]2O[C@H](CO)[C@H](O)[C@H](O)[C@@H]2O)c(-c2ccc(O)c(O)c2)oc2cc(O)cc(O)c12
REMARK SMILES IDX 4 1 3 2 16 3 25 4 2 5 26 6 1 7 33 8 27 9 31 10 28 11 30 12
REMARK SMILES IDX 17 13 18 14 19 15 20 16 24 17 22 18 21 19 23 21 32 23 29 25
REMARK SMILES IDX 5 27 14 28 6 29 12 30 7 31 10 32 15 33 13 35 8 37 9 38 11 40
REMARK H PARENT 21 20 23 22 32 24 29 26 15 34 13 36 9 39 11 41
REMARK Flexibility Score: inf
ROOT
ATOM      1  O   UNL     1      17.035  -3.223 -12.119  1.00  0.00    -0.454 OA
ENDROOT
BRANCH   1   2
ATOM      2  C   UNL     1      17.285  -3.933 -13.305  1.00  0.00     0.214 A 
ATOM      3  C   UNL     1      17.493  -3.293 -14.536  1.00  0.00     0.180 A 
ATOM      4  O   UNL     1      17.941  -3.995 -15.570  1.00  0.00    -0.452 OA
ATOM      5  C   UNL     1      17.420  -5.322 -13.226  1.00  0.00     0.239 A 
ATOM      6  C   UNL     1      18.180  -5.300 -15.521  1.00  0.00     0.146 A 
ATOM      7  O   UNL     1      17.180  -5.876 -12.122  1.00  0.00    -0.285 OA
ATOM      8  C   UNL     1      17.901  -6.051 -14.346  1.00  0.00     0.111 A 
ATOM      9  C   UNL     1      18.728  -5.918 -16.646  1.00  0.00     0.094 A 
ATOM     10  C   UNL     1      18.191  -7.452 -14.350  1.00  0.00     0.134 A 
ATOM     11  C   UNL     1      19.067  -7.270 -16.621  1.00  0.00     0.123 A 
ATOM     12  C   UNL     1      18.792  -8.027 -15.479  1.00  0.00     0.093 A 
BRANCH   3  13
ATOM     13  C   UNL     1      17.279  -1.848 -14.716  1.00  0.00     0.025 A 
ATOM     14  C   UNL     1      16.100  -1.235 -14.268  1.00  0.00     0.016 A 
ATOM     15  C   UNL     1      15.897   0.136 -14.476  1.00  0.00     0.051 A 
ATOM     16  C   UNL     1      16.880   0.909 -15.112  1.00  0.00     0.157 A 
ATOM     17  C   UNL     1      18.246  -1.080 -15.385  1.00  0.00     0.062 A 
ATOM     18  C   UNL     1      18.060   0.300 -15.560  1.00  0.00     0.158 A 
BRANCH  16  19
ATOM     19  O   UNL     1      16.691   2.276 -15.296  1.00  0.00    -0.504 OA
ATOM     20  H   UNL     1      15.777   2.657 -15.508  1.00  0.00     0.293 HD
ENDBRANCH  16  19
BRANCH  18  21
ATOM     21  O   UNL     1      19.052   1.070 -16.162  1.00  0.00    -0.504 OA
ATOM     22  H   UNL     1      19.107   2.072 -16.015  1.00  0.00     0.293 HD
ENDBRANCH  18  21
ENDBRANCH   3  13
BRANCH  10  23
ATOM     23  O   UNL     1      17.900  -8.321 -13.294  1.00  0.00    -0.507 OA
ATOM     24  H   UNL     1      17.447  -8.067 -12.430  1.00  0.00     0.293 HD
ENDBRANCH  10  23
BRANCH  11  25
ATOM     25  O   UNL     1      19.650  -7.860 -17.743  1.00  0.00    -0.508 OA
ATOM     26  H   UNL     1      19.174  -8.594 -18.256  1.00  0.00     0.293 HD
ENDBRANCH  11  25
ENDBRANCH   1   2
BRANCH   1  27
ATOM     27  C   UNL     1      18.028  -2.515 -11.358  1.00  0.00     0.339 C 
ATOM     28  C   UNL     1      18.480  -3.256 -10.061  1.00  0.00     0.214 C 
ATOM     29  O   UNL     1      17.554  -1.216 -11.043  1.00  0.00    -0.332 OA
ATOM     30  C   UNL     1      17.350  -3.277  -9.019  1.00  0.00     0.180 C 
ATOM     31  C   UNL     1      16.392  -1.283 -10.229  1.00  0.00     0.179 C 
ATOM     32  C   UNL     1      16.730  -1.872  -8.838  1.00  0.00     0.177 C 
BRANCH  28  33
ATOM     33  O   UNL     1      19.624  -2.656  -9.499  1.00  0.00    -0.384 OA
ATOM     34  H   UNL     1      19.363  -2.295  -8.608  1.00  0.00     0.211 HD
ENDBRANCH  28  33
BRANCH  30  35
ATOM     35  O   UNL     1      17.840  -3.763  -7.795  1.00  0.00    -0.387 OA
ATOM     36  H   UNL     1      18.202  -2.982  -7.302  1.00  0.00     0.211 HD
ENDBRANCH  30  35
BRANCH  31  37
ATOM     37  C   UNL     1      15.754   0.118 -10.161  1.00  0.00     0.191 C 
BRANCH  37  38
ATOM     38  O   UNL     1      14.446   0.156 -10.674  1.00  0.00    -0.394 OA
ATOM     39  H   UNL     1      14.207   1.110 -10.822  1.00  0.00     0.210 HD
ENDBRANCH  37  38
ENDBRANCH  31  37
BRANCH  32  40
ATOM     40  O   UNL     1      17.632  -1.041  -8.147  1.00  0.00    -0.387 OA
ATOM     41  H   UNL     1      17.686  -1.390  -7.216  1.00  0.00     0.211 HD
ENDBRANCH  32  40
ENDBRANCH   1  27
TORSDOF 12
ENDMDL
MODEL 4
REMARK VINA RESULT:    -6.367      2.313      5.572
REMARK INTER + INTRA:         -10.126
REMARK INTER:                  -8.897
REMARK INTRA:                  -1.229
REMARK UNBOUND:                -0.782
REMARK SMILES O=c1c(O[C@H]2O[C@H](CO)[C@H](O)[C@H](O)[C@@H]2O)c(-c2ccc(O)c(O)c2)oc2cc(O)cc(O)c12
REMARK SMILES IDX 4 1 3 2 16 3 25 4 2 5 26 6 1 7 33 8 27 9 31 10 28 11 30 12
REMARK SMILES IDX 17 13 18 14 19 15 20 16 24 17 22 18 21 19 23 21 32 23 29 25
REMARK SMILES IDX 5 27 14 28 6 29 12 30 7 31 10 32 15 33 13 35 8 37 9 38 11 40
REMARK H PARENT 21 20 23 22 32 24 29 26 15 34 13 36 9 39 11 41
REMARK Flexibility Score: inf
ROOT
ATOM      1  O   UNL     1      17.312  -3.900 -14.700  1.00  0.00    -0.454 OA
ENDROOT
BRANCH   1   2
ATOM      2  C   UNL     1      17.078  -2.543 -14.425  1.00  0.00     0.214 A 
ATOM      3  C   UNL     1      16.273  -2.119 -13.356  1.00  0.00     0.180 A 
ATOM      4  O   UNL     1      16.266  -0.838 -13.012  1.00  0.00    -0.452 OA
ATOM      5  C   UNL     1      17.750  -1.588 -15.194  1.00  0.00     0.239 A 
ATOM      6  C   UNL     1      16.964   0.096 -13.648  1.00  0.00     0.146 A 
ATOM      7  O   UNL     1      18.425  -1.992 -16.176  1.00  0.00    -0.285 OA
ATOM      8  C   UNL     1      17.727  -0.223 -14.804  1.00  0.00     0.111 A 
ATOM      9  C   UNL     1      16.945   1.397 -13.145  1.00  0.00     0.094 A 
ATOM     10  C   UNL     1      18.467   0.823 -15.440  1.00  0.00     0.134 A 
ATOM     11  C   UNL     1      17.718   2.398 -13.732  1.00  0.00     0.123 A 
ATOM     12  C   UNL     1      18.468   2.108 -14.875  1.00  0.00     0.093 A 
BRANCH   3  13
ATOM     13  C   UNL     1      15.464  -3.058 -12.562  1.00  0.00     0.025 A 
ATOM     14  C   UNL     1      16.070  -4.102 -11.848  1.00  0.00     0.016 A 
ATOM     15  C   UNL     1      15.284  -5.008 -11.122  1.00  0.00     0.051 A 
ATOM     16  C   UNL     1      13.889  -4.862 -11.086  1.00  0.00     0.157 A 
ATOM     17  C   UNL     1      14.065  -2.937 -12.553  1.00  0.00     0.062 A 
ATOM     18  C   UNL     1      13.279  -3.820 -11.797  1.00  0.00     0.158 A 
BRANCH  16  19
ATOM     19  O   UNL     1      13.108  -5.746 -10.344  1.00  0.00    -0.504 OA
ATOM     20  H   UNL     1      12.702  -6.571 -10.766  1.00  0.00     0.293 HD
ENDBRANCH  16  19
BRANCH  18  21
ATOM     21  O   UNL     1      11.899  -3.653 -11.736  1.00  0.00    -0.504 OA
ATOM     22  H   UNL     1      11.264  -4.433 -11.872  1.00  0.00     0.293 HD
ENDBRANCH  18  21
ENDBRANCH   3  13
BRANCH  10  23
ATOM     23  O   UNL     1      19.199   0.668 -16.622  1.00  0.00    -0.507 OA
ATOM     24  H   UNL     1      19.321  -0.194 -17.129  1.00  0.00     0.293 HD
ENDBRANCH  10  23
BRANCH  11  25
ATOM     25  O   UNL     1      17.715   3.684 -13.190  1.00  0.00    -0.508 OA
ATOM     26  H   UNL     1      18.508   4.306 -13.314  1.00  0.00     0.293 HD
ENDBRANCH  11  25
ENDBRANCH   1   2
BRANCH   1  27
ATOM     27  C   UNL     1      16.724  -4.633 -15.789  1.00  0.00     0.339 C 
ATOM     28  C   UNL     1      15.512  -5.523 -15.371  1.00  0.00     0.214 C 
ATOM     29  O   UNL     1      17.715  -5.419 -16.428  1.00  0.00    -0.332 OA
ATOM     30  C   UNL     1      15.974  -6.708 -14.508  1.00  0.00     0.180 C 
ATOM     31  C   UNL     1      18.253  -6.384 -15.536  1.00  0.00     0.179 C 
ATOM     32  C   UNL     1      17.181  -7.431 -15.148  1.00  0.00     0.177 C 
BRANCH  28  33
ATOM     33  O   UNL     1      14.818  -6.008 -16.498  1.00  0.00    -0.384 OA
ATOM     34  H   UNL     1      14.207  -6.729 -16.183  1.00  0.00     0.211 HD
ENDBRANCH  28  33
BRANCH  30  35
ATOM     35  O   UNL     1      14.907  -7.602 -14.316  1.00  0.00    -0.387 OA
ATOM     36  H   UNL     1      14.661  -7.550 -13.356  1.00  0.00     0.211 HD
ENDBRANCH  30  35
BRANCH  31  37
ATOM     37  C   UNL     1      19.511  -7.004 -16.175  1.00  0.00     0.191 C 
BRANCH  37  38
ATOM     38  O   UNL     1      19.343  -7.323 -17.533  1.00  0.00    -0.394 OA
ATOM     39  H   UNL     1      18.373  -7.258 -17.741  1.00  0.00     0.210 HD
ENDBRANCH  37  38
ENDBRANCH  31  37
BRANCH  32  40
ATOM     40  O   UNL     1      16.756  -8.154 -16.279  1.00  0.00    -0.387 OA
ATOM     41  H   UNL     1      16.791  -9.119 -16.031  1.00  0.00     0.211 HD
ENDBRANCH  32  40
ENDBRANCH   1  27
TORSDOF 12
ENDMDL
MODEL 5
REMARK VINA RESULT:    -6.364      3.645      6.979
REMARK INTER + INTRA:         -10.122
REMARK INTER:                  -8.385
REMARK INTRA:                  -1.736
REMARK UNBOUND:                -0.782
REMARK SMILES O=c1c(O[C@H]2O[C@H](CO)[C@H](O)[C@H](O)[C@@H]2O)c(-c2ccc(O)c(O)c2)oc2cc(O)cc(O)c12
REMARK SMILES IDX 4 1 3 2 16 3 25 4 2 5 26 6 1 7 33 8 27 9 31 10 28 11 30 12
REMARK SMILES IDX 17 13 18 14 19 15 20 16 24 17 22 18 21 19 23 21 32 23 29 25
REMARK SMILES IDX 5 27 14 28 6 29 12 30 7 31 10 32 15 33 13 35 8 37 9 38 11 40
REMARK H PARENT 21 20 23 22 32 24 29 26 15 34 13 36 9 39 11 41
REMARK Flexibility Score: inf
ROOT
ATOM      1  O   UNL     1      16.020  -1.139 -11.864  1.00  0.00    -0.454 OA
ENDROOT
BRANCH   1   2
ATOM      2  C   UNL     1      17.211  -1.666 -11.338  1.00  0.00     0.214 A 
ATOM      3  C   UNL     1      18.386  -1.776 -12.097  1.00  0.00     0.180 A 
ATOM      4  O   UNL     1      19.530  -2.071 -11.492  1.00  0.00    -0.452 OA
ATOM      5  C   UNL     1      17.240  -2.004  -9.982  1.00  0.00     0.239 A 
ATOM      6  C   UNL     1      19.630  -2.304 -10.189  1.00  0.00     0.146 A 
ATOM      7  O   UNL     1      16.162  -1.944  -9.336  1.00  0.00    -0.285 OA
ATOM      8  C   UNL     1      18.477  -2.316  -9.357  1.00  0.00     0.111 A 
ATOM      9  C   UNL     1      20.899  -2.523  -9.649  1.00  0.00     0.094 A 
ATOM     10  C   UNL     1      18.650  -2.562  -7.959  1.00  0.00     0.134 A 
ATOM     11  C   UNL     1      21.067  -2.699  -8.276  1.00  0.00     0.123 A 
ATOM     12  C   UNL     1      19.945  -2.723  -7.443  1.00  0.00     0.093 A 
BRANCH   3  13
ATOM     13  C   UNL     1      18.410  -1.527 -13.548  1.00  0.00     0.025 A 
ATOM     14  C   UNL     1      18.150  -2.561 -14.459  1.00  0.00     0.016 A 
ATOM     15  C   UNL     1      18.208  -2.315 -15.838  1.00  0.00     0.051 A 
ATOM     16  C   UNL     1      18.503  -1.029 -16.315  1.00  0.00     0.157 A 
ATOM     17  C   UNL     1      18.741  -0.250 -14.029  1.00  0.00     0.062 A 
ATOM     18  C   UNL     1      18.763   0.007 -15.408  1.00  0.00     0.158 A 
BRANCH  16  19
ATOM     19  O   UNL     1      18.536  -0.777 -17.685  1.00  0.00    -0.504 OA
ATOM     20  H   UNL     1      18.565   0.168 -18.046  1.00  0.00     0.293 HD
ENDBRANCH  16  19
BRANCH  18  21
ATOM     21  O   UNL     1      19.023   1.291 -15.878  1.00  0.00    -0.504 OA
ATOM     22  H   UNL     1      19.187   1.472 -16.863  1.00  0.00     0.293 HD
ENDBRANCH  18  21
ENDBRANCH   3  13
BRANCH  10  23
ATOM     23  O   UNL     1      17.601  -2.674  -7.041  1.00  0.00    -0.507 OA
ATOM     24  H   UNL     1      16.679  -3.027  -7.241  1.00  0.00     0.293 HD
ENDBRANCH  10  23
BRANCH  11  25
ATOM     25  O   UNL     1      22.347  -2.877  -7.751  1.00  0.00    -0.508 OA
ATOM     26  H   UNL     1      23.137  -3.081  -8.355  1.00  0.00     0.293 HD
ENDBRANCH  11  25
ENDBRANCH   1   2
BRANCH   1  27
ATOM     27  C   UNL     1      15.636   0.245 -11.809  1.00  0.00     0.339 C 
ATOM     28  C   UNL     1      14.191   0.481 -11.268  1.00  0.00     0.214 C 
ATOM     29  O   UNL     1      15.786   0.836 -13.089  1.00  0.00    -0.332 OA
ATOM     30  C   UNL     1      13.142  -0.017 -12.275  1.00  0.00     0.180 C 
ATOM     31  C   UNL     1      14.929   0.216 -14.037  1.00  0.00     0.179 C 
ATOM     32  C   UNL     1      13.445   0.497 -13.701  1.00  0.00     0.177 C 
BRANCH  28  33
ATOM     33  O   UNL     1      13.962   1.843 -10.991  1.00  0.00    -0.384 OA
ATOM     34  H   UNL     1      13.570   1.899 -10.077  1.00  0.00     0.211 HD
ENDBRANCH  28  33
BRANCH  30  35
ATOM     35  O   UNL     1      11.859   0.386 -11.865  1.00  0.00    -0.387 OA
ATOM     36  H   UNL     1      11.211  -0.167 -12.372  1.00  0.00     0.211 HD
ENDBRANCH  30  35
BRANCH  31  37
ATOM     37  C   UNL     1      15.335   0.681 -15.449  1.00  0.00     0.191 C 
BRANCH  37  38
ATOM     38  O   UNL     1      15.915   1.961 -15.467  1.00  0.00    -0.394 OA
ATOM     39  H   UNL     1      16.785   1.892 -15.943  1.00  0.00     0.210 HD
ENDBRANCH  37  38
ENDBRANCH  31  37
BRANCH  32  40
ATOM     40  O   UNL     1      13.165   1.874 -13.778  1.00  0.00    -0.387 OA
ATOM     41  H   UNL     1      12.510   2.074 -13.054  1.00  0.00     0.211 HD
ENDBRANCH  32  40
ENDBRANCH   1  27
TORSDOF 12
ENDMDL
MODEL 6
REMARK VINA RESULT:    -6.346      3.210      6.133
REMARK INTER + INTRA:         -10.096
REMARK INTER:                  -8.662
REMARK INTRA:                  -1.434
REMARK UNBOUND:                -0.782
REMARK SMILES O=c1c(O[C@H]2O[C@H](CO)[C@H](O)[C@H](O)[C@@H]2O)c(-c2ccc(O)c(O)c2)oc2cc(O)cc(O)c12
REMARK SMILES IDX 4 1 3 2 16 3 25 4 2 5 26 6 1 7 33 8 27 9 31 10 28 11 30 12
REMARK SMILES IDX 17 13 18 14 19 15 20 16 24 17 22 18 21 19 23 21 32 23 29 25
REMARK SMILES IDX 5 27 14 28 6 29 12 30 7 31 10 32 15 33 13 35 8 37 9 38 11 40
REMARK H PARENT 21 20 23 22 32 24 29 26 15 34 13 36 9 39 11 41
REMARK Flexibility Score: inf
ROOT
ATOM      1  O   UNL     1      17.176  -1.312 -11.526  1.00  0.00    -0.454 OA
ENDROOT
BRANCH   1   2
ATOM      2  C   UNL     1      15.957  -0.989 -12.145  1.00  0.00     0.214 A 
ATOM      3  C   UNL     1      15.484  -1.667 -13.278  1.00  0.00     0.180 A 
ATOM      4  O   UNL     1      14.236  -1.469 -13.684  1.00  0.00    -0.452 OA
ATOM      5  C   UNL     1      15.152  -0.015 -11.546  1.00  0.00     0.239 A 
ATOM      6  C   UNL     1      13.397  -0.629 -13.090  1.00  0.00     0.146 A 
ATOM      7  O   UNL     1      15.620   0.613 -10.561  1.00  0.00    -0.285 OA
ATOM      8  C   UNL     1      13.820   0.177 -11.998  1.00  0.00     0.111 A 
ATOM      9  C   UNL     1      12.082  -0.565 -13.554  1.00  0.00     0.094 A 
ATOM     10  C   UNL     1      12.867   1.056 -11.393  1.00  0.00     0.134 A 
ATOM     11  C   UNL     1      11.142   0.246 -12.919  1.00  0.00     0.123 A 
ATOM     12  C   UNL     1      11.540   1.053 -11.849  1.00  0.00     0.093 A 
BRANCH   3  13
ATOM     13  C   UNL     1      16.310  -2.636 -14.015  1.00  0.00     0.025 A 
ATOM     14  C   UNL     1      17.308  -2.204 -14.901  1.00  0.00     0.016 A 
ATOM     15  C   UNL     1      18.065  -3.139 -15.620  1.00  0.00     0.051 A 
ATOM     16  C   UNL     1      17.846  -4.513 -15.441  1.00  0.00     0.157 A 
ATOM     17  C   UNL     1      16.069  -4.012 -13.866  1.00  0.00     0.062 A 
ATOM     18  C   UNL     1      16.852  -4.950 -14.556  1.00  0.00     0.158 A 
BRANCH  16  19
ATOM     19  O   UNL     1      18.615  -5.444 -16.135  1.00  0.00    -0.504 OA
ATOM     20  H   UNL     1      18.217  -6.010 -16.874  1.00  0.00     0.293 HD
ENDBRANCH  16  19
BRANCH  18  21
ATOM     21  O   UNL     1      16.654  -6.313 -14.352  1.00  0.00    -0.504 OA
ATOM     22  H   UNL     1      16.793  -6.986 -15.098  1.00  0.00     0.293 HD
ENDBRANCH  18  21
ENDBRANCH   3  13
BRANCH  10  23
ATOM     23  O   UNL     1      13.164   1.954 -10.363  1.00  0.00    -0.507 OA
ATOM     24  H   UNL     1      12.495   2.383  -9.744  1.00  0.00     0.293 HD
ENDBRANCH  10  23
BRANCH  11  25
ATOM     25  O   UNL     1       9.823   0.266 -13.373  1.00  0.00    -0.508 OA
ATOM     26  H   UNL     1       9.177   0.990 -13.075  1.00  0.00     0.293 HD
ENDBRANCH  11  25
ENDBRANCH   1   2
BRANCH   1  27
ATOM     27  C   UNL     1      17.403  -2.476 -10.713  1.00  0.00     0.339 C 
ATOM     28  C   UNL     1      17.366  -2.193  -9.178  1.00  0.00     0.214 C 
ATOM     29  O   UNL     1      18.635  -3.079 -11.072  1.00  0.00    -0.332 OA
ATOM     30  C   UNL     1      18.581  -1.358  -8.745  1.00  0.00     0.180 C 
ATOM     31  C   UNL     1      19.722  -2.198 -10.831  1.00  0.00     0.179 C 
ATOM     32  C   UNL     1      19.894  -1.943  -9.314  1.00  0.00     0.177 C 
BRANCH  28  33
ATOM     33  O   UNL     1      17.333  -3.391  -8.436  1.00  0.00    -0.384 OA
ATOM     34  H   UNL     1      18.039  -3.988  -8.804  1.00  0.00     0.211 HD
ENDBRANCH  28  33
BRANCH  30  35
ATOM     35  O   UNL     1      18.636  -1.289  -7.342  1.00  0.00    -0.387 OA
ATOM     36  H   UNL     1      19.502  -0.863  -7.112  1.00  0.00     0.211 HD
ENDBRANCH  30  35
BRANCH  31  37
ATOM     37  C   UNL     1      20.984  -2.773 -11.502  1.00  0.00     0.191 C 
BRANCH  37  38
ATOM     38  O   UNL     1      21.028  -4.178 -11.491  1.00  0.00    -0.394 OA
ATOM     39  H   UNL     1      21.224  -4.467 -10.560  1.00  0.00     0.210 HD
ENDBRANCH  37  38
ENDBRANCH  31  37
BRANCH  32  40
ATOM     40  O   UNL     1      20.214  -3.136  -8.638  1.00  0.00    -0.387 OA
ATOM     41  H   UNL     1      19.368  -3.467  -8.226  1.00  0.00     0.211 HD
ENDBRANCH  32  40
ENDBRANCH   1  27
TORSDOF 12
ENDMDL
MODEL 7
REMARK VINA RESULT:    -6.267      4.280      7.068
REMARK INTER + INTRA:          -9.979
REMARK INTER:                  -8.246
REMARK INTRA:                  -1.734
REMARK UNBOUND:                -0.782
REMARK SMILES O=c1c(O[C@H]2O[C@H](CO)[C@H](O)[C@H](O)[C@@H]2O)c(-c2ccc(O)c(O)c2)oc2cc(O)cc(O)c12
REMARK SMILES IDX 4 1 3 2 16 3 25 4 2 5 26 6 1 7 33 8 27 9 31 10 28 11 30 12
REMARK SMILES IDX 17 13 18 14 19 15 20 16 24 17 22 18 21 19 23 21 32 23 29 25
REMARK SMILES IDX 5 27 14 28 6 29 12 30 7 31 10 32 15 33 13 35 8 37 9 38 11 40
REMARK H PARENT 21 20 23 22 32 24 29 26 15 34 13 36 9 39 11 41
REMARK Flexibility Score: inf
ROOT
ATOM      1  O   UNL     1      15.445  -6.631 -12.354  1.00  0.00    -0.454 OA
ENDROOT
BRANCH   1   2
ATOM      2  C   UNL     1      14.189  -6.326 -11.805  1.00  0.00     0.214 A 
ATOM      3  C   UNL     1      13.897  -5.073 -11.244  1.00  0.00     0.180 A 
ATOM      4  O   UNL     1      12.640  -4.769 -10.945  1.00  0.00    -0.452 OA
ATOM      5  C   UNL     1      13.174  -7.281 -11.910  1.00  0.00     0.239 A 
ATOM      6  C   UNL     1      11.623  -5.604 -11.117  1.00  0.00     0.146 A 
ATOM      7  O   UNL     1      13.474  -8.413 -12.371  1.00  0.00    -0.285 OA
ATOM      8  C   UNL     1      11.837  -6.930 -11.583  1.00  0.00     0.111 A 
ATOM      9  C   UNL     1      10.334  -5.145 -10.844  1.00  0.00     0.094 A 
ATOM     10  C   UNL     1      10.700  -7.780 -11.759  1.00  0.00     0.134 A 
ATOM     11  C   UNL     1       9.225  -5.958 -11.078  1.00  0.00     0.123 A 
ATOM     12  C   UNL     1       9.414  -7.268 -11.528  1.00  0.00     0.093 A 
BRANCH   3  13
ATOM     13  C   UNL     1      14.934  -4.053 -11.017  1.00  0.00     0.025 A 
ATOM     14  C   UNL     1      15.008  -2.911 -11.828  1.00  0.00     0.016 A 
ATOM     15  C   UNL     1      16.020  -1.964 -11.620  1.00  0.00     0.051 A 
ATOM     16  C   UNL     1      16.952  -2.141 -10.586  1.00  0.00     0.157 A 
ATOM     17  C   UNL     1      15.889  -4.245 -10.006  1.00  0.00     0.062 A 
ATOM     18  C   UNL     1      16.881  -3.280  -9.772  1.00  0.00     0.158 A 
BRANCH  16  19
ATOM     19  O   UNL     1      17.943  -1.188 -10.362  1.00  0.00    -0.504 OA
ATOM     20  H   UNL     1      18.781  -1.157 -10.929  1.00  0.00     0.293 HD
ENDBRANCH  16  19
BRANCH  18  21
ATOM     21  O   UNL     1      17.783  -3.441  -8.725  1.00  0.00    -0.504 OA
ATOM     22  H   UNL     1      18.706  -3.021  -8.751  1.00  0.00     0.293 HD
ENDBRANCH  18  21
ENDBRANCH   3  13
BRANCH  10  23
ATOM     23  O   UNL     1      10.770  -9.124 -12.140  1.00  0.00    -0.507 OA
ATOM     24  H   UNL     1      10.347  -9.897 -11.651  1.00  0.00     0.293 HD
ENDBRANCH  10  23
BRANCH  11  25
ATOM     25  O   UNL     1       7.942  -5.467 -10.837  1.00  0.00    -0.508 OA
ATOM     26  H   UNL     1       7.594  -4.648 -11.324  1.00  0.00     0.293 HD
ENDBRANCH  11  25
ENDBRANCH   1   2
BRANCH   1  27
ATOM     27  C   UNL     1      15.845  -6.348 -13.706  1.00  0.00     0.339 C 
ATOM     28  C   UNL     1      16.455  -7.573 -14.456  1.00  0.00     0.214 C 
ATOM     29  O   UNL     1      16.754  -5.260 -13.719  1.00  0.00    -0.332 OA
ATOM     30  C   UNL     1      17.828  -7.943 -13.875  1.00  0.00     0.180 C 
ATOM     31  C   UNL     1      17.939  -5.579 -13.005  1.00  0.00     0.179 C 
ATOM     32  C   UNL     1      18.730  -6.696 -13.729  1.00  0.00     0.177 C 
BRANCH  28  33
ATOM     33  O   UNL     1      16.585  -7.317 -15.836  1.00  0.00    -0.384 OA
ATOM     34  H   UNL     1      16.689  -6.332 -15.947  1.00  0.00     0.211 HD
ENDBRANCH  28  33
BRANCH  30  35
ATOM     35  O   UNL     1      18.446  -8.908 -14.689  1.00  0.00    -0.387 OA
ATOM     36  H   UNL     1      17.774  -9.183 -15.364  1.00  0.00     0.211 HD
ENDBRANCH  30  35
BRANCH  31  37
ATOM     37  C   UNL     1      18.755  -4.289 -12.797  1.00  0.00     0.191 C 
BRANCH  37  38
ATOM     38  O   UNL     1      18.722  -3.426 -13.906  1.00  0.00    -0.394 OA
ATOM     39  H   UNL     1      17.981  -3.723 -14.498  1.00  0.00     0.210 HD
ENDBRANCH  37  38
ENDBRANCH  31  37
BRANCH  32  40
ATOM     40  O   UNL     1      19.155  -6.266 -15.000  1.00  0.00    -0.387 OA
ATOM     41  H   UNL     1      18.507  -6.639 -15.659  1.00  0.00     0.211 HD
ENDBRANCH  32  40
ENDBRANCH   1  27
TORSDOF 12
ENDMDL
MODEL 8
REMARK VINA RESULT:    -6.250      4.455      7.497
REMARK INTER + INTRA:          -9.955
REMARK INTER:                  -8.234
REMARK INTRA:                  -1.721
REMARK UNBOUND:                -0.782
REMARK SMILES O=c1c(O[C@H]2O[C@H](CO)[C@H](O)[C@H](O)[C@@H]2O)c(-c2ccc(O)c(O)c2)oc2cc(O)cc(O)c12
REMARK SMILES IDX 4 1 3 2 16 3 25 4 2 5 26 6 1 7 33 8 27 9 31 10 28 11 30 12
REMARK SMILES IDX 17 13 18 14 19 15 20 16 24 17 22 18 21 19 23 21 32 23 29 25
REMARK SMILES IDX 5 27 14 28 6 29 12 30 7 31 10 32 15 33 13 35 8 37 9 38 11 40
REMARK H PARENT 21 20 23 22 32 24 29 26 15 34 13 36 9 39 11 41
REMARK Flexibility Score: inf
ROOT
ATOM      1  O   UNL     1      17.367  -0.076 -11.820  1.00  0.00    -0.454 OA
ENDROOT
BRANCH   1   2
ATOM      2  C   UNL     1      16.793   0.391 -13.014  1.00  0.00     0.214 A 
ATOM      3  C   UNL     1      15.869  -0.365 -13.752  1.00  0.00     0.180 A 
ATOM      4  O   UNL     1      15.198   0.209 -14.742  1.00  0.00    -0.452 OA
ATOM      5  C   UNL     1      17.090   1.694 -13.423  1.00  0.00     0.239 A 
ATOM      6  C   UNL     1      15.371   1.474 -15.108  1.00  0.00     0.146 A 
ATOM      7  O   UNL     1      17.958   2.333 -12.773  1.00  0.00    -0.285 OA
ATOM      8  C   UNL     1      16.358   2.286 -14.486  1.00  0.00     0.111 A 
ATOM      9  C   UNL     1      14.550   1.993 -16.110  1.00  0.00     0.094 A 
ATOM     10  C   UNL     1      16.489   3.644 -14.916  1.00  0.00     0.134 A 
ATOM     11  C   UNL     1      14.641   3.335 -16.480  1.00  0.00     0.123 A 
ATOM     12  C   UNL     1      15.610   4.148 -15.886  1.00  0.00     0.093 A 
BRANCH   3  13
ATOM     13  C   UNL     1      15.576  -1.772 -13.436  1.00  0.00     0.025 A 
ATOM     14  C   UNL     1      16.471  -2.791 -13.793  1.00  0.00     0.016 A 
ATOM     15  C   UNL     1      16.163  -4.130 -13.514  1.00  0.00     0.051 A 
ATOM     16  C   UNL     1      14.968  -4.457 -12.855  1.00  0.00     0.157 A 
ATOM     17  C   UNL     1      14.365  -2.107 -12.809  1.00  0.00     0.062 A 
ATOM     18  C   UNL     1      14.071  -3.443 -12.495  1.00  0.00     0.158 A 
BRANCH  16  19
ATOM     19  O   UNL     1      14.672  -5.785 -12.554  1.00  0.00    -0.504 OA
ATOM     20  H   UNL     1      15.159  -6.279 -11.816  1.00  0.00     0.293 HD
ENDBRANCH  16  19
BRANCH  18  21
ATOM     21  O   UNL     1      12.901  -3.762 -11.812  1.00  0.00    -0.504 OA
ATOM     22  H   UNL     1      12.554  -4.714 -11.771  1.00  0.00     0.293 HD
ENDBRANCH  18  21
ENDBRANCH   3  13
BRANCH  10  23
ATOM     23  O   UNL     1      17.463   4.531 -14.444  1.00  0.00    -0.507 OA
ATOM     24  H   UNL     1      18.328   4.272 -13.997  1.00  0.00     0.293 HD
ENDBRANCH  10  23
BRANCH  11  25
ATOM     25  O   UNL     1      13.784   3.845 -17.455  1.00  0.00    -0.508 OA
ATOM     26  H   UNL     1      13.938   4.763 -17.860  1.00  0.00     0.293 HD
ENDBRANCH  11  25
ENDBRANCH   1   2
BRANCH   1  27
ATOM     27  C   UNL     1      16.781   0.064 -10.514  1.00  0.00     0.339 C 
ATOM     28  C   UNL     1      17.755   0.644  -9.442  1.00  0.00     0.214 C 
ATOM     29  O   UNL     1      16.263  -1.184 -10.085  1.00  0.00    -0.332 OA
ATOM     30  C   UNL     1      18.860  -0.368  -9.100  1.00  0.00     0.180 C 
ATOM     31  C   UNL     1      17.298  -2.149  -9.963  1.00  0.00     0.179 C 
ATOM     32  C   UNL     1      18.270  -1.769  -8.819  1.00  0.00     0.177 C 
BRANCH  28  33
ATOM     33  O   UNL     1      17.069   1.002  -8.264  1.00  0.00    -0.384 OA
ATOM     34  H   UNL     1      16.112   1.135  -8.507  1.00  0.00     0.211 HD
ENDBRANCH  28  33
BRANCH  30  35
ATOM     35  O   UNL     1      19.599   0.089  -7.995  1.00  0.00    -0.387 OA
ATOM     36  H   UNL     1      19.064  -0.124  -7.187  1.00  0.00     0.211 HD
ENDBRANCH  30  35
BRANCH  31  37
ATOM     37  C   UNL     1      16.660  -3.540  -9.786  1.00  0.00     0.191 C 
BRANCH  37  38
ATOM     38  O   UNL     1      17.281  -4.313  -8.790  1.00  0.00    -0.394 OA
ATOM     39  H   UNL     1      16.568  -4.784  -8.284  1.00  0.00     0.210 HD
ENDBRANCH  37  38
ENDBRANCH  31  37
BRANCH  32  40
ATOM     40  O   UNL     1      17.605  -1.763  -7.578  1.00  0.00    -0.387 OA
ATOM     41  H   UNL     1      18.117  -2.371  -6.977  1.00  0.00     0.211 HD
ENDBRANCH  32  40
ENDBRANCH   1  27
TORSDOF 12
ENDMDL
MODEL 9
REMARK VINA RESULT:    -6.155      3.939      6.057
REMARK INTER + INTRA:          -9.816
REMARK INTER:                  -8.280
REMARK INTRA:                  -1.536
REMARK UNBOUND:                -0.782
REMARK SMILES O=c1c(O[C@H]2O[C@H](CO)[C@H](O)[C@H](O)[C@@H]2O)c(-c2ccc(O)c(O)c2)oc2cc(O)cc(O)c12
REMARK SMILES IDX 4 1 3 2 16 3 25 4 2 5 26 6 1 7 33 8 27 9 31 10 28 11 30 12
REMARK SMILES IDX 17 13 18 14 19 15 20 16 24 17 22 18 21 19 23 21 32 23 29 25
REMARK SMILES IDX 5 27 14 28 6 29 12 30 7 31 10 32 15 33 13 35 8 37 9 38 11 40
REMARK H PARENT 21 20 23 22 32 24 29 26 15 34 13 36 9 39 11 41
REMARK Flexibility Score: inf
ROOT
ATOM      1  O   UNL     1      15.666  -3.208 -12.305  1.00  0.00    -0.454 OA
ENDROOT
BRANCH   1   2
ATOM      2  C   UNL     1      14.980  -2.061 -11.876  1.00  0.00     0.214 A 
ATOM      3  C   UNL     1      15.512  -1.176 -10.925  1.00  0.00     0.180 A 
ATOM      4  O   UNL     1      14.925  -0.003 -10.724  1.00  0.00    -0.452 OA
ATOM      5  C   UNL     1      13.763  -1.750 -12.491  1.00  0.00     0.239 A 
ATOM      6  C   UNL     1      13.822   0.383 -11.354  1.00  0.00     0.146 A 
ATOM      7  O   UNL     1      13.283  -2.584 -13.302  1.00  0.00    -0.285 OA
ATOM      8  C   UNL     1      13.155  -0.489 -12.258  1.00  0.00     0.111 A 
ATOM      9  C   UNL     1      13.341   1.672 -11.122  1.00  0.00     0.094 A 
ATOM     10  C   UNL     1      11.977  -0.012 -12.916  1.00  0.00     0.134 A 
ATOM     11  C   UNL     1      12.230   2.152 -11.815  1.00  0.00     0.123 A 
ATOM     12  C   UNL     1      11.554   1.308 -12.701  1.00  0.00     0.093 A 
BRANCH   3  13
ATOM     13  C   UNL     1      16.739  -1.479 -10.171  1.00  0.00     0.025 A 
ATOM     14  C   UNL     1      17.897  -0.707 -10.340  1.00  0.00     0.016 A 
ATOM     15  C   UNL     1      19.067  -1.028  -9.638  1.00  0.00     0.051 A 
ATOM     16  C   UNL     1      19.081  -2.109  -8.745  1.00  0.00     0.157 A 
ATOM     17  C   UNL     1      16.767  -2.583  -9.303  1.00  0.00     0.062 A 
ATOM     18  C   UNL     1      17.926  -2.884  -8.571  1.00  0.00     0.158 A 
BRANCH  16  19
ATOM     19  O   UNL     1      20.235  -2.414  -8.027  1.00  0.00    -0.504 OA
ATOM     20  H   UNL     1      20.648  -1.748  -7.386  1.00  0.00     0.293 HD
ENDBRANCH  16  19
BRANCH  18  21
ATOM     21  O   UNL     1      17.927  -3.937  -7.661  1.00  0.00    -0.504 OA
ATOM     22  H   UNL     1      17.539  -3.832  -6.729  1.00  0.00     0.293 HD
ENDBRANCH  18  21
ENDBRANCH   3  13
BRANCH  10  23
ATOM     23  O   UNL     1      11.183  -0.784 -13.771  1.00  0.00    -0.507 OA
ATOM     24  H   UNL     1      10.198  -0.655 -13.935  1.00  0.00     0.293 HD
ENDBRANCH  10  23
BRANCH  11  25
ATOM     25  O   UNL     1      11.787   3.457 -11.598  1.00  0.00    -0.508 OA
ATOM     26  H   UNL     1      10.801   3.663 -11.480  1.00  0.00     0.293 HD
ENDBRANCH  11  25
ENDBRANCH   1   2
BRANCH   1  27
ATOM     27  C   UNL     1      16.392  -3.319 -13.541  1.00  0.00     0.339 C 
ATOM     28  C   UNL     1      16.164  -4.669 -14.291  1.00  0.00     0.214 C 
ATOM     29  O   UNL     1      17.775  -3.116 -13.304  1.00  0.00    -0.332 OA
ATOM     30  C   UNL     1      16.810  -5.836 -13.529  1.00  0.00     0.180 C 
ATOM     31  C   UNL     1      18.295  -4.115 -12.438  1.00  0.00     0.179 C 
ATOM     32  C   UNL     1      18.264  -5.503 -13.122  1.00  0.00     0.177 C 
BRANCH  28  33
ATOM     33  O   UNL     1      16.681  -4.622 -15.601  1.00  0.00    -0.384 OA
ATOM     34  H   UNL     1      17.344  -5.361 -15.685  1.00  0.00     0.211 HD
ENDBRANCH  28  33
BRANCH  30  35
ATOM     35  O   UNL     1      16.771  -7.000 -14.316  1.00  0.00    -0.387 OA
ATOM     36  H   UNL     1      16.871  -7.767 -13.695  1.00  0.00     0.211 HD
ENDBRANCH  30  35
BRANCH  31  37
ATOM     37  C   UNL     1      19.703  -3.690 -11.980  1.00  0.00     0.191 C 
BRANCH  37  38
ATOM     38  O   UNL     1      20.611  -4.760 -11.912  1.00  0.00    -0.394 OA
ATOM     39  H   UNL     1      21.432  -4.433 -11.457  1.00  0.00     0.210 HD
ENDBRANCH  37  38
ENDBRANCH  31  37
BRANCH  32  40
ATOM     40  O   UNL     1      19.091  -5.519 -14.261  1.00  0.00    -0.387 OA
ATOM     41  H   UNL     1      20.031  -5.547 -13.932  1.00  0.00     0.211 HD
ENDBRANCH  32  40
ENDBRANCH   1  27
TORSDOF 12
ENDMDL
