MODEL 1
REMARK VINA RESULT:    -4.040      0.000      0.000
REMARK INTER + INTRA:          -6.431
REMARK INTER:                  -6.166
REMARK INTRA:                  -0.265
REMARK UNBOUND:                -0.265
REMARK SMILES CC1=CCC[C@H](C)C(=O)C[C@@H](C(C)C)C(=O)C1
REMARK SMILES IDX 8 1 9 2 6 3 7 4 5 5 4 6 3 7 2 8 1 9 10 11 11 12 15 13 16 14
REMARK SMILES IDX 17 15 12 17 13 18 14 19
REMARK H PARENT
REMARK Flexibility Score: 70.00
ROOT
ATOM      1  C   UNL     1      37.395  22.747  27.021  1.00  0.00     0.136 C 
ATOM      2  O   UNL     1      36.334  23.265  27.340  1.00  0.00    -0.299 OA
ENDROOT
BRANCH   1   3
ATOM      3  C   UNL     1      38.573  22.898  27.981  1.00  0.00     0.053 C 
ATOM      4  C   UNL     1      38.813  24.393  28.235  1.00  0.00     0.016 C 
BRANCH   3   5
ATOM      5  C   UNL     1      38.469  22.153  29.339  1.00  0.00     0.015 C 
BRANCH   5   6
ATOM      6  C   UNL     1      38.944  20.680  29.295  1.00  0.00     0.028 C 
BRANCH   6   7
ATOM      7  C   UNL     1      40.285  20.556  28.607  1.00  0.00    -0.028 C 
ATOM      8  C   UNL     1      40.545  19.800  27.513  1.00  0.00    -0.070 CG0
ATOM      9  C   UNL     1      41.964  19.758  27.007  1.00  0.00     0.039 C 
ATOM     10  G   UNL     1      39.476  19.016  26.774  1.00  0.00     0.000 G0
ENDBRANCH   6   7
ENDBRANCH   5   6
ENDBRANCH   3   5
ENDBRANCH   1   3
BRANCH   1  11
ATOM     11  C   UNL     1      37.436  21.962  25.724  1.00  0.00     0.087 C 
BRANCH  11  12
ATOM     12  C   UNL     1      37.406  20.418  25.918  1.00  0.00     0.066 C 
BRANCH  12  13
ATOM     13  C   UNL     1      38.797  19.843  25.699  1.00  0.00     0.140 C 
ATOM     14  O   UNL     1      39.370  20.034  24.635  1.00  0.00    -0.299 OA
BRANCH  13  15
ATOM     15  C   UNL     1      39.485  19.014  26.750  1.00  0.00     0.106 CG0
ATOM     16  G   UNL     1      40.532  19.801  27.515  1.00  0.00     0.000 G0
ENDBRANCH  13  15
ENDBRANCH  12  13
BRANCH  12  17
ATOM     17  C   UNL     1      36.340  19.669  25.051  1.00  0.00    -0.006 C 
ATOM     18  C   UNL     1      35.967  18.318  25.693  1.00  0.00     0.008 C 
ATOM     19  C   UNL     1      35.055  20.493  24.851  1.00  0.00     0.008 C 
ENDBRANCH  12  17
ENDBRANCH  11  12
ENDBRANCH   1  11
TORSDOF 1
ENDMDL
MODEL 2
REMARK VINA RESULT:    -3.796      2.052      3.840
REMARK INTER + INTRA:          -6.059
REMARK INTER:                  -5.880
REMARK INTRA:                  -0.179
REMARK UNBOUND:                -0.265
REMARK SMILES CC1=CCC[C@H](C)C(=O)C[C@@H](C(C)C)C(=O)C1
REMARK SMILES IDX 8 1 9 2 6 3 7 4 5 5 4 6 3 7 2 8 1 9 10 11 11 12 15 13 16 14
REMARK SMILES IDX 17 15 12 17 13 18 14 19
REMARK H PARENT
REMARK Flexibility Score: 70.00
ROOT
ATOM      1  C   UNL     1      36.754  19.099  25.200  1.00  0.00     0.136 C 
ATOM      2  O   UNL     1      36.040  18.214  25.651  1.00  0.00    -0.299 OA
ENDROOT
BRANCH   1   3
ATOM      3  C   UNL     1      36.116  20.463  24.948  1.00  0.00     0.053 C 
ATOM      4  C   UNL     1      34.669  20.251  24.479  1.00  0.00     0.016 C 
BRANCH   3   5
ATOM      5  C   UNL     1      36.135  21.472  26.128  1.00  0.00     0.015 C 
BRANCH   5   6
ATOM      6  C   UNL     1      37.511  22.137  26.375  1.00  0.00     0.028 C 
BRANCH   6   7
ATOM      7  C   UNL     1      38.086  21.727  27.713  1.00  0.00    -0.028 C 
ATOM      8  C   UNL     1      39.143  20.901  27.900  1.00  0.00    -0.070 CG0
ATOM      9  C   UNL     1      39.531  20.562  29.316  1.00  0.00     0.039 C 
ATOM     10  G   UNL     1      39.955  20.322  26.756  1.00  0.00     0.000 G0
ENDBRANCH   6   7
ENDBRANCH   5   6
ENDBRANCH   3   5
ENDBRANCH   1   3
BRANCH   1  11
ATOM     11  C   UNL     1      38.219  18.777  24.973  1.00  0.00     0.087 C 
BRANCH  11  12
ATOM     12  C   UNL     1      38.882  17.991  26.141  1.00  0.00     0.066 C 
BRANCH  12  13
ATOM     13  C   UNL     1      39.998  18.823  26.754  1.00  0.00     0.140 C 
ATOM     14  O   UNL     1      40.946  18.264  27.288  1.00  0.00    -0.299 OA
BRANCH  13  15
ATOM     15  C   UNL     1      39.958  20.328  26.748  1.00  0.00     0.106 CG0
ATOM     16  G   UNL     1      39.127  20.889  27.887  1.00  0.00     0.000 G0
ENDBRANCH  13  15
ENDBRANCH  12  13
BRANCH  12  17
ATOM     17  C   UNL     1      39.384  16.557  25.765  1.00  0.00    -0.006 C 
ATOM     18  C   UNL     1      38.640  15.487  26.586  1.00  0.00     0.008 C 
ATOM     19  C   UNL     1      39.211  16.243  24.268  1.00  0.00     0.008 C 
ENDBRANCH  12  17
ENDBRANCH  11  12
ENDBRANCH   1  11
TORSDOF 1
ENDMDL
MODEL 3
REMARK VINA RESULT:    -3.616      3.158      5.774
REMARK INTER + INTRA:          -5.784
REMARK INTER:                  -5.575
REMARK INTRA:                  -0.209
REMARK UNBOUND:                -0.265
REMARK SMILES CC1=CCC[C@H](C)C(=O)C[C@@H](C(C)C)C(=O)C1
REMARK SMILES IDX 8 1 9 2 6 3 7 4 5 5 4 6 3 7 2 8 1 9 10 11 11 12 15 13 16 14
REMARK SMILES IDX 17 15 12 17 13 18 14 19
REMARK H PARENT
REMARK Flexibility Score: 70.00
ROOT
ATOM      1  C   UNL     1      38.819  24.346  28.269  1.00  0.00     0.136 C 
ATOM      2  O   UNL     1      38.976  24.897  27.188  1.00  0.00    -0.299 OA
ENDROOT
BRANCH   1   3
ATOM      3  C   UNL     1      37.848  23.170  28.329  1.00  0.00     0.053 C 
ATOM      4  C   UNL     1      36.525  23.590  27.672  1.00  0.00     0.016 C 
BRANCH   3   5
ATOM      5  C   UNL     1      38.331  21.831  27.710  1.00  0.00     0.015 C 
BRANCH   5   6
ATOM      6  C   UNL     1      39.160  20.947  28.672  1.00  0.00     0.028 C 
BRANCH   6   7
ATOM      7  C   UNL     1      38.464  20.783  30.005  1.00  0.00    -0.028 C 
ATOM      8  C   UNL     1      38.989  21.096  31.214  1.00  0.00    -0.070 CG0
ATOM      9  C   UNL     1      38.161  20.804  32.439  1.00  0.00     0.039 C 
ATOM     10  G   UNL     1      40.354  21.737  31.385  1.00  0.00     0.000 G0
ENDBRANCH   6   7
ENDBRANCH   5   6
ENDBRANCH   3   5
ENDBRANCH   1   3
BRANCH   1  11
ATOM     11  C   UNL     1      39.638  24.849  29.442  1.00  0.00     0.087 C 
BRANCH  11  12
ATOM     12  C   UNL     1      40.748  23.863  29.909  1.00  0.00     0.066 C 
BRANCH  12  13
ATOM     13  C   UNL     1      40.346  23.219  31.226  1.00  0.00     0.140 C 
ATOM     14  O   UNL     1      40.028  23.926  32.173  1.00  0.00    -0.299 OA
BRANCH  13  15
ATOM     15  C   UNL     1      40.356  21.726  31.412  1.00  0.00     0.106 CG0
ATOM     16  G   UNL     1      38.985  21.107  31.207  1.00  0.00     0.000 G0
ENDBRANCH  13  15
ENDBRANCH  12  13
BRANCH  12  17
ATOM     17  C   UNL     1      42.182  24.484  29.994  1.00  0.00    -0.006 C 
ATOM     18  C   UNL     1      43.120  23.834  28.959  1.00  0.00     0.008 C 
ATOM     19  C   UNL     1      42.182  26.007  29.775  1.00  0.00     0.008 C 
ENDBRANCH  12  17
ENDBRANCH  11  12
ENDBRANCH   1  11
TORSDOF 1
ENDMDL
MODEL 4
REMARK VINA RESULT:    -3.576      1.941      4.248
REMARK INTER + INTRA:          -5.723
REMARK INTER:                  -5.562
REMARK INTRA:                  -0.162
REMARK UNBOUND:                -0.265
REMARK SMILES CC1=CCC[C@H](C)C(=O)C[C@@H](C(C)C)C(=O)C1
REMARK SMILES IDX 8 1 9 2 6 3 7 4 5 5 4 6 3 7 2 8 1 9 10 11 11 12 15 13 16 14
REMARK SMILES IDX 17 15 12 17 13 18 14 19
REMARK H PARENT
REMARK Flexibility Score: 70.00
ROOT
ATOM      1  C   UNL     1      39.633  20.525  28.339  1.00  0.00     0.136 C 
ATOM      2  O   UNL     1      40.577  21.198  28.728  1.00  0.00    -0.299 OA
ENDROOT
BRANCH   1   3
ATOM      3  C   UNL     1      38.229  20.997  28.707  1.00  0.00     0.053 C 
ATOM      4  C   UNL     1      38.097  21.005  30.237  1.00  0.00     0.016 C 
BRANCH   3   5
ATOM      5  C   UNL     1      37.782  22.371  28.141  1.00  0.00     0.015 C 
BRANCH   5   6
ATOM      6  C   UNL     1      37.343  22.337  26.657  1.00  0.00     0.028 C 
BRANCH   6   7
ATOM      7  C   UNL     1      36.435  21.160  26.379  1.00  0.00    -0.028 C 
ATOM      8  C   UNL     1      36.659  20.188  25.463  1.00  0.00    -0.070 CG0
ATOM      9  C   UNL     1      35.604  19.126  25.290  1.00  0.00     0.039 C 
ATOM     10  G   UNL     1      37.922  20.114  24.625  1.00  0.00     0.000 G0
ENDBRANCH   6   7
ENDBRANCH   5   6
ENDBRANCH   3   5
ENDBRANCH   1   3
BRANCH   1  11
ATOM     11  C   UNL     1      39.938  19.307  27.488  1.00  0.00     0.087 C 
BRANCH  11  12
ATOM     12  C   UNL     1      40.141  19.625  25.978  1.00  0.00     0.066 C 
BRANCH  12  13
ATOM     13  C   UNL     1      38.936  19.145  25.183  1.00  0.00     0.140 C 
ATOM     14  O   UNL     1      38.791  17.950  24.967  1.00  0.00    -0.299 OA
BRANCH  13  15
ATOM     15  C   UNL     1      37.923  20.108  24.625  1.00  0.00     0.106 CG0
ATOM     16  G   UNL     1      36.656  20.164  25.459  1.00  0.00     0.000 G0
ENDBRANCH  13  15
ENDBRANCH  12  13
BRANCH  12  17
ATOM     17  C   UNL     1      41.476  19.084  25.367  1.00  0.00    -0.006 C 
ATOM     18  C   UNL     1      41.541  19.374  23.856  1.00  0.00     0.008 C 
ATOM     19  C   UNL     1      42.722  19.685  26.041  1.00  0.00     0.008 C 
ENDBRANCH  12  17
ENDBRANCH  11  12
ENDBRANCH   1  11
TORSDOF 1
ENDMDL
MODEL 5
REMARK VINA RESULT:    -3.492      2.264      4.531
REMARK INTER + INTRA:          -5.594
REMARK INTER:                  -5.359
REMARK INTRA:                  -0.235
REMARK UNBOUND:                -0.265
REMARK SMILES CC1=CCC[C@H](C)C(=O)C[C@@H](C(C)C)C(=O)C1
REMARK SMILES IDX 8 1 9 2 6 3 7 4 5 5 4 6 3 7 2 8 1 9 10 11 11 12 15 13 16 14
REMARK SMILES IDX 17 15 12 17 13 18 14 19
REMARK H PARENT
REMARK Flexibility Score: 70.00
ROOT
ATOM      1  C   UNL     1      38.016  17.378  25.453  1.00  0.00     0.136 C 
ATOM      2  O   UNL     1      37.155  17.154  24.613  1.00  0.00    -0.299 OA
ENDROOT
BRANCH   1   3
ATOM      3  C   UNL     1      39.399  16.773  25.227  1.00  0.00     0.053 C 
ATOM      4  C   UNL     1      39.233  15.297  24.836  1.00  0.00     0.016 C 
BRANCH   3   5
ATOM      5  C   UNL     1      40.313  17.483  24.192  1.00  0.00     0.015 C 
BRANCH   5   6
ATOM      6  C   UNL     1      41.271  18.534  24.803  1.00  0.00     0.028 C 
BRANCH   6   7
ATOM      7  C   UNL     1      41.697  18.142  26.200  1.00  0.00    -0.028 C 
ATOM      8  C   UNL     1      41.480  18.866  27.324  1.00  0.00    -0.070 CG0
ATOM      9  C   UNL     1      42.035  18.336  28.621  1.00  0.00     0.039 C 
ATOM     10  G   UNL     1      40.694  20.163  27.337  1.00  0.00     0.000 G0
ENDBRANCH   6   7
ENDBRANCH   5   6
ENDBRANCH   3   5
ENDBRANCH   1   3
BRANCH   1  11
ATOM     11  C   UNL     1      37.648  18.275  26.619  1.00  0.00     0.087 C 
BRANCH  11  12
ATOM     12  C   UNL     1      38.220  19.717  26.514  1.00  0.00     0.066 C 
BRANCH  12  13
ATOM     13  C   UNL     1      39.223  19.957  27.632  1.00  0.00     0.140 C 
ATOM     14  O   UNL     1      38.838  20.000  28.792  1.00  0.00    -0.299 OA
BRANCH  13  15
ATOM     15  C   UNL     1      40.686  20.175  27.349  1.00  0.00     0.106 CG0
ATOM     16  G   UNL     1      41.470  18.876  27.321  1.00  0.00     0.000 G0
ENDBRANCH  13  15
ENDBRANCH  12  13
BRANCH  12  17
ATOM     17  C   UNL     1      37.141  20.850  26.467  1.00  0.00    -0.006 C 
ATOM     18  C   UNL     1      37.803  22.238  26.566  1.00  0.00     0.008 C 
ATOM     19  C   UNL     1      36.285  20.799  25.189  1.00  0.00     0.008 C 
ENDBRANCH  12  17
ENDBRANCH  11  12
ENDBRANCH   1  11
TORSDOF 1
ENDMDL
MODEL 6
REMARK VINA RESULT:    -3.488      3.618      5.865
REMARK INTER + INTRA:          -5.588
REMARK INTER:                  -5.583
REMARK INTRA:                  -0.004
REMARK UNBOUND:                -0.265
REMARK SMILES CC1=CCC[C@H](C)C(=O)C[C@@H](C(C)C)C(=O)C1
REMARK SMILES IDX 8 1 9 2 6 3 7 4 5 5 4 6 3 7 2 8 1 9 10 11 11 12 15 13 16 14
REMARK SMILES IDX 17 15 12 17 13 18 14 19
REMARK H PARENT
REMARK Flexibility Score: 70.00
ROOT
ATOM      1  C   UNL     1      39.282  18.806  26.024  1.00  0.00     0.136 C 
ATOM      2  O   UNL     1      38.874  19.898  25.655  1.00  0.00    -0.299 OA
ENDROOT
BRANCH   1   3
ATOM      3  C   UNL     1      38.289  17.647  26.037  1.00  0.00     0.053 C 
ATOM      4  C   UNL     1      36.964  18.141  26.637  1.00  0.00     0.016 C 
BRANCH   3   5
ATOM      5  C   UNL     1      38.013  16.946  24.680  1.00  0.00     0.015 C 
BRANCH   5   6
ATOM      6  C   UNL     1      39.121  15.962  24.234  1.00  0.00     0.028 C 
BRANCH   6   7
ATOM      7  C   UNL     1      39.427  14.951  25.317  1.00  0.00    -0.028 C 
ATOM      8  C   UNL     1      40.662  14.624  25.768  1.00  0.00    -0.070 CG0
ATOM      9  C   UNL     1      40.767  13.546  26.815  1.00  0.00     0.039 C 
ATOM     10  G   UNL     1      41.928  15.303  25.281  1.00  0.00     0.000 G0
ENDBRANCH   6   7
ENDBRANCH   5   6
ENDBRANCH   3   5
ENDBRANCH   1   3
BRANCH   1  11
ATOM     11  C   UNL     1      40.749  18.687  26.390  1.00  0.00     0.087 C 
BRANCH  11  12
ATOM     12  C   UNL     1      41.608  17.939  25.330  1.00  0.00     0.066 C 
BRANCH  12  13
ATOM     13  C   UNL     1      42.163  16.655  25.927  1.00  0.00     0.140 C 
ATOM     14  O   UNL     1      42.825  16.703  26.955  1.00  0.00    -0.299 OA
BRANCH  13  15
ATOM     15  C   UNL     1      41.944  15.318  25.271  1.00  0.00     0.106 CG0
ATOM     16  G   UNL     1      40.682  14.632  25.761  1.00  0.00     0.000 G0
ENDBRANCH  13  15
ENDBRANCH  12  13
BRANCH  12  17
ATOM     17  C   UNL     1      42.743  18.799  24.679  1.00  0.00    -0.006 C 
ATOM     18  C   UNL     1      43.618  17.935  23.752  1.00  0.00     0.008 C 
ATOM     19  C   UNL     1      42.195  19.991  23.875  1.00  0.00     0.008 C 
ENDBRANCH  12  17
ENDBRANCH  11  12
ENDBRANCH   1  11
TORSDOF 1
ENDMDL
MODEL 7
REMARK VINA RESULT:    -3.423      2.670      3.927
REMARK INTER + INTRA:          -5.489
REMARK INTER:                  -5.302
REMARK INTRA:                  -0.187
REMARK UNBOUND:                -0.265
REMARK SMILES CC1=CCC[C@H](C)C(=O)C[C@@H](C(C)C)C(=O)C1
REMARK SMILES IDX 8 1 9 2 6 3 7 4 5 5 4 6 3 7 2 8 1 9 10 11 11 12 15 13 16 14
REMARK SMILES IDX 17 15 12 17 13 18 14 19
REMARK H PARENT
REMARK Flexibility Score: 70.00
ROOT
ATOM      1  C   UNL     1      38.263  18.605  26.215  1.00  0.00     0.136 C 
ATOM      2  O   UNL     1      37.432  17.866  26.722  1.00  0.00    -0.299 OA
ENDROOT
BRANCH   1   3
ATOM      3  C   UNL     1      38.330  20.046  26.717  1.00  0.00     0.053 C 
ATOM      4  C   UNL     1      36.915  20.642  26.692  1.00  0.00     0.016 C 
BRANCH   3   5
ATOM      5  C   UNL     1      38.961  20.270  28.117  1.00  0.00     0.015 C 
BRANCH   5   6
ATOM      6  C   UNL     1      40.464  20.641  28.087  1.00  0.00     0.028 C 
BRANCH   6   7
ATOM      7  C   UNL     1      41.321  19.500  28.586  1.00  0.00    -0.028 C 
ATOM      8  C   UNL     1      41.970  18.600  27.809  1.00  0.00    -0.070 CG0
ATOM      9  C   UNL     1      42.729  17.494  28.496  1.00  0.00     0.039 C 
ATOM     10  G   UNL     1      41.979  18.668  26.293  1.00  0.00     0.000 G0
ENDBRANCH   6   7
ENDBRANCH   5   6
ENDBRANCH   3   5
ENDBRANCH   1   3
BRANCH   1  11
ATOM     11  C   UNL     1      39.186  18.015  25.166  1.00  0.00     0.087 C 
BRANCH  11  12
ATOM     12  C   UNL     1      40.112  16.885  25.701  1.00  0.00     0.066 C 
BRANCH  12  13
ATOM     13  C   UNL     1      41.561  17.346  25.668  1.00  0.00     0.140 C 
ATOM     14  O   UNL     1      42.409  16.639  25.142  1.00  0.00    -0.299 OA
BRANCH  13  15
ATOM     15  C   UNL     1      41.992  18.645  26.294  1.00  0.00     0.106 CG0
ATOM     16  G   UNL     1      41.979  18.590  27.810  1.00  0.00     0.000 G0
ENDBRANCH  13  15
ENDBRANCH  12  13
BRANCH  12  17
ATOM     17  C   UNL     1      39.940  15.503  24.987  1.00  0.00    -0.006 C 
ATOM     18  C   UNL     1      39.865  14.362  26.019  1.00  0.00     0.008 C 
ATOM     19  C   UNL     1      38.686  15.449  24.096  1.00  0.00     0.008 C 
ENDBRANCH  12  17
ENDBRANCH  11  12
ENDBRANCH   1  11
TORSDOF 1
ENDMDL
MODEL 8
REMARK VINA RESULT:    -3.361      1.645      2.403
REMARK INTER + INTRA:          -5.394
REMARK INTER:                  -5.414
REMARK INTRA:                   0.020
REMARK UNBOUND:                -0.265
REMARK SMILES CC1=CCC[C@H](C)C(=O)C[C@@H](C(C)C)C(=O)C1
REMARK SMILES IDX 8 1 9 2 6 3 7 4 5 5 4 6 3 7 2 8 1 9 10 11 11 12 15 13 16 14
REMARK SMILES IDX 17 15 12 17 13 18 14 19
REMARK H PARENT
REMARK Flexibility Score: 70.00
ROOT
ATOM      1  C   UNL     1      37.887  21.407  25.907  1.00  0.00     0.136 C 
ATOM      2  O   UNL     1      36.800  21.574  25.372  1.00  0.00    -0.299 OA
ENDROOT
BRANCH   1   3
ATOM      3  C   UNL     1      38.222  22.274  27.118  1.00  0.00     0.053 C 
ATOM      4  C   UNL     1      37.831  23.726  26.806  1.00  0.00     0.016 C 
BRANCH   3   5
ATOM      5  C   UNL     1      37.598  21.851  28.476  1.00  0.00     0.015 C 
BRANCH   5   6
ATOM      6  C   UNL     1      38.595  21.182  29.453  1.00  0.00     0.028 C 
BRANCH   6   7
ATOM      7  C   UNL     1      39.995  21.722  29.266  1.00  0.00    -0.028 C 
ATOM      8  C   UNL     1      41.057  21.023  28.800  1.00  0.00    -0.070 CG0
ATOM      9  C   UNL     1      42.391  21.721  28.741  1.00  0.00     0.039 C 
ATOM     10  G   UNL     1      40.957  19.586  28.322  1.00  0.00     0.000 G0
ENDBRANCH   6   7
ENDBRANCH   5   6
ENDBRANCH   3   5
ENDBRANCH   1   3
BRANCH   1  11
ATOM     11  C   UNL     1      38.788  20.320  25.351  1.00  0.00     0.087 C 
BRANCH  11  12
ATOM     12  C   UNL     1      39.197  19.241  26.394  1.00  0.00     0.066 C 
BRANCH  12  13
ATOM     13  C   UNL     1      40.625  19.485  26.856  1.00  0.00     0.140 C 
ATOM     14  O   UNL     1      41.522  19.578  26.029  1.00  0.00    -0.299 OA
BRANCH  13  15
ATOM     15  C   UNL     1      40.978  19.589  28.316  1.00  0.00     0.106 CG0
ATOM     16  G   UNL     1      41.054  21.027  28.793  1.00  0.00     0.000 G0
ENDBRANCH  13  15
ENDBRANCH  12  13
BRANCH  12  17
ATOM     17  C   UNL     1      38.999  17.762  25.921  1.00  0.00    -0.006 C 
ATOM     18  C   UNL     1      37.506  17.454  25.705  1.00  0.00     0.008 C 
ATOM     19  C   UNL     1      39.763  17.450  24.621  1.00  0.00     0.008 C 
ENDBRANCH  12  17
ENDBRANCH  11  12
ENDBRANCH   1  11
TORSDOF 1
ENDMDL
MODEL 9
REMARK VINA RESULT:    -3.316      1.958      4.310
REMARK INTER + INTRA:          -5.325
REMARK INTER:                  -5.318
REMARK INTRA:                  -0.008
REMARK UNBOUND:                -0.265
REMARK SMILES CC1=CCC[C@H](C)C(=O)C[C@@H](C(C)C)C(=O)C1
REMARK SMILES IDX 8 1 9 2 6 3 7 4 5 5 4 6 3 7 2 8 1 9 10 11 11 12 15 13 16 14
REMARK SMILES IDX 17 15 12 17 13 18 14 19
REMARK H PARENT
REMARK Flexibility Score: 70.00
ROOT
ATOM      1  C   UNL     1      36.993  19.519  26.876  1.00  0.00     0.136 C 
ATOM      2  O   UNL     1      36.446  20.549  26.507  1.00  0.00    -0.299 OA
ENDROOT
BRANCH   1   3
ATOM      3  C   UNL     1      36.620  18.224  26.160  1.00  0.00     0.053 C 
ATOM      4  C   UNL     1      36.284  18.549  24.697  1.00  0.00     0.016 C 
BRANCH   3   5
ATOM      5  C   UNL     1      37.662  17.074  26.207  1.00  0.00     0.015 C 
BRANCH   5   6
ATOM      6  C   UNL     1      38.870  17.269  25.259  1.00  0.00     0.028 C 
BRANCH   6   7
ATOM      7  C   UNL     1      40.170  16.918  25.948  1.00  0.00    -0.028 C 
ATOM      8  C   UNL     1      41.103  17.803  26.373  1.00  0.00    -0.070 CG0
ATOM      9  C   UNL     1      42.367  17.256  26.985  1.00  0.00     0.039 C 
ATOM     10  G   UNL     1      40.924  19.307  26.276  1.00  0.00     0.000 G0
ENDBRANCH   6   7
ENDBRANCH   5   6
ENDBRANCH   3   5
ENDBRANCH   1   3
BRANCH   1  11
ATOM     11  C   UNL     1      38.027  19.627  27.981  1.00  0.00     0.087 C 
BRANCH  11  12
ATOM     12  C   UNL     1      39.154  20.660  27.694  1.00  0.00     0.066 C 
BRANCH  12  13
ATOM     13  C   UNL     1      40.489  19.944  27.560  1.00  0.00     0.140 C 
ATOM     14  O   UNL     1      41.246  19.891  28.519  1.00  0.00    -0.299 OA
BRANCH  13  15
ATOM     15  C   UNL     1      40.923  19.317  26.262  1.00  0.00     0.106 CG0
ATOM     16  G   UNL     1      41.090  17.813  26.373  1.00  0.00     0.000 G0
ENDBRANCH  13  15
ENDBRANCH  12  13
BRANCH  12  17
ATOM     17  C   UNL     1      39.242  21.837  28.722  1.00  0.00    -0.006 C 
ATOM     18  C   UNL     1      38.571  23.104  28.160  1.00  0.00     0.008 C 
ATOM     19  C   UNL     1      38.593  21.491  30.074  1.00  0.00     0.008 C 
ENDBRANCH  12  17
ENDBRANCH  11  12
ENDBRANCH   1  11
TORSDOF 1
ENDMDL
