MODEL 1
REMARK VINA RESULT:     0.387      0.000      0.000
REMARK INTER + INTRA:           0.421
REMARK INTER:                   0.421
REMARK INTRA:                   0.000
REMARK UNBOUND:                 0.000
REMARK SMILES Cc1cc(O)c2c(c1)C(=O)c1cc(O)cc(O)c1C2=O
REMARK SMILES IDX 1 1 2 2 8 3 7 4 6 5 4 6 3 7 19 8 20 9 18 10 11 11 9 12 10 13
REMARK SMILES IDX 12 14 13 15 15 16 16 17 5 18 17 20 14 22
REMARK H PARENT 5 19 17 21 14 23
REMARK Flexibility Score: inf
ROOT
ATOM      1  C   UNL     1      35.183 -33.990  16.555  1.00  0.00     0.044 C 
ATOM      2  C   UNL     1      35.176 -35.249  17.372  1.00  0.00    -0.047 A 
ATOM      3  C   UNL     1      34.553 -35.272  18.625  1.00  0.00     0.016 A 
ATOM      4  C   UNL     1      34.565 -36.437  19.410  1.00  0.00     0.038 A 
ATOM      5  C   UNL     1      35.212 -37.599  18.934  1.00  0.00     0.076 A 
ATOM      6  C   UNL     1      35.914 -37.544  17.702  1.00  0.00     0.127 A 
ATOM      7  C   UNL     1      35.871 -36.379  16.929  1.00  0.00     0.050 A 
ATOM      8  C   UNL     1      35.077 -38.852  19.721  1.00  0.00     0.201 C 
ATOM      9  O   UNL     1      35.105 -39.966  19.135  1.00  0.00    -0.288 OA
ATOM     10  C   UNL     1      34.723 -38.782  21.164  1.00  0.00     0.076 A 
ATOM     11  C   UNL     1      34.079 -37.617  21.637  1.00  0.00     0.041 A 
ATOM     12  C   UNL     1      33.908 -36.450  20.738  1.00  0.00     0.194 C 
ATOM     13  O   UNL     1      33.224 -35.459  21.115  1.00  0.00    -0.289 OA
ATOM     14  C   UNL     1      33.606 -37.568  22.960  1.00  0.00     0.059 A 
ATOM     15  C   UNL     1      33.784 -38.658  23.817  1.00  0.00     0.120 A 
ATOM     16  C   UNL     1      34.454 -39.793  23.365  1.00  0.00     0.093 A 
ATOM     17  C   UNL     1      34.952 -39.858  22.059  1.00  0.00     0.131 A 
ENDROOT
BRANCH   6  18
ATOM     18  O   UNL     1      36.692 -38.603  17.229  1.00  0.00    -0.507 OA
ATOM     19  H   UNL     1      37.159 -38.597  16.332  1.00  0.00     0.293 HD
ENDBRANCH   6  18
BRANCH  17  20
ATOM     20  O   UNL     1      35.693 -40.990  21.708  1.00  0.00    -0.507 OA
ATOM     21  H   UNL     1      36.701 -41.038  21.769  1.00  0.00     0.293 HD
ENDBRANCH  17  20
BRANCH  15  22
ATOM     22  O   UNL     1      33.305 -38.618  25.125  1.00  0.00    -0.508 OA
ATOM     23  H   UNL     1      33.739 -38.035  25.830  1.00  0.00     0.293 HD
ENDBRANCH  15  22
TORSDOF 3
ENDMDL
MODEL 2
REMARK VINA RESULT:     1.060      1.847      6.045
REMARK INTER + INTRA:           1.153
REMARK INTER:                   1.153
REMARK INTRA:                   0.000
REMARK UNBOUND:                 0.000
REMARK SMILES Cc1cc(O)c2c(c1)C(=O)c1cc(O)cc(O)c1C2=O
REMARK SMILES IDX 1 1 2 2 8 3 7 4 6 5 4 6 3 7 19 8 20 9 18 10 11 11 9 12 10 13
REMARK SMILES IDX 12 14 13 15 15 16 16 17 5 18 17 20 14 22
REMARK H PARENT 5 19 17 21 14 23
REMARK Flexibility Score: inf
ROOT
ATOM      1  C   UNL     1      35.158 -43.122  20.923  1.00  0.00     0.044 C 
ATOM      2  C   UNL     1      35.089 -41.624  20.929  1.00  0.00    -0.047 A 
ATOM      3  C   UNL     1      35.124 -40.912  19.725  1.00  0.00     0.016 A 
ATOM      4  C   UNL     1      35.088 -39.508  19.721  1.00  0.00     0.038 A 
ATOM      5  C   UNL     1      35.016 -38.803  20.943  1.00  0.00     0.076 A 
ATOM      6  C   UNL     1      35.066 -39.526  22.163  1.00  0.00     0.127 A 
ATOM      7  C   UNL     1      35.082 -40.924  22.141  1.00  0.00     0.050 A 
ATOM      8  C   UNL     1      34.830 -37.329  20.895  1.00  0.00     0.201 C 
ATOM      9  O   UNL     1      34.212 -36.745  21.825  1.00  0.00    -0.288 OA
ATOM     10  C   UNL     1      35.204 -36.578  19.669  1.00  0.00     0.076 A 
ATOM     11  C   UNL     1      35.278 -37.287  18.449  1.00  0.00     0.041 A 
ATOM     12  C   UNL     1      35.132 -38.762  18.441  1.00  0.00     0.194 C 
ATOM     13  O   UNL     1      35.071 -39.384  17.345  1.00  0.00    -0.289 OA
ATOM     14  C   UNL     1      35.494 -36.589  17.248  1.00  0.00     0.059 A 
ATOM     15  C   UNL     1      35.652 -35.201  17.252  1.00  0.00     0.120 A 
ATOM     16  C   UNL     1      35.620 -34.503  18.459  1.00  0.00     0.093 A 
ATOM     17  C   UNL     1      35.427 -35.176  19.670  1.00  0.00     0.131 A 
ENDROOT
BRANCH   6  18
ATOM     18  O   UNL     1      35.139 -38.900  23.410  1.00  0.00    -0.507 OA
ATOM     19  H   UNL     1      35.080 -39.397  24.288  1.00  0.00     0.293 HD
ENDBRANCH   6  18
BRANCH  17  20
ATOM     20  O   UNL     1      35.499 -34.423  20.844  1.00  0.00    -0.507 OA
ATOM     21  H   UNL     1      34.941 -34.614  21.665  1.00  0.00     0.293 HD
ENDBRANCH  17  20
BRANCH  15  22
ATOM     22  O   UNL     1      35.853 -34.505  16.062  1.00  0.00    -0.508 OA
ATOM     23  H   UNL     1      36.067 -34.986  15.197  1.00  0.00     0.293 HD
ENDBRANCH  15  22
TORSDOF 3
ENDMDL
MODEL 3
REMARK VINA RESULT:     1.595      1.180      3.381
REMARK INTER + INTRA:           1.734
REMARK INTER:                   1.734
REMARK INTRA:                   0.000
REMARK UNBOUND:                 0.000
REMARK SMILES Cc1cc(O)c2c(c1)C(=O)c1cc(O)cc(O)c1C2=O
REMARK SMILES IDX 1 1 2 2 8 3 7 4 6 5 4 6 3 7 19 8 20 9 18 10 11 11 9 12 10 13
REMARK SMILES IDX 12 14 13 15 15 16 16 17 5 18 17 20 14 22
REMARK H PARENT 5 19 17 21 14 23
REMARK Flexibility Score: inf
ROOT
ATOM      1  C   UNL     1      35.448 -34.605  16.128  1.00  0.00     0.044 C 
ATOM      2  C   UNL     1      35.125 -35.289  17.424  1.00  0.00    -0.047 A 
ATOM      3  C   UNL     1      35.631 -36.565  17.692  1.00  0.00     0.016 A 
ATOM      4  C   UNL     1      35.312 -37.226  18.890  1.00  0.00     0.038 A 
ATOM      5  C   UNL     1      34.471 -36.598  19.836  1.00  0.00     0.076 A 
ATOM      6  C   UNL     1      33.893 -35.342  19.522  1.00  0.00     0.127 A 
ATOM      7  C   UNL     1      34.241 -34.695  18.332  1.00  0.00     0.050 A 
ATOM      8  C   UNL     1      34.275 -37.261  21.152  1.00  0.00     0.201 C 
ATOM      9  O   UNL     1      34.056 -36.564  22.178  1.00  0.00    -0.288 OA
ATOM     10  C   UNL     1      34.524 -38.720  21.287  1.00  0.00     0.076 A 
ATOM     11  C   UNL     1      35.364 -39.345  20.337  1.00  0.00     0.041 A 
ATOM     12  C   UNL     1      35.847 -38.581  19.163  1.00  0.00     0.194 C 
ATOM     13  O   UNL     1      36.696 -39.094  18.382  1.00  0.00    -0.289 OA
ATOM     14  C   UNL     1      35.733 -40.690  20.509  1.00  0.00     0.059 A 
ATOM     15  C   UNL     1      35.263 -41.420  21.604  1.00  0.00     0.120 A 
ATOM     16  C   UNL     1      34.403 -40.819  22.521  1.00  0.00     0.093 A 
ATOM     17  C   UNL     1      34.004 -39.488  22.362  1.00  0.00     0.131 A 
ENDROOT
BRANCH   6  18
ATOM     18  O   UNL     1      32.945 -34.721  20.339  1.00  0.00    -0.507 OA
ATOM     19  H   UNL     1      32.586 -33.791  20.171  1.00  0.00     0.293 HD
ENDBRANCH   6  18
BRANCH  17  20
ATOM     20  O   UNL     1      33.069 -38.983  23.268  1.00  0.00    -0.507 OA
ATOM     21  H   UNL     1      33.283 -38.270  23.952  1.00  0.00     0.293 HD
ENDBRANCH  17  20
BRANCH  15  22
ATOM     22  O   UNL     1      35.638 -42.751  21.784  1.00  0.00    -0.508 OA
ATOM     23  H   UNL     1      36.299 -43.022  22.503  1.00  0.00     0.293 HD
ENDBRANCH  15  22
TORSDOF 3
ENDMDL
MODEL 4
REMARK VINA RESULT:     2.877      2.160      3.125
REMARK INTER + INTRA:           3.129
REMARK INTER:                   3.129
REMARK INTRA:                   0.000
REMARK UNBOUND:                 0.000
REMARK SMILES Cc1cc(O)c2c(c1)C(=O)c1cc(O)cc(O)c1C2=O
REMARK SMILES IDX 1 1 2 2 8 3 7 4 6 5 4 6 3 7 19 8 20 9 18 10 11 11 9 12 10 13
REMARK SMILES IDX 12 14 13 15 15 16 16 17 5 18 17 20 14 22
REMARK H PARENT 5 19 17 21 14 23
REMARK Flexibility Score: inf
ROOT
ATOM      1  C   UNL     1      32.930 -34.339  19.876  1.00  0.00     0.044 C 
ATOM      2  C   UNL     1      33.269 -35.792  19.715  1.00  0.00    -0.047 A 
ATOM      3  C   UNL     1      33.688 -36.543  20.818  1.00  0.00     0.016 A 
ATOM      4  C   UNL     1      34.034 -37.897  20.673  1.00  0.00     0.038 A 
ATOM      5  C   UNL     1      33.961 -38.509  19.402  1.00  0.00     0.076 A 
ATOM      6  C   UNL     1      33.619 -37.720  18.273  1.00  0.00     0.127 A 
ATOM      7  C   UNL     1      33.259 -36.380  18.446  1.00  0.00     0.050 A 
ATOM      8  C   UNL     1      34.191 -39.975  19.312  1.00  0.00     0.201 C 
ATOM      9  O   UNL     1      33.614 -40.646  18.416  1.00  0.00    -0.288 OA
ATOM     10  C   UNL     1      34.946 -40.670  20.388  1.00  0.00     0.076 A 
ATOM     11  C   UNL     1      35.019 -40.053  21.657  1.00  0.00     0.041 A 
ATOM     12  C   UNL     1      34.483 -38.684  21.846  1.00  0.00     0.194 C 
ATOM     13  O   UNL     1      34.431 -38.181  23.002  1.00  0.00    -0.289 OA
ATOM     14  C   UNL     1      35.604 -40.741  22.735  1.00  0.00     0.059 A 
ATOM     15  C   UNL     1      36.130 -42.023  22.557  1.00  0.00     0.120 A 
ATOM     16  C   UNL     1      36.095 -42.618  21.296  1.00  0.00     0.093 A 
ATOM     17  C   UNL     1      35.537 -41.947  20.203  1.00  0.00     0.131 A 
ENDROOT
BRANCH   6  18
ATOM     18  O   UNL     1      33.658 -38.214  16.967  1.00  0.00    -0.507 OA
ATOM     19  H   UNL     1      33.029 -38.925  16.619  1.00  0.00     0.293 HD
ENDBRANCH   6  18
BRANCH  17  20
ATOM     20  O   UNL     1      35.621 -42.568  18.955  1.00  0.00    -0.507 OA
ATOM     21  H   UNL     1      35.777 -43.559  18.834  1.00  0.00     0.293 HD
ENDBRANCH  17  20
BRANCH  15  22
ATOM     22  O   UNL     1      36.699 -42.712  23.626  1.00  0.00    -0.508 OA
ATOM     23  H   UNL     1      37.264 -42.239  24.320  1.00  0.00     0.293 HD
ENDBRANCH  15  22
TORSDOF 3
ENDMDL
MODEL 5
REMARK VINA RESULT:     3.318      1.301      5.492
REMARK INTER + INTRA:           3.609
REMARK INTER:                   3.609
REMARK INTRA:                   0.000
REMARK UNBOUND:                 0.000
REMARK SMILES Cc1cc(O)c2c(c1)C(=O)c1cc(O)cc(O)c1C2=O
REMARK SMILES IDX 1 1 2 2 8 3 7 4 6 5 4 6 3 7 19 8 20 9 18 10 11 11 9 12 10 13
REMARK SMILES IDX 12 14 13 15 15 16 16 17 5 18 17 20 14 22
REMARK H PARENT 5 19 17 21 14 23
REMARK Flexibility Score: inf
ROOT
ATOM      1  C   UNL     1      32.890 -39.043  24.869  1.00  0.00     0.044 C 
ATOM      2  C   UNL     1      33.601 -38.888  23.557  1.00  0.00    -0.047 A 
ATOM      3  C   UNL     1      33.512 -37.686  22.845  1.00  0.00     0.016 A 
ATOM      4  C   UNL     1      34.151 -37.540  21.603  1.00  0.00     0.038 A 
ATOM      5  C   UNL     1      34.891 -38.616  21.063  1.00  0.00     0.076 A 
ATOM      6  C   UNL     1      34.907 -39.858  21.747  1.00  0.00     0.127 A 
ATOM      7  C   UNL     1      34.280 -39.972  22.992  1.00  0.00     0.050 A 
ATOM      8  C   UNL     1      35.674 -38.377  19.822  1.00  0.00     0.201 C 
ATOM      9  O   UNL     1      36.734 -39.024  19.616  1.00  0.00    -0.288 OA
ATOM     10  C   UNL     1      35.308 -37.250  18.924  1.00  0.00     0.076 A 
ATOM     11  C   UNL     1      34.565 -36.178  19.467  1.00  0.00     0.041 A 
ATOM     12  C   UNL     1      34.046 -36.266  20.853  1.00  0.00     0.194 C 
ATOM     13  O   UNL     1      33.493 -35.264  21.384  1.00  0.00    -0.289 OA
ATOM     14  C   UNL     1      34.318 -35.034  18.689  1.00  0.00     0.059 A 
ATOM     15  C   UNL     1      34.787 -34.955  17.375  1.00  0.00     0.120 A 
ATOM     16  C   UNL     1      35.486 -36.028  16.823  1.00  0.00     0.093 A 
ATOM     17  C   UNL     1      35.727 -37.186  17.569  1.00  0.00     0.131 A 
ENDROOT
BRANCH   6  18
ATOM     18  O   UNL     1      35.497 -41.006  21.215  1.00  0.00    -0.507 OA
ATOM     19  H   UNL     1      35.434 -41.266  20.240  1.00  0.00     0.293 HD
ENDBRANCH   6  18
BRANCH  17  20
ATOM     20  O   UNL     1      36.352 -38.253  16.920  1.00  0.00    -0.507 OA
ATOM     21  H   UNL     1      36.429 -38.327  15.915  1.00  0.00     0.293 HD
ENDBRANCH  17  20
BRANCH  15  22
ATOM     22  O   UNL     1      34.556 -33.817  16.605  1.00  0.00    -0.508 OA
ATOM     23  H   UNL     1      33.840 -33.800  15.888  1.00  0.00     0.293 HD
ENDBRANCH  15  22
TORSDOF 3
ENDMDL
