MODEL 1
REMARK VINA RESULT:    -6.119      0.000      0.000
REMARK INTER + INTRA:          -6.812
REMARK INTER:                  -6.656
REMARK INTRA:                  -0.156
REMARK UNBOUND:                -0.156
REMARK SMILES CC(=O)[C@@H]1CC[C@@H]2[C@H]3CC=C4C[C@@H](O)CC[C@]4(C)[C@@H]3CC[C@@]21C
REMARK SMILES IDX 4 1 5 2 6 3 7 4 22 5 21 6 20 7 19 8 8 9 9 10 10 11 11 12
REMARK SMILES IDX 17 13 16 14 15 15 13 16 12 17 18 18 23 19 2 20 1 21 3 22
REMARK SMILES IDX 14 23
REMARK H PARENT 14 24
REMARK Flexibility Score: inf
ROOT
ATOM      1  C   UNL     1     144.485 135.177 149.754  1.00  0.00     0.062 C 
ATOM      2  C   UNL     1     144.698 134.056 148.732  1.00  0.00     0.012 C 
ATOM      3  C   UNL     1     144.844 134.751 147.376  1.00  0.00     0.005 C 
ATOM      4  C   UNL     1     144.751 136.267 147.637  1.00  0.00    -0.001 C 
ATOM      5  C   UNL     1     145.145 136.434 149.128  1.00  0.00    -0.020 C 
ATOM      6  C   UNL     1     146.707 136.446 149.337  1.00  0.00     0.008 C 
ATOM      7  C   UNL     1     147.547 136.788 148.092  1.00  0.00     0.005 C 
ATOM      8  C   UNL     1     146.822 137.783 147.175  1.00  0.00     0.003 C 
ATOM      9  C   UNL     1     145.559 137.113 146.595  1.00  0.00     0.000 C 
ATOM     10  C   UNL     1     144.704 138.215 145.958  1.00  0.00     0.031 C 
ATOM     11  C   UNL     1     145.492 138.940 144.901  1.00  0.00    -0.027 C 
ATOM     12  C   UNL     1     146.842 139.053 144.932  1.00  0.00    -0.065 C 
ATOM     13  C   UNL     1     147.713 138.428 146.040  1.00  0.00    -0.008 C 
ATOM     14  C   UNL     1     148.642 137.368 145.368  1.00  0.00     0.014 C 
ATOM     15  C   UNL     1     149.377 137.893 144.117  1.00  0.00     0.033 C 
ATOM     16  C   UNL     1     148.408 138.489 143.084  1.00  0.00     0.118 C 
ATOM     17  C   UNL     1     147.552 139.600 143.711  1.00  0.00     0.063 C 
ATOM     18  C   UNL     1     148.573 139.548 146.684  1.00  0.00     0.016 C 
ATOM     19  C   UNL     1     144.499 137.707 149.734  1.00  0.00     0.012 C 
ENDROOT
BRANCH   1  20
ATOM     20  C   UNL     1     144.925 134.829 151.168  1.00  0.00     0.133 C 
ATOM     21  C   UNL     1     145.875 133.696 151.419  1.00  0.00     0.088 C 
ATOM     22  O   UNL     1     144.518 135.473 152.125  1.00  0.00    -0.300 OA
ENDBRANCH   1  20
BRANCH  16  23
ATOM     23  O   UNL     1     149.146 139.005 142.008  1.00  0.00    -0.393 OA
ATOM     24  H   UNL     1     148.950 139.979 141.966  1.00  0.00     0.210 HD
ENDBRANCH  16  23
TORSDOF 2
ENDMDL
MODEL 2
REMARK VINA RESULT:    -5.860      1.687      3.611
REMARK INTER + INTRA:          -6.530
REMARK INTER:                  -6.496
REMARK INTRA:                  -0.034
REMARK UNBOUND:                -0.156
REMARK SMILES CC(=O)[C@@H]1CC[C@@H]2[C@H]3CC=C4C[C@@H](O)CC[C@]4(C)[C@@H]3CC[C@@]21C
REMARK SMILES IDX 4 1 5 2 6 3 7 4 22 5 21 6 20 7 19 8 8 9 9 10 10 11 11 12
REMARK SMILES IDX 17 13 16 14 15 15 13 16 12 17 18 18 23 19 2 20 1 21 3 22
REMARK SMILES IDX 14 23
REMARK H PARENT 14 24
REMARK Flexibility Score: inf
ROOT
ATOM      1  C   UNL     1     147.631 136.377 149.063  1.00  0.00     0.062 C 
ATOM      2  C   UNL     1     148.050 137.785 149.494  1.00  0.00     0.012 C 
ATOM      3  C   UNL     1     148.758 138.398 148.283  1.00  0.00     0.005 C 
ATOM      4  C   UNL     1     148.706 137.350 147.155  1.00  0.00    -0.001 C 
ATOM      5  C   UNL     1     147.502 136.443 147.518  1.00  0.00    -0.020 C 
ATOM      6  C   UNL     1     146.125 137.064 147.067  1.00  0.00     0.008 C 
ATOM      7  C   UNL     1     146.204 138.137 145.964  1.00  0.00     0.005 C 
ATOM      8  C   UNL     1     147.352 137.859 144.985  1.00  0.00     0.003 C 
ATOM      9  C   UNL     1     148.698 137.995 145.727  1.00  0.00     0.000 C 
ATOM     10  C   UNL     1     149.785 137.405 144.821  1.00  0.00     0.031 C 
ATOM     11  C   UNL     1     149.800 138.115 143.495  1.00  0.00    -0.027 C 
ATOM     12  C   UNL     1     148.703 138.699 142.955  1.00  0.00    -0.065 C 
ATOM     13  C   UNL     1     147.330 138.717 143.658  1.00  0.00    -0.008 C 
ATOM     14  C   UNL     1     146.967 140.208 143.944  1.00  0.00     0.014 C 
ATOM     15  C   UNL     1     147.136 141.133 142.721  1.00  0.00     0.033 C 
ATOM     16  C   UNL     1     148.543 141.031 142.109  1.00  0.00     0.118 C 
ATOM     17  C   UNL     1     148.875 139.578 141.735  1.00  0.00     0.063 C 
ATOM     18  C   UNL     1     146.278 138.095 142.702  1.00  0.00     0.016 C 
ATOM     19  C   UNL     1     147.681 135.020 146.928  1.00  0.00     0.012 C 
ENDROOT
BRANCH   1  20
ATOM     20  C   UNL     1     146.426 135.824 149.808  1.00  0.00     0.133 C 
ATOM     21  C   UNL     1     146.366 134.379 150.204  1.00  0.00     0.088 C 
ATOM     22  O   UNL     1     145.487 136.550 150.104  1.00  0.00    -0.300 OA
ENDBRANCH   1  20
BRANCH  16  23
ATOM     23  O   UNL     1     148.604 141.844 140.966  1.00  0.00    -0.393 OA
ATOM     24  H   UNL     1     147.765 141.687 140.457  1.00  0.00     0.210 HD
ENDBRANCH  16  23
TORSDOF 2
ENDMDL
MODEL 3
REMARK VINA RESULT:    -5.860     10.296     14.738
REMARK INTER + INTRA:          -6.529
REMARK INTER:                  -6.383
REMARK INTRA:                  -0.146
REMARK UNBOUND:                -0.156
REMARK SMILES CC(=O)[C@@H]1CC[C@@H]2[C@H]3CC=C4C[C@@H](O)CC[C@]4(C)[C@@H]3CC[C@@]21C
REMARK SMILES IDX 4 1 5 2 6 3 7 4 22 5 21 6 20 7 19 8 8 9 9 10 10 11 11 12
REMARK SMILES IDX 17 13 16 14 15 15 13 16 12 17 18 18 23 19 2 20 1 21 3 22
REMARK SMILES IDX 14 23
REMARK H PARENT 14 24
REMARK Flexibility Score: inf
ROOT
ATOM      1  C   UNL     1     150.098 143.507 132.762  1.00  0.00     0.062 C 
ATOM      2  C   UNL     1     149.011 142.460 132.502  1.00  0.00     0.012 C 
ATOM      3  C   UNL     1     149.594 141.127 132.979  1.00  0.00     0.005 C 
ATOM      4  C   UNL     1     150.996 141.427 133.543  1.00  0.00    -0.001 C 
ATOM      5  C   UNL     1     150.953 142.930 133.922  1.00  0.00    -0.020 C 
ATOM      6  C   UNL     1     150.283 143.176 135.328  1.00  0.00     0.008 C 
ATOM      7  C   UNL     1     150.245 141.960 136.273  1.00  0.00     0.005 C 
ATOM      8  C   UNL     1     151.469 141.055 136.081  1.00  0.00     0.003 C 
ATOM      9  C   UNL     1     151.422 140.427 134.673  1.00  0.00     0.000 C 
ATOM     10  C   UNL     1     152.795 139.801 134.401  1.00  0.00     0.031 C 
ATOM     11  C   UNL     1     153.121 138.784 135.459  1.00  0.00    -0.027 C 
ATOM     12  C   UNL     1     152.637 138.848 136.723  1.00  0.00    -0.065 C 
ATOM     13  C   UNL     1     151.680 139.959 137.200  1.00  0.00    -0.008 C 
ATOM     14  C   UNL     1     150.332 139.279 137.599  1.00  0.00     0.014 C 
ATOM     15  C   UNL     1     150.503 138.061 138.530  1.00  0.00     0.033 C 
ATOM     16  C   UNL     1     151.477 137.022 137.949  1.00  0.00     0.118 C 
ATOM     17  C   UNL     1     152.840 137.659 137.639  1.00  0.00     0.063 C 
ATOM     18  C   UNL     1     152.306 140.652 138.439  1.00  0.00     0.016 C 
ATOM     19  C   UNL     1     152.371 143.556 133.873  1.00  0.00     0.012 C 
ENDROOT
BRANCH   1  20
ATOM     20  C   UNL     1     149.573 144.921 132.962  1.00  0.00     0.133 C 
ATOM     21  C   UNL     1     148.163 145.159 133.414  1.00  0.00     0.088 C 
ATOM     22  O   UNL     1     150.295 145.888 132.765  1.00  0.00    -0.300 OA
ENDBRANCH   1  20
BRANCH  16  23
ATOM     23  O   UNL     1     151.636 135.979 138.873  1.00  0.00    -0.393 OA
ATOM     24  H   UNL     1     152.613 135.809 138.948  1.00  0.00     0.210 HD
ENDBRANCH  16  23
TORSDOF 2
ENDMDL
MODEL 4
REMARK VINA RESULT:    -5.658      1.517      2.839
REMARK INTER + INTRA:          -6.310
REMARK INTER:                  -6.279
REMARK INTRA:                  -0.031
REMARK UNBOUND:                -0.156
REMARK SMILES CC(=O)[C@@H]1CC[C@@H]2[C@H]3CC=C4C[C@@H](O)CC[C@]4(C)[C@@H]3CC[C@@]21C
REMARK SMILES IDX 4 1 5 2 6 3 7 4 22 5 21 6 20 7 19 8 8 9 9 10 10 11 11 12
REMARK SMILES IDX 17 13 16 14 15 15 13 16 12 17 18 18 23 19 2 20 1 21 3 22
REMARK SMILES IDX 14 23
REMARK H PARENT 14 24
REMARK Flexibility Score: inf
ROOT
ATOM      1  C   UNL     1     145.029 135.067 150.393  1.00  0.00     0.062 C 
ATOM      2  C   UNL     1     143.982 136.159 150.158  1.00  0.00     0.012 C 
ATOM      3  C   UNL     1     144.764 137.393 149.700  1.00  0.00     0.005 C 
ATOM      4  C   UNL     1     146.249 136.986 149.639  1.00  0.00    -0.001 C 
ATOM      5  C   UNL     1     146.227 135.444 149.481  1.00  0.00    -0.020 C 
ATOM      6  C   UNL     1     145.994 134.996 147.987  1.00  0.00     0.008 C 
ATOM      7  C   UNL     1     146.318 136.054 146.914  1.00  0.00     0.005 C 
ATOM      8  C   UNL     1     147.483 136.956 147.341  1.00  0.00     0.003 C 
ATOM      9  C   UNL     1     147.056 137.793 148.565  1.00  0.00     0.000 C 
ATOM     10  C   UNL     1     148.321 138.430 149.152  1.00  0.00     0.031 C 
ATOM     11  C   UNL     1     149.013 139.267 148.112  1.00  0.00    -0.027 C 
ATOM     12  C   UNL     1     148.927 139.018 146.783  1.00  0.00    -0.065 C 
ATOM     13  C   UNL     1     148.088 137.864 146.198  1.00  0.00    -0.008 C 
ATOM     14  C   UNL     1     146.967 138.497 145.314  1.00  0.00     0.014 C 
ATOM     15  C   UNL     1     147.487 139.555 144.318  1.00  0.00     0.033 C 
ATOM     16  C   UNL     1     148.304 140.654 145.017  1.00  0.00     0.118 C 
ATOM     17  C   UNL     1     149.469 140.049 145.815  1.00  0.00     0.063 C 
ATOM     18  C   UNL     1     149.011 136.978 145.320  1.00  0.00     0.016 C 
ATOM     19  C   UNL     1     147.522 134.808 150.049  1.00  0.00     0.012 C 
ENDROOT
BRANCH   1  20
ATOM     20  C   UNL     1     144.500 133.648 150.244  1.00  0.00     0.133 C 
ATOM     21  C   UNL     1     143.502 133.310 149.176  1.00  0.00     0.088 C 
ATOM     22  O   UNL     1     144.885 132.756 150.986  1.00  0.00    -0.300 OA
ENDBRANCH   1  20
BRANCH  16  23
ATOM     23  O   UNL     1     148.799 141.541 144.048  1.00  0.00    -0.393 OA
ATOM     24  H   UNL     1     148.468 142.446 144.293  1.00  0.00     0.210 HD
ENDBRANCH  16  23
TORSDOF 2
ENDMDL
MODEL 5
REMARK VINA RESULT:    -5.585      1.437      6.997
REMARK INTER + INTRA:          -6.230
REMARK INTER:                  -6.139
REMARK INTRA:                  -0.091
REMARK UNBOUND:                -0.156
REMARK SMILES CC(=O)[C@@H]1CC[C@@H]2[C@H]3CC=C4C[C@@H](O)CC[C@]4(C)[C@@H]3CC[C@@]21C
REMARK SMILES IDX 4 1 5 2 6 3 7 4 22 5 21 6 20 7 19 8 8 9 9 10 10 11 11 12
REMARK SMILES IDX 17 13 16 14 15 15 13 16 12 17 18 18 23 19 2 20 1 21 3 22
REMARK SMILES IDX 14 23
REMARK H PARENT 14 24
REMARK Flexibility Score: inf
ROOT
ATOM      1  C   UNL     1     148.401 139.920 143.235  1.00  0.00     0.062 C 
ATOM      2  C   UNL     1     148.712 140.885 144.382  1.00  0.00     0.012 C 
ATOM      3  C   UNL     1     147.571 140.716 145.389  1.00  0.00     0.005 C 
ATOM      4  C   UNL     1     146.636 139.627 144.828  1.00  0.00    -0.001 C 
ATOM      5  C   UNL     1     147.527 138.802 143.864  1.00  0.00    -0.020 C 
ATOM      6  C   UNL     1     148.398 137.729 144.623  1.00  0.00     0.008 C 
ATOM      7  C   UNL     1     147.898 137.331 146.025  1.00  0.00     0.005 C 
ATOM      8  C   UNL     1     146.367 137.374 146.114  1.00  0.00     0.003 C 
ATOM      9  C   UNL     1     145.888 138.831 145.953  1.00  0.00     0.000 C 
ATOM     10  C   UNL     1     144.373 138.797 145.725  1.00  0.00     0.031 C 
ATOM     11  C   UNL     1     143.690 138.104 146.872  1.00  0.00    -0.027 C 
ATOM     12  C   UNL     1     144.290 137.151 147.625  1.00  0.00    -0.065 C 
ATOM     13  C   UNL     1     145.746 136.696 147.399  1.00  0.00    -0.008 C 
ATOM     14  C   UNL     1     146.556 137.053 148.685  1.00  0.00     0.014 C 
ATOM     15  C   UNL     1     145.878 136.594 149.992  1.00  0.00     0.033 C 
ATOM     16  C   UNL     1     144.434 137.110 150.107  1.00  0.00     0.118 C 
ATOM     17  C   UNL     1     143.600 136.683 148.889  1.00  0.00     0.063 C 
ATOM     18  C   UNL     1     145.756 135.159 147.182  1.00  0.00     0.016 C 
ATOM     19  C   UNL     1     146.675 138.133 142.755  1.00  0.00     0.012 C 
ENDROOT
BRANCH   1  20
ATOM     20  C   UNL     1     149.624 139.451 142.460  1.00  0.00     0.133 C 
ATOM     21  C   UNL     1     150.950 139.294 143.142  1.00  0.00     0.088 C 
ATOM     22  O   UNL     1     149.545 139.186 141.269  1.00  0.00    -0.300 OA
ENDBRANCH   1  20
BRANCH  16  23
ATOM     23  O   UNL     1     143.859 136.602 151.281  1.00  0.00    -0.393 OA
ATOM     24  H   UNL     1     143.713 137.376 151.887  1.00  0.00     0.210 HD
ENDBRANCH  16  23
TORSDOF 2
ENDMDL
MODEL 6
REMARK VINA RESULT:    -5.527      2.109      3.003
REMARK INTER + INTRA:          -6.167
REMARK INTER:                  -6.425
REMARK INTRA:                   0.258
REMARK UNBOUND:                -0.156
REMARK SMILES CC(=O)[C@@H]1CC[C@@H]2[C@H]3CC=C4C[C@@H](O)CC[C@]4(C)[C@@H]3CC[C@@]21C
REMARK SMILES IDX 4 1 5 2 6 3 7 4 22 5 21 6 20 7 19 8 8 9 9 10 10 11 11 12
REMARK SMILES IDX 17 13 16 14 15 15 13 16 12 17 18 18 23 19 2 20 1 21 3 22
REMARK SMILES IDX 14 23
REMARK H PARENT 14 24
REMARK Flexibility Score: inf
ROOT
ATOM      1  C   UNL     1     147.503 135.226 149.573  1.00  0.00     0.062 C 
ATOM      2  C   UNL     1     148.152 134.376 148.477  1.00  0.00     0.012 C 
ATOM      3  C   UNL     1     147.246 134.512 147.252  1.00  0.00     0.005 C 
ATOM      4  C   UNL     1     146.104 135.470 147.643  1.00  0.00    -0.001 C 
ATOM      5  C   UNL     1     146.675 136.302 148.820  1.00  0.00    -0.020 C 
ATOM      6  C   UNL     1     147.574 137.500 148.328  1.00  0.00     0.008 C 
ATOM      7  C   UNL     1     147.351 137.950 146.871  1.00  0.00     0.005 C 
ATOM      8  C   UNL     1     145.888 137.776 146.443  1.00  0.00     0.003 C 
ATOM      9  C   UNL     1     145.539 136.273 146.421  1.00  0.00     0.000 C 
ATOM     10  C   UNL     1     144.015 136.155 146.308  1.00  0.00     0.031 C 
ATOM     11  C   UNL     1     143.528 136.863 145.073  1.00  0.00    -0.027 C 
ATOM     12  C   UNL     1     144.176 137.917 144.520  1.00  0.00    -0.065 C 
ATOM     13  C   UNL     1     145.493 138.484 145.086  1.00  0.00    -0.008 C 
ATOM     14  C   UNL     1     146.595 138.293 143.997  1.00  0.00     0.014 C 
ATOM     15  C   UNL     1     146.172 138.780 142.595  1.00  0.00     0.033 C 
ATOM     16  C   UNL     1     144.849 138.146 142.138  1.00  0.00     0.118 C 
ATOM     17  C   UNL     1     143.731 138.409 143.159  1.00  0.00     0.063 C 
ATOM     18  C   UNL     1     145.297 139.997 145.375  1.00  0.00     0.016 C 
ATOM     19  C   UNL     1     145.539 136.812 149.744  1.00  0.00     0.012 C 
ENDROOT
BRANCH   1  20
ATOM     20  C   UNL     1     148.474 135.747 150.622  1.00  0.00     0.133 C 
ATOM     21  C   UNL     1     149.659 136.576 150.226  1.00  0.00     0.088 C 
ATOM     22  O   UNL     1     148.300 135.506 151.808  1.00  0.00    -0.300 OA
ENDBRANCH   1  20
BRANCH  16  23
ATOM     23  O   UNL     1     144.492 138.682 140.891  1.00  0.00    -0.393 OA
ATOM     24  H   UNL     1     144.046 137.953 140.382  1.00  0.00     0.210 HD
ENDBRANCH  16  23
TORSDOF 2
ENDMDL
MODEL 7
REMARK VINA RESULT:    -5.490      2.015      2.431
REMARK INTER + INTRA:          -6.127
REMARK INTER:                  -6.004
REMARK INTRA:                  -0.122
REMARK UNBOUND:                -0.156
REMARK SMILES CC(=O)[C@@H]1CC[C@@H]2[C@H]3CC=C4C[C@@H](O)CC[C@]4(C)[C@@H]3CC[C@@]21C
REMARK SMILES IDX 4 1 5 2 6 3 7 4 22 5 21 6 20 7 19 8 8 9 9 10 10 11 11 12
REMARK SMILES IDX 17 13 16 14 15 15 13 16 12 17 18 18 23 19 2 20 1 21 3 22
REMARK SMILES IDX 14 23
REMARK H PARENT 14 24
REMARK Flexibility Score: inf
ROOT
ATOM      1  C   UNL     1     147.460 135.555 149.232  1.00  0.00     0.062 C 
ATOM      2  C   UNL     1     147.350 134.509 148.120  1.00  0.00     0.012 C 
ATOM      3  C   UNL     1     146.736 135.237 146.922  1.00  0.00     0.005 C 
ATOM      4  C   UNL     1     146.534 136.705 147.345  1.00  0.00    -0.001 C 
ATOM      5  C   UNL     1     147.543 136.922 148.502  1.00  0.00    -0.020 C 
ATOM      6  C   UNL     1     149.000 137.223 147.979  1.00  0.00     0.008 C 
ATOM      7  C   UNL     1     149.099 137.734 146.529  1.00  0.00     0.005 C 
ATOM      8  C   UNL     1     147.883 138.588 146.145  1.00  0.00     0.003 C 
ATOM      9  C   UNL     1     146.620 137.702 146.138  1.00  0.00     0.000 C 
ATOM     10  C   UNL     1     145.404 138.632 146.071  1.00  0.00     0.031 C 
ATOM     11  C   UNL     1     145.484 139.506 144.849  1.00  0.00    -0.027 C 
ATOM     12  C   UNL     1     146.656 139.870 144.275  1.00  0.00    -0.065 C 
ATOM     13  C   UNL     1     148.029 139.403 144.799  1.00  0.00    -0.008 C 
ATOM     14  C   UNL     1     148.695 138.545 143.677  1.00  0.00     0.014 C 
ATOM     15  C   UNL     1     148.672 139.216 142.288  1.00  0.00     0.033 C 
ATOM     16  C   UNL     1     147.252 139.634 141.872  1.00  0.00     0.118 C 
ATOM     17  C   UNL     1     146.620 140.557 142.925  1.00  0.00     0.063 C 
ATOM     18  C   UNL     1     148.899 140.655 145.089  1.00  0.00     0.016 C 
ATOM     19  C   UNL     1     147.060 138.043 149.458  1.00  0.00     0.012 C 
ENDROOT
BRANCH   1  20
ATOM     20  C   UNL     1     148.556 135.277 150.250  1.00  0.00     0.133 C 
ATOM     21  C   UNL     1     149.782 134.504 149.865  1.00  0.00     0.088 C 
ATOM     22  O   UNL     1     148.459 135.686 151.399  1.00  0.00    -0.300 OA
ENDBRANCH   1  20
BRANCH  16  23
ATOM     23  O   UNL     1     147.314 140.294 140.635  1.00  0.00    -0.393 OA
ATOM     24  H   UNL     1     146.396 140.274 140.254  1.00  0.00     0.210 HD
ENDBRANCH  16  23
TORSDOF 2
ENDMDL
MODEL 8
REMARK VINA RESULT:    -5.437      2.844      5.786
REMARK INTER + INTRA:          -6.069
REMARK INTER:                  -5.946
REMARK INTRA:                  -0.123
REMARK UNBOUND:                -0.156
REMARK SMILES CC(=O)[C@@H]1CC[C@@H]2[C@H]3CC=C4C[C@@H](O)CC[C@]4(C)[C@@H]3CC[C@@]21C
REMARK SMILES IDX 4 1 5 2 6 3 7 4 22 5 21 6 20 7 19 8 8 9 9 10 10 11 11 12
REMARK SMILES IDX 17 13 16 14 15 15 13 16 12 17 18 18 23 19 2 20 1 21 3 22
REMARK SMILES IDX 14 23
REMARK H PARENT 14 24
REMARK Flexibility Score: inf
ROOT
ATOM      1  C   UNL     1     142.058 138.158 145.355  1.00  0.00     0.062 C 
ATOM      2  C   UNL     1     141.779 138.556 146.806  1.00  0.00     0.012 C 
ATOM      3  C   UNL     1     142.665 137.650 147.665  1.00  0.00     0.005 C 
ATOM      4  C   UNL     1     143.473 136.766 146.696  1.00  0.00    -0.001 C 
ATOM      5  C   UNL     1     143.489 137.557 145.362  1.00  0.00    -0.020 C 
ATOM      6  C   UNL     1     144.599 138.676 145.342  1.00  0.00     0.008 C 
ATOM      7  C   UNL     1     145.751 138.495 146.349  1.00  0.00     0.005 C 
ATOM      8  C   UNL     1     146.068 137.013 146.587  1.00  0.00     0.003 C 
ATOM      9  C   UNL     1     144.864 136.340 147.279  1.00  0.00     0.000 C 
ATOM     10  C   UNL     1     145.080 134.824 147.210  1.00  0.00     0.031 C 
ATOM     11  C   UNL     1     146.384 134.453 147.861  1.00  0.00    -0.027 C 
ATOM     12  C   UNL     1     147.445 135.293 147.925  1.00  0.00    -0.065 C 
ATOM     13  C   UNL     1     147.417 136.726 147.357  1.00  0.00    -0.008 C 
ATOM     14  C   UNL     1     147.617 137.711 148.553  1.00  0.00     0.014 C 
ATOM     15  C   UNL     1     148.806 137.346 149.464  1.00  0.00     0.033 C 
ATOM     16  C   UNL     1     148.724 135.896 149.970  1.00  0.00     0.118 C 
ATOM     17  C   UNL     1     148.623 134.910 148.798  1.00  0.00     0.063 C 
ATOM     18  C   UNL     1     148.587 136.881 146.349  1.00  0.00     0.016 C 
ATOM     19  C   UNL     1     143.649 136.602 144.151  1.00  0.00     0.012 C 
ENDROOT
BRANCH   1  20
ATOM     20  C   UNL     1     141.807 139.264 144.341  1.00  0.00     0.133 C 
ATOM     21  C   UNL     1     141.456 140.651 144.790  1.00  0.00     0.088 C 
ATOM     22  O   UNL     1     141.894 139.043 143.141  1.00  0.00    -0.300 OA
ENDBRANCH   1  20
BRANCH  16  23
ATOM     23  O   UNL     1     149.866 135.613 150.735  1.00  0.00    -0.393 OA
ATOM     24  H   UNL     1     150.310 134.832 150.309  1.00  0.00     0.210 HD
ENDBRANCH  16  23
TORSDOF 2
ENDMDL
MODEL 9
REMARK VINA RESULT:    -5.429      3.663      4.951
REMARK INTER + INTRA:          -6.061
REMARK INTER:                  -5.908
REMARK INTRA:                  -0.153
REMARK UNBOUND:                -0.156
REMARK SMILES CC(=O)[C@@H]1CC[C@@H]2[C@H]3CC=C4C[C@@H](O)CC[C@]4(C)[C@@H]3CC[C@@]21C
REMARK SMILES IDX 4 1 5 2 6 3 7 4 22 5 21 6 20 7 19 8 8 9 9 10 10 11 11 12
REMARK SMILES IDX 17 13 16 14 15 15 13 16 12 17 18 18 23 19 2 20 1 21 3 22
REMARK SMILES IDX 14 23
REMARK H PARENT 14 24
REMARK Flexibility Score: inf
ROOT
ATOM      1  C   UNL     1     140.590 137.354 144.646  1.00  0.00     0.062 C 
ATOM      2  C   UNL     1     141.055 135.938 144.992  1.00  0.00     0.012 C 
ATOM      3  C   UNL     1     142.488 135.830 144.465  1.00  0.00     0.005 C 
ATOM      4  C   UNL     1     142.846 137.199 143.855  1.00  0.00    -0.001 C 
ATOM      5  C   UNL     1     141.887 138.200 144.549  1.00  0.00    -0.020 C 
ATOM      6  C   UNL     1     142.409 138.645 145.968  1.00  0.00     0.008 C 
ATOM      7  C   UNL     1     143.916 138.448 146.219  1.00  0.00     0.005 C 
ATOM      8  C   UNL     1     144.734 138.637 144.935  1.00  0.00     0.003 C 
ATOM      9  C   UNL     1     144.378 137.518 143.935  1.00  0.00     0.000 C 
ATOM     10  C   UNL     1     144.957 137.915 142.572  1.00  0.00     0.031 C 
ATOM     11  C   UNL     1     146.443 138.123 142.678  1.00  0.00    -0.027 C 
ATOM     12  C   UNL     1     147.056 138.512 143.821  1.00  0.00    -0.065 C 
ATOM     13  C   UNL     1     146.296 138.758 145.140  1.00  0.00    -0.008 C 
ATOM     14  C   UNL     1     146.820 137.724 146.186  1.00  0.00     0.014 C 
ATOM     15  C   UNL     1     148.358 137.653 146.272  1.00  0.00     0.033 C 
ATOM     16  C   UNL     1     149.003 137.402 144.899  1.00  0.00     0.118 C 
ATOM     17  C   UNL     1     148.569 138.470 143.884  1.00  0.00     0.063 C 
ATOM     18  C   UNL     1     146.606 140.199 145.627  1.00  0.00     0.016 C 
ATOM     19  C   UNL     1     141.627 139.435 143.648  1.00  0.00     0.012 C 
ENDROOT
BRANCH   1  20
ATOM     20  C   UNL     1     139.506 137.902 145.564  1.00  0.00     0.133 C 
ATOM     21  C   UNL     1     139.234 137.265 146.894  1.00  0.00     0.088 C 
ATOM     22  O   UNL     1     138.844 138.876 145.236  1.00  0.00    -0.300 OA
ENDBRANCH   1  20
BRANCH  16  23
ATOM     23  O   UNL     1     150.399 137.416 145.040  1.00  0.00    -0.393 OA
ATOM     24  H   UNL     1     150.759 137.938 144.274  1.00  0.00     0.210 HD
ENDBRANCH  16  23
TORSDOF 2
ENDMDL
