MODEL 1
REMARK VINA RESULT:    -3.121      0.000      0.000
REMARK INTER + INTRA:          -4.722
REMARK INTER:                  -4.581
REMARK INTRA:                  -0.141
REMARK UNBOUND:                -0.141
REMARK SMILES CC(C)COC(=O)c1ccccc1C(=O)OCC(C)C
REMARK SMILES IDX 8 1 9 2 10 3 11 4 12 5 13 6 6 7 7 8 5 9 4 10 2 11 1 12 3 13
REMARK SMILES IDX 14 14 15 15 16 16 17 17 18 18 19 19 20 20
REMARK H PARENT
REMARK Flexibility Score: inf
ROOT
ATOM      1  C   UNL     1      76.899  34.211  52.019  1.00  0.00     0.074 A 
ATOM      2  C   UNL     1      77.750  33.092  51.964  1.00  0.00     0.016 A 
ATOM      3  C   UNL     1      77.297  31.830  52.347  1.00  0.00     0.001 A 
ATOM      4  C   UNL     1      75.986  31.663  52.788  1.00  0.00     0.001 A 
ATOM      5  C   UNL     1      75.130  32.762  52.872  1.00  0.00     0.016 A 
ATOM      6  C   UNL     1      75.574  34.048  52.513  1.00  0.00     0.074 A 
ENDROOT
BRANCH   1   7
ATOM      7  C   UNL     1      77.412  35.497  51.492  1.00  0.00     0.339 C 
ATOM      8  O   UNL     1      76.770  36.123  50.606  1.00  0.00    -0.246 OA
BRANCH   7   9
ATOM      9  O   UNL     1      78.649  35.978  51.940  1.00  0.00    -0.462 OA
BRANCH   9  10
ATOM     10  C   UNL     1      79.894  35.705  51.292  1.00  0.00     0.236 C 
BRANCH  10  11
ATOM     11  C   UNL     1      79.687  35.093  49.894  1.00  0.00     0.021 C 
ATOM     12  C   UNL     1      79.886  36.125  48.778  1.00  0.00     0.011 C 
ATOM     13  C   UNL     1      80.601  33.880  49.678  1.00  0.00     0.011 C 
ENDBRANCH  10  11
ENDBRANCH   9  10
ENDBRANCH   7   9
ENDBRANCH   1   7
BRANCH   6  14
ATOM     14  C   UNL     1      74.649  35.182  52.734  1.00  0.00     0.339 C 
ATOM     15  O   UNL     1      74.056  35.721  51.760  1.00  0.00    -0.246 OA
BRANCH  14  16
ATOM     16  O   UNL     1      74.487  35.694  54.025  1.00  0.00    -0.462 OA
BRANCH  16  17
ATOM     17  C   UNL     1      73.228  35.712  54.694  1.00  0.00     0.236 C 
BRANCH  17  18
ATOM     18  C   UNL     1      72.798  34.277  55.038  1.00  0.00     0.021 C 
ATOM     19  C   UNL     1      71.983  33.674  53.887  1.00  0.00     0.011 C 
ATOM     20  C   UNL     1      71.987  34.243  56.340  1.00  0.00     0.011 C 
ENDBRANCH  17  18
ENDBRANCH  16  17
ENDBRANCH  14  16
ENDBRANCH   6  14
TORSDOF 8
ENDMDL
MODEL 2
REMARK VINA RESULT:    -3.049      0.521      6.285
REMARK INTER + INTRA:          -4.616
REMARK INTER:                  -5.010
REMARK INTRA:                   0.394
REMARK UNBOUND:                -0.141
REMARK SMILES CC(C)COC(=O)c1ccccc1C(=O)OCC(C)C
REMARK SMILES IDX 8 1 9 2 10 3 11 4 12 5 13 6 6 7 7 8 5 9 4 10 2 11 1 12 3 13
REMARK SMILES IDX 14 14 15 15 16 16 17 17 18 18 19 19 20 20
REMARK H PARENT
REMARK Flexibility Score: inf
ROOT
ATOM      1  C   UNL     1      75.394  34.219  52.648  1.00  0.00     0.074 A 
ATOM      2  C   UNL     1      74.883  32.967  53.038  1.00  0.00     0.016 A 
ATOM      3  C   UNL     1      75.651  31.810  52.910  1.00  0.00     0.001 A 
ATOM      4  C   UNL     1      76.943  31.883  52.392  1.00  0.00     0.001 A 
ATOM      5  C   UNL     1      77.463  33.110  51.979  1.00  0.00     0.016 A 
ATOM      6  C   UNL     1      76.697  34.286  52.077  1.00  0.00     0.074 A 
ENDROOT
BRANCH   1   7
ATOM      7  C   UNL     1      74.567  35.418  52.917  1.00  0.00     0.339 C 
ATOM      8  O   UNL     1      74.085  36.085  51.962  1.00  0.00    -0.246 OA
BRANCH   7   9
ATOM      9  O   UNL     1      74.381  35.840  54.239  1.00  0.00    -0.462 OA
BRANCH   9  10
ATOM     10  C   UNL     1      73.126  35.797  54.922  1.00  0.00     0.236 C 
BRANCH  10  11
ATOM     11  C   UNL     1      72.684  34.350  55.211  1.00  0.00     0.021 C 
ATOM     12  C   UNL     1      71.810  34.254  56.466  1.00  0.00     0.011 C 
ATOM     13  C   UNL     1      71.963  33.738  54.002  1.00  0.00     0.011 C 
ENDBRANCH  10  11
ENDBRANCH   9  10
ENDBRANCH   7   9
ENDBRANCH   1   7
BRANCH   6  14
ATOM     14  C   UNL     1      77.270  35.530  51.517  1.00  0.00     0.339 C 
ATOM     15  O   UNL     1      76.695  36.125  50.565  1.00  0.00    -0.246 OA
BRANCH  14  16
ATOM     16  O   UNL     1      78.489  36.006  52.009  1.00  0.00    -0.462 OA
BRANCH  16  17
ATOM     17  C   UNL     1      79.699  35.947  51.258  1.00  0.00     0.236 C 
BRANCH  17  18
ATOM     18  C   UNL     1      79.767  34.625  50.478  1.00  0.00     0.021 C 
ATOM     19  C   UNL     1      80.658  33.616  51.212  1.00  0.00     0.011 C 
ATOM     20  C   UNL     1      80.284  34.854  49.051  1.00  0.00     0.011 C 
ENDBRANCH  17  18
ENDBRANCH  16  17
ENDBRANCH  14  16
ENDBRANCH   6  14
TORSDOF 8
ENDMDL
MODEL 3
REMARK VINA RESULT:    -2.648      0.943      1.370
REMARK INTER + INTRA:          -4.027
REMARK INTER:                  -3.572
REMARK INTRA:                  -0.455
REMARK UNBOUND:                -0.141
REMARK SMILES CC(C)COC(=O)c1ccccc1C(=O)OCC(C)C
REMARK SMILES IDX 8 1 9 2 10 3 11 4 12 5 13 6 6 7 7 8 5 9 4 10 2 11 1 12 3 13
REMARK SMILES IDX 14 14 15 15 16 16 17 17 18 18 19 19 20 20
REMARK H PARENT
REMARK Flexibility Score: inf
ROOT
ATOM      1  C   UNL     1      77.715  34.106  52.116  1.00  0.00     0.074 A 
ATOM      2  C   UNL     1      78.373  32.870  52.252  1.00  0.00     0.016 A 
ATOM      3  C   UNL     1      77.649  31.692  52.444  1.00  0.00     0.001 A 
ATOM      4  C   UNL     1      76.258  31.730  52.501  1.00  0.00     0.001 A 
ATOM      5  C   UNL     1      75.585  32.947  52.391  1.00  0.00     0.016 A 
ATOM      6  C   UNL     1      76.296  34.149  52.221  1.00  0.00     0.074 A 
ENDROOT
BRANCH   1   7
ATOM      7  C   UNL     1      78.539  35.297  51.802  1.00  0.00     0.339 C 
ATOM      8  O   UNL     1      78.987  36.022  52.730  1.00  0.00    -0.246 OA
BRANCH   7   9
ATOM      9  O   UNL     1      78.760  35.644  50.464  1.00  0.00    -0.462 OA
BRANCH   9  10
ATOM     10  C   UNL     1      79.966  35.356  49.753  1.00  0.00     0.236 C 
BRANCH  10  11
ATOM     11  C   UNL     1      80.247  33.842  49.698  1.00  0.00     0.021 C 
ATOM     12  C   UNL     1      80.763  33.401  48.324  1.00  0.00     0.011 C 
ATOM     13  C   UNL     1      81.224  33.419  50.803  1.00  0.00     0.011 C 
ENDBRANCH  10  11
ENDBRANCH   9  10
ENDBRANCH   7   9
ENDBRANCH   1   7
BRANCH   6  14
ATOM     14  C   UNL     1      75.525  35.412  52.224  1.00  0.00     0.339 C 
ATOM     15  O   UNL     1      75.461  36.125  51.186  1.00  0.00    -0.246 OA
BRANCH  14  16
ATOM     16  O   UNL     1      74.918  35.842  53.409  1.00  0.00    -0.462 OA
BRANCH  16  17
ATOM     17  C   UNL     1      73.511  35.769  53.625  1.00  0.00     0.236 C 
BRANCH  17  18
ATOM     18  C   UNL     1      73.171  34.510  54.438  1.00  0.00     0.021 C 
ATOM     19  C   UNL     1      72.326  33.544  53.599  1.00  0.00     0.011 C 
ATOM     20  C   UNL     1      72.434  34.874  55.733  1.00  0.00     0.011 C 
ENDBRANCH  17  18
ENDBRANCH  16  17
ENDBRANCH  14  16
ENDBRANCH   6  14
TORSDOF 8
ENDMDL
MODEL 4
REMARK VINA RESULT:    -2.502      1.103      6.329
REMARK INTER + INTRA:          -3.814
REMARK INTER:                  -3.960
REMARK INTRA:                   0.146
REMARK UNBOUND:                -0.141
REMARK SMILES CC(C)COC(=O)c1ccccc1C(=O)OCC(C)C
REMARK SMILES IDX 8 1 9 2 10 3 11 4 12 5 13 6 6 7 7 8 5 9 4 10 2 11 1 12 3 13
REMARK SMILES IDX 14 14 15 15 16 16 17 17 18 18 19 19 20 20
REMARK H PARENT
REMARK Flexibility Score: inf
ROOT
ATOM      1  C   UNL     1      76.799  34.180  52.004  1.00  0.00     0.074 A 
ATOM      2  C   UNL     1      76.027  33.016  52.168  1.00  0.00     0.016 A 
ATOM      3  C   UNL     1      76.634  31.788  52.440  1.00  0.00     0.001 A 
ATOM      4  C   UNL     1      78.019  31.705  52.553  1.00  0.00     0.001 A 
ATOM      5  C   UNL     1      78.807  32.842  52.372  1.00  0.00     0.016 A 
ATOM      6  C   UNL     1      78.218  34.085  52.074  1.00  0.00     0.074 A 
ENDROOT
BRANCH   1   7
ATOM      7  C   UNL     1      76.084  35.466  51.830  1.00  0.00     0.339 C 
ATOM      8  O   UNL     1      76.210  36.125  50.763  1.00  0.00    -0.246 OA
BRANCH   7   9
ATOM      9  O   UNL     1      75.318  35.973  52.888  1.00  0.00    -0.462 OA
BRANCH   9  10
ATOM     10  C   UNL     1      73.898  35.844  52.979  1.00  0.00     0.236 C 
BRANCH  10  11
ATOM     11  C   UNL     1      73.487  34.810  54.045  1.00  0.00     0.021 C 
ATOM     12  C   UNL     1      72.987  35.476  55.331  1.00  0.00     0.011 C 
ATOM     13  C   UNL     1      72.435  33.837  53.497  1.00  0.00     0.011 C 
ENDBRANCH  10  11
ENDBRANCH   9  10
ENDBRANCH   7   9
ENDBRANCH   1   7
BRANCH   6  14
ATOM     14  C   UNL     1      79.119  35.222  51.784  1.00  0.00     0.339 C 
ATOM     15  O   UNL     1      79.717  35.818  52.722  1.00  0.00    -0.246 OA
BRANCH  14  16
ATOM     16  O   UNL     1      79.254  35.673  50.467  1.00  0.00    -0.462 OA
BRANCH  16  17
ATOM     17  C   UNL     1      80.263  35.188  49.586  1.00  0.00     0.236 C 
BRANCH  17  18
ATOM     18  C   UNL     1      80.333  33.655  49.663  1.00  0.00     0.021 C 
ATOM     19  C   UNL     1      81.410  33.219  50.664  1.00  0.00     0.011 C 
ATOM     20  C   UNL     1      80.611  33.046  48.283  1.00  0.00     0.011 C 
ENDBRANCH  17  18
ENDBRANCH  16  17
ENDBRANCH  14  16
ENDBRANCH   6  14
TORSDOF 8
ENDMDL
MODEL 5
REMARK VINA RESULT:    -1.914     15.806     17.325
REMARK INTER + INTRA:          -2.951
REMARK INTER:                  -3.182
REMARK INTRA:                   0.231
REMARK UNBOUND:                -0.141
REMARK SMILES CC(C)COC(=O)c1ccccc1C(=O)OCC(C)C
REMARK SMILES IDX 8 1 9 2 10 3 11 4 12 5 13 6 6 7 7 8 5 9 4 10 2 11 1 12 3 13
REMARK SMILES IDX 14 14 15 15 16 16 17 17 18 18 19 19 20 20
REMARK H PARENT
REMARK Flexibility Score: inf
ROOT
ATOM      1  C   UNL     1      85.023  31.024  65.168  1.00  0.00     0.074 A 
ATOM      2  C   UNL     1      83.673  31.048  64.774  1.00  0.00     0.016 A 
ATOM      3  C   UNL     1      83.021  29.878  64.384  1.00  0.00     0.001 A 
ATOM      4  C   UNL     1      83.706  28.665  64.382  1.00  0.00     0.001 A 
ATOM      5  C   UNL     1      85.053  28.621  64.747  1.00  0.00     0.016 A 
ATOM      6  C   UNL     1      85.735  29.793  65.122  1.00  0.00     0.074 A 
ENDROOT
BRANCH   1   7
ATOM      7  C   UNL     1      85.617  32.282  65.678  1.00  0.00     0.339 C 
ATOM      8  O   UNL     1      85.557  32.562  66.905  1.00  0.00    -0.246 OA
BRANCH   7   9
ATOM      9  O   UNL     1      86.189  33.186  64.774  1.00  0.00    -0.462 OA
BRANCH   9  10
ATOM     10  C   UNL     1      87.596  33.385  64.625  1.00  0.00     0.236 C 
BRANCH  10  11
ATOM     11  C   UNL     1      87.978  34.873  64.753  1.00  0.00     0.021 C 
ATOM     12  C   UNL     1      86.982  35.788  64.033  1.00  0.00     0.011 C 
ATOM     13  C   UNL     1      88.123  35.284  66.224  1.00  0.00     0.011 C 
ENDBRANCH  10  11
ENDBRANCH   9  10
ENDBRANCH   7   9
ENDBRANCH   1   7
BRANCH   6  14
ATOM     14  C   UNL     1      87.187  29.688  65.388  1.00  0.00     0.339 C 
ATOM     15  O   UNL     1      87.833  30.688  65.806  1.00  0.00    -0.246 OA
BRANCH  14  16
ATOM     16  O   UNL     1      87.851  28.489  65.110  1.00  0.00    -0.462 OA
BRANCH  16  17
ATOM     17  C   UNL     1      88.118  28.045  63.783  1.00  0.00     0.236 C 
BRANCH  17  18
ATOM     18  C   UNL     1      88.125  26.509  63.736  1.00  0.00     0.021 C 
ATOM     19  C   UNL     1      86.938  25.995  62.912  1.00  0.00     0.011 C 
ATOM     20  C   UNL     1      88.090  25.915  65.150  1.00  0.00     0.011 C 
ENDBRANCH  17  18
ENDBRANCH  16  17
ENDBRANCH  14  16
ENDBRANCH   6  14
TORSDOF 8
ENDMDL
MODEL 6
REMARK VINA RESULT:    -1.535      1.819      7.035
REMARK INTER + INTRA:          -2.394
REMARK INTER:                  -2.294
REMARK INTRA:                  -0.101
REMARK UNBOUND:                -0.141
REMARK SMILES CC(C)COC(=O)c1ccccc1C(=O)OCC(C)C
REMARK SMILES IDX 8 1 9 2 10 3 11 4 12 5 13 6 6 7 7 8 5 9 4 10 2 11 1 12 3 13
REMARK SMILES IDX 14 14 15 15 16 16 17 17 18 18 19 19 20 20
REMARK H PARENT
REMARK Flexibility Score: inf
ROOT
ATOM      1  C   UNL     1      73.705  34.308  52.952  1.00  0.00     0.074 A 
ATOM      2  C   UNL     1      72.313  34.374  52.759  1.00  0.00     0.016 A 
ATOM      3  C   UNL     1      71.760  35.276  51.849  1.00  0.00     0.001 A 
ATOM      4  C   UNL     1      72.588  36.124  51.117  1.00  0.00     0.001 A 
ATOM      5  C   UNL     1      73.970  36.091  51.308  1.00  0.00     0.016 A 
ATOM      6  C   UNL     1      74.546  35.206  52.237  1.00  0.00     0.074 A 
ENDROOT
BRANCH   1   7
ATOM      7  C   UNL     1      74.229  33.251  53.848  1.00  0.00     0.339 C 
ATOM      8  O   UNL     1      75.207  32.540  53.490  1.00  0.00    -0.246 OA
BRANCH   7   9
ATOM      9  O   UNL     1      73.588  33.006  55.069  1.00  0.00    -0.462 OA
BRANCH   9  10
ATOM     10  C   UNL     1      72.823  33.982  55.779  1.00  0.00     0.236 C 
BRANCH  10  11
ATOM     11  C   UNL     1      71.654  33.340  56.550  1.00  0.00     0.021 C 
ATOM     12  C   UNL     1      72.090  32.801  57.916  1.00  0.00     0.011 C 
ATOM     13  C   UNL     1      70.484  34.321  56.704  1.00  0.00     0.011 C 
ENDBRANCH  10  11
ENDBRANCH   9  10
ENDBRANCH   7   9
ENDBRANCH   1   7
BRANCH   6  14
ATOM     14  C   UNL     1      76.004  35.305  52.469  1.00  0.00     0.339 C 
ATOM     15  O   UNL     1      76.456  36.022  53.403  1.00  0.00    -0.246 OA
BRANCH  14  16
ATOM     16  O   UNL     1      76.883  34.646  51.602  1.00  0.00    -0.462 OA
BRANCH  16  17
ATOM     17  C   UNL     1      78.160  34.168  52.017  1.00  0.00     0.236 C 
BRANCH  17  18
ATOM     18  C   UNL     1      79.246  35.190  51.651  1.00  0.00     0.021 C 
ATOM     19  C   UNL     1      79.755  34.943  50.226  1.00  0.00     0.011 C 
ATOM     20  C   UNL     1      80.411  35.138  52.649  1.00  0.00     0.011 C 
ENDBRANCH  17  18
ENDBRANCH  16  17
ENDBRANCH  14  16
ENDBRANCH   6  14
TORSDOF 8
ENDMDL
