MODEL 1
REMARK VINA RESULT:    -5.527      0.000      0.000
REMARK INTER + INTRA:          -6.409
REMARK INTER:                  -6.012
REMARK INTRA:                  -0.398
REMARK UNBOUND:                -0.398
REMARK SMILES C=C1C[C@]2(O)O[C@]3(C[C@@H]2C(C)C)[C@H](C)CC[C@H]13
REMARK SMILES IDX 14 1 13 2 15 3 16 4 17 5 7 6 8 7 9 8 4 9 6 10 3 11 2 12 1 13
REMARK SMILES IDX 10 14 11 15 12 16 5 17
REMARK H PARENT 5 18
REMARK Flexibility Score: inf
ROOT
ATOM      1  C   UNL     1     -10.933  15.367  -7.678  1.00  0.00     0.011 C 
ATOM      2  C   UNL     1     -11.412  16.355  -8.752  1.00  0.00     0.019 C 
ATOM      3  C   UNL     1     -11.859  15.646 -10.040  1.00  0.00     0.007 C 
ATOM      4  C   UNL     1     -11.365  16.494 -11.215  1.00  0.00     0.011 C 
ATOM      5  C   UNL     1     -10.778  17.771 -10.613  1.00  0.00     0.047 C 
ATOM      6  C   UNL     1     -10.342  17.365  -9.192  1.00  0.00     0.081 C 
ATOM      7  C   UNL     1     -10.207  18.578  -8.266  1.00  0.00     0.046 C 
ATOM      8  C   UNL     1      -8.729  18.928  -8.400  1.00  0.00     0.054 C 
ATOM      9  C   UNL     1      -8.188  17.865  -9.397  1.00  0.00     0.173 C 
ATOM     10  O   UNL     1      -9.061  16.767  -9.255  1.00  0.00    -0.342 OA
ATOM     11  C   UNL     1      -8.204  18.254 -10.896  1.00  0.00     0.096 C 
ATOM     12  C   UNL     1      -9.621  18.328 -11.431  1.00  0.00    -0.066 C 
ATOM     13  C   UNL     1      -9.848  18.860 -12.640  1.00  0.00     0.008 C 
ENDROOT
BRANCH   8  14
ATOM     14  C   UNL     1      -8.419  20.449  -8.588  1.00  0.00    -0.009 C 
ATOM     15  C   UNL     1      -9.667  21.227  -9.029  1.00  0.00     0.008 C 
ATOM     16  C   UNL     1      -7.704  21.174  -7.428  1.00  0.00     0.008 C 
ENDBRANCH   8  14
BRANCH   9  17
ATOM     17  O   UNL     1      -6.885  17.495  -9.018  1.00  0.00    -0.365 OA
ATOM     18  H   UNL     1      -6.390  17.256  -9.846  1.00  0.00     0.214 HD
ENDBRANCH   9  17
TORSDOF 2
ENDMDL
MODEL 2
REMARK VINA RESULT:    -5.309      1.343      1.683
REMARK INTER + INTRA:          -6.172
REMARK INTER:                  -6.162
REMARK INTRA:                  -0.010
REMARK UNBOUND:                -0.398
REMARK SMILES C=C1C[C@]2(O)O[C@]3(C[C@@H]2C(C)C)[C@H](C)CC[C@H]13
REMARK SMILES IDX 14 1 13 2 15 3 16 4 17 5 7 6 8 7 9 8 4 9 6 10 3 11 2 12 1 13
REMARK SMILES IDX 10 14 11 15 12 16 5 17
REMARK H PARENT 5 18
REMARK Flexibility Score: inf
ROOT
ATOM      1  C   UNL     1     -11.135  14.000  -8.714  1.00  0.00     0.011 C 
ATOM      2  C   UNL     1     -11.937  15.286  -8.961  1.00  0.00     0.019 C 
ATOM      3  C   UNL     1     -12.932  15.139 -10.123  1.00  0.00     0.007 C 
ATOM      4  C   UNL     1     -12.905  16.454 -10.906  1.00  0.00     0.011 C 
ATOM      5  C   UNL     1     -12.025  17.417 -10.109  1.00  0.00     0.047 C 
ATOM      6  C   UNL     1     -11.071  16.504  -9.315  1.00  0.00     0.081 C 
ATOM      7  C   UNL     1     -10.471  17.219  -8.101  1.00  0.00     0.046 C 
ATOM      8  C   UNL     1      -9.159  17.762  -8.658  1.00  0.00     0.054 C 
ATOM      9  C   UNL     1      -9.165  17.289 -10.139  1.00  0.00     0.173 C 
ATOM     10  O   UNL     1      -9.983  16.141 -10.142  1.00  0.00    -0.342 OA
ATOM     11  C   UNL     1      -9.770  18.269 -11.174  1.00  0.00     0.096 C 
ATOM     12  C   UNL     1     -11.271  18.397 -10.999  1.00  0.00    -0.066 C 
ATOM     13  C   UNL     1     -11.937  19.359 -11.652  1.00  0.00     0.008 C 
ENDROOT
BRANCH   8  14
ATOM     14  C   UNL     1      -8.838  19.245  -8.281  1.00  0.00    -0.009 C 
ATOM     15  C   UNL     1      -7.675  19.799  -9.117  1.00  0.00     0.008 C 
ATOM     16  C   UNL     1     -10.018  20.241  -8.259  1.00  0.00     0.008 C 
ENDBRANCH   8  14
BRANCH   9  17
ATOM     17  O   UNL     1      -7.855  16.948 -10.521  1.00  0.00    -0.365 OA
ATOM     18  H   UNL     1      -7.917  16.412 -11.356  1.00  0.00     0.214 HD
ENDBRANCH   9  17
TORSDOF 2
ENDMDL
MODEL 3
REMARK VINA RESULT:    -5.249      1.855      4.488
REMARK INTER + INTRA:          -6.107
REMARK INTER:                  -5.714
REMARK INTRA:                  -0.393
REMARK UNBOUND:                -0.398
REMARK SMILES C=C1C[C@]2(O)O[C@]3(C[C@@H]2C(C)C)[C@H](C)CC[C@H]13
REMARK SMILES IDX 14 1 13 2 15 3 16 4 17 5 7 6 8 7 9 8 4 9 6 10 3 11 2 12 1 13
REMARK SMILES IDX 10 14 11 15 12 16 5 17
REMARK H PARENT 5 18
REMARK Flexibility Score: inf
ROOT
ATOM      1  C   UNL     1     -12.428  21.142  -9.916  1.00  0.00     0.011 C 
ATOM      2  C   UNL     1     -11.155  20.880  -9.096  1.00  0.00     0.019 C 
ATOM      3  C   UNL     1     -10.170  22.058  -9.155  1.00  0.00     0.007 C 
ATOM      4  C   UNL     1      -8.763  21.462  -9.255  1.00  0.00     0.011 C 
ATOM      5  C   UNL     1      -8.918  19.951  -9.090  1.00  0.00     0.047 C 
ATOM      6  C   UNL     1     -10.355  19.654  -9.561  1.00  0.00     0.081 C 
ATOM      7  C   UNL     1     -10.875  18.322  -9.012  1.00  0.00     0.046 C 
ATOM      8  C   UNL     1     -10.525  17.348 -10.132  1.00  0.00     0.054 C 
ATOM      9  C   UNL     1      -9.839  18.247 -11.199  1.00  0.00     0.173 C 
ATOM     10  O   UNL     1     -10.364  19.535 -10.970  1.00  0.00    -0.342 OA
ATOM     11  C   UNL     1      -8.298  18.373 -11.107  1.00  0.00     0.096 C 
ATOM     12  C   UNL     1      -7.882  19.164  -9.882  1.00  0.00    -0.066 C 
ATOM     13  C   UNL     1      -6.594  19.191  -9.515  1.00  0.00     0.008 C 
ENDROOT
BRANCH   8  14
ATOM     14  C   UNL     1      -9.878  16.003  -9.667  1.00  0.00    -0.009 C 
ATOM     15  C   UNL     1      -9.433  16.071  -8.199  1.00  0.00     0.008 C 
ATOM     16  C   UNL     1     -10.671  14.706  -9.937  1.00  0.00     0.008 C 
ENDBRANCH   8  14
BRANCH   9  17
ATOM     17  O   UNL     1     -10.201  17.800 -12.483  1.00  0.00    -0.365 OA
ATOM     18  H   UNL     1     -10.314  18.603 -13.057  1.00  0.00     0.214 HD
ENDBRANCH   9  17
TORSDOF 2
ENDMDL
MODEL 4
REMARK VINA RESULT:    -5.082      1.807      2.259
REMARK INTER + INTRA:          -5.925
REMARK INTER:                  -5.561
REMARK INTRA:                  -0.364
REMARK UNBOUND:                -0.398
REMARK SMILES C=C1C[C@]2(O)O[C@]3(C[C@@H]2C(C)C)[C@H](C)CC[C@H]13
REMARK SMILES IDX 14 1 13 2 15 3 16 4 17 5 7 6 8 7 9 8 4 9 6 10 3 11 2 12 1 13
REMARK SMILES IDX 10 14 11 15 12 16 5 17
REMARK H PARENT 5 18
REMARK Flexibility Score: inf
ROOT
ATOM      1  C   UNL     1     -11.096  16.273  -8.942  1.00  0.00     0.011 C 
ATOM      2  C   UNL     1     -11.381  17.781  -8.878  1.00  0.00     0.019 C 
ATOM      3  C   UNL     1     -12.635  18.173  -9.676  1.00  0.00     0.007 C 
ATOM      4  C   UNL     1     -12.324  19.497 -10.378  1.00  0.00     0.011 C 
ATOM      5  C   UNL     1     -10.961  19.955  -9.861  1.00  0.00     0.047 C 
ATOM      6  C   UNL     1     -10.249  18.655  -9.439  1.00  0.00     0.081 C 
ATOM      7  C   UNL     1      -9.112  18.919  -8.448  1.00  0.00     0.046 C 
ATOM      8  C   UNL     1      -7.901  19.044  -9.366  1.00  0.00     0.054 C 
ATOM      9  C   UNL     1      -8.495  18.834 -10.787  1.00  0.00     0.173 C 
ATOM     10  O   UNL     1      -9.656  18.063 -10.578  1.00  0.00    -0.342 OA
ATOM     11  C   UNL     1      -8.940  20.111 -11.544  1.00  0.00     0.096 C 
ATOM     12  C   UNL     1     -10.167  20.730 -10.904  1.00  0.00    -0.066 C 
ATOM     13  C   UNL     1     -10.566  21.952 -11.281  1.00  0.00     0.008 C 
ENDROOT
BRANCH   8  14
ATOM     14  C   UNL     1      -6.948  20.243  -9.053  1.00  0.00    -0.009 C 
ATOM     15  C   UNL     1      -7.452  21.065  -7.858  1.00  0.00     0.008 C 
ATOM     16  C   UNL     1      -5.443  19.931  -8.906  1.00  0.00     0.008 C 
ENDBRANCH   8  14
BRANCH   9  17
ATOM     17  O   UNL     1      -7.574  18.116 -11.572  1.00  0.00    -0.365 OA
ATOM     18  H   UNL     1      -6.763  17.966 -11.019  1.00  0.00     0.214 HD
ENDBRANCH   9  17
TORSDOF 2
ENDMDL
MODEL 5
REMARK VINA RESULT:    -4.964      1.827      2.739
REMARK INTER + INTRA:          -5.797
REMARK INTER:                  -5.465
REMARK INTRA:                  -0.333
REMARK UNBOUND:                -0.398
REMARK SMILES C=C1C[C@]2(O)O[C@]3(C[C@@H]2C(C)C)[C@H](C)CC[C@H]13
REMARK SMILES IDX 14 1 13 2 15 3 16 4 17 5 7 6 8 7 9 8 4 9 6 10 3 11 2 12 1 13
REMARK SMILES IDX 10 14 11 15 12 16 5 17
REMARK H PARENT 5 18
REMARK Flexibility Score: inf
ROOT
ATOM      1  C   UNL     1     -10.395  13.824 -10.135  1.00  0.00     0.011 C 
ATOM      2  C   UNL     1     -11.031  14.866  -9.203  1.00  0.00     0.019 C 
ATOM      3  C   UNL     1     -12.562  14.745  -9.150  1.00  0.00     0.007 C 
ATOM      4  C   UNL     1     -13.125  16.168  -9.126  1.00  0.00     0.011 C 
ATOM      5  C   UNL     1     -11.926  17.108  -9.001  1.00  0.00     0.047 C 
ATOM      6  C   UNL     1     -10.750  16.321  -9.610  1.00  0.00     0.081 C 
ATOM      7  C   UNL     1      -9.395  16.853  -9.133  1.00  0.00     0.046 C 
ATOM      8  C   UNL     1      -9.032  17.848 -10.231  1.00  0.00     0.054 C 
ATOM      9  C   UNL     1     -10.233  17.766 -11.214  1.00  0.00     0.173 C 
ATOM     10  O   UNL     1     -10.768  16.477 -11.016  1.00  0.00    -0.342 OA
ATOM     11  C   UNL     1     -11.390  18.768 -10.976  1.00  0.00     0.096 C 
ATOM     12  C   UNL     1     -12.149  18.440  -9.704  1.00  0.00    -0.066 C 
ATOM     13  C   UNL     1     -13.037  19.317  -9.217  1.00  0.00     0.008 C 
ENDROOT
BRANCH   8  14
ATOM     14  C   UNL     1      -8.487  19.225  -9.729  1.00  0.00    -0.009 C 
ATOM     15  C   UNL     1      -9.031  19.570  -8.335  1.00  0.00     0.008 C 
ATOM     16  C   UNL     1      -6.960  19.446  -9.789  1.00  0.00     0.008 C 
ENDBRANCH   8  14
BRANCH   9  17
ATOM     17  O   UNL     1      -9.762  17.893 -12.534  1.00  0.00    -0.365 OA
ATOM     18  H   UNL     1      -9.203  17.095 -12.729  1.00  0.00     0.214 HD
ENDBRANCH   9  17
TORSDOF 2
ENDMDL
MODEL 6
REMARK VINA RESULT:    -4.941      1.370      4.691
REMARK INTER + INTRA:          -5.772
REMARK INTER:                  -5.766
REMARK INTRA:                  -0.006
REMARK UNBOUND:                -0.398
REMARK SMILES C=C1C[C@]2(O)O[C@]3(C[C@@H]2C(C)C)[C@H](C)CC[C@H]13
REMARK SMILES IDX 14 1 13 2 15 3 16 4 17 5 7 6 8 7 9 8 4 9 6 10 3 11 2 12 1 13
REMARK SMILES IDX 10 14 11 15 12 16 5 17
REMARK H PARENT 5 18
REMARK Flexibility Score: inf
ROOT
ATOM      1  C   UNL     1      -5.412  19.400  -9.076  1.00  0.00     0.011 C 
ATOM      2  C   UNL     1      -6.631  20.335  -9.074  1.00  0.00     0.019 C 
ATOM      3  C   UNL     1      -6.833  21.029  -7.718  1.00  0.00     0.007 C 
ATOM      4  C   UNL     1      -8.339  21.057  -7.447  1.00  0.00     0.011 C 
ATOM      5  C   UNL     1      -9.018  20.531  -8.711  1.00  0.00     0.047 C 
ATOM      6  C   UNL     1      -7.961  19.626  -9.372  1.00  0.00     0.081 C 
ATOM      7  C   UNL     1      -8.238  19.415 -10.863  1.00  0.00     0.046 C 
ATOM      8  C   UNL     1      -9.050  18.124 -10.865  1.00  0.00     0.054 C 
ATOM      9  C   UNL     1      -9.142  17.746  -9.361  1.00  0.00     0.173 C 
ATOM     10  O   UNL     1      -8.010  18.345  -8.773  1.00  0.00    -0.342 OA
ATOM     11  C   UNL     1     -10.377  18.277  -8.590  1.00  0.00     0.096 C 
ATOM     12  C   UNL     1     -10.310  19.781  -8.414  1.00  0.00    -0.066 C 
ATOM     13  C   UNL     1     -11.386  20.446  -7.970  1.00  0.00     0.008 C 
ENDROOT
BRANCH   8  14
ATOM     14  C   UNL     1     -10.319  18.136 -11.779  1.00  0.00    -0.009 C 
ATOM     15  C   UNL     1     -11.241  16.946 -11.476  1.00  0.00     0.008 C 
ATOM     16  C   UNL     1     -11.127  19.449 -11.850  1.00  0.00     0.008 C 
ENDBRANCH   8  14
BRANCH   9  17
ATOM     17  O   UNL     1      -9.068  16.347  -9.229  1.00  0.00    -0.365 OA
ATOM     18  H   UNL     1      -8.614  16.152  -8.367  1.00  0.00     0.214 HD
ENDBRANCH   9  17
TORSDOF 2
ENDMDL
MODEL 7
REMARK VINA RESULT:    -4.830      1.444      2.035
REMARK INTER + INTRA:          -5.651
REMARK INTER:                  -5.258
REMARK INTRA:                  -0.393
REMARK UNBOUND:                -0.398
REMARK SMILES C=C1C[C@]2(O)O[C@]3(C[C@@H]2C(C)C)[C@H](C)CC[C@H]13
REMARK SMILES IDX 14 1 13 2 15 3 16 4 17 5 7 6 8 7 9 8 4 9 6 10 3 11 2 12 1 13
REMARK SMILES IDX 10 14 11 15 12 16 5 17
REMARK H PARENT 5 18
REMARK Flexibility Score: inf
ROOT
ATOM      1  C   UNL     1      -9.761  15.499  -6.933  1.00  0.00     0.011 C 
ATOM      2  C   UNL     1     -11.052  16.126  -7.481  1.00  0.00     0.019 C 
ATOM      3  C   UNL     1     -12.047  15.068  -7.982  1.00  0.00     0.007 C 
ATOM      4  C   UNL     1     -12.680  15.616  -9.263  1.00  0.00     0.011 C 
ATOM      5  C   UNL     1     -12.177  17.051  -9.417  1.00  0.00     0.047 C 
ATOM      6  C   UNL     1     -10.829  17.072  -8.671  1.00  0.00     0.081 C 
ATOM      7  C   UNL     1     -10.417  18.492  -8.272  1.00  0.00     0.046 C 
ATOM      8  C   UNL     1      -9.542  18.920  -9.446  1.00  0.00     0.054 C 
ATOM      9  C   UNL     1      -9.558  17.682 -10.386  1.00  0.00     0.173 C 
ATOM     10  O   UNL     1      -9.817  16.590  -9.533  1.00  0.00    -0.342 OA
ATOM     11  C   UNL     1     -10.656  17.661 -11.479  1.00  0.00     0.096 C 
ATOM     12  C   UNL     1     -12.033  17.471 -10.874  1.00  0.00    -0.066 C 
ATOM     13  C   UNL     1     -13.122  17.646 -11.634  1.00  0.00     0.008 C 
ENDROOT
BRANCH   8  14
ATOM     14  C   UNL     1      -9.817  20.359  -9.992  1.00  0.00    -0.009 C 
ATOM     15  C   UNL     1     -11.137  20.924  -9.448  1.00  0.00     0.008 C 
ATOM     16  C   UNL     1      -8.681  21.396  -9.858  1.00  0.00     0.008 C 
ENDBRANCH   8  14
BRANCH   9  17
ATOM     17  O   UNL     1      -8.293  17.537 -10.983  1.00  0.00    -0.365 OA
ATOM     18  H   UNL     1      -8.043  16.578 -10.924  1.00  0.00     0.214 HD
ENDBRANCH   9  17
TORSDOF 2
ENDMDL
MODEL 8
REMARK VINA RESULT:    -4.557      1.993      3.668
REMARK INTER + INTRA:          -5.354
REMARK INTER:                  -4.972
REMARK INTRA:                  -0.382
REMARK UNBOUND:                -0.398
REMARK SMILES C=C1C[C@]2(O)O[C@]3(C[C@@H]2C(C)C)[C@H](C)CC[C@H]13
REMARK SMILES IDX 14 1 13 2 15 3 16 4 17 5 7 6 8 7 9 8 4 9 6 10 3 11 2 12 1 13
REMARK SMILES IDX 10 14 11 15 12 16 5 17
REMARK H PARENT 5 18
REMARK Flexibility Score: inf
ROOT
ATOM      1  C   UNL     1      -7.268  17.652  -9.158  1.00  0.00     0.011 C 
ATOM      2  C   UNL     1      -8.654  17.353  -8.567  1.00  0.00     0.019 C 
ATOM      3  C   UNL     1      -8.825  15.870  -8.202  1.00  0.00     0.007 C 
ATOM      4  C   UNL     1     -10.250  15.472  -8.594  1.00  0.00     0.011 C 
ATOM      5  C   UNL     1     -10.955  16.755  -9.031  1.00  0.00     0.047 C 
ATOM      6  C   UNL     1      -9.819  17.677  -9.515  1.00  0.00     0.081 C 
ATOM      7  C   UNL     1     -10.236  19.151  -9.511  1.00  0.00     0.046 C 
ATOM      8  C   UNL     1     -10.731  19.353 -10.940  1.00  0.00     0.054 C 
ATOM      9  C   UNL     1     -10.538  17.957 -11.596  1.00  0.00     0.173 C 
ATOM     10  O   UNL     1      -9.501  17.356 -10.855  1.00  0.00    -0.342 OA
ATOM     11  C   UNL     1     -11.747  16.991 -11.533  1.00  0.00     0.096 C 
ATOM     12  C   UNL     1     -11.996  16.513 -10.116  1.00  0.00    -0.066 C 
ATOM     13  C   UNL     1     -13.125  15.851  -9.828  1.00  0.00     0.008 C 
ENDROOT
BRANCH   8  14
ATOM     14  C   UNL     1     -12.080  20.133 -11.073  1.00  0.00    -0.009 C 
ATOM     15  C   UNL     1     -12.900  20.063  -9.777  1.00  0.00     0.008 C 
ATOM     16  C   UNL     1     -12.010  21.583 -11.598  1.00  0.00     0.008 C 
ENDBRANCH   8  14
BRANCH   9  17
ATOM     17  O   UNL     1     -10.137  18.126 -12.934  1.00  0.00    -0.365 OA
ATOM     18  H   UNL     1     -10.943  18.011 -13.504  1.00  0.00     0.214 HD
ENDBRANCH   9  17
TORSDOF 2
ENDMDL
MODEL 9
REMARK VINA RESULT:    -4.485      2.723      4.839
REMARK INTER + INTRA:          -5.276
REMARK INTER:                  -4.882
REMARK INTRA:                  -0.394
REMARK UNBOUND:                -0.398
REMARK SMILES C=C1C[C@]2(O)O[C@]3(C[C@@H]2C(C)C)[C@H](C)CC[C@H]13
REMARK SMILES IDX 14 1 13 2 15 3 16 4 17 5 7 6 8 7 9 8 4 9 6 10 3 11 2 12 1 13
REMARK SMILES IDX 10 14 11 15 12 16 5 17
REMARK H PARENT 5 18
REMARK Flexibility Score: inf
ROOT
ATOM      1  C   UNL     1      -9.739  24.083 -11.147  1.00  0.00     0.011 C 
ATOM      2  C   UNL     1     -10.274  22.652 -11.309  1.00  0.00     0.019 C 
ATOM      3  C   UNL     1     -11.789  22.564 -11.071  1.00  0.00     0.007 C 
ATOM      4  C   UNL     1     -12.048  21.271 -10.294  1.00  0.00     0.011 C 
ATOM      5  C   UNL     1     -10.713  20.531 -10.224  1.00  0.00     0.047 C 
ATOM      6  C   UNL     1      -9.648  21.640 -10.338  1.00  0.00     0.081 C 
ATOM      7  C   UNL     1      -8.294  21.089 -10.794  1.00  0.00     0.046 C 
ATOM      8  C   UNL     1      -7.585  20.826  -9.469  1.00  0.00     0.054 C 
ATOM      9  C   UNL     1      -8.628  21.262  -8.402  1.00  0.00     0.173 C 
ATOM     10  O   UNL     1      -9.437  22.210  -9.061  1.00  0.00    -0.342 OA
ATOM     11  C   UNL     1      -9.578  20.157  -7.875  1.00  0.00     0.096 C 
ATOM     12  C   UNL     1     -10.558  19.718  -8.945  1.00  0.00    -0.066 C 
ATOM     13  C   UNL     1     -11.309  18.625  -8.750  1.00  0.00     0.008 C 
ENDROOT
BRANCH   8  14
ATOM     14  C   UNL     1      -6.847  19.452  -9.369  1.00  0.00    -0.009 C 
ATOM     15  C   UNL     1      -7.268  18.504 -10.501  1.00  0.00     0.008 C 
ATOM     16  C   UNL     1      -5.310  19.483  -9.227  1.00  0.00     0.008 C 
ENDBRANCH   8  14
BRANCH   9  17
ATOM     17  O   UNL     1      -7.960  21.867  -7.321  1.00  0.00    -0.365 OA
ATOM     18  H   UNL     1      -8.198  22.832  -7.326  1.00  0.00     0.214 HD
ENDBRANCH   9  17
TORSDOF 2
ENDMDL
