MODEL 1
REMARK VINA RESULT:    -4.806      0.000      0.000
REMARK INTER + INTRA:         -15.209
REMARK INTER:                 -12.111
REMARK INTRA:                  -3.098
REMARK UNBOUND:                -3.098
REMARK SMILES CCCCCCCCCCCCCCCCCCCCCCCCCCCC(=O)[O-]
REMARK SMILES IDX 15 1 16 2 17 3 18 4 19 5 20 6 21 7 22 8 23 9 24 10 25 11
REMARK SMILES IDX 26 12 27 13 28 14 29 15 30 16 14 17 13 18 12 19 11 20 10 21
REMARK SMILES IDX 9 22 8 23 7 24 6 25 5 26 4 27 3 28 2 29 1 30
REMARK H PARENT
REMARK Flexibility Score: inf
ROOT
ATOM      1  C   UNL     1      -5.544  43.506  20.380  1.00  0.00     0.000 C 
ENDROOT
BRANCH   1   2
ATOM      2  C   UNL     1      -4.826  44.217  19.221  1.00  0.00     0.000 C 
BRANCH   2   3
ATOM      3  C   UNL     1      -3.489  44.845  19.654  1.00  0.00     0.000 C 
BRANCH   3   4
ATOM      4  C   UNL     1      -2.293  44.289  18.864  1.00  0.00     0.000 C 
BRANCH   4   5
ATOM      5  C   UNL     1      -1.091  43.957  19.768  1.00  0.00     0.000 C 
BRANCH   5   6
ATOM      6  C   UNL     1      -1.432  44.039  21.265  1.00  0.00     0.000 C 
BRANCH   6   7
ATOM      7  C   UNL     1      -0.860  42.859  22.069  1.00  0.00     0.000 C 
BRANCH   7   8
ATOM      8  C   UNL     1       0.207  43.297  23.086  1.00  0.00     0.000 C 
BRANCH   8   9
ATOM      9  C   UNL     1      -0.361  43.502  24.499  1.00  0.00     0.000 C 
BRANCH   9  10
ATOM     10  C   UNL     1      -1.710  42.781  24.658  1.00  0.00     0.000 C 
BRANCH  10  11
ATOM     11  C   UNL     1      -2.471  43.217  25.920  1.00  0.00     0.000 C 
BRANCH  11  12
ATOM     12  C   UNL     1      -3.479  44.346  25.643  1.00  0.00     0.006 C 
BRANCH  12  13
ATOM     13  C   UNL     1      -3.986  44.327  24.192  1.00  0.00     0.053 C 
BRANCH  13  14
ATOM     14  C   UNL     1      -4.341  45.700  23.705  1.00  0.00     0.041 C 
ATOM     15  O   UNL     1      -5.278  45.857  22.876  1.00  0.00    -0.550 OA
ATOM     16  O   UNL     1      -3.620  46.801  24.146  1.00  0.00    -0.550 OA
ENDBRANCH  13  14
ENDBRANCH  12  13
ENDBRANCH  11  12
ENDBRANCH  10  11
ENDBRANCH   9  10
ENDBRANCH   8   9
ENDBRANCH   7   8
ENDBRANCH   6   7
ENDBRANCH   5   6
ENDBRANCH   4   5
ENDBRANCH   3   4
ENDBRANCH   2   3
ENDBRANCH   1   2
BRANCH   1  17
ATOM     17  C   UNL     1      -5.101  42.040  20.532  1.00  0.00     0.000 C 
BRANCH  17  18
ATOM     18  C   UNL     1      -4.474  41.747  21.905  1.00  0.00     0.000 C 
BRANCH  18  19
ATOM     19  C   UNL     1      -5.103  40.519  22.588  1.00  0.00     0.000 C 
BRANCH  19  20
ATOM     20  C   UNL     1      -5.026  40.590  24.122  1.00  0.00     0.000 C 
BRANCH  20  21
ATOM     21  C   UNL     1      -6.171  41.417  24.738  1.00  0.00     0.000 C 
BRANCH  21  22
ATOM     22  C   UNL     1      -7.353  40.541  25.204  1.00  0.00    -0.000 C 
BRANCH  22  23
ATOM     23  C   UNL     1      -8.371  41.280  26.096  1.00  0.00    -0.000 C 
BRANCH  23  24
ATOM     24  C   UNL     1      -9.254  40.378  26.975  1.00  0.00    -0.000 C 
BRANCH  24  25
ATOM     25  C   UNL     1      -8.711  40.221  28.405  1.00  0.00    -0.000 C 
BRANCH  25  26
ATOM     26  C   UNL     1      -9.734  40.628  29.483  1.00  0.00    -0.000 C 
BRANCH  26  27
ATOM     27  C   UNL     1      -9.136  40.957  30.864  1.00  0.00    -0.000 C 
BRANCH  27  28
ATOM     28  C   UNL     1      -7.902  40.122  31.257  1.00  0.00    -0.000 C 
BRANCH  28  29
ATOM     29  C   UNL     1      -8.243  38.697  31.741  1.00  0.00    -0.003 C 
ATOM     30  C   UNL     1      -8.653  38.657  33.212  1.00  0.00     0.004 C 
ENDBRANCH  28  29
ENDBRANCH  27  28
ENDBRANCH  26  27
ENDBRANCH  25  26
ENDBRANCH  24  25
ENDBRANCH  23  24
ENDBRANCH  22  23
ENDBRANCH  21  22
ENDBRANCH  20  21
ENDBRANCH  19  20
ENDBRANCH  18  19
ENDBRANCH  17  18
ENDBRANCH   1  17
TORSDOF 26
ENDMDL
MODEL 2
REMARK VINA RESULT:    -4.780      6.358     10.389
REMARK INTER + INTRA:         -15.145
REMARK INTER:                 -10.723
REMARK INTRA:                  -4.421
REMARK UNBOUND:                -3.098
REMARK SMILES CCCCCCCCCCCCCCCCCCCCCCCCCCCC(=O)[O-]
REMARK SMILES IDX 15 1 16 2 17 3 18 4 19 5 20 6 21 7 22 8 23 9 24 10 25 11
REMARK SMILES IDX 26 12 27 13 28 14 29 15 30 16 14 17 13 18 12 19 11 20 10 21
REMARK SMILES IDX 9 22 8 23 7 24 6 25 5 26 4 27 3 28 2 29 1 30
REMARK H PARENT
REMARK Flexibility Score: inf
ROOT
ATOM      1  C   UNL     1       0.423  43.747  17.976  1.00  0.00     0.000 C 
ENDROOT
BRANCH   1   2
ATOM      2  C   UNL     1      -1.005  44.242  17.698  1.00  0.00     0.000 C 
BRANCH   2   3
ATOM      3  C   UNL     1      -1.827  43.237  16.872  1.00  0.00     0.000 C 
BRANCH   3   4
ATOM      4  C   UNL     1      -3.342  43.391  17.092  1.00  0.00     0.000 C 
BRANCH   4   5
ATOM      5  C   UNL     1      -3.675  44.258  18.321  1.00  0.00     0.000 C 
BRANCH   5   6
ATOM      6  C   UNL     1      -4.716  43.604  19.245  1.00  0.00     0.000 C 
BRANCH   6   7
ATOM      7  C   UNL     1      -4.776  44.266  20.632  1.00  0.00     0.000 C 
BRANCH   7   8
ATOM      8  C   UNL     1      -3.602  45.227  20.880  1.00  0.00     0.000 C 
BRANCH   8   9
ATOM      9  C   UNL     1      -3.208  45.322  22.362  1.00  0.00     0.000 C 
BRANCH   9  10
ATOM     10  C   UNL     1      -1.957  44.477  22.653  1.00  0.00     0.000 C 
BRANCH  10  11
ATOM     11  C   UNL     1      -1.245  44.010  21.373  1.00  0.00     0.000 C 
BRANCH  11  12
ATOM     12  C   UNL     1      -0.936  42.503  21.385  1.00  0.00     0.006 C 
BRANCH  12  13
ATOM     13  C   UNL     1      -2.198  41.650  21.180  1.00  0.00     0.053 C 
BRANCH  13  14
ATOM     14  C   UNL     1      -2.167  40.908  19.878  1.00  0.00     0.041 C 
ATOM     15  O   UNL     1      -3.210  40.355  19.437  1.00  0.00    -0.550 OA
ATOM     16  O   UNL     1      -0.980  40.805  19.165  1.00  0.00    -0.550 OA
ENDBRANCH  13  14
ENDBRANCH  12  13
ENDBRANCH  11  12
ENDBRANCH  10  11
ENDBRANCH   9  10
ENDBRANCH   8   9
ENDBRANCH   7   8
ENDBRANCH   6   7
ENDBRANCH   5   6
ENDBRANCH   4   5
ENDBRANCH   3   4
ENDBRANCH   2   3
ENDBRANCH   1   2
BRANCH   1  17
ATOM     17  C   UNL     1       1.475  44.493  17.134  1.00  0.00     0.000 C 
BRANCH  17  18
ATOM     18  C   UNL     1       0.848  45.505  16.161  1.00  0.00     0.000 C 
BRANCH  18  19
ATOM     19  C   UNL     1       1.519  46.888  16.238  1.00  0.00     0.000 C 
BRANCH  19  20
ATOM     20  C   UNL     1       2.993  46.809  16.667  1.00  0.00     0.000 C 
BRANCH  20  21
ATOM     21  C   UNL     1       3.320  47.736  17.853  1.00  0.00     0.000 C 
BRANCH  21  22
ATOM     22  C   UNL     1       4.173  47.039  18.935  1.00  0.00    -0.000 C 
BRANCH  22  23
ATOM     23  C   UNL     1       4.736  45.670  18.507  1.00  0.00    -0.000 C 
BRANCH  23  24
ATOM     24  C   UNL     1       5.837  45.096  19.416  1.00  0.00    -0.000 C 
BRANCH  24  25
ATOM     25  C   UNL     1       5.281  44.196  20.532  1.00  0.00    -0.000 C 
BRANCH  25  26
ATOM     26  C   UNL     1       4.010  43.434  20.110  1.00  0.00    -0.000 C 
BRANCH  26  27
ATOM     27  C   UNL     1       3.185  42.842  21.270  1.00  0.00    -0.000 C 
BRANCH  27  28
ATOM     28  C   UNL     1       2.347  43.862  22.062  1.00  0.00    -0.000 C 
BRANCH  28  29
ATOM     29  C   UNL     1       2.411  43.666  23.592  1.00  0.00    -0.003 C 
ATOM     30  C   UNL     1       3.681  44.250  24.208  1.00  0.00     0.004 C 
ENDBRANCH  28  29
ENDBRANCH  27  28
ENDBRANCH  26  27
ENDBRANCH  25  26
ENDBRANCH  24  25
ENDBRANCH  23  24
ENDBRANCH  22  23
ENDBRANCH  21  22
ENDBRANCH  20  21
ENDBRANCH  19  20
ENDBRANCH  18  19
ENDBRANCH  17  18
ENDBRANCH   1  17
TORSDOF 26
ENDMDL
MODEL 3
REMARK VINA RESULT:    -4.771      3.774      6.879
REMARK INTER + INTRA:         -15.122
REMARK INTER:                 -10.126
REMARK INTRA:                  -4.996
REMARK UNBOUND:                -3.098
REMARK SMILES CCCCCCCCCCCCCCCCCCCCCCCCCCCC(=O)[O-]
REMARK SMILES IDX 15 1 16 2 17 3 18 4 19 5 20 6 21 7 22 8 23 9 24 10 25 11
REMARK SMILES IDX 26 12 27 13 28 14 29 15 30 16 14 17 13 18 12 19 11 20 10 21
REMARK SMILES IDX 9 22 8 23 7 24 6 25 5 26 4 27 3 28 2 29 1 30
REMARK H PARENT
REMARK Flexibility Score: inf
ROOT
ATOM      1  C   UNL     1      -4.402  43.123  18.785  1.00  0.00     0.000 C 
ENDROOT
BRANCH   1   2
ATOM      2  C   UNL     1      -4.421  44.643  18.555  1.00  0.00     0.000 C 
BRANCH   2   3
ATOM      3  C   UNL     1      -3.621  45.410  19.622  1.00  0.00     0.000 C 
BRANCH   3   4
ATOM      4  C   UNL     1      -3.532  44.647  20.954  1.00  0.00     0.000 C 
BRANCH   4   5
ATOM      5  C   UNL     1      -4.040  45.479  22.147  1.00  0.00     0.000 C 
BRANCH   5   6
ATOM      6  C   UNL     1      -3.078  45.448  23.346  1.00  0.00     0.000 C 
BRANCH   6   7
ATOM      7  C   UNL     1      -1.806  44.632  23.064  1.00  0.00     0.000 C 
BRANCH   7   8
ATOM      8  C   UNL     1      -1.320  43.847  24.294  1.00  0.00     0.000 C 
BRANCH   8   9
ATOM      9  C   UNL     1       0.170  43.480  24.222  1.00  0.00     0.000 C 
BRANCH   9  10
ATOM     10  C   UNL     1       0.698  43.611  22.784  1.00  0.00     0.000 C 
BRANCH  10  11
ATOM     11  C   UNL     1       1.673  42.485  22.405  1.00  0.00     0.000 C 
BRANCH  11  12
ATOM     12  C   UNL     1       2.906  43.002  21.644  1.00  0.00     0.006 C 
BRANCH  12  13
ATOM     13  C   UNL     1       3.457  44.304  22.248  1.00  0.00     0.053 C 
BRANCH  13  14
ATOM     14  C   UNL     1       4.235  44.053  23.505  1.00  0.00     0.041 C 
ATOM     15  O   UNL     1       3.841  44.532  24.603  1.00  0.00    -0.550 OA
ATOM     16  O   UNL     1       5.408  43.312  23.460  1.00  0.00    -0.550 OA
ENDBRANCH  13  14
ENDBRANCH  12  13
ENDBRANCH  11  12
ENDBRANCH  10  11
ENDBRANCH   9  10
ENDBRANCH   8   9
ENDBRANCH   7   8
ENDBRANCH   6   7
ENDBRANCH   5   6
ENDBRANCH   4   5
ENDBRANCH   3   4
ENDBRANCH   2   3
ENDBRANCH   1   2
BRANCH   1  17
ATOM     17  C   UNL     1      -3.852  42.354  17.569  1.00  0.00     0.000 C 
BRANCH  17  18
ATOM     18  C   UNL     1      -3.121  43.267  16.570  1.00  0.00     0.000 C 
BRANCH  18  19
ATOM     19  C   UNL     1      -1.596  43.058  16.590  1.00  0.00     0.000 C 
BRANCH  19  20
ATOM     20  C   UNL     1      -0.871  44.074  17.486  1.00  0.00     0.000 C 
BRANCH  20  21
ATOM     21  C   UNL     1       0.206  43.423  18.376  1.00  0.00     0.000 C 
BRANCH  21  22
ATOM     22  C   UNL     1      -0.264  42.092  19.000  1.00  0.00    -0.000 C 
BRANCH  22  23
ATOM     23  C   UNL     1      -1.195  42.261  20.216  1.00  0.00    -0.000 C 
BRANCH  23  24
ATOM     24  C   UNL     1      -1.960  40.995  20.642  1.00  0.00    -0.000 C 
BRANCH  24  25
ATOM     25  C   UNL     1      -2.464  41.062  22.093  1.00  0.00    -0.000 C 
BRANCH  25  26
ATOM     26  C   UNL     1      -3.975  41.349  22.190  1.00  0.00    -0.000 C 
BRANCH  26  27
ATOM     27  C   UNL     1      -4.463  41.831  23.569  1.00  0.00    -0.000 C 
BRANCH  27  28
ATOM     28  C   UNL     1      -4.961  40.719  24.511  1.00  0.00    -0.000 C 
BRANCH  28  29
ATOM     29  C   UNL     1      -6.389  40.226  24.192  1.00  0.00    -0.003 C 
ATOM     30  C   UNL     1      -7.415  40.688  25.226  1.00  0.00     0.004 C 
ENDBRANCH  28  29
ENDBRANCH  27  28
ENDBRANCH  26  27
ENDBRANCH  25  26
ENDBRANCH  24  25
ENDBRANCH  23  24
ENDBRANCH  22  23
ENDBRANCH  21  22
ENDBRANCH  20  21
ENDBRANCH  19  20
ENDBRANCH  18  19
ENDBRANCH  17  18
ENDBRANCH   1  17
TORSDOF 26
ENDMDL
MODEL 4
REMARK VINA RESULT:    -4.771      5.388      8.435
REMARK INTER + INTRA:         -15.121
REMARK INTER:                 -11.449
REMARK INTRA:                  -3.672
REMARK UNBOUND:                -3.098
REMARK SMILES CCCCCCCCCCCCCCCCCCCCCCCCCCCC(=O)[O-]
REMARK SMILES IDX 15 1 16 2 17 3 18 4 19 5 20 6 21 7 22 8 23 9 24 10 25 11
REMARK SMILES IDX 26 12 27 13 28 14 29 15 30 16 14 17 13 18 12 19 11 20 10 21
REMARK SMILES IDX 9 22 8 23 7 24 6 25 5 26 4 27 3 28 2 29 1 30
REMARK H PARENT
REMARK Flexibility Score: inf
ROOT
ATOM      1  C   UNL     1      -1.323  44.172  22.598  1.00  0.00     0.000 C 
ENDROOT
BRANCH   1   2
ATOM      2  C   UNL     1      -0.133  43.222  22.808  1.00  0.00     0.000 C 
BRANCH   2   3
ATOM      3  C   UNL     1      -0.205  42.476  24.151  1.00  0.00     0.000 C 
BRANCH   3   4
ATOM      4  C   UNL     1      -1.021  43.239  25.208  1.00  0.00     0.000 C 
BRANCH   4   5
ATOM      5  C   UNL     1      -1.690  42.300  26.229  1.00  0.00     0.000 C 
BRANCH   5   6
ATOM      6  C   UNL     1      -1.380  40.817  25.966  1.00  0.00     0.000 C 
BRANCH   6   7
ATOM      7  C   UNL     1      -2.183  39.873  26.876  1.00  0.00     0.000 C 
BRANCH   7   8
ATOM      8  C   UNL     1      -1.596  39.775  28.293  1.00  0.00     0.000 C 
BRANCH   8   9
ATOM      9  C   UNL     1      -0.060  39.720  28.304  1.00  0.00     0.000 C 
BRANCH   9  10
ATOM     10  C   UNL     1       0.441  38.543  29.157  1.00  0.00     0.000 C 
BRANCH  10  11
ATOM     11  C   UNL     1      -0.521  37.345  29.140  1.00  0.00     0.000 C 
BRANCH  11  12
ATOM     12  C   UNL     1      -0.657  36.676  30.519  1.00  0.00     0.006 C 
BRANCH  12  13
ATOM     13  C   UNL     1      -0.752  35.145  30.414  1.00  0.00     0.053 C 
BRANCH  13  14
ATOM     14  C   UNL     1      -0.301  34.468  31.672  1.00  0.00     0.041 C 
ATOM     15  O   UNL     1       0.414  35.086  32.506  1.00  0.00    -0.550 OA
ATOM     16  O   UNL     1      -0.650  33.146  31.913  1.00  0.00    -0.550 OA
ENDBRANCH  13  14
ENDBRANCH  12  13
ENDBRANCH  11  12
ENDBRANCH  10  11
ENDBRANCH   9  10
ENDBRANCH   8   9
ENDBRANCH   7   8
ENDBRANCH   6   7
ENDBRANCH   5   6
ENDBRANCH   4   5
ENDBRANCH   3   4
ENDBRANCH   2   3
ENDBRANCH   1   2
BRANCH   1  17
ATOM     17  C   UNL     1      -1.858  44.131  21.155  1.00  0.00     0.000 C 
BRANCH  17  18
ATOM     18  C   UNL     1      -3.112  45.000  20.961  1.00  0.00     0.000 C 
BRANCH  18  19
ATOM     19  C   UNL     1      -3.515  45.125  19.480  1.00  0.00     0.000 C 
BRANCH  19  20
ATOM     20  C   UNL     1      -4.748  44.278  19.129  1.00  0.00     0.000 C 
BRANCH  20  21
ATOM     21  C   UNL     1      -5.332  43.540  20.349  1.00  0.00     0.000 C 
BRANCH  21  22
ATOM     22  C   UNL     1      -5.267  42.005  20.203  1.00  0.00    -0.000 C 
BRANCH  22  23
ATOM     23  C   UNL     1      -4.382  41.310  21.256  1.00  0.00    -0.000 C 
BRANCH  23  24
ATOM     24  C   UNL     1      -5.134  40.437  22.276  1.00  0.00    -0.000 C 
BRANCH  24  25
ATOM     25  C   UNL     1      -5.083  41.008  23.703  1.00  0.00    -0.000 C 
BRANCH  25  26
ATOM     26  C   UNL     1      -4.287  42.325  23.793  1.00  0.00    -0.000 C 
BRANCH  26  27
ATOM     27  C   UNL     1      -5.060  43.517  24.390  1.00  0.00    -0.000 C 
BRANCH  27  28
ATOM     28  C   UNL     1      -4.222  44.789  24.619  1.00  0.00    -0.000 C 
BRANCH  28  29
ATOM     29  C   UNL     1      -4.710  46.010  23.809  1.00  0.00    -0.003 C 
ATOM     30  C   UNL     1      -3.693  47.150  23.793  1.00  0.00     0.004 C 
ENDBRANCH  28  29
ENDBRANCH  27  28
ENDBRANCH  26  27
ENDBRANCH  25  26
ENDBRANCH  24  25
ENDBRANCH  23  24
ENDBRANCH  22  23
ENDBRANCH  21  22
ENDBRANCH  20  21
ENDBRANCH  19  20
ENDBRANCH  18  19
ENDBRANCH  17  18
ENDBRANCH   1  17
TORSDOF 26
ENDMDL
MODEL 5
REMARK VINA RESULT:    -4.755      4.792      9.246
REMARK INTER + INTRA:         -15.082
REMARK INTER:                  -9.992
REMARK INTRA:                  -5.090
REMARK UNBOUND:                -3.098
REMARK SMILES CCCCCCCCCCCCCCCCCCCCCCCCCCCC(=O)[O-]
REMARK SMILES IDX 15 1 16 2 17 3 18 4 19 5 20 6 21 7 22 8 23 9 24 10 25 11
REMARK SMILES IDX 26 12 27 13 28 14 29 15 30 16 14 17 13 18 12 19 11 20 10 21
REMARK SMILES IDX 9 22 8 23 7 24 6 25 5 26 4 27 3 28 2 29 1 30
REMARK H PARENT
REMARK Flexibility Score: inf
ROOT
ATOM      1  C   UNL     1      -1.981  43.216  17.250  1.00  0.00     0.000 C 
ENDROOT
BRANCH   1   2
ATOM      2  C   UNL     1      -3.357  43.650  16.719  1.00  0.00     0.000 C 
BRANCH   2   3
ATOM      3  C   UNL     1      -4.386  43.849  17.846  1.00  0.00     0.000 C 
BRANCH   3   4
ATOM      4  C   UNL     1      -3.994  44.982  18.810  1.00  0.00     0.000 C 
BRANCH   4   5
ATOM      5  C   UNL     1      -4.243  44.615  20.285  1.00  0.00     0.000 C 
BRANCH   5   6
ATOM      6  C   UNL     1      -3.204  45.236  21.235  1.00  0.00     0.000 C 
BRANCH   6   7
ATOM      7  C   UNL     1      -3.843  45.840  22.497  1.00  0.00     0.000 C 
BRANCH   7   8
ATOM      8  C   UNL     1      -2.922  45.757  23.725  1.00  0.00     0.000 C 
BRANCH   8   9
ATOM      9  C   UNL     1      -1.797  44.722  23.562  1.00  0.00     0.000 C 
BRANCH   9  10
ATOM     10  C   UNL     1      -1.825  43.697  24.707  1.00  0.00     0.000 C 
BRANCH  10  11
ATOM     11  C   UNL     1      -1.954  42.250  24.206  1.00  0.00     0.000 C 
BRANCH  11  12
ATOM     12  C   UNL     1      -2.867  42.130  22.974  1.00  0.00     0.006 C 
BRANCH  12  13
ATOM     13  C   UNL     1      -4.357  42.138  23.353  1.00  0.00     0.053 C 
BRANCH  13  14
ATOM     14  C   UNL     1      -5.178  41.303  22.417  1.00  0.00     0.041 C 
ATOM     15  O   UNL     1      -6.104  40.574  22.862  1.00  0.00    -0.550 OA
ATOM     16  O   UNL     1      -4.902  41.312  21.056  1.00  0.00    -0.550 OA
ENDBRANCH  13  14
ENDBRANCH  12  13
ENDBRANCH  11  12
ENDBRANCH  10  11
ENDBRANCH   9  10
ENDBRANCH   8   9
ENDBRANCH   7   8
ENDBRANCH   6   7
ENDBRANCH   5   6
ENDBRANCH   4   5
ENDBRANCH   3   4
ENDBRANCH   2   3
ENDBRANCH   1   2
BRANCH   1  17
ATOM     17  C   UNL     1      -2.060  41.940  18.107  1.00  0.00     0.000 C 
BRANCH  17  18
ATOM     18  C   UNL     1      -1.425  42.117  19.496  1.00  0.00     0.000 C 
BRANCH  18  19
ATOM     19  C   UNL     1      -0.526  43.364  19.577  1.00  0.00     0.000 C 
BRANCH  19  20
ATOM     20  C   UNL     1       0.221  43.470  20.916  1.00  0.00     0.000 C 
BRANCH  20  21
ATOM     21  C   UNL     1       0.578  42.094  21.510  1.00  0.00     0.000 C 
BRANCH  21  22
ATOM     22  C   UNL     1       1.673  42.181  22.595  1.00  0.00    -0.000 C 
BRANCH  22  23
ATOM     23  C   UNL     1       1.678  43.508  23.379  1.00  0.00    -0.000 C 
BRANCH  23  24
ATOM     24  C   UNL     1       3.009  43.865  24.061  1.00  0.00    -0.000 C 
BRANCH  24  25
ATOM     25  C   UNL     1       3.993  44.577  23.117  1.00  0.00    -0.000 C 
BRANCH  25  26
ATOM     26  C   UNL     1       5.100  43.643  22.591  1.00  0.00    -0.000 C 
BRANCH  26  27
ATOM     27  C   UNL     1       5.344  43.708  21.071  1.00  0.00    -0.000 C 
BRANCH  27  28
ATOM     28  C   UNL     1       4.143  43.299  20.198  1.00  0.00    -0.000 C 
BRANCH  28  29
ATOM     29  C   UNL     1       3.531  44.466  19.394  1.00  0.00    -0.003 C 
ATOM     30  C   UNL     1       4.397  45.725  19.432  1.00  0.00     0.004 C 
ENDBRANCH  28  29
ENDBRANCH  27  28
ENDBRANCH  26  27
ENDBRANCH  25  26
ENDBRANCH  24  25
ENDBRANCH  23  24
ENDBRANCH  22  23
ENDBRANCH  21  22
ENDBRANCH  20  21
ENDBRANCH  19  20
ENDBRANCH  18  19
ENDBRANCH  17  18
ENDBRANCH   1  17
TORSDOF 26
ENDMDL
MODEL 6
REMARK VINA RESULT:    -4.720      4.404      8.102
REMARK INTER + INTRA:         -14.991
REMARK INTER:                  -9.566
REMARK INTRA:                  -5.425
REMARK UNBOUND:                -3.098
REMARK SMILES CCCCCCCCCCCCCCCCCCCCCCCCCCCC(=O)[O-]
REMARK SMILES IDX 15 1 16 2 17 3 18 4 19 5 20 6 21 7 22 8 23 9 24 10 25 11
REMARK SMILES IDX 26 12 27 13 28 14 29 15 30 16 14 17 13 18 12 19 11 20 10 21
REMARK SMILES IDX 9 22 8 23 7 24 6 25 5 26 4 27 3 28 2 29 1 30
REMARK H PARENT
REMARK Flexibility Score: inf
ROOT
ATOM      1  C   UNL     1      -5.330  41.979  20.336  1.00  0.00     0.000 C 
ENDROOT
BRANCH   1   2
ATOM      2  C   UNL     1      -5.453  43.506  20.471  1.00  0.00     0.000 C 
BRANCH   2   3
ATOM      3  C   UNL     1      -4.744  44.256  19.329  1.00  0.00     0.000 C 
BRANCH   3   4
ATOM      4  C   UNL     1      -3.663  45.224  19.841  1.00  0.00     0.000 C 
BRANCH   4   5
ATOM      5  C   UNL     1      -3.307  44.982  21.320  1.00  0.00     0.000 C 
BRANCH   5   6
ATOM      6  C   UNL     1      -3.841  46.086  22.249  1.00  0.00     0.000 C 
BRANCH   6   7
ATOM      7  C   UNL     1      -3.289  45.975  23.680  1.00  0.00     0.000 C 
BRANCH   7   8
ATOM      8  C   UNL     1      -2.169  44.928  23.803  1.00  0.00     0.000 C 
BRANCH   8   9
ATOM      9  C   UNL     1      -2.521  43.782  24.763  1.00  0.00     0.000 C 
BRANCH   9  10
ATOM     10  C   UNL     1      -3.145  42.601  24.002  1.00  0.00     0.000 C 
BRANCH  10  11
ATOM     11  C   UNL     1      -4.681  42.635  24.009  1.00  0.00     0.000 C 
BRANCH  11  12
ATOM     12  C   UNL     1      -5.304  41.228  24.007  1.00  0.00     0.006 C 
BRANCH  12  13
ATOM     13  C   UNL     1      -4.239  40.122  23.937  1.00  0.00     0.053 C 
BRANCH  13  14
ATOM     14  C   UNL     1      -4.654  39.001  23.032  1.00  0.00     0.041 C 
ATOM     15  O   UNL     1      -3.891  38.618  22.105  1.00  0.00    -0.550 OA
ATOM     16  O   UNL     1      -5.893  38.398  23.197  1.00  0.00    -0.550 OA
ENDBRANCH  13  14
ENDBRANCH  12  13
ENDBRANCH  11  12
ENDBRANCH  10  11
ENDBRANCH   9  10
ENDBRANCH   8   9
ENDBRANCH   7   8
ENDBRANCH   6   7
ENDBRANCH   5   6
ENDBRANCH   4   5
ENDBRANCH   3   4
ENDBRANCH   2   3
ENDBRANCH   1   2
BRANCH   1  17
ATOM     17  C   UNL     1      -3.865  41.517  20.235  1.00  0.00     0.000 C 
BRANCH  17  18
ATOM     18  C   UNL     1      -3.614  40.594  19.031  1.00  0.00     0.000 C 
BRANCH  18  19
ATOM     19  C   UNL     1      -4.595  40.859  17.874  1.00  0.00     0.000 C 
BRANCH  19  20
ATOM     20  C   UNL     1      -4.016  41.805  16.811  1.00  0.00     0.000 C 
BRANCH  20  21
ATOM     21  C   UNL     1      -2.483  41.931  16.897  1.00  0.00     0.000 C 
BRANCH  21  22
ATOM     22  C   UNL     1      -1.995  43.386  16.721  1.00  0.00    -0.000 C 
BRANCH  22  23
ATOM     23  C   UNL     1      -1.093  43.889  17.865  1.00  0.00    -0.000 C 
BRANCH  23  24
ATOM     24  C   UNL     1      -0.780  42.856  18.961  1.00  0.00    -0.000 C 
BRANCH  24  25
ATOM     25  C   UNL     1      -0.019  43.461  20.152  1.00  0.00    -0.000 C 
BRANCH  25  26
ATOM     26  C   UNL     1      -0.377  42.793  21.494  1.00  0.00    -0.000 C 
BRANCH  26  27
ATOM     27  C   UNL     1       0.827  42.404  22.374  1.00  0.00    -0.000 C 
BRANCH  27  28
ATOM     28  C   UNL     1       1.154  43.395  23.507  1.00  0.00    -0.000 C 
BRANCH  28  29
ATOM     29  C   UNL     1       2.626  43.862  23.519  1.00  0.00    -0.003 C 
ATOM     30  C   UNL     1       3.224  43.960  22.117  1.00  0.00     0.004 C 
ENDBRANCH  28  29
ENDBRANCH  27  28
ENDBRANCH  26  27
ENDBRANCH  25  26
ENDBRANCH  24  25
ENDBRANCH  23  24
ENDBRANCH  22  23
ENDBRANCH  21  22
ENDBRANCH  20  21
ENDBRANCH  19  20
ENDBRANCH  18  19
ENDBRANCH  17  18
ENDBRANCH   1  17
TORSDOF 26
ENDMDL
MODEL 7
REMARK VINA RESULT:    -4.677      4.504      9.925
REMARK INTER + INTRA:         -14.884
REMARK INTER:                 -11.359
REMARK INTRA:                  -3.525
REMARK UNBOUND:                -3.098
REMARK SMILES CCCCCCCCCCCCCCCCCCCCCCCCCCCC(=O)[O-]
REMARK SMILES IDX 15 1 16 2 17 3 18 4 19 5 20 6 21 7 22 8 23 9 24 10 25 11
REMARK SMILES IDX 26 12 27 13 28 14 29 15 30 16 14 17 13 18 12 19 11 20 10 21
REMARK SMILES IDX 9 22 8 23 7 24 6 25 5 26 4 27 3 28 2 29 1 30
REMARK H PARENT
REMARK Flexibility Score: inf
ROOT
ATOM      1  C   UNL     1      -0.042  43.559  18.080  1.00  0.00     0.000 C 
ENDROOT
BRANCH   1   2
ATOM      2  C   UNL     1      -1.385  44.245  17.781  1.00  0.00     0.000 C 
BRANCH   2   3
ATOM      3  C   UNL     1      -2.435  43.267  17.224  1.00  0.00     0.000 C 
BRANCH   3   4
ATOM      4  C   UNL     1      -3.867  43.817  17.329  1.00  0.00     0.000 C 
BRANCH   4   5
ATOM      5  C   UNL     1      -4.085  44.658  18.601  1.00  0.00     0.000 C 
BRANCH   5   6
ATOM      6  C   UNL     1      -5.049  43.991  19.597  1.00  0.00     0.000 C 
BRANCH   6   7
ATOM      7  C   UNL     1      -4.414  43.772  20.980  1.00  0.00     0.000 C 
BRANCH   7   8
ATOM      8  C   UNL     1      -3.472  44.917  21.388  1.00  0.00     0.000 C 
BRANCH   8   9
ATOM      9  C   UNL     1      -2.045  44.438  21.700  1.00  0.00     0.000 C 
BRANCH   9  10
ATOM     10  C   UNL     1      -1.688  44.701  23.171  1.00  0.00     0.000 C 
BRANCH  10  11
ATOM     11  C   UNL     1      -2.928  44.917  24.054  1.00  0.00     0.000 C 
BRANCH  11  12
ATOM     12  C   UNL     1      -3.066  43.847  25.151  1.00  0.00     0.006 C 
BRANCH  12  13
ATOM     13  C   UNL     1      -2.715  42.441  24.638  1.00  0.00     0.053 C 
BRANCH  13  14
ATOM     14  C   UNL     1      -3.930  41.693  24.179  1.00  0.00     0.041 C 
ATOM     15  O   UNL     1      -5.070  42.226  24.251  1.00  0.00    -0.550 OA
ATOM     16  O   UNL     1      -3.806  40.397  23.694  1.00  0.00    -0.550 OA
ENDBRANCH  13  14
ENDBRANCH  12  13
ENDBRANCH  11  12
ENDBRANCH  10  11
ENDBRANCH   9  10
ENDBRANCH   8   9
ENDBRANCH   7   8
ENDBRANCH   6   7
ENDBRANCH   5   6
ENDBRANCH   4   5
ENDBRANCH   3   4
ENDBRANCH   2   3
ENDBRANCH   1   2
BRANCH   1  17
ATOM     17  C   UNL     1       1.147  44.297  17.440  1.00  0.00     0.000 C 
BRANCH  17  18
ATOM     18  C   UNL     1       0.753  45.072  16.171  1.00  0.00     0.000 C 
BRANCH  18  19
ATOM     19  C   UNL     1       1.275  46.521  16.182  1.00  0.00     0.000 C 
BRANCH  19  20
ATOM     20  C   UNL     1       2.761  46.612  16.561  1.00  0.00     0.000 C 
BRANCH  20  21
ATOM     21  C   UNL     1       3.048  47.729  17.583  1.00  0.00     0.000 C 
BRANCH  21  22
ATOM     22  C   UNL     1       4.154  47.344  18.589  1.00  0.00    -0.000 C 
BRANCH  22  23
ATOM     23  C   UNL     1       4.912  46.051  18.227  1.00  0.00    -0.000 C 
BRANCH  23  24
ATOM     24  C   UNL     1       5.168  45.088  19.399  1.00  0.00    -0.000 C 
BRANCH  24  25
ATOM     25  C   UNL     1       4.226  45.333  20.590  1.00  0.00    -0.000 C 
BRANCH  25  26
ATOM     26  C   UNL     1       4.115  44.114  21.526  1.00  0.00    -0.000 C 
BRANCH  26  27
ATOM     27  C   UNL     1       3.241  44.326  22.777  1.00  0.00    -0.000 C 
BRANCH  27  28
ATOM     28  C   UNL     1       1.946  43.492  22.819  1.00  0.00    -0.000 C 
BRANCH  28  29
ATOM     29  C   UNL     1       1.434  43.068  21.426  1.00  0.00    -0.003 C 
ATOM     30  C   UNL     1       0.606  41.784  21.469  1.00  0.00     0.004 C 
ENDBRANCH  28  29
ENDBRANCH  27  28
ENDBRANCH  26  27
ENDBRANCH  25  26
ENDBRANCH  24  25
ENDBRANCH  23  24
ENDBRANCH  22  23
ENDBRANCH  21  22
ENDBRANCH  20  21
ENDBRANCH  19  20
ENDBRANCH  18  19
ENDBRANCH  17  18
ENDBRANCH   1  17
TORSDOF 26
ENDMDL
MODEL 8
REMARK VINA RESULT:    -4.657      4.544      9.329
REMARK INTER + INTRA:         -14.834
REMARK INTER:                  -9.201
REMARK INTRA:                  -5.633
REMARK UNBOUND:                -3.098
REMARK SMILES CCCCCCCCCCCCCCCCCCCCCCCCCCCC(=O)[O-]
REMARK SMILES IDX 15 1 16 2 17 3 18 4 19 5 20 6 21 7 22 8 23 9 24 10 25 11
REMARK SMILES IDX 26 12 27 13 28 14 29 15 30 16 14 17 13 18 12 19 11 20 10 21
REMARK SMILES IDX 9 22 8 23 7 24 6 25 5 26 4 27 3 28 2 29 1 30
REMARK H PARENT
REMARK Flexibility Score: inf
ROOT
ATOM      1  C   UNL     1      -4.316  44.951  21.745  1.00  0.00     0.000 C 
ENDROOT
BRANCH   1   2
ATOM      2  C   UNL     1      -4.442  44.772  23.267  1.00  0.00     0.000 C 
BRANCH   2   3
ATOM      3  C   UNL     1      -3.091  44.920  23.990  1.00  0.00     0.000 C 
BRANCH   3   4
ATOM      4  C   UNL     1      -2.908  43.887  25.115  1.00  0.00     0.000 C 
BRANCH   4   5
ATOM      5  C   UNL     1      -1.494  43.275  25.129  1.00  0.00     0.000 C 
BRANCH   5   6
ATOM      6  C   UNL     1      -0.544  43.948  24.125  1.00  0.00     0.000 C 
BRANCH   6   7
ATOM      7  C   UNL     1       0.276  42.932  23.312  1.00  0.00     0.000 C 
BRANCH   7   8
ATOM      8  C   UNL     1       0.462  43.358  21.847  1.00  0.00     0.000 C 
BRANCH   8   9
ATOM      9  C   UNL     1      -0.057  42.312  20.848  1.00  0.00     0.000 C 
BRANCH   9  10
ATOM     10  C   UNL     1      -1.202  41.490  21.460  1.00  0.00     0.000 C 
BRANCH  10  11
ATOM     11  C   UNL     1      -2.269  41.095  20.427  1.00  0.00     0.000 C 
BRANCH  11  12
ATOM     12  C   UNL     1      -3.700  41.205  20.981  1.00  0.00     0.006 C 
BRANCH  12  13
ATOM     13  C   UNL     1      -3.722  41.295  22.515  1.00  0.00     0.053 C 
BRANCH  13  14
ATOM     14  C   UNL     1      -5.108  41.141  23.066  1.00  0.00     0.041 C 
ATOM     15  O   UNL     1      -6.051  40.769  22.317  1.00  0.00    -0.550 OA
ATOM     16  O   UNL     1      -5.362  41.433  24.399  1.00  0.00    -0.550 OA
ENDBRANCH  13  14
ENDBRANCH  12  13
ENDBRANCH  11  12
ENDBRANCH  10  11
ENDBRANCH   9  10
ENDBRANCH   8   9
ENDBRANCH   7   8
ENDBRANCH   6   7
ENDBRANCH   5   6
ENDBRANCH   4   5
ENDBRANCH   3   4
ENDBRANCH   2   3
ENDBRANCH   1   2
BRANCH   1  17
ATOM     17  C   UNL     1      -2.853  44.897  21.268  1.00  0.00     0.000 C 
BRANCH  17  18
ATOM     18  C   UNL     1      -2.730  44.658  19.754  1.00  0.00     0.000 C 
BRANCH  18  19
ATOM     19  C   UNL     1      -4.062  44.882  19.014  1.00  0.00     0.000 C 
BRANCH  19  20
ATOM     20  C   UNL     1      -4.392  43.747  18.033  1.00  0.00     0.000 C 
BRANCH  20  21
ATOM     21  C   UNL     1      -3.352  43.612  16.905  1.00  0.00     0.000 C 
BRANCH  21  22
ATOM     22  C   UNL     1      -2.609  42.258  16.939  1.00  0.00    -0.000 C 
BRANCH  22  23
ATOM     23  C   UNL     1      -1.082  42.383  17.105  1.00  0.00    -0.000 C 
BRANCH  23  24
ATOM     24  C   UNL     1      -0.491  43.760  16.758  1.00  0.00    -0.000 C 
BRANCH  24  25
ATOM     25  C   UNL     1       0.529  44.252  17.799  1.00  0.00    -0.000 C 
BRANCH  25  26
ATOM     26  C   UNL     1       1.822  43.415  17.812  1.00  0.00    -0.000 C 
BRANCH  26  27
ATOM     27  C   UNL     1       3.053  44.120  18.413  1.00  0.00    -0.000 C 
BRANCH  27  28
ATOM     28  C   UNL     1       3.436  43.668  19.834  1.00  0.00    -0.000 C 
BRANCH  28  29
ATOM     29  C   UNL     1       3.789  44.832  20.784  1.00  0.00    -0.003 C 
ATOM     30  C   UNL     1       4.088  44.361  22.207  1.00  0.00     0.004 C 
ENDBRANCH  28  29
ENDBRANCH  27  28
ENDBRANCH  26  27
ENDBRANCH  25  26
ENDBRANCH  24  25
ENDBRANCH  23  24
ENDBRANCH  22  23
ENDBRANCH  21  22
ENDBRANCH  20  21
ENDBRANCH  19  20
ENDBRANCH  18  19
ENDBRANCH  17  18
ENDBRANCH   1  17
TORSDOF 26
ENDMDL
MODEL 9
REMARK VINA RESULT:    -4.607      5.480      8.459
REMARK INTER + INTRA:         -14.708
REMARK INTER:                 -10.317
REMARK INTRA:                  -4.391
REMARK UNBOUND:                -3.098
REMARK SMILES CCCCCCCCCCCCCCCCCCCCCCCCCCCC(=O)[O-]
REMARK SMILES IDX 15 1 16 2 17 3 18 4 19 5 20 6 21 7 22 8 23 9 24 10 25 11
REMARK SMILES IDX 26 12 27 13 28 14 29 15 30 16 14 17 13 18 12 19 11 20 10 21
REMARK SMILES IDX 9 22 8 23 7 24 6 25 5 26 4 27 3 28 2 29 1 30
REMARK H PARENT
REMARK Flexibility Score: inf
ROOT
ATOM      1  C   UNL     1      -0.308  41.969  19.675  1.00  0.00     0.000 C 
ENDROOT
BRANCH   1   2
ATOM      2  C   UNL     1      -0.198  43.329  18.966  1.00  0.00     0.000 C 
BRANCH   2   3
ATOM      3  C   UNL     1      -1.022  43.383  17.667  1.00  0.00     0.000 C 
BRANCH   3   4
ATOM      4  C   UNL     1      -0.346  44.230  16.575  1.00  0.00     0.000 C 
BRANCH   4   5
ATOM      5  C   UNL     1       1.079  44.668  16.965  1.00  0.00     0.000 C 
BRANCH   5   6
ATOM      6  C   UNL     1       1.523  45.954  16.247  1.00  0.00     0.000 C 
BRANCH   6   7
ATOM      7  C   UNL     1       2.975  46.342  16.572  1.00  0.00     0.000 C 
BRANCH   7   8
ATOM      8  C   UNL     1       3.087  47.736  17.211  1.00  0.00     0.000 C 
BRANCH   8   9
ATOM      9  C   UNL     1       3.845  47.724  18.548  1.00  0.00     0.000 C 
BRANCH   9  10
ATOM     10  C   UNL     1       4.456  46.340  18.819  1.00  0.00     0.000 C 
BRANCH  10  11
ATOM     11  C   UNL     1       4.449  45.970  20.311  1.00  0.00     0.000 C 
BRANCH  11  12
ATOM     12  C   UNL     1       4.510  44.450  20.544  1.00  0.00     0.006 C 
BRANCH  12  13
ATOM     13  C   UNL     1       3.218  43.744  20.102  1.00  0.00     0.053 C 
BRANCH  13  14
ATOM     14  C   UNL     1       3.491  42.630  19.137  1.00  0.00     0.041 C 
ATOM     15  O   UNL     1       3.974  42.878  17.999  1.00  0.00    -0.550 OA
ATOM     16  O   UNL     1       3.188  41.320  19.485  1.00  0.00    -0.550 OA
ENDBRANCH  13  14
ENDBRANCH  12  13
ENDBRANCH  11  12
ENDBRANCH  10  11
ENDBRANCH   9  10
ENDBRANCH   8   9
ENDBRANCH   7   8
ENDBRANCH   6   7
ENDBRANCH   5   6
ENDBRANCH   4   5
ENDBRANCH   3   4
ENDBRANCH   2   3
ENDBRANCH   1   2
BRANCH   1  17
ATOM     17  C   UNL     1      -0.617  42.115  21.176  1.00  0.00     0.000 C 
BRANCH  17  18
ATOM     18  C   UNL     1      -0.123  43.451  21.757  1.00  0.00     0.000 C 
BRANCH  18  19
ATOM     19  C   UNL     1       0.231  43.346  23.251  1.00  0.00     0.000 C 
BRANCH  19  20
ATOM     20  C   UNL     1      -0.667  44.226  24.136  1.00  0.00     0.000 C 
BRANCH  20  21
ATOM     21  C   UNL     1      -1.946  43.499  24.596  1.00  0.00     0.000 C 
BRANCH  21  22
ATOM     22  C   UNL     1      -3.230  44.134  24.021  1.00  0.00    -0.000 C 
BRANCH  22  23
ATOM     23  C   UNL     1      -2.975  45.315  23.064  1.00  0.00    -0.000 C 
BRANCH  23  24
ATOM     24  C   UNL     1      -3.871  45.356  21.814  1.00  0.00    -0.000 C 
BRANCH  24  25
ATOM     25  C   UNL     1      -3.117  44.984  20.526  1.00  0.00    -0.000 C 
BRANCH  25  26
ATOM     26  C   UNL     1      -4.020  45.003  19.277  1.00  0.00    -0.000 C 
BRANCH  26  27
ATOM     27  C   UNL     1      -4.407  43.617  18.727  1.00  0.00    -0.000 C 
BRANCH  27  28
ATOM     28  C   UNL     1      -4.233  42.450  19.717  1.00  0.00    -0.000 C 
BRANCH  28  29
ATOM     29  C   UNL     1      -5.490  42.159  20.564  1.00  0.00    -0.003 C 
ATOM     30  C   UNL     1      -5.151  41.664  21.970  1.00  0.00     0.004 C 
ENDBRANCH  28  29
ENDBRANCH  27  28
ENDBRANCH  26  27
ENDBRANCH  25  26
ENDBRANCH  24  25
ENDBRANCH  23  24
ENDBRANCH  22  23
ENDBRANCH  21  22
ENDBRANCH  20  21
ENDBRANCH  19  20
ENDBRANCH  18  19
ENDBRANCH  17  18
ENDBRANCH   1  17
TORSDOF 26
ENDMDL
