MODEL 1
REMARK VINA RESULT:    -5.869      0.000      0.000
REMARK INTER + INTRA:          -8.934
REMARK INTER:                  -7.928
REMARK INTRA:                  -1.006
REMARK UNBOUND:                -1.006
REMARK SMILES CC(=O)CCC=C(C)CCC=C(C)C
REMARK SMILES IDX 7 1 6 2 8 3 9 4 10 5 11 6 13 7 12 8 14 9 5 10 4 11 2 12 3 13
REMARK SMILES IDX 1 14
REMARK H PARENT
REMARK Flexibility Score: inf
ROOT
ATOM      1  C   UNL     1      32.195  20.137  18.124  1.00  0.00    -0.077 C 
ATOM      2  C   UNL     1      32.901  20.994  18.896  1.00  0.00    -0.028 C 
ATOM      3  C   UNL     1      31.978  18.695  18.521  1.00  0.00     0.039 C 
ENDROOT
BRANCH   1   4
ATOM      4  C   UNL     1      31.574  20.646  16.840  1.00  0.00     0.034 C 
BRANCH   4   5
ATOM      5  C   UNL     1      32.140  19.926  15.610  1.00  0.00     0.032 C 
BRANCH   5   6
ATOM      6  C   UNL     1      33.634  20.125  15.504  1.00  0.00    -0.028 C 
ATOM      7  C   UNL     1      34.162  17.681  15.682  1.00  0.00     0.039 C 
ATOM      8  C   UNL     1      34.552  19.135  15.562  1.00  0.00    -0.080 C 
ATOM      9  C   UNL     1      36.011  19.507  15.502  1.00  0.00     0.039 C 
ENDBRANCH   5   6
ENDBRANCH   4   5
ENDBRANCH   1   4
BRANCH   2  10
ATOM     10  C   UNL     1      33.592  20.618  20.185  1.00  0.00     0.035 C 
BRANCH  10  11
ATOM     11  C   UNL     1      33.234  21.581  21.324  1.00  0.00     0.079 C 
BRANCH  11  12
ATOM     12  C   UNL     1      32.181  20.999  22.233  1.00  0.00     0.130 C 
ATOM     13  O   UNL     1      31.606  21.725  23.030  1.00  0.00    -0.300 OA
ATOM     14  C   UNL     1      31.823  19.544  22.177  1.00  0.00     0.087 C 
ENDBRANCH  11  12
ENDBRANCH  10  11
ENDBRANCH   2  10
TORSDOF 6
ENDMDL
MODEL 2
REMARK VINA RESULT:    -5.702      2.705      6.513
REMARK INTER + INTRA:          -8.708
REMARK INTER:                  -8.045
REMARK INTRA:                  -0.662
REMARK UNBOUND:                -1.006
REMARK SMILES CC(=O)CCC=C(C)CCC=C(C)C
REMARK SMILES IDX 7 1 6 2 8 3 9 4 10 5 11 6 13 7 12 8 14 9 5 10 4 11 2 12 3 13
REMARK SMILES IDX 1 14
REMARK H PARENT
REMARK Flexibility Score: inf
ROOT
ATOM      1  C   UNL     1      33.154  20.678  18.501  1.00  0.00    -0.077 C 
ATOM      2  C   UNL     1      32.151  20.395  17.639  1.00  0.00    -0.028 C 
ATOM      3  C   UNL     1      34.348  21.509  18.095  1.00  0.00     0.039 C 
ENDROOT
BRANCH   1   4
ATOM      4  C   UNL     1      33.059  20.176  19.928  1.00  0.00     0.034 C 
BRANCH   4   5
ATOM      5  C   UNL     1      33.082  21.329  20.938  1.00  0.00     0.032 C 
BRANCH   5   6
ATOM      6  C   UNL     1      33.774  20.917  22.218  1.00  0.00    -0.028 C 
ATOM      7  C   UNL     1      32.063  21.983  23.707  1.00  0.00     0.039 C 
ATOM      8  C   UNL     1      33.346  21.225  23.462  1.00  0.00    -0.080 C 
ATOM      9  C   UNL     1      34.186  20.791  24.635  1.00  0.00     0.039 C 
ENDBRANCH   5   6
ENDBRANCH   4   5
ENDBRANCH   1   4
BRANCH   2  10
ATOM     10  C   UNL     1      32.126  20.811  16.187  1.00  0.00     0.035 C 
BRANCH  10  11
ATOM     11  C   UNL     1      32.282  19.608  15.248  1.00  0.00     0.079 C 
BRANCH  11  12
ATOM     12  C   UNL     1      33.694  19.078  15.257  1.00  0.00     0.130 C 
ATOM     13  O   UNL     1      34.612  19.804  14.908  1.00  0.00    -0.300 OA
ATOM     14  C   UNL     1      33.995  17.673  15.690  1.00  0.00     0.087 C 
ENDBRANCH  11  12
ENDBRANCH  10  11
ENDBRANCH   2  10
TORSDOF 6
ENDMDL
MODEL 3
REMARK VINA RESULT:    -5.697      2.678      6.410
REMARK INTER + INTRA:          -8.702
REMARK INTER:                  -8.053
REMARK INTRA:                  -0.648
REMARK UNBOUND:                -1.006
REMARK SMILES CC(=O)CCC=C(C)CCC=C(C)C
REMARK SMILES IDX 7 1 6 2 8 3 9 4 10 5 11 6 13 7 12 8 14 9 5 10 4 11 2 12 3 13
REMARK SMILES IDX 1 14
REMARK H PARENT
REMARK Flexibility Score: inf
ROOT
ATOM      1  C   UNL     1      32.864  20.370  18.704  1.00  0.00    -0.077 C 
ATOM      2  C   UNL     1      32.988  20.853  17.447  1.00  0.00    -0.028 C 
ATOM      3  C   UNL     1      32.013  19.162  19.017  1.00  0.00     0.039 C 
ENDROOT
BRANCH   1   4
ATOM      4  C   UNL     1      33.628  21.041  19.827  1.00  0.00     0.034 C 
BRANCH   4   5
ATOM      5  C   UNL     1      32.808  21.092  21.122  1.00  0.00     0.032 C 
BRANCH   5   6
ATOM      6  C   UNL     1      33.670  20.779  22.324  1.00  0.00    -0.028 C 
ATOM      7  C   UNL     1      32.122  21.885  23.956  1.00  0.00     0.039 C 
ATOM      8  C   UNL     1      33.391  21.150  23.593  1.00  0.00    -0.080 C 
ATOM      9  C   UNL     1      34.386  20.814  24.672  1.00  0.00     0.039 C 
ENDBRANCH   5   6
ENDBRANCH   4   5
ENDBRANCH   1   4
BRANCH   2  10
ATOM     10  C   UNL     1      32.269  20.298  16.240  1.00  0.00     0.035 C 
BRANCH  10  11
ATOM     11  C   UNL     1      33.251  19.793  15.176  1.00  0.00     0.079 C 
BRANCH  11  12
ATOM     12  C   UNL     1      34.047  18.613  15.671  1.00  0.00     0.130 C 
ATOM     13  O   UNL     1      35.261  18.707  15.780  1.00  0.00    -0.300 OA
ATOM     14  C   UNL     1      33.378  17.321  16.037  1.00  0.00     0.087 C 
ENDBRANCH  11  12
ENDBRANCH  10  11
ENDBRANCH   2  10
TORSDOF 6
ENDMDL
MODEL 4
REMARK VINA RESULT:    -5.631      6.099      9.389
REMARK INTER + INTRA:          -8.613
REMARK INTER:                  -7.862
REMARK INTRA:                  -0.750
REMARK UNBOUND:                -1.006
REMARK SMILES CC(=O)CCC=C(C)CCC=C(C)C
REMARK SMILES IDX 7 1 6 2 8 3 9 4 10 5 11 6 13 7 12 8 14 9 5 10 4 11 2 12 3 13
REMARK SMILES IDX 1 14
REMARK H PARENT
REMARK Flexibility Score: inf
ROOT
ATOM      1  C   UNL     1      29.128  18.053  27.322  1.00  0.00    -0.077 C 
ATOM      2  C   UNL     1      27.828  18.420  27.259  1.00  0.00    -0.028 C 
ATOM      3  C   UNL     1      29.717  17.401  28.552  1.00  0.00     0.039 C 
ENDROOT
BRANCH   1   4
ATOM      4  C   UNL     1      30.013  18.271  26.112  1.00  0.00     0.034 C 
BRANCH   4   5
ATOM      5  C   UNL     1      29.356  19.204  25.088  1.00  0.00     0.032 C 
BRANCH   5   6
ATOM      6  C   UNL     1      29.949  19.007  23.712  1.00  0.00    -0.028 C 
ATOM      7  C   UNL     1      31.449  21.009  23.866  1.00  0.00     0.039 C 
ATOM      8  C   UNL     1      30.865  19.820  23.141  1.00  0.00    -0.080 C 
ATOM      9  C   UNL     1      31.310  19.519  21.734  1.00  0.00     0.039 C 
ENDBRANCH   5   6
ENDBRANCH   4   5
ENDBRANCH   1   4
BRANCH   2  10
ATOM     10  C   UNL     1      26.842  18.282  28.394  1.00  0.00     0.035 C 
BRANCH  10  11
ATOM     11  C   UNL     1      26.202  19.628  28.758  1.00  0.00     0.079 C 
BRANCH  11  12
ATOM     12  C   UNL     1      27.227  20.610  29.267  1.00  0.00     0.130 C 
ATOM     13  O   UNL     1      27.319  21.710  28.744  1.00  0.00    -0.300 OA
ATOM     14  C   UNL     1      28.138  20.263  30.408  1.00  0.00     0.087 C 
ENDBRANCH  11  12
ENDBRANCH  10  11
ENDBRANCH   2  10
TORSDOF 6
ENDMDL
MODEL 5
REMARK VINA RESULT:    -5.464      2.121      3.148
REMARK INTER + INTRA:          -8.387
REMARK INTER:                  -7.636
REMARK INTRA:                  -0.751
REMARK UNBOUND:                -1.006
REMARK SMILES CC(=O)CCC=C(C)CCC=C(C)C
REMARK SMILES IDX 7 1 6 2 8 3 9 4 10 5 11 6 13 7 12 8 14 9 5 10 4 11 2 12 3 13
REMARK SMILES IDX 1 14
REMARK H PARENT
REMARK Flexibility Score: inf
ROOT
ATOM      1  C   UNL     1      32.398  19.908  20.482  1.00  0.00    -0.077 C 
ATOM      2  C   UNL     1      31.760  19.411  21.566  1.00  0.00    -0.028 C 
ATOM      3  C   UNL     1      33.443  20.993  20.596  1.00  0.00     0.039 C 
ENDROOT
BRANCH   1   4
ATOM      4  C   UNL     1      32.080  19.336  19.116  1.00  0.00     0.034 C 
BRANCH   4   5
ATOM      5  C   UNL     1      32.346  20.351  17.998  1.00  0.00     0.032 C 
BRANCH   5   6
ATOM      6  C   UNL     1      33.344  19.812  16.999  1.00  0.00    -0.028 C 
ATOM      7  C   UNL     1      35.016  21.635  17.400  1.00  0.00     0.039 C 
ATOM      8  C   UNL     1      34.529  20.388  16.700  1.00  0.00    -0.080 C 
ATOM      9  C   UNL     1      35.384  19.756  15.633  1.00  0.00     0.039 C 
ENDBRANCH   5   6
ENDBRANCH   4   5
ENDBRANCH   1   4
BRANCH   2  10
ATOM     10  C   UNL     1      31.962  19.901  22.980  1.00  0.00     0.035 C 
BRANCH  10  11
ATOM     11  C   UNL     1      32.581  18.820  23.874  1.00  0.00     0.079 C 
BRANCH  11  12
ATOM     12  C   UNL     1      33.784  19.339  24.620  1.00  0.00     0.130 C 
ATOM     13  O   UNL     1      34.415  18.583  25.344  1.00  0.00    -0.300 OA
ATOM     14  C   UNL     1      34.226  20.766  24.489  1.00  0.00     0.087 C 
ENDBRANCH  11  12
ENDBRANCH  10  11
ENDBRANCH   2  10
TORSDOF 6
ENDMDL
MODEL 6
REMARK VINA RESULT:    -5.441      2.709      6.455
REMARK INTER + INTRA:          -8.356
REMARK INTER:                  -7.674
REMARK INTRA:                  -0.682
REMARK UNBOUND:                -1.006
REMARK SMILES CC(=O)CCC=C(C)CCC=C(C)C
REMARK SMILES IDX 7 1 6 2 8 3 9 4 10 5 11 6 13 7 12 8 14 9 5 10 4 11 2 12 3 13
REMARK SMILES IDX 1 14
REMARK H PARENT
REMARK Flexibility Score: inf
ROOT
ATOM      1  C   UNL     1      33.351  20.880  19.063  1.00  0.00    -0.077 C 
ATOM      2  C   UNL     1      32.465  20.402  18.160  1.00  0.00    -0.028 C 
ATOM      3  C   UNL     1      34.593  21.632  18.645  1.00  0.00     0.039 C 
ENDROOT
BRANCH   1   4
ATOM      4  C   UNL     1      33.071  20.688  20.539  1.00  0.00     0.034 C 
BRANCH   4   5
ATOM      5  C   UNL     1      32.312  19.383  20.808  1.00  0.00     0.032 C 
BRANCH   5   6
ATOM      6  C   UNL     1      31.189  19.601  21.796  1.00  0.00    -0.028 C 
ATOM      7  C   UNL     1      32.222  18.170  23.574  1.00  0.00     0.039 C 
ATOM      8  C   UNL     1      31.120  19.044  23.025  1.00  0.00    -0.080 C 
ATOM      9  C   UNL     1      29.900  19.313  23.866  1.00  0.00     0.039 C 
ENDBRANCH   5   6
ENDBRANCH   4   5
ENDBRANCH   1   4
BRANCH   2  10
ATOM     10  C   UNL     1      32.628  20.503  16.662  1.00  0.00     0.035 C 
BRANCH  10  11
ATOM     11  C   UNL     1      32.519  19.131  15.984  1.00  0.00     0.079 C 
BRANCH  11  12
ATOM     12  C   UNL     1      33.877  18.532  15.723  1.00  0.00     0.130 C 
ATOM     13  O   UNL     1      33.984  17.323  15.574  1.00  0.00    -0.300 OA
ATOM     14  C   UNL     1      35.105  19.390  15.640  1.00  0.00     0.087 C 
ENDBRANCH  11  12
ENDBRANCH  10  11
ENDBRANCH   2  10
TORSDOF 6
ENDMDL
MODEL 7
REMARK VINA RESULT:    -5.438      5.970     10.272
REMARK INTER + INTRA:          -8.352
REMARK INTER:                  -7.553
REMARK INTRA:                  -0.798
REMARK UNBOUND:                -1.006
REMARK SMILES CC(=O)CCC=C(C)CCC=C(C)C
REMARK SMILES IDX 7 1 6 2 8 3 9 4 10 5 11 6 13 7 12 8 14 9 5 10 4 11 2 12 3 13
REMARK SMILES IDX 1 14
REMARK H PARENT
REMARK Flexibility Score: inf
ROOT
ATOM      1  C   UNL     1      30.062  18.189  26.236  1.00  0.00    -0.077 C 
ATOM      2  C   UNL     1      31.312  17.942  25.782  1.00  0.00    -0.028 C 
ATOM      3  C   UNL     1      28.985  18.764  25.345  1.00  0.00     0.039 C 
ENDROOT
BRANCH   1   4
ATOM      4  C   UNL     1      29.721  17.846  27.672  1.00  0.00     0.034 C 
BRANCH   4   5
ATOM      5  C   UNL     1      28.244  18.111  27.984  1.00  0.00     0.032 C 
BRANCH   5   6
ATOM      6  C   UNL     1      28.090  19.245  28.972  1.00  0.00    -0.028 C 
ATOM      7  C   UNL     1      26.471  20.520  27.546  1.00  0.00     0.039 C 
ATOM      8  C   UNL     1      27.324  20.341  28.779  1.00  0.00    -0.080 C 
ATOM      9  C   UNL     1      27.328  21.412  29.838  1.00  0.00     0.039 C 
ENDBRANCH   5   6
ENDBRANCH   4   5
ENDBRANCH   1   4
BRANCH   2  10
ATOM     10  C   UNL     1      31.793  18.254  24.385  1.00  0.00     0.035 C 
BRANCH  10  11
ATOM     11  C   UNL     1      33.070  19.104  24.400  1.00  0.00     0.079 C 
BRANCH  11  12
ATOM     12  C   UNL     1      32.889  20.390  23.634  1.00  0.00     0.130 C 
ATOM     13  O   UNL     1      33.872  20.985  23.216  1.00  0.00    -0.300 OA
ATOM     14  C   UNL     1      31.525  20.953  23.369  1.00  0.00     0.087 C 
ENDBRANCH  11  12
ENDBRANCH  10  11
ENDBRANCH   2  10
TORSDOF 6
ENDMDL
MODEL 8
REMARK VINA RESULT:    -5.426      2.260      3.422
REMARK INTER + INTRA:          -8.335
REMARK INTER:                  -7.764
REMARK INTRA:                  -0.571
REMARK UNBOUND:                -1.006
REMARK SMILES CC(=O)CCC=C(C)CCC=C(C)C
REMARK SMILES IDX 7 1 6 2 8 3 9 4 10 5 11 6 13 7 12 8 14 9 5 10 4 11 2 12 3 13
REMARK SMILES IDX 1 14
REMARK H PARENT
REMARK Flexibility Score: inf
ROOT
ATOM      1  C   UNL     1      32.383  19.975  20.728  1.00  0.00    -0.077 C 
ATOM      2  C   UNL     1      31.594  19.438  21.687  1.00  0.00    -0.028 C 
ATOM      3  C   UNL     1      33.206  21.218  20.972  1.00  0.00     0.039 C 
ENDROOT
BRANCH   1   4
ATOM      4  C   UNL     1      32.469  19.290  19.379  1.00  0.00     0.034 C 
BRANCH   4   5
ATOM      5  C   UNL     1      32.345  20.291  18.225  1.00  0.00     0.032 C 
BRANCH   5   6
ATOM      6  C   UNL     1      33.277  19.932  17.090  1.00  0.00    -0.028 C 
ATOM      7  C   UNL     1      35.027  21.601  17.749  1.00  0.00     0.039 C 
ATOM      8  C   UNL     1      34.466  20.526  16.848  1.00  0.00    -0.080 C 
ATOM      9  C   UNL     1      35.249  20.093  15.636  1.00  0.00     0.039 C 
ENDBRANCH   5   6
ENDBRANCH   4   5
ENDBRANCH   1   4
BRANCH   2  10
ATOM     10  C   UNL     1      31.397  20.026  23.064  1.00  0.00     0.035 C 
BRANCH  10  11
ATOM     11  C   UNL     1      30.170  19.430  23.766  1.00  0.00     0.079 C 
BRANCH  11  12
ATOM     12  C   UNL     1      30.554  18.695  25.025  1.00  0.00     0.130 C 
ATOM     13  O   UNL     1      31.689  18.257  25.144  1.00  0.00    -0.300 OA
ATOM     14  C   UNL     1      29.571  18.493  26.139  1.00  0.00     0.087 C 
ENDBRANCH  11  12
ENDBRANCH  10  11
ENDBRANCH   2  10
TORSDOF 6
ENDMDL
MODEL 9
REMARK VINA RESULT:    -5.414      6.461      8.821
REMARK INTER + INTRA:          -8.320
REMARK INTER:                  -7.497
REMARK INTRA:                  -0.823
REMARK UNBOUND:                -1.006
REMARK SMILES CC(=O)CCC=C(C)CCC=C(C)C
REMARK SMILES IDX 7 1 6 2 8 3 9 4 10 5 11 6 13 7 12 8 14 9 5 10 4 11 2 12 3 13
REMARK SMILES IDX 1 14
REMARK H PARENT
REMARK Flexibility Score: inf
ROOT
ATOM      1  C   UNL     1      29.213  18.627  25.953  1.00  0.00    -0.077 C 
ATOM      2  C   UNL     1      27.873  18.630  26.137  1.00  0.00    -0.028 C 
ATOM      3  C   UNL     1      30.148  17.898  26.889  1.00  0.00     0.039 C 
ENDROOT
BRANCH   1   4
ATOM      4  C   UNL     1      29.790  19.349  24.753  1.00  0.00     0.034 C 
BRANCH   4   5
ATOM      5  C   UNL     1      31.020  18.625  24.192  1.00  0.00     0.032 C 
BRANCH   5   6
ATOM      6  C   UNL     1      32.097  19.608  23.795  1.00  0.00    -0.028 C 
ATOM      7  C   UNL     1      33.801  18.670  25.375  1.00  0.00     0.039 C 
ATOM      8  C   UNL     1      33.335  19.659  24.333  1.00  0.00    -0.080 C 
ATOM      9  C   UNL     1      34.273  20.743  23.870  1.00  0.00     0.039 C 
ENDBRANCH   5   6
ENDBRANCH   4   5
ENDBRANCH   1   4
BRANCH   2  10
ATOM     10  C   UNL     1      27.165  17.973  27.298  1.00  0.00     0.035 C 
BRANCH  10  11
ATOM     11  C   UNL     1      26.436  18.999  28.175  1.00  0.00     0.079 C 
BRANCH  11  12
ATOM     12  C   UNL     1      27.406  19.876  28.925  1.00  0.00     0.130 C 
ATOM     13  O   UNL     1      28.289  19.361  29.595  1.00  0.00    -0.300 OA
ATOM     14  C   UNL     1      27.312  21.372  28.864  1.00  0.00     0.087 C 
ENDBRANCH  11  12
ENDBRANCH  10  11
ENDBRANCH   2  10
TORSDOF 6
ENDMDL
