MODEL 1
REMARK VINA RESULT:    -5.233      0.000      0.000
REMARK INTER + INTRA:          -5.692
REMARK INTER:                  -5.692
REMARK INTRA:                   0.000
REMARK UNBOUND:                 0.000
REMARK SMILES Cc1cc(O)c2c(c1)C(=O)c1cc(O)cc(O)c1C2=O
REMARK SMILES IDX 1 1 2 2 8 3 7 4 6 5 4 6 3 7 19 8 20 9 18 10 11 11 9 12 10 13
REMARK SMILES IDX 12 14 13 15 15 16 16 17 5 18 17 20 14 22
REMARK H PARENT 5 19 17 21 14 23
REMARK Flexibility Score: inf
ROOT
ATOM      1  C   UNL     1      26.320  -3.792 -36.212  1.00  0.00     0.044 C 
ATOM      2  C   UNL     1      24.970  -4.448 -36.251  1.00  0.00    -0.047 A 
ATOM      3  C   UNL     1      23.986  -4.090 -35.323  1.00  0.00     0.016 A 
ATOM      4  C   UNL     1      22.732  -4.725 -35.327  1.00  0.00     0.038 A 
ATOM      5  C   UNL     1      22.462  -5.738 -36.270  1.00  0.00     0.076 A 
ATOM      6  C   UNL     1      23.469  -6.116 -37.188  1.00  0.00     0.127 A 
ATOM      7  C   UNL     1      24.714  -5.472 -37.168  1.00  0.00     0.050 A 
ATOM      8  C   UNL     1      21.117  -6.372 -36.288  1.00  0.00     0.201 C 
ATOM      9  O   UNL     1      20.738  -6.991 -37.318  1.00  0.00    -0.288 OA
ATOM     10  C   UNL     1      20.182  -6.175 -35.146  1.00  0.00     0.076 A 
ATOM     11  C   UNL     1      20.438  -5.116 -34.242  1.00  0.00     0.041 A 
ATOM     12  C   UNL     1      21.694  -4.336 -34.345  1.00  0.00     0.194 C 
ATOM     13  O   UNL     1      21.887  -3.348 -33.584  1.00  0.00    -0.289 OA
ATOM     14  C   UNL     1      19.502  -4.810 -33.239  1.00  0.00     0.059 A 
ATOM     15  C   UNL     1      18.326  -5.553 -33.115  1.00  0.00     0.120 A 
ATOM     16  C   UNL     1      18.091  -6.627 -33.971  1.00  0.00     0.093 A 
ATOM     17  C   UNL     1      19.019  -6.971 -34.961  1.00  0.00     0.131 A 
ENDROOT
BRANCH   6  18
ATOM     18  O   UNL     1      23.242  -7.135 -38.114  1.00  0.00    -0.507 OA
ATOM     19  H   UNL     1      22.879  -8.039 -37.834  1.00  0.00     0.293 HD
ENDBRANCH   6  18
BRANCH  17  20
ATOM     20  O   UNL     1      18.759  -8.124 -35.704  1.00  0.00    -0.507 OA
ATOM     21  H   UNL     1      17.936  -8.697 -35.582  1.00  0.00     0.293 HD
ENDBRANCH  17  20
BRANCH  15  22
ATOM     22  O   UNL     1      17.389  -5.241 -32.133  1.00  0.00    -0.508 OA
ATOM     23  H   UNL     1      16.625  -5.868 -31.910  1.00  0.00     0.293 HD
ENDBRANCH  15  22
TORSDOF 3
ENDMDL
MODEL 2
REMARK VINA RESULT:    -5.148      1.589      5.486
REMARK INTER + INTRA:          -5.600
REMARK INTER:                  -5.600
REMARK INTRA:                   0.000
REMARK UNBOUND:                 0.000
REMARK SMILES Cc1cc(O)c2c(c1)C(=O)c1cc(O)cc(O)c1C2=O
REMARK SMILES IDX 1 1 2 2 8 3 7 4 6 5 4 6 3 7 19 8 20 9 18 10 11 11 9 12 10 13
REMARK SMILES IDX 12 14 13 15 15 16 16 17 5 18 17 20 14 22
REMARK H PARENT 5 19 17 21 14 23
REMARK Flexibility Score: inf
ROOT
ATOM      1  C   UNL     1      17.334  -7.134 -32.345  1.00  0.00     0.044 C 
ATOM      2  C   UNL     1      18.447  -6.892 -33.322  1.00  0.00    -0.047 A 
ATOM      3  C   UNL     1      19.607  -6.221 -32.917  1.00  0.00     0.016 A 
ATOM      4  C   UNL     1      20.638  -5.955 -33.833  1.00  0.00     0.038 A 
ATOM      5  C   UNL     1      20.504  -6.361 -35.177  1.00  0.00     0.076 A 
ATOM      6  C   UNL     1      19.319  -7.013 -35.589  1.00  0.00     0.127 A 
ATOM      7  C   UNL     1      18.301  -7.268 -34.661  1.00  0.00     0.050 A 
ATOM      8  C   UNL     1      21.622  -6.108 -36.125  1.00  0.00     0.201 C 
ATOM      9  O   UNL     1      21.683  -6.764 -37.199  1.00  0.00    -0.288 OA
ATOM     10  C   UNL     1      22.721  -5.175 -35.754  1.00  0.00     0.076 A 
ATOM     11  C   UNL     1      22.876  -4.825 -34.392  1.00  0.00     0.041 A 
ATOM     12  C   UNL     1      21.865  -5.251 -33.394  1.00  0.00     0.194 C 
ATOM     13  O   UNL     1      22.042  -4.999 -32.170  1.00  0.00    -0.289 OA
ATOM     14  C   UNL     1      23.986  -4.066 -33.985  1.00  0.00     0.059 A 
ATOM     15  C   UNL     1      24.933  -3.636 -34.917  1.00  0.00     0.120 A 
ATOM     16  C   UNL     1      24.761  -3.936 -36.267  1.00  0.00     0.093 A 
ATOM     17  C   UNL     1      23.651  -4.668 -36.703  1.00  0.00     0.131 A 
ENDROOT
BRANCH   6  18
ATOM     18  O   UNL     1      19.144  -7.398 -36.919  1.00  0.00    -0.507 OA
ATOM     19  H   UNL     1      19.249  -8.363 -37.212  1.00  0.00     0.293 HD
ENDBRANCH   6  18
BRANCH  17  20
ATOM     20  O   UNL     1      23.497  -4.832 -38.082  1.00  0.00    -0.507 OA
ATOM     21  H   UNL     1      22.603  -4.829 -38.551  1.00  0.00     0.293 HD
ENDBRANCH  17  20
BRANCH  15  22
ATOM     22  O   UNL     1      26.043  -2.897 -34.515  1.00  0.00    -0.508 OA
ATOM     23  H   UNL     1      25.959  -1.931 -34.223  1.00  0.00     0.293 HD
ENDBRANCH  15  22
TORSDOF 3
ENDMDL
MODEL 3
REMARK VINA RESULT:    -5.043      1.542      3.815
REMARK INTER + INTRA:          -5.486
REMARK INTER:                  -5.486
REMARK INTRA:                   0.000
REMARK UNBOUND:                 0.000
REMARK SMILES Cc1cc(O)c2c(c1)C(=O)c1cc(O)cc(O)c1C2=O
REMARK SMILES IDX 1 1 2 2 8 3 7 4 6 5 4 6 3 7 19 8 20 9 18 10 11 11 9 12 10 13
REMARK SMILES IDX 12 14 13 15 15 16 16 17 5 18 17 20 14 22
REMARK H PARENT 5 19 17 21 14 23
REMARK Flexibility Score: inf
ROOT
ATOM      1  C   UNL     1      27.610  -2.622 -37.374  1.00  0.00     0.044 C 
ATOM      2  C   UNL     1      26.538  -3.200 -36.497  1.00  0.00    -0.047 A 
ATOM      3  C   UNL     1      25.515  -3.976 -37.054  1.00  0.00     0.016 A 
ATOM      4  C   UNL     1      24.484  -4.489 -36.248  1.00  0.00     0.038 A 
ATOM      5  C   UNL     1      24.475  -4.217 -34.864  1.00  0.00     0.076 A 
ATOM      6  C   UNL     1      25.495  -3.410 -34.310  1.00  0.00     0.127 A 
ATOM      7  C   UNL     1      26.513  -2.905 -35.131  1.00  0.00     0.050 A 
ATOM      8  C   UNL     1      23.401  -4.802 -34.018  1.00  0.00     0.201 C 
ATOM      9  O   UNL     1      23.569  -4.881 -32.771  1.00  0.00    -0.288 OA
ATOM     10  C   UNL     1      22.190  -5.395 -34.649  1.00  0.00     0.076 A 
ATOM     11  C   UNL     1      22.239  -5.716 -36.027  1.00  0.00     0.041 A 
ATOM     12  C   UNL     1      23.410  -5.315 -36.844  1.00  0.00     0.194 C 
ATOM     13  O   UNL     1      23.482  -5.664 -38.055  1.00  0.00    -0.289 OA
ATOM     14  C   UNL     1      21.171  -6.409 -36.623  1.00  0.00     0.059 A 
ATOM     15  C   UNL     1      20.051  -6.770 -35.871  1.00  0.00     0.120 A 
ATOM     16  C   UNL     1      19.976  -6.415 -34.526  1.00  0.00     0.093 A 
ATOM     17  C   UNL     1      21.013  -5.702 -33.914  1.00  0.00     0.131 A 
ENDROOT
BRANCH   6  18
ATOM     18  O   UNL     1      25.496  -3.098 -32.950  1.00  0.00    -0.507 OA
ATOM     19  H   UNL     1      25.308  -3.798 -32.242  1.00  0.00     0.293 HD
ENDBRANCH   6  18
BRANCH  17  20
ATOM     20  O   UNL     1      20.812  -5.292 -32.594  1.00  0.00    -0.507 OA
ATOM     21  H   UNL     1      19.918  -5.330 -32.125  1.00  0.00     0.293 HD
ENDBRANCH  17  20
BRANCH  15  22
ATOM     22  O   UNL     1      18.999  -7.471 -36.456  1.00  0.00    -0.508 OA
ATOM     23  H   UNL     1      18.057  -7.098 -36.472  1.00  0.00     0.293 HD
ENDBRANCH  15  22
TORSDOF 3
ENDMDL
MODEL 4
REMARK VINA RESULT:    -4.958      1.292      3.266
REMARK INTER + INTRA:          -5.393
REMARK INTER:                  -5.393
REMARK INTRA:                   0.000
REMARK UNBOUND:                 0.000
REMARK SMILES Cc1cc(O)c2c(c1)C(=O)c1cc(O)cc(O)c1C2=O
REMARK SMILES IDX 1 1 2 2 8 3 7 4 6 5 4 6 3 7 19 8 20 9 18 10 11 11 9 12 10 13
REMARK SMILES IDX 12 14 13 15 15 16 16 17 5 18 17 20 14 22
REMARK H PARENT 5 19 17 21 14 23
REMARK Flexibility Score: inf
ROOT
ATOM      1  C   UNL     1      26.292  -3.715 -37.697  1.00  0.00     0.044 C 
ATOM      2  C   UNL     1      25.197  -4.165 -36.775  1.00  0.00    -0.047 A 
ATOM      3  C   UNL     1      24.133  -4.931 -37.266  1.00  0.00     0.016 A 
ATOM      4  C   UNL     1      23.083  -5.325 -36.420  1.00  0.00     0.038 A 
ATOM      5  C   UNL     1      23.094  -4.942 -35.063  1.00  0.00     0.076 A 
ATOM      6  C   UNL     1      24.156  -4.145 -34.577  1.00  0.00     0.127 A 
ATOM      7  C   UNL     1      25.194  -3.760 -35.437  1.00  0.00     0.050 A 
ATOM      8  C   UNL     1      21.997  -5.402 -34.171  1.00  0.00     0.201 C 
ATOM      9  O   UNL     1      22.166  -5.388 -32.923  1.00  0.00    -0.288 OA
ATOM     10  C   UNL     1      20.754  -5.983 -34.751  1.00  0.00     0.076 A 
ATOM     11  C   UNL     1      20.780  -6.415 -36.099  1.00  0.00     0.041 A 
ATOM     12  C   UNL     1      21.965  -6.141 -36.946  1.00  0.00     0.194 C 
ATOM     13  O   UNL     1      22.014  -6.590 -38.125  1.00  0.00    -0.289 OA
ATOM     14  C   UNL     1      19.676  -7.100 -36.636  1.00  0.00     0.059 A 
ATOM     15  C   UNL     1      18.543  -7.342 -35.856  1.00  0.00     0.120 A 
ATOM     16  C   UNL     1      18.493  -6.877 -34.544  1.00  0.00     0.093 A 
ATOM     17  C   UNL     1      19.567  -6.169 -33.993  1.00  0.00     0.131 A 
ENDROOT
BRANCH   6  18
ATOM     18  O   UNL     1      24.179  -3.724 -33.247  1.00  0.00    -0.507 OA
ATOM     19  H   UNL     1      24.941  -3.966 -32.624  1.00  0.00     0.293 HD
ENDBRANCH   6  18
BRANCH  17  20
ATOM     20  O   UNL     1      19.393  -5.645 -32.710  1.00  0.00    -0.507 OA
ATOM     21  H   UNL     1      19.842  -4.801 -32.383  1.00  0.00     0.293 HD
ENDBRANCH  17  20
BRANCH  15  22
ATOM     22  O   UNL     1      17.454  -8.035 -36.380  1.00  0.00    -0.508 OA
ATOM     23  H   UNL     1      17.290  -8.088 -37.378  1.00  0.00     0.293 HD
ENDBRANCH  15  22
TORSDOF 3
ENDMDL
MODEL 5
REMARK VINA RESULT:    -4.833      7.095      9.598
REMARK INTER + INTRA:          -5.257
REMARK INTER:                  -5.257
REMARK INTRA:                   0.000
REMARK UNBOUND:                 0.000
REMARK SMILES Cc1cc(O)c2c(c1)C(=O)c1cc(O)cc(O)c1C2=O
REMARK SMILES IDX 1 1 2 2 8 3 7 4 6 5 4 6 3 7 19 8 20 9 18 10 11 11 9 12 10 13
REMARK SMILES IDX 12 14 13 15 15 16 16 17 5 18 17 20 14 22
REMARK H PARENT 5 19 17 21 14 23
REMARK Flexibility Score: inf
ROOT
ATOM      1  C   UNL     1      17.303  -8.977 -26.708  1.00  0.00     0.044 C 
ATOM      2  C   UNL     1      16.308  -8.943 -27.831  1.00  0.00    -0.047 A 
ATOM      3  C   UNL     1      16.639  -8.333 -29.047  1.00  0.00     0.016 A 
ATOM      4  C   UNL     1      15.702  -8.261 -30.092  1.00  0.00     0.038 A 
ATOM      5  C   UNL     1      14.412  -8.803 -29.915  1.00  0.00     0.076 A 
ATOM      6  C   UNL     1      14.072  -9.393 -28.676  1.00  0.00     0.127 A 
ATOM      7  C   UNL     1      15.020  -9.454 -27.645  1.00  0.00     0.050 A 
ATOM      8  C   UNL     1      13.445  -8.756 -31.044  1.00  0.00     0.201 C 
ATOM      9  O   UNL     1      12.452  -9.532 -31.042  1.00  0.00    -0.288 OA
ATOM     10  C   UNL     1      13.712  -7.884 -32.221  1.00  0.00     0.076 A 
ATOM     11  C   UNL     1      15.027  -7.397 -32.413  1.00  0.00     0.041 A 
ATOM     12  C   UNL     1      16.062  -7.620 -31.376  1.00  0.00     0.194 C 
ATOM     13  O   UNL     1      17.250  -7.247 -31.582  1.00  0.00    -0.289 OA
ATOM     14  C   UNL     1      15.348  -6.694 -33.588  1.00  0.00     0.059 A 
ATOM     15  C   UNL     1      14.377  -6.455 -34.561  1.00  0.00     0.120 A 
ATOM     16  C   UNL     1      13.069  -6.890 -34.356  1.00  0.00     0.093 A 
ATOM     17  C   UNL     1      12.715  -7.569 -33.184  1.00  0.00     0.131 A 
ENDROOT
BRANCH   6  18
ATOM     18  O   UNL     1      12.794  -9.910 -28.460  1.00  0.00    -0.507 OA
ATOM     19  H   UNL     1      12.518 -10.294 -27.564  1.00  0.00     0.293 HD
ENDBRANCH   6  18
BRANCH  17  20
ATOM     20  O   UNL     1      11.363  -7.874 -33.009  1.00  0.00    -0.507 OA
ATOM     21  H   UNL     1      10.678  -7.213 -32.672  1.00  0.00     0.293 HD
ENDBRANCH  17  20
BRANCH  15  22
ATOM     22  O   UNL     1      14.697  -5.774 -35.733  1.00  0.00    -0.508 OA
ATOM     23  H   UNL     1      15.546  -5.229 -35.814  1.00  0.00     0.293 HD
ENDBRANCH  15  22
TORSDOF 3
ENDMDL
MODEL 6
REMARK VINA RESULT:    -4.783      7.119      9.365
REMARK INTER + INTRA:          -5.203
REMARK INTER:                  -5.203
REMARK INTRA:                   0.000
REMARK UNBOUND:                 0.000
REMARK SMILES Cc1cc(O)c2c(c1)C(=O)c1cc(O)cc(O)c1C2=O
REMARK SMILES IDX 1 1 2 2 8 3 7 4 6 5 4 6 3 7 19 8 20 9 18 10 11 11 9 12 10 13
REMARK SMILES IDX 12 14 13 15 15 16 16 17 5 18 17 20 14 22
REMARK H PARENT 5 19 17 21 14 23
REMARK Flexibility Score: inf
ROOT
ATOM      1  C   UNL     1      14.526  -5.655 -35.902  1.00  0.00     0.044 C 
ATOM      2  C   UNL     1      14.221  -6.002 -34.474  1.00  0.00    -0.047 A 
ATOM      3  C   UNL     1      15.241  -6.442 -33.622  1.00  0.00     0.016 A 
ATOM      4  C   UNL     1      14.959  -6.806 -32.294  1.00  0.00     0.038 A 
ATOM      5  C   UNL     1      13.635  -6.735 -31.813  1.00  0.00     0.076 A 
ATOM      6  C   UNL     1      12.603  -6.318 -32.685  1.00  0.00     0.127 A 
ATOM      7  C   UNL     1      12.904  -5.960 -34.007  1.00  0.00     0.050 A 
ATOM      8  C   UNL     1      13.360  -7.085 -30.395  1.00  0.00     0.201 C 
ATOM      9  O   UNL     1      12.292  -6.690 -29.856  1.00  0.00    -0.288 OA
ATOM     10  C   UNL     1      14.390  -7.793 -29.585  1.00  0.00     0.076 A 
ATOM     11  C   UNL     1      15.725  -7.803 -30.055  1.00  0.00     0.041 A 
ATOM     12  C   UNL     1      16.046  -7.263 -31.398  1.00  0.00     0.194 C 
ATOM     13  O   UNL     1      17.245  -7.208 -31.786  1.00  0.00    -0.289 OA
ATOM     14  C   UNL     1      16.747  -8.333 -29.249  1.00  0.00     0.059 A 
ATOM     15  C   UNL     1      16.456  -8.868 -27.993  1.00  0.00     0.120 A 
ATOM     16  C   UNL     1      15.137  -8.905 -27.545  1.00  0.00     0.093 A 
ATOM     17  C   UNL     1      14.096  -8.408 -28.338  1.00  0.00     0.131 A 
ENDROOT
BRANCH   6  18
ATOM     18  O   UNL     1      11.279  -6.267 -32.248  1.00  0.00    -0.507 OA
ATOM     19  H   UNL     1      10.502  -6.403 -32.883  1.00  0.00     0.293 HD
ENDBRANCH   6  18
BRANCH  17  20
ATOM     20  O   UNL     1      12.795  -8.581 -27.862  1.00  0.00    -0.507 OA
ATOM     21  H   UNL     1      12.427  -8.109 -27.049  1.00  0.00     0.293 HD
ENDBRANCH  17  20
BRANCH  15  22
ATOM     22  O   UNL     1      17.469  -9.379 -27.185  1.00  0.00    -0.508 OA
ATOM     23  H   UNL     1      17.701  -8.956 -26.295  1.00  0.00     0.293 HD
ENDBRANCH  15  22
TORSDOF 3
ENDMDL
MODEL 7
REMARK VINA RESULT:    -4.776      7.638      9.595
REMARK INTER + INTRA:          -5.195
REMARK INTER:                  -5.195
REMARK INTRA:                   0.000
REMARK UNBOUND:                 0.000
REMARK SMILES Cc1cc(O)c2c(c1)C(=O)c1cc(O)cc(O)c1C2=O
REMARK SMILES IDX 1 1 2 2 8 3 7 4 6 5 4 6 3 7 19 8 20 9 18 10 11 11 9 12 10 13
REMARK SMILES IDX 12 14 13 15 15 16 16 17 5 18 17 20 14 22
REMARK H PARENT 5 19 17 21 14 23
REMARK Flexibility Score: inf
ROOT
ATOM      1  C   UNL     1      10.876  -9.451 -36.790  1.00  0.00     0.044 C 
ATOM      2  C   UNL     1      11.891  -8.849 -35.864  1.00  0.00    -0.047 A 
ATOM      3  C   UNL     1      11.964  -9.267 -34.530  1.00  0.00     0.016 A 
ATOM      4  C   UNL     1      12.886  -8.682 -33.644  1.00  0.00     0.038 A 
ATOM      5  C   UNL     1      13.743  -7.659 -34.099  1.00  0.00     0.076 A 
ATOM      6  C   UNL     1      13.647  -7.219 -35.439  1.00  0.00     0.127 A 
ATOM      7  C   UNL     1      12.720  -7.814 -36.307  1.00  0.00     0.050 A 
ATOM      8  C   UNL     1      14.740  -7.079 -33.161  1.00  0.00     0.201 C 
ATOM      9  O   UNL     1      15.730  -6.450 -33.620  1.00  0.00    -0.288 OA
ATOM     10  C   UNL     1      14.632  -7.340 -31.698  1.00  0.00     0.076 A 
ATOM     11  C   UNL     1      13.812  -8.409 -31.265  1.00  0.00     0.041 A 
ATOM     12  C   UNL     1      12.960  -9.136 -32.237  1.00  0.00     0.194 C 
ATOM     13  O   UNL     1      12.285 -10.134 -31.861  1.00  0.00    -0.289 OA
ATOM     14  C   UNL     1      13.799  -8.777 -29.908  1.00  0.00     0.059 A 
ATOM     15  C   UNL     1      14.577  -8.084 -28.978  1.00  0.00     0.120 A 
ATOM     16  C   UNL     1      15.349  -7.000 -29.391  1.00  0.00     0.093 A 
ATOM     17  C   UNL     1      15.359  -6.596 -30.730  1.00  0.00     0.131 A 
ENDROOT
BRANCH   6  18
ATOM     18  O   UNL     1      14.460  -6.188 -35.910  1.00  0.00    -0.507 OA
ATOM     19  H   UNL     1      14.574  -6.008 -36.901  1.00  0.00     0.293 HD
ENDBRANCH   6  18
BRANCH  17  20
ATOM     20  O   UNL     1      16.074  -5.436 -31.040  1.00  0.00    -0.507 OA
ATOM     21  H   UNL     1      17.006  -5.245 -30.704  1.00  0.00     0.293 HD
ENDBRANCH  17  20
BRANCH  15  22
ATOM     22  O   UNL     1      14.579  -8.457 -27.636  1.00  0.00    -0.508 OA
ATOM     23  H   UNL     1      14.452  -7.777 -26.897  1.00  0.00     0.293 HD
ENDBRANCH  15  22
TORSDOF 3
ENDMDL
MODEL 8
REMARK VINA RESULT:    -4.698      1.273      6.395
REMARK INTER + INTRA:          -5.110
REMARK INTER:                  -5.110
REMARK INTRA:                   0.000
REMARK UNBOUND:                 0.000
REMARK SMILES Cc1cc(O)c2c(c1)C(=O)c1cc(O)cc(O)c1C2=O
REMARK SMILES IDX 1 1 2 2 8 3 7 4 6 5 4 6 3 7 19 8 20 9 18 10 11 11 9 12 10 13
REMARK SMILES IDX 12 14 13 15 15 16 16 17 5 18 17 20 14 22
REMARK H PARENT 5 19 17 21 14 23
REMARK Flexibility Score: inf
ROOT
ATOM      1  C   UNL     1      15.535  -6.690 -33.711  1.00  0.00     0.044 C 
ATOM      2  C   UNL     1      16.884  -6.038 -33.809  1.00  0.00    -0.047 A 
ATOM      3  C   UNL     1      17.800  -6.459 -34.779  1.00  0.00     0.016 A 
ATOM      4  C   UNL     1      19.080  -5.883 -34.855  1.00  0.00     0.038 A 
ATOM      5  C   UNL     1      19.450  -4.874 -33.942  1.00  0.00     0.076 A 
ATOM      6  C   UNL     1      18.531  -4.471 -32.945  1.00  0.00     0.127 A 
ATOM      7  C   UNL     1      17.260  -5.059 -32.884  1.00  0.00     0.050 A 
ATOM      8  C   UNL     1      20.792  -4.245 -34.061  1.00  0.00     0.201 C 
ATOM      9  O   UNL     1      21.003  -3.128 -33.517  1.00  0.00    -0.288 OA
ATOM     10  C   UNL     1      21.839  -4.873 -34.913  1.00  0.00     0.076 A 
ATOM     11  C   UNL     1      21.440  -5.842 -35.865  1.00  0.00     0.041 A 
ATOM     12  C   UNL     1      20.040  -6.329 -35.889  1.00  0.00     0.194 C 
ATOM     13  O   UNL     1      19.671  -7.139 -36.784  1.00  0.00    -0.289 OA
ATOM     14  C   UNL     1      22.377  -6.348 -36.783  1.00  0.00     0.059 A 
ATOM     15  C   UNL     1      23.704  -5.917 -36.755  1.00  0.00     0.120 A 
ATOM     16  C   UNL     1      24.114  -4.999 -35.789  1.00  0.00     0.093 A 
ATOM     17  C   UNL     1      23.209  -4.499 -34.846  1.00  0.00     0.131 A 
ENDROOT
BRANCH   6  18
ATOM     18  O   UNL     1      18.879  -3.498 -32.008  1.00  0.00    -0.507 OA
ATOM     19  H   UNL     1      18.424  -3.440 -31.105  1.00  0.00     0.293 HD
ENDBRANCH   6  18
BRANCH  17  20
ATOM     20  O   UNL     1      23.724  -3.669 -33.848  1.00  0.00    -0.507 OA
ATOM     21  H   UNL     1      23.913  -3.976 -32.905  1.00  0.00     0.293 HD
ENDBRANCH  17  20
BRANCH  15  22
ATOM     22  O   UNL     1      24.630  -6.404 -37.674  1.00  0.00    -0.508 OA
ATOM     23  H   UNL     1      24.404  -7.169 -38.299  1.00  0.00     0.293 HD
ENDBRANCH  15  22
TORSDOF 3
ENDMDL
