MODEL 1
REMARK VINA RESULT:    -4.322      0.000      0.000
REMARK INTER + INTRA:         -10.619
REMARK INTER:                  -7.859
REMARK INTRA:                  -2.760
REMARK UNBOUND:                -2.760
REMARK SMILES CCCCCC=CCC=CCCCCCCCC(=O)[O-]
REMARK SMILES IDX 11 1 12 2 13 3 14 4 15 5 16 6 17 7 18 8 19 9 20 10 10 11
REMARK SMILES IDX 9 12 8 13 7 14 6 15 5 16 4 17 3 18 2 19 1 20
REMARK H PARENT
REMARK Flexibility Score: inf
ROOT
ATOM      1  C   UNL     1     100.000  89.387  79.875  1.00  0.00     0.027 C 
ENDROOT
BRANCH   1   2
ATOM      2  C   UNL     1     100.729  90.737  79.969  1.00  0.00     0.004 C 
BRANCH   2   3
ATOM      3  C   UNL     1     102.250  90.579  80.131  1.00  0.00     0.000 C 
BRANCH   3   4
ATOM      4  C   UNL     1     102.735  90.941  81.546  1.00  0.00     0.000 C 
BRANCH   4   5
ATOM      5  C   UNL     1     102.724  89.738  82.507  1.00  0.00     0.000 C 
BRANCH   5   6
ATOM      6  C   UNL     1     101.540  89.699  83.496  1.00  0.00     0.006 C 
BRANCH   6   7
ATOM      7  C   UNL     1     101.937  89.839  84.974  1.00  0.00     0.053 C 
BRANCH   7   8
ATOM      8  C   UNL     1     102.055  91.273  85.393  1.00  0.00     0.041 C 
ATOM      9  O   UNL     1     101.047  91.891  85.828  1.00  0.00    -0.550 OA
ATOM     10  O   UNL     1     103.271  91.934  85.279  1.00  0.00    -0.550 OA
ENDBRANCH   7   8
ENDBRANCH   6   7
ENDBRANCH   5   6
ENDBRANCH   4   5
ENDBRANCH   3   4
ENDBRANCH   2   3
ENDBRANCH   1   2
BRANCH   1  11
ATOM     11  C   UNL     1      98.957  89.260  80.950  1.00  0.00    -0.031 C 
ATOM     12  C   UNL     1      97.652  89.161  80.651  1.00  0.00    -0.027 C 
BRANCH  12  13
ATOM     13  C   UNL     1      96.606  89.025  81.723  1.00  0.00     0.054 C 
BRANCH  13  14
ATOM     14  C   UNL     1      95.858  90.318  81.932  1.00  0.00    -0.027 C 
ATOM     15  C   UNL     1      95.701  90.927  83.122  1.00  0.00    -0.031 C 
BRANCH  15  16
ATOM     16  C   UNL     1      96.295  90.441  84.419  1.00  0.00     0.027 C 
BRANCH  16  17
ATOM     17  C   UNL     1      97.769  90.855  84.536  1.00  0.00     0.004 C 
BRANCH  17  18
ATOM     18  C   UNL     1      98.013  92.291  84.027  1.00  0.00     0.000 C 
BRANCH  18  19
ATOM     19  C   UNL     1      99.067  92.379  82.911  1.00  0.00    -0.003 C 
ATOM     20  C   UNL     1      98.521  92.979  81.617  1.00  0.00     0.004 C 
ENDBRANCH  18  19
ENDBRANCH  17  18
ENDBRANCH  16  17
ENDBRANCH  15  16
ENDBRANCH  13  14
ENDBRANCH  12  13
ENDBRANCH   1  11
TORSDOF 14
ENDMDL
MODEL 2
REMARK VINA RESULT:    -4.186      1.649      2.950
REMARK INTER + INTRA:         -10.372
REMARK INTER:                  -8.172
REMARK INTRA:                  -2.200
REMARK UNBOUND:                -2.760
REMARK SMILES CCCCCC=CCC=CCCCCCCCC(=O)[O-]
REMARK SMILES IDX 11 1 12 2 13 3 14 4 15 5 16 6 17 7 18 8 19 9 20 10 10 11
REMARK SMILES IDX 9 12 8 13 7 14 6 15 5 16 4 17 3 18 2 19 1 20
REMARK H PARENT
REMARK Flexibility Score: inf
ROOT
ATOM      1  C   UNL     1     100.580  89.411  79.992  1.00  0.00     0.027 C 
ENDROOT
BRANCH   1   2
ATOM      2  C   UNL     1     100.771  90.932  79.883  1.00  0.00     0.004 C 
BRANCH   2   3
ATOM      3  C   UNL     1     101.271  91.562  81.194  1.00  0.00     0.000 C 
BRANCH   3   4
ATOM      4  C   UNL     1     100.158  92.303  81.955  1.00  0.00     0.000 C 
BRANCH   4   5
ATOM      5  C   UNL     1      99.976  91.791  83.396  1.00  0.00     0.000 C 
BRANCH   5   6
ATOM      6  C   UNL     1     100.524  90.373  83.663  1.00  0.00     0.006 C 
BRANCH   6   7
ATOM      7  C   UNL     1     101.440  90.264  84.893  1.00  0.00     0.053 C 
BRANCH   7   8
ATOM      8  C   UNL     1     102.890  90.242  84.515  1.00  0.00     0.041 C 
ATOM      9  O   UNL     1     103.597  89.231  84.773  1.00  0.00    -0.550 OA
ATOM     10  O   UNL     1     103.467  91.347  83.903  1.00  0.00    -0.550 OA
ENDBRANCH   7   8
ENDBRANCH   6   7
ENDBRANCH   5   6
ENDBRANCH   4   5
ENDBRANCH   3   4
ENDBRANCH   2   3
ENDBRANCH   1   2
BRANCH   1  11
ATOM     11  C   UNL     1      99.214  89.074  80.520  1.00  0.00    -0.031 C 
ATOM     12  C   UNL     1      98.121  89.734  80.106  1.00  0.00    -0.027 C 
BRANCH  12  13
ATOM     13  C   UNL     1      96.751  89.395  80.626  1.00  0.00     0.054 C 
BRANCH  13  14
ATOM     14  C   UNL     1      96.806  88.900  82.049  1.00  0.00    -0.027 C 
ATOM     15  C   UNL     1      96.674  89.681  83.137  1.00  0.00    -0.031 C 
BRANCH  15  16
ATOM     16  C   UNL     1      96.395  91.162  83.100  1.00  0.00     0.027 C 
BRANCH  16  17
ATOM     17  C   UNL     1      94.998  91.470  83.659  1.00  0.00     0.004 C 
BRANCH  17  18
ATOM     18  C   UNL     1      93.939  91.597  82.545  1.00  0.00     0.000 C 
BRANCH  18  19
ATOM     19  C   UNL     1      92.522  91.878  83.070  1.00  0.00    -0.003 C 
ATOM     20  C   UNL     1      92.460  91.995  84.592  1.00  0.00     0.004 C 
ENDBRANCH  18  19
ENDBRANCH  17  18
ENDBRANCH  16  17
ENDBRANCH  15  16
ENDBRANCH  13  14
ENDBRANCH  12  13
ENDBRANCH   1  11
TORSDOF 14
ENDMDL
MODEL 3
REMARK VINA RESULT:    -4.137      1.168      1.914
REMARK INTER + INTRA:         -10.283
REMARK INTER:                  -8.035
REMARK INTRA:                  -2.248
REMARK UNBOUND:                -2.760
REMARK SMILES CCCCCC=CCC=CCCCCCCCC(=O)[O-]
REMARK SMILES IDX 11 1 12 2 13 3 14 4 15 5 16 6 17 7 18 8 19 9 20 10 10 11
REMARK SMILES IDX 9 12 8 13 7 14 6 15 5 16 4 17 3 18 2 19 1 20
REMARK H PARENT
REMARK Flexibility Score: inf
ROOT
ATOM      1  C   UNL     1     100.292  89.257  80.210  1.00  0.00     0.027 C 
ENDROOT
BRANCH   1   2
ATOM      2  C   UNL     1     101.427  89.636  81.175  1.00  0.00     0.004 C 
BRANCH   2   3
ATOM      3  C   UNL     1     101.087  89.322  82.641  1.00  0.00     0.000 C 
BRANCH   3   4
ATOM      4  C   UNL     1     102.236  89.671  83.603  1.00  0.00     0.000 C 
BRANCH   4   5
ATOM      5  C   UNL     1     101.794  89.699  85.077  1.00  0.00     0.000 C 
BRANCH   5   6
ATOM      6  C   UNL     1     102.943  89.729  86.107  1.00  0.00     0.006 C 
BRANCH   6   7
ATOM      7  C   UNL     1     102.811  90.821  87.180  1.00  0.00     0.053 C 
BRANCH   7   8
ATOM      8  C   UNL     1     102.882  92.199  86.594  1.00  0.00     0.041 C 
ATOM      9  O   UNL     1     103.590  92.419  85.576  1.00  0.00    -0.550 OA
ATOM     10  O   UNL     1     102.186  93.244  87.188  1.00  0.00    -0.550 OA
ENDBRANCH   7   8
ENDBRANCH   6   7
ENDBRANCH   5   6
ENDBRANCH   4   5
ENDBRANCH   3   4
ENDBRANCH   2   3
ENDBRANCH   1   2
BRANCH   1  11
ATOM     11  C   UNL     1      98.970  89.208  80.924  1.00  0.00    -0.031 C 
ATOM     12  C   UNL     1      97.813  89.388  80.268  1.00  0.00    -0.027 C 
BRANCH  12  13
ATOM     13  C   UNL     1      96.488  89.331  80.977  1.00  0.00     0.054 C 
BRANCH  13  14
ATOM     14  C   UNL     1      96.664  89.208  82.470  1.00  0.00    -0.027 C 
ATOM     15  C   UNL     1      96.336  90.161  83.360  1.00  0.00    -0.031 C 
BRANCH  15  16
ATOM     16  C   UNL     1      95.691  91.478  83.008  1.00  0.00     0.027 C 
BRANCH  16  17
ATOM     17  C   UNL     1      96.754  92.554  82.742  1.00  0.00     0.004 C 
BRANCH  17  18
ATOM     18  C   UNL     1      98.029  92.334  83.582  1.00  0.00     0.000 C 
BRANCH  18  19
ATOM     19  C   UNL     1      99.329  92.453  82.770  1.00  0.00    -0.003 C 
ATOM     20  C   UNL     1      99.094  92.873  81.321  1.00  0.00     0.004 C 
ENDBRANCH  18  19
ENDBRANCH  17  18
ENDBRANCH  16  17
ENDBRANCH  15  16
ENDBRANCH  13  14
ENDBRANCH  12  13
ENDBRANCH   1  11
TORSDOF 14
ENDMDL
MODEL 4
REMARK VINA RESULT:    -4.107      2.534      4.301
REMARK INTER + INTRA:         -10.228
REMARK INTER:                  -7.578
REMARK INTRA:                  -2.650
REMARK UNBOUND:                -2.760
REMARK SMILES CCCCCC=CCC=CCCCCCCCC(=O)[O-]
REMARK SMILES IDX 11 1 12 2 13 3 14 4 15 5 16 6 17 7 18 8 19 9 20 10 10 11
REMARK SMILES IDX 9 12 8 13 7 14 6 15 5 16 4 17 3 18 2 19 1 20
REMARK H PARENT
REMARK Flexibility Score: inf
ROOT
ATOM      1  C   UNL     1     100.780  90.455  84.098  1.00  0.00     0.027 C 
ENDROOT
BRANCH   1   2
ATOM      2  C   UNL     1     101.062  91.935  84.406  1.00  0.00     0.004 C 
BRANCH   2   3
ATOM      3  C   UNL     1     102.567  92.243  84.497  1.00  0.00     0.000 C 
BRANCH   3   4
ATOM      4  C   UNL     1     103.436  91.133  83.881  1.00  0.00     0.000 C 
BRANCH   4   5
ATOM      5  C   UNL     1     103.985  91.507  82.491  1.00  0.00     0.000 C 
BRANCH   5   6
ATOM      6  C   UNL     1     103.685  90.489  81.371  1.00  0.00     0.006 C 
BRANCH   6   7
ATOM      7  C   UNL     1     103.688  89.021  81.825  1.00  0.00     0.053 C 
BRANCH   7   8
ATOM      8  C   UNL     1     104.728  88.212  81.110  1.00  0.00     0.041 C 
ATOM      9  O   UNL     1     105.142  88.571  79.976  1.00  0.00    -0.550 OA
ATOM     10  O   UNL     1     105.221  87.047  81.685  1.00  0.00    -0.550 OA
ENDBRANCH   7   8
ENDBRANCH   6   7
ENDBRANCH   5   6
ENDBRANCH   4   5
ENDBRANCH   3   4
ENDBRANCH   2   3
ENDBRANCH   1   2
BRANCH   1  11
ATOM     11  C   UNL     1     100.186  90.293  82.726  1.00  0.00    -0.031 C 
ATOM     12  C   UNL     1     100.143  91.315  81.856  1.00  0.00    -0.027 C 
BRANCH  12  13
ATOM     13  C   UNL     1      99.558  91.155  80.480  1.00  0.00     0.054 C 
BRANCH  13  14
ATOM     14  C   UNL     1      99.619  89.721  80.016  1.00  0.00    -0.027 C 
ATOM     15  C   UNL     1      98.564  88.887  79.966  1.00  0.00    -0.031 C 
BRANCH  15  16
ATOM     16  C   UNL     1      97.149  89.273  80.312  1.00  0.00     0.027 C 
BRANCH  16  17
ATOM     17  C   UNL     1      96.837  88.950  81.781  1.00  0.00     0.004 C 
BRANCH  17  18
ATOM     18  C   UNL     1      96.070  90.092  82.478  1.00  0.00     0.000 C 
BRANCH  18  19
ATOM     19  C   UNL     1      96.573  90.395  83.899  1.00  0.00    -0.003 C 
ATOM     20  C   UNL     1      97.156  91.800  84.041  1.00  0.00     0.004 C 
ENDBRANCH  18  19
ENDBRANCH  17  18
ENDBRANCH  16  17
ENDBRANCH  15  16
ENDBRANCH  13  14
ENDBRANCH  12  13
ENDBRANCH   1  11
TORSDOF 14
ENDMDL
MODEL 5
REMARK VINA RESULT:    -4.091      2.488      2.891
REMARK INTER + INTRA:         -10.200
REMARK INTER:                  -7.623
REMARK INTRA:                  -2.577
REMARK UNBOUND:                -2.760
REMARK SMILES CCCCCC=CCC=CCCCCCCCC(=O)[O-]
REMARK SMILES IDX 11 1 12 2 13 3 14 4 15 5 16 6 17 7 18 8 19 9 20 10 10 11
REMARK SMILES IDX 9 12 8 13 7 14 6 15 5 16 4 17 3 18 2 19 1 20
REMARK H PARENT
REMARK Flexibility Score: inf
ROOT
ATOM      1  C   UNL     1      99.644  90.380  79.875  1.00  0.00     0.027 C 
ENDROOT
BRANCH   1   2
ATOM      2  C   UNL     1     100.644  89.246  80.153  1.00  0.00     0.004 C 
BRANCH   2   3
ATOM      3  C   UNL     1     102.091  89.753  80.284  1.00  0.00     0.000 C 
BRANCH   3   4
ATOM      4  C   UNL     1     102.214  90.947  81.245  1.00  0.00     0.000 C 
BRANCH   4   5
ATOM      5  C   UNL     1     103.008  90.608  82.521  1.00  0.00     0.000 C 
BRANCH   5   6
ATOM      6  C   UNL     1     103.252  89.103  82.762  1.00  0.00     0.006 C 
BRANCH   6   7
ATOM      7  C   UNL     1     104.732  88.708  82.887  1.00  0.00     0.053 C 
BRANCH   7   8
ATOM      8  C   UNL     1     105.254  88.073  81.634  1.00  0.00     0.041 C 
ATOM      9  O   UNL     1     105.478  86.834  81.597  1.00  0.00    -0.550 OA
ATOM     10  O   UNL     1     105.518  88.854  80.516  1.00  0.00    -0.550 OA
ENDBRANCH   7   8
ENDBRANCH   6   7
ENDBRANCH   5   6
ENDBRANCH   4   5
ENDBRANCH   3   4
ENDBRANCH   2   3
ENDBRANCH   1   2
BRANCH   1  11
ATOM     11  C   UNL     1      98.309  90.088  80.502  1.00  0.00    -0.031 C 
ATOM     12  C   UNL     1      98.181  89.192  81.492  1.00  0.00    -0.027 C 
BRANCH  12  13
ATOM     13  C   UNL     1      96.849  88.903  82.127  1.00  0.00     0.054 C 
BRANCH  13  14
ATOM     14  C   UNL     1      95.986  90.138  82.189  1.00  0.00    -0.027 C 
ATOM     15  C   UNL     1      95.761  90.859  83.302  1.00  0.00    -0.031 C 
BRANCH  15  16
ATOM     16  C   UNL     1      96.379  90.576  84.648  1.00  0.00     0.027 C 
BRANCH  16  17
ATOM     17  C   UNL     1      97.519  91.561  84.945  1.00  0.00     0.004 C 
BRANCH  17  18
ATOM     18  C   UNL     1      98.899  90.987  84.566  1.00  0.00     0.000 C 
BRANCH  18  19
ATOM     19  C   UNL     1      99.826  92.008  83.885  1.00  0.00    -0.003 C 
ATOM     20  C   UNL     1      99.131  92.802  82.780  1.00  0.00     0.004 C 
ENDBRANCH  18  19
ENDBRANCH  17  18
ENDBRANCH  16  17
ENDBRANCH  15  16
ENDBRANCH  13  14
ENDBRANCH  12  13
ENDBRANCH   1  11
TORSDOF 14
ENDMDL
MODEL 6
REMARK VINA RESULT:    -4.035      1.912      4.801
REMARK INTER + INTRA:         -10.098
REMARK INTER:                  -7.631
REMARK INTRA:                  -2.467
REMARK UNBOUND:                -2.760
REMARK SMILES CCCCCC=CCC=CCCCCCCCC(=O)[O-]
REMARK SMILES IDX 11 1 12 2 13 3 14 4 15 5 16 6 17 7 18 8 19 9 20 10 10 11
REMARK SMILES IDX 9 12 8 13 7 14 6 15 5 16 4 17 3 18 2 19 1 20
REMARK H PARENT
REMARK Flexibility Score: inf
ROOT
ATOM      1  C   UNL     1      96.206  90.036  82.526  1.00  0.00     0.027 C 
ENDROOT
BRANCH   1   2
ATOM      2  C   UNL     1      96.939  88.905  81.785  1.00  0.00     0.004 C 
BRANCH   2   3
ATOM      3  C   UNL     1      97.295  89.279  80.337  1.00  0.00     0.000 C 
BRANCH   3   4
ATOM      4  C   UNL     1      98.760  89.723  80.184  1.00  0.00     0.000 C 
BRANCH   4   5
ATOM      5  C   UNL     1      99.704  89.018  81.175  1.00  0.00     0.000 C 
BRANCH   5   6
ATOM      6  C   UNL     1     100.587  89.958  82.023  1.00  0.00     0.006 C 
BRANCH   6   7
ATOM      7  C   UNL     1     101.530  89.240  83.001  1.00  0.00     0.053 C 
BRANCH   7   8
ATOM      8  C   UNL     1     102.941  89.199  82.497  1.00  0.00     0.041 C 
ATOM      9  O   UNL     1     103.883  88.894  83.276  1.00  0.00    -0.550 OA
ATOM     10  O   UNL     1     103.218  89.523  81.175  1.00  0.00    -0.550 OA
ENDBRANCH   7   8
ENDBRANCH   6   7
ENDBRANCH   5   6
ENDBRANCH   4   5
ENDBRANCH   3   4
ENDBRANCH   2   3
ENDBRANCH   1   2
BRANCH   1  11
ATOM     11  C   UNL     1      97.150  90.801  83.412  1.00  0.00    -0.031 C 
ATOM     12  C   UNL     1      97.698  91.960  83.016  1.00  0.00    -0.027 C 
BRANCH  12  13
ATOM     13  C   UNL     1      98.635  92.732  83.903  1.00  0.00     0.054 C 
BRANCH  13  14
ATOM     14  C   UNL     1      99.158  91.879  85.031  1.00  0.00    -0.027 C 
ATOM     15  C   UNL     1     100.454  91.784  85.382  1.00  0.00    -0.031 C 
BRANCH  15  16
ATOM     16  C   UNL     1     101.576  92.558  84.737  1.00  0.00     0.027 C 
BRANCH  16  17
ATOM     17  C   UNL     1     102.941  91.994  85.156  1.00  0.00     0.004 C 
BRANCH  17  18
ATOM     18  C   UNL     1     103.242  92.245  86.648  1.00  0.00     0.000 C 
BRANCH  18  19
ATOM     19  C   UNL     1     103.254  90.964  87.498  1.00  0.00    -0.003 C 
ATOM     20  C   UNL     1     103.311  89.689  86.658  1.00  0.00     0.004 C 
ENDBRANCH  18  19
ENDBRANCH  17  18
ENDBRANCH  16  17
ENDBRANCH  15  16
ENDBRANCH  13  14
ENDBRANCH  12  13
ENDBRANCH   1  11
TORSDOF 14
ENDMDL
MODEL 7
REMARK VINA RESULT:    -4.024      2.019      4.559
REMARK INTER + INTRA:         -10.077
REMARK INTER:                  -7.385
REMARK INTRA:                  -2.692
REMARK UNBOUND:                -2.760
REMARK SMILES CCCCCC=CCC=CCCCCCCCC(=O)[O-]
REMARK SMILES IDX 11 1 12 2 13 3 14 4 15 5 16 6 17 7 18 8 19 9 20 10 10 11
REMARK SMILES IDX 9 12 8 13 7 14 6 15 5 16 4 17 3 18 2 19 1 20
REMARK H PARENT
REMARK Flexibility Score: inf
ROOT
ATOM      1  C   UNL     1      99.822  93.560  83.485  1.00  0.00     0.027 C 
ENDROOT
BRANCH   1   2
ATOM      2  C   UNL     1     100.994  92.908  84.237  1.00  0.00     0.004 C 
BRANCH   2   3
ATOM      3  C   UNL     1     100.560  91.685  85.063  1.00  0.00     0.000 C 
BRANCH   3   4
ATOM      4  C   UNL     1     100.923  90.354  84.383  1.00  0.00     0.000 C 
BRANCH   4   5
ATOM      5  C   UNL     1     102.423  90.237  84.059  1.00  0.00     0.000 C 
BRANCH   5   6
ATOM      6  C   UNL     1     102.771  89.301  82.883  1.00  0.00     0.006 C 
BRANCH   6   7
ATOM      7  C   UNL     1     104.268  89.224  82.548  1.00  0.00     0.053 C 
BRANCH   7   8
ATOM      8  C   UNL     1     104.661  90.212  81.491  1.00  0.00     0.041 C 
ATOM      9  O   UNL     1     104.865  91.418  81.795  1.00  0.00    -0.550 OA
ATOM     10  O   UNL     1     104.777  89.807  80.167  1.00  0.00    -0.550 OA
ENDBRANCH   7   8
ENDBRANCH   6   7
ENDBRANCH   5   6
ENDBRANCH   4   5
ENDBRANCH   3   4
ENDBRANCH   2   3
ENDBRANCH   1   2
BRANCH   1  11
ATOM     11  C   UNL     1      99.674  92.978  82.107  1.00  0.00    -0.031 C 
ATOM     12  C   UNL     1     100.743  92.611  81.383  1.00  0.00    -0.027 C 
BRANCH  12  13
ATOM     13  C   UNL     1     100.600  92.022  80.007  1.00  0.00     0.054 C 
BRANCH  13  14
ATOM     14  C   UNL     1     101.346  90.717  79.884  1.00  0.00    -0.027 C 
ATOM     15  C   UNL     1     100.768  89.502  79.875  1.00  0.00    -0.031 C 
BRANCH  15  16
ATOM     16  C   UNL     1      99.281  89.260  79.933  1.00  0.00     0.027 C 
BRANCH  16  17
ATOM     17  C   UNL     1      98.761  89.386  81.372  1.00  0.00     0.004 C 
BRANCH  17  18
ATOM     18  C   UNL     1      97.353  90.013  81.430  1.00  0.00     0.000 C 
BRANCH  18  19
ATOM     19  C   UNL     1      96.651  89.828  82.786  1.00  0.00    -0.003 C 
ATOM     20  C   UNL     1      97.229  90.720  83.884  1.00  0.00     0.004 C 
ENDBRANCH  18  19
ENDBRANCH  17  18
ENDBRANCH  16  17
ENDBRANCH  15  16
ENDBRANCH  13  14
ENDBRANCH  12  13
ENDBRANCH   1  11
TORSDOF 14
ENDMDL
MODEL 8
REMARK VINA RESULT:    -4.013      1.488      2.831
REMARK INTER + INTRA:         -10.057
REMARK INTER:                  -7.238
REMARK INTRA:                  -2.818
REMARK UNBOUND:                -2.760
REMARK SMILES CCCCCC=CCC=CCCCCCCCC(=O)[O-]
REMARK SMILES IDX 11 1 12 2 13 3 14 4 15 5 16 6 17 7 18 8 19 9 20 10 10 11
REMARK SMILES IDX 9 12 8 13 7 14 6 15 5 16 4 17 3 18 2 19 1 20
REMARK H PARENT
REMARK Flexibility Score: inf
ROOT
ATOM      1  C   UNL     1     100.877  89.746  80.078  1.00  0.00     0.027 C 
ENDROOT
BRANCH   1   2
ATOM      2  C   UNL     1     101.432  91.113  80.508  1.00  0.00     0.004 C 
BRANCH   2   3
ATOM      3  C   UNL     1     100.385  92.235  80.407  1.00  0.00     0.000 C 
BRANCH   3   4
ATOM      4  C   UNL     1     100.218  93.009  81.726  1.00  0.00     0.000 C 
BRANCH   4   5
ATOM      5  C   UNL     1      98.941  92.617  82.491  1.00  0.00     0.000 C 
BRANCH   5   6
ATOM      6  C   UNL     1      99.154  92.233  83.971  1.00  0.00     0.006 C 
BRANCH   6   7
ATOM      7  C   UNL     1      99.496  90.753  84.205  1.00  0.00     0.053 C 
BRANCH   7   8
ATOM      8  C   UNL     1     100.965  90.540  84.413  1.00  0.00     0.041 C 
ATOM      9  O   UNL     1     101.578  89.663  83.750  1.00  0.00    -0.550 OA
ATOM     10  O   UNL     1     101.650  91.293  85.359  1.00  0.00    -0.550 OA
ENDBRANCH   7   8
ENDBRANCH   6   7
ENDBRANCH   5   6
ENDBRANCH   4   5
ENDBRANCH   3   4
ENDBRANCH   2   3
ENDBRANCH   1   2
BRANCH   1  11
ATOM     11  C   UNL     1      99.513  89.507  80.664  1.00  0.00    -0.031 C 
ATOM     12  C   UNL     1      98.450  89.254  79.885  1.00  0.00    -0.027 C 
BRANCH  12  13
ATOM     13  C   UNL     1      97.086  89.006  80.468  1.00  0.00     0.054 C 
BRANCH  13  14
ATOM     14  C   UNL     1      97.146  88.846  81.967  1.00  0.00    -0.027 C 
ATOM     15  C   UNL     1      96.505  89.636  82.847  1.00  0.00    -0.031 C 
BRANCH  15  16
ATOM     16  C   UNL     1      95.584  90.769  82.470  1.00  0.00     0.027 C 
BRANCH  16  17
ATOM     17  C   UNL     1      95.279  91.654  83.687  1.00  0.00     0.004 C 
BRANCH  17  18
ATOM     18  C   UNL     1      95.759  91.015  85.007  1.00  0.00     0.000 C 
BRANCH  18  19
ATOM     19  C   UNL     1      95.794  91.997  86.190  1.00  0.00    -0.003 C 
ATOM     20  C   UNL     1      97.050  91.856  87.048  1.00  0.00     0.004 C 
ENDBRANCH  18  19
ENDBRANCH  17  18
ENDBRANCH  16  17
ENDBRANCH  15  16
ENDBRANCH  13  14
ENDBRANCH  12  13
ENDBRANCH   1  11
TORSDOF 14
ENDMDL
MODEL 9
REMARK VINA RESULT:    -3.810      2.209      2.945
REMARK INTER + INTRA:          -9.688
REMARK INTER:                  -7.546
REMARK INTRA:                  -2.142
REMARK UNBOUND:                -2.760
REMARK SMILES CCCCCC=CCC=CCCCCCCCC(=O)[O-]
REMARK SMILES IDX 11 1 12 2 13 3 14 4 15 5 16 6 17 7 18 8 19 9 20 10 10 11
REMARK SMILES IDX 9 12 8 13 7 14 6 15 5 16 4 17 3 18 2 19 1 20
REMARK H PARENT
REMARK Flexibility Score: inf
ROOT
ATOM      1  C   UNL     1     100.547  89.121  79.875  1.00  0.00     0.027 C 
ENDROOT
BRANCH   1   2
ATOM      2  C   UNL     1     101.405  89.862  80.913  1.00  0.00     0.004 C 
BRANCH   2   3
ATOM      3  C   UNL     1     101.129  89.394  82.352  1.00  0.00     0.000 C 
BRANCH   3   4
ATOM      4  C   UNL     1     101.892  90.223  83.400  1.00  0.00     0.000 C 
BRANCH   4   5
ATOM      5  C   UNL     1     103.405  90.291  83.122  1.00  0.00     0.000 C 
BRANCH   5   6
ATOM      6  C   UNL     1     104.131  88.929  83.107  1.00  0.00     0.006 C 
BRANCH   6   7
ATOM      7  C   UNL     1     105.199  88.786  82.011  1.00  0.00     0.053 C 
BRANCH   7   8
ATOM      8  C   UNL     1     105.407  90.065  81.257  1.00  0.00     0.041 C 
ATOM      9  O   UNL     1     104.831  90.250  80.152  1.00  0.00    -0.550 OA
ATOM     10  O   UNL     1     106.258  91.041  81.762  1.00  0.00    -0.550 OA
ENDBRANCH   7   8
ENDBRANCH   6   7
ENDBRANCH   5   6
ENDBRANCH   4   5
ENDBRANCH   3   4
ENDBRANCH   2   3
ENDBRANCH   1   2
BRANCH   1  11
ATOM     11  C   UNL     1      99.176  88.830  80.417  1.00  0.00    -0.031 C 
ATOM     12  C   UNL     1      98.131  89.627  80.145  1.00  0.00    -0.027 C 
BRANCH  12  13
ATOM     13  C   UNL     1      96.756  89.334  80.678  1.00  0.00     0.054 C 
BRANCH  13  14
ATOM     14  C   UNL     1      96.797  88.963  82.139  1.00  0.00    -0.027 C 
ATOM     15  C   UNL     1      96.885  89.847  83.150  1.00  0.00    -0.031 C 
BRANCH  15  16
ATOM     16  C   UNL     1      96.902  91.345  82.981  1.00  0.00     0.027 C 
BRANCH  16  17
ATOM     17  C   UNL     1      98.342  91.868  82.881  1.00  0.00     0.004 C 
BRANCH  17  18
ATOM     18  C   UNL     1      98.437  93.155  82.035  1.00  0.00     0.000 C 
BRANCH  18  19
ATOM     19  C   UNL     1      99.827  93.388  81.422  1.00  0.00    -0.003 C 
ATOM     20  C   UNL     1      99.945  92.868  79.991  1.00  0.00     0.004 C 
ENDBRANCH  18  19
ENDBRANCH  17  18
ENDBRANCH  16  17
ENDBRANCH  15  16
ENDBRANCH  13  14
ENDBRANCH  12  13
ENDBRANCH   1  11
TORSDOF 14
ENDMDL
