MODEL 1
REMARK VINA RESULT:    -5.773      0.000      0.000
REMARK INTER + INTRA:          -9.636
REMARK INTER:                  -8.136
REMARK INTRA:                  -1.500
REMARK UNBOUND:                -1.500
REMARK SMILES C[C@@H](CO)CCC(=O)[C@H](C)[C@H]1C(=O)C[C@@H]2[C@@H]3CC=C4C[C@H](O)CC[C@]4(C)[C@@H]3CC[C@@]21C
REMARK SMILES IDX 6 1 5 2 2 3 1 4 3 5 4 6 7 8 8 9 9 10 10 11 11 12 12 13 30 14
REMARK SMILES IDX 13 15 14 16 15 17 29 18 31 19 16 20 28 21 27 22 17 23 25 24
REMARK SMILES IDX 18 25 19 26 24 27 26 28 20 29 23 30 21 31 22 32
REMARK H PARENT 4 7 22 33
REMARK Flexibility Score: inf
ROOT
ATOM      1  C   UNL     1     129.276 144.707 124.575  1.00  0.00     0.076 C 
ENDROOT
BRANCH   1   2
ATOM      2  C   UNL     1     129.985 145.962 125.107  1.00  0.00     0.013 C 
BRANCH   2   3
ATOM      3  C   UNL     1     131.451 145.705 125.527  1.00  0.00     0.012 C 
ATOM      4  C   UNL     1     132.002 144.500 124.749  1.00  0.00     0.010 C 
BRANCH   3   5
ATOM      5  C   UNL     1     132.360 146.935 125.297  1.00  0.00     0.159 C 
BRANCH   5   6
ATOM      6  O   UNL     1     133.612 146.761 125.905  1.00  0.00    -0.396 OA
ATOM      7  H   UNL     1     134.240 147.375 125.443  1.00  0.00     0.210 HD
ENDBRANCH   5   6
ENDBRANCH   3   5
ENDBRANCH   2   3
ENDBRANCH   1   2
BRANCH   1   8
ATOM      8  C   UNL     1     128.204 145.081 123.583  1.00  0.00     0.136 C 
ATOM      9  O   UNL     1     127.065 145.255 123.995  1.00  0.00    -0.299 OA
BRANCH   8  10
ATOM     10  C   UNL     1     128.489 145.289 122.102  1.00  0.00     0.064 C 
ATOM     11  C   UNL     1     127.268 144.892 121.250  1.00  0.00     0.017 C 
BRANCH  10  12
ATOM     12  C   UNL     1     129.853 144.633 121.666  1.00  0.00     0.072 C 
ATOM     13  C   UNL     1     129.768 143.264 121.068  1.00  0.00     0.137 C 
ATOM     14  C   UNL     1     130.748 145.439 120.646  1.00  0.00    -0.019 C 
ATOM     15  O   UNL     1     129.126 142.351 121.560  1.00  0.00    -0.299 OA
ATOM     16  C   UNL     1     130.658 143.044 119.907  1.00  0.00     0.080 C 
ATOM     17  C   UNL     1     131.454 144.350 119.766  1.00  0.00     0.007 C 
ATOM     18  C   UNL     1     131.774 146.318 121.421  1.00  0.00     0.008 C 
ATOM     19  C   UNL     1     129.936 146.356 119.686  1.00  0.00     0.012 C 
ATOM     20  C   UNL     1     132.976 144.192 120.028  1.00  0.00     0.001 C 
ATOM     21  C   UNL     1     133.004 146.721 120.593  1.00  0.00     0.005 C 
ATOM     22  C   UNL     1     133.695 145.554 119.801  1.00  0.00     0.003 C 
ATOM     23  C   UNL     1     133.353 143.519 121.387  1.00  0.00     0.031 C 
ATOM     24  C   UNL     1     135.233 145.407 120.090  1.00  0.00    -0.008 C 
ATOM     25  C   UNL     1     134.521 144.147 122.121  1.00  0.00    -0.027 C 
ATOM     26  C   UNL     1     135.398 144.999 121.546  1.00  0.00    -0.065 C 
ATOM     27  C   UNL     1     135.995 146.740 119.798  1.00  0.00     0.014 C 
ATOM     28  C   UNL     1     135.854 144.304 119.185  1.00  0.00     0.016 C 
ATOM     29  C   UNL     1     136.463 145.665 122.386  1.00  0.00     0.063 C 
ATOM     30  C   UNL     1     137.461 146.753 120.288  1.00  0.00     0.033 C 
ATOM     31  C   UNL     1     137.730 145.901 121.556  1.00  0.00     0.118 C 
BRANCH  31  32
ATOM     32  O   UNL     1     138.695 146.524 122.362  1.00  0.00    -0.393 OA
ATOM     33  H   UNL     1     139.511 145.960 122.318  1.00  0.00     0.210 HD
ENDBRANCH  31  32
ENDBRANCH  10  12
ENDBRANCH   8  10
ENDBRANCH   1   8
TORSDOF 8
ENDMDL
MODEL 2
REMARK VINA RESULT:    -5.715      2.104      6.181
REMARK INTER + INTRA:          -9.554
REMARK INTER:                  -8.337
REMARK INTRA:                  -1.217
REMARK UNBOUND:                -1.500
REMARK SMILES C[C@@H](CO)CCC(=O)[C@H](C)[C@H]1C(=O)C[C@@H]2[C@@H]3CC=C4C[C@H](O)CC[C@]4(C)[C@@H]3CC[C@@]21C
REMARK SMILES IDX 6 1 5 2 2 3 1 4 3 5 4 6 7 8 8 9 9 10 10 11 11 12 12 13 30 14
REMARK SMILES IDX 13 15 14 16 15 17 29 18 31 19 16 20 28 21 27 22 17 23 25 24
REMARK SMILES IDX 18 25 19 26 24 27 26 28 20 29 23 30 21 31 22 32
REMARK H PARENT 4 7 22 33
REMARK Flexibility Score: inf
ROOT
ATOM      1  C   UNL     1     130.523 145.528 119.877  1.00  0.00     0.076 C 
ENDROOT
BRANCH   1   2
ATOM      2  C   UNL     1     132.041 145.338 120.003  1.00  0.00     0.013 C 
BRANCH   2   3
ATOM      3  C   UNL     1     132.752 146.528 120.691  1.00  0.00     0.012 C 
ATOM      4  C   UNL     1     132.175 146.721 122.102  1.00  0.00     0.010 C 
BRANCH   3   5
ATOM      5  C   UNL     1     134.284 146.337 120.776  1.00  0.00     0.159 C 
BRANCH   5   6
ATOM      6  O   UNL     1     134.817 147.001 121.890  1.00  0.00    -0.396 OA
ATOM      7  H   UNL     1     134.154 146.906 122.622  1.00  0.00     0.210 HD
ENDBRANCH   5   6
ENDBRANCH   3   5
ENDBRANCH   2   3
ENDBRANCH   1   2
BRANCH   1   8
ATOM      8  C   UNL     1     129.817 144.195 119.882  1.00  0.00     0.136 C 
ATOM      9  O   UNL     1     130.109 143.379 119.018  1.00  0.00    -0.299 OA
BRANCH   8  10
ATOM     10  C   UNL     1     128.790 143.812 120.938  1.00  0.00     0.064 C 
ATOM     11  C   UNL     1     127.388 143.679 120.313  1.00  0.00     0.017 C 
BRANCH  10  12
ATOM     12  C   UNL     1     128.874 144.741 122.207  1.00  0.00     0.072 C 
ATOM     13  C   UNL     1     127.793 145.765 122.349  1.00  0.00     0.137 C 
ATOM     14  C   UNL     1     128.917 144.034 123.618  1.00  0.00    -0.019 C 
ATOM     15  O   UNL     1     127.439 146.504 121.445  1.00  0.00    -0.299 OA
ATOM     16  C   UNL     1     127.284 145.935 123.728  1.00  0.00     0.080 C 
ATOM     17  C   UNL     1     128.148 144.998 124.586  1.00  0.00     0.007 C 
ATOM     18  C   UNL     1     130.395 143.820 124.058  1.00  0.00     0.008 C 
ATOM     19  C   UNL     1     128.185 142.660 123.654  1.00  0.00     0.012 C 
ATOM     20  C   UNL     1     129.047 145.736 125.615  1.00  0.00     0.001 C 
ATOM     21  C   UNL     1     130.577 143.644 125.574  1.00  0.00     0.005 C 
ATOM     22  C   UNL     1     129.832 144.698 126.469  1.00  0.00     0.003 C 
ATOM     23  C   UNL     1     129.960 146.856 125.020  1.00  0.00     0.031 C 
ATOM     24  C   UNL     1     130.764 145.439 127.495  1.00  0.00    -0.008 C 
ATOM     25  C   UNL     1     131.372 146.904 125.571  1.00  0.00    -0.027 C 
ATOM     26  C   UNL     1     131.757 146.277 126.704  1.00  0.00    -0.065 C 
ATOM     27  C   UNL     1     131.511 144.423 128.419  1.00  0.00     0.014 C 
ATOM     28  C   UNL     1     129.929 146.379 128.410  1.00  0.00     0.016 C 
ATOM     29  C   UNL     1     133.211 146.286 127.113  1.00  0.00     0.063 C 
ATOM     30  C   UNL     1     132.625 145.054 129.285  1.00  0.00     0.033 C 
ATOM     31  C   UNL     1     133.338 146.271 128.641  1.00  0.00     0.118 C 
BRANCH  31  32
ATOM     32  O   UNL     1     134.698 146.274 128.987  1.00  0.00    -0.393 OA
ATOM     33  H   UNL     1     134.986 145.325 129.023  1.00  0.00     0.210 HD
ENDBRANCH  31  32
ENDBRANCH  10  12
ENDBRANCH   8  10
ENDBRANCH   1   8
TORSDOF 8
ENDMDL
MODEL 3
REMARK VINA RESULT:    -5.432      2.300      4.364
REMARK INTER + INTRA:          -9.155
REMARK INTER:                  -8.216
REMARK INTRA:                  -0.939
REMARK UNBOUND:                -1.500
REMARK SMILES C[C@@H](CO)CCC(=O)[C@H](C)[C@H]1C(=O)C[C@@H]2[C@@H]3CC=C4C[C@H](O)CC[C@]4(C)[C@@H]3CC[C@@]21C
REMARK SMILES IDX 6 1 5 2 2 3 1 4 3 5 4 6 7 8 8 9 9 10 10 11 11 12 12 13 30 14
REMARK SMILES IDX 13 15 14 16 15 17 29 18 31 19 16 20 28 21 27 22 17 23 25 24
REMARK SMILES IDX 18 25 19 26 24 27 26 28 20 29 23 30 21 31 22 32
REMARK H PARENT 4 7 22 33
REMARK Flexibility Score: inf
ROOT
ATOM      1  C   UNL     1     129.125 142.135 120.500  1.00  0.00     0.076 C 
ENDROOT
BRANCH   1   2
ATOM      2  C   UNL     1     129.240 140.703 121.044  1.00  0.00     0.013 C 
BRANCH   2   3
ATOM      3  C   UNL     1     128.627 139.639 120.103  1.00  0.00     0.012 C 
ATOM      4  C   UNL     1     129.683 138.570 119.784  1.00  0.00     0.010 C 
BRANCH   3   5
ATOM      5  C   UNL     1     127.370 138.967 120.704  1.00  0.00     0.159 C 
BRANCH   5   6
ATOM      6  O   UNL     1     126.888 139.689 121.805  1.00  0.00    -0.396 OA
ATOM      7  H   UNL     1     126.190 140.304 121.459  1.00  0.00     0.210 HD
ENDBRANCH   5   6
ENDBRANCH   3   5
ENDBRANCH   2   3
ENDBRANCH   1   2
BRANCH   1   8
ATOM      8  C   UNL     1     128.386 143.017 121.474  1.00  0.00     0.136 C 
ATOM      9  O   UNL     1     127.343 142.601 121.960  1.00  0.00    -0.299 OA
BRANCH   8  10
ATOM     10  C   UNL     1     128.905 144.381 121.906  1.00  0.00     0.064 C 
ATOM     11  C   UNL     1     127.749 145.393 122.024  1.00  0.00     0.017 C 
BRANCH  10  12
ATOM     12  C   UNL     1     130.123 144.854 121.028  1.00  0.00     0.072 C 
ATOM     13  C   UNL     1     129.795 145.721 119.853  1.00  0.00     0.137 C 
ATOM     14  C   UNL     1     131.284 145.633 121.762  1.00  0.00    -0.019 C 
ATOM     15  O   UNL     1     128.913 145.464 119.050  1.00  0.00    -0.299 OA
ATOM     16  C   UNL     1     130.733 146.844 119.636  1.00  0.00     0.080 C 
ATOM     17  C   UNL     1     131.815 146.669 120.711  1.00  0.00     0.007 C 
ATOM     18  C   UNL     1     132.391 144.634 122.209  1.00  0.00     0.008 C 
ATOM     19  C   UNL     1     130.810 146.437 123.008  1.00  0.00     0.012 C 
ATOM     20  C   UNL     1     133.224 146.349 120.142  1.00  0.00     0.001 C 
ATOM     21  C   UNL     1     133.764 145.285 122.442  1.00  0.00     0.005 C 
ATOM     22  C   UNL     1     134.253 146.251 121.305  1.00  0.00     0.003 C 
ATOM     23  C   UNL     1     133.288 145.133 119.163  1.00  0.00     0.031 C 
ATOM     24  C   UNL     1     135.677 145.902 120.738  1.00  0.00    -0.008 C 
ATOM     25  C   UNL     1     134.481 144.215 119.343  1.00  0.00    -0.027 C 
ATOM     26  C   UNL     1     135.586 144.551 120.045  1.00  0.00    -0.065 C 
ATOM     27  C   UNL     1     136.749 145.870 121.875  1.00  0.00     0.014 C 
ATOM     28  C   UNL     1     136.126 146.970 119.700  1.00  0.00     0.016 C 
ATOM     29  C   UNL     1     136.676 143.529 120.268  1.00  0.00     0.063 C 
ATOM     30  C   UNL     1     138.118 145.297 121.440  1.00  0.00     0.033 C 
ATOM     31  C   UNL     1     138.046 144.213 120.334  1.00  0.00     0.118 C 
BRANCH  31  32
ATOM     32  O   UNL     1     139.034 143.239 120.546  1.00  0.00    -0.393 OA
ATOM     33  H   UNL     1     138.723 142.413 120.089  1.00  0.00     0.210 HD
ENDBRANCH  31  32
ENDBRANCH  10  12
ENDBRANCH   8  10
ENDBRANCH   1   8
TORSDOF 8
ENDMDL
MODEL 4
REMARK VINA RESULT:    -5.363      5.055     10.910
REMARK INTER + INTRA:          -9.057
REMARK INTER:                  -8.080
REMARK INTRA:                  -0.977
REMARK UNBOUND:                -1.500
REMARK SMILES C[C@@H](CO)CCC(=O)[C@H](C)[C@H]1C(=O)C[C@@H]2[C@@H]3CC=C4C[C@H](O)CC[C@]4(C)[C@@H]3CC[C@@]21C
REMARK SMILES IDX 6 1 5 2 2 3 1 4 3 5 4 6 7 8 8 9 9 10 10 11 11 12 12 13 30 14
REMARK SMILES IDX 13 15 14 16 15 17 29 18 31 19 16 20 28 21 27 22 17 23 25 24
REMARK SMILES IDX 18 25 19 26 24 27 26 28 20 29 23 30 21 31 22 32
REMARK H PARENT 4 7 22 33
REMARK Flexibility Score: inf
ROOT
ATOM      1  C   UNL     1     143.995 144.433 123.612  1.00  0.00     0.076 C 
ENDROOT
BRANCH   1   2
ATOM      2  C   UNL     1     144.117 145.865 124.155  1.00  0.00     0.013 C 
BRANCH   2   3
ATOM      3  C   UNL     1     144.822 145.940 125.531  1.00  0.00     0.012 C 
ATOM      4  C   UNL     1     143.765 145.942 126.646  1.00  0.00     0.010 C 
BRANCH   3   5
ATOM      5  C   UNL     1     145.815 144.777 125.755  1.00  0.00     0.159 C 
BRANCH   5   6
ATOM      6  O   UNL     1     146.976 144.947 124.987  1.00  0.00    -0.396 OA
ATOM      7  H   UNL     1     146.745 144.681 124.059  1.00  0.00     0.210 HD
ENDBRANCH   5   6
ENDBRANCH   3   5
ENDBRANCH   2   3
ENDBRANCH   1   2
BRANCH   1   8
ATOM      8  C   UNL     1     144.672 144.312 122.271  1.00  0.00     0.136 C 
ATOM      9  O   UNL     1     145.895 144.338 122.233  1.00  0.00    -0.299 OA
BRANCH   8  10
ATOM     10  C   UNL     1     143.901 144.119 120.973  1.00  0.00     0.064 C 
ATOM     11  C   UNL     1     144.840 144.237 119.757  1.00  0.00     0.017 C 
BRANCH  10  12
ATOM     12  C   UNL     1     142.611 145.021 120.914  1.00  0.00     0.072 C 
ATOM     13  C   UNL     1     142.763 146.349 120.242  1.00  0.00     0.137 C 
ATOM     14  C   UNL     1     141.326 144.398 120.241  1.00  0.00    -0.019 C 
ATOM     15  O   UNL     1     143.675 147.125 120.477  1.00  0.00    -0.299 OA
ATOM     16  C   UNL     1     141.626 146.733 119.377  1.00  0.00     0.080 C 
ATOM     17  C   UNL     1     140.602 145.602 119.543  1.00  0.00     0.007 C 
ATOM     18  C   UNL     1     140.432 143.728 121.326  1.00  0.00     0.008 C 
ATOM     19  C   UNL     1     141.641 143.345 119.139  1.00  0.00     0.012 C 
ATOM     20  C   UNL     1     139.278 146.044 120.224  1.00  0.00     0.001 C 
ATOM     21  C   UNL     1     138.961 143.565 120.912  1.00  0.00     0.005 C 
ATOM     22  C   UNL     1     138.291 144.842 120.290  1.00  0.00     0.003 C 
ATOM     23  C   UNL     1     139.445 146.775 121.595  1.00  0.00     0.031 C 
ATOM     24  C   UNL     1     136.959 145.277 121.001  1.00  0.00    -0.008 C 
ATOM     25  C   UNL     1     138.451 146.379 122.669  1.00  0.00    -0.027 C 
ATOM     26  C   UNL     1     137.304 145.708 122.419  1.00  0.00    -0.065 C 
ATOM     27  C   UNL     1     135.917 144.111 121.016  1.00  0.00     0.014 C 
ATOM     28  C   UNL     1     136.309 146.477 120.255  1.00  0.00     0.016 C 
ATOM     29  C   UNL     1     136.432 145.255 123.565  1.00  0.00     0.063 C 
ATOM     30  C   UNL     1     134.682 144.375 121.908  1.00  0.00     0.033 C 
ATOM     31  C   UNL     1     134.956 145.262 123.150  1.00  0.00     0.118 C 
BRANCH  31  32
ATOM     32  O   UNL     1     134.174 144.832 124.234  1.00  0.00    -0.393 OA
ATOM     33  H   UNL     1     133.531 144.166 123.875  1.00  0.00     0.210 HD
ENDBRANCH  31  32
ENDBRANCH  10  12
ENDBRANCH   8  10
ENDBRANCH   1   8
TORSDOF 8
ENDMDL
MODEL 5
REMARK VINA RESULT:    -5.330      3.855      7.129
REMARK INTER + INTRA:          -9.011
REMARK INTER:                  -7.881
REMARK INTRA:                  -1.131
REMARK UNBOUND:                -1.500
REMARK SMILES C[C@@H](CO)CCC(=O)[C@H](C)[C@H]1C(=O)C[C@@H]2[C@@H]3CC=C4C[C@H](O)CC[C@]4(C)[C@@H]3CC[C@@]21C
REMARK SMILES IDX 6 1 5 2 2 3 1 4 3 5 4 6 7 8 8 9 9 10 10 11 11 12 12 13 30 14
REMARK SMILES IDX 13 15 14 16 15 17 29 18 31 19 16 20 28 21 27 22 17 23 25 24
REMARK SMILES IDX 18 25 19 26 24 27 26 28 20 29 23 30 21 31 22 32
REMARK H PARENT 4 7 22 33
REMARK Flexibility Score: inf
ROOT
ATOM      1  C   UNL     1     130.624 144.535 124.506  1.00  0.00     0.076 C 
ENDROOT
BRANCH   1   2
ATOM      2  C   UNL     1     129.776 145.009 125.695  1.00  0.00     0.013 C 
BRANCH   2   3
ATOM      3  C   UNL     1     128.677 143.999 126.105  1.00  0.00     0.012 C 
ATOM      4  C   UNL     1     127.331 144.731 126.227  1.00  0.00     0.010 C 
BRANCH   3   5
ATOM      5  C   UNL     1     128.545 142.826 125.106  1.00  0.00     0.159 C 
BRANCH   5   6
ATOM      6  O   UNL     1     127.217 142.668 124.684  1.00  0.00    -0.396 OA
ATOM      7  H   UNL     1     127.210 141.904 124.049  1.00  0.00     0.210 HD
ENDBRANCH   5   6
ENDBRANCH   3   5
ENDBRANCH   2   3
ENDBRANCH   1   2
BRANCH   1   8
ATOM      8  C   UNL     1     130.488 145.484 123.342  1.00  0.00     0.136 C 
ATOM      9  O   UNL     1     130.506 146.686 123.567  1.00  0.00    -0.299 OA
BRANCH   8  10
ATOM     10  C   UNL     1     130.371 145.007 121.901  1.00  0.00     0.064 C 
ATOM     11  C   UNL     1     130.037 146.183 120.963  1.00  0.00     0.017 C 
BRANCH  10  12
ATOM     12  C   UNL     1     129.426 143.755 121.769  1.00  0.00     0.072 C 
ATOM     13  C   UNL     1     127.965 144.041 121.614  1.00  0.00     0.137 C 
ATOM     14  C   UNL     1     129.739 142.733 120.607  1.00  0.00    -0.019 C 
ATOM     15  O   UNL     1     127.351 144.822 122.322  1.00  0.00    -0.299 OA
ATOM     16  C   UNL     1     127.271 143.180 120.631  1.00  0.00     0.080 C 
ATOM     17  C   UNL     1     128.342 142.192 120.146  1.00  0.00     0.007 C 
ATOM     18  C   UNL     1     130.661 141.595 121.136  1.00  0.00     0.008 C 
ATOM     19  C   UNL     1     130.417 143.383 119.365  1.00  0.00     0.012 C 
ATOM     20  C   UNL     1     128.059 140.715 120.534  1.00  0.00     0.001 C 
ATOM     21  C   UNL     1     130.607 140.307 120.300  1.00  0.00     0.005 C 
ATOM     22  C   UNL     1     129.167 139.793 119.946  1.00  0.00     0.003 C 
ATOM     23  C   UNL     1     127.796 140.463 122.053  1.00  0.00     0.031 C 
ATOM     24  C   UNL     1     128.900 138.300 120.357  1.00  0.00    -0.008 C 
ATOM     25  C   UNL     1     128.449 139.222 122.630  1.00  0.00    -0.027 C 
ATOM     26  C   UNL     1     128.946 138.218 121.875  1.00  0.00    -0.065 C 
ATOM     27  C   UNL     1     129.954 137.339 119.718  1.00  0.00     0.014 C 
ATOM     28  C   UNL     1     127.495 137.843 119.871  1.00  0.00     0.016 C 
ATOM     29  C   UNL     1     129.683 137.075 122.533  1.00  0.00     0.063 C 
ATOM     30  C   UNL     1     129.911 135.894 120.267  1.00  0.00     0.033 C 
ATOM     31  C   UNL     1     129.467 135.776 121.748  1.00  0.00     0.118 C 
BRANCH  31  32
ATOM     32  O   UNL     1     130.167 134.737 122.382  1.00  0.00    -0.393 OA
ATOM     33  H   UNL     1     131.069 134.706 121.967  1.00  0.00     0.210 HD
ENDBRANCH  31  32
ENDBRANCH  10  12
ENDBRANCH   8  10
ENDBRANCH   1   8
TORSDOF 8
ENDMDL
MODEL 6
REMARK VINA RESULT:    -5.271      4.054      6.724
REMARK INTER + INTRA:          -8.929
REMARK INTER:                  -7.542
REMARK INTRA:                  -1.387
REMARK UNBOUND:                -1.500
REMARK SMILES C[C@@H](CO)CCC(=O)[C@H](C)[C@H]1C(=O)C[C@@H]2[C@@H]3CC=C4C[C@H](O)CC[C@]4(C)[C@@H]3CC[C@@]21C
REMARK SMILES IDX 6 1 5 2 2 3 1 4 3 5 4 6 7 8 8 9 9 10 10 11 11 12 12 13 30 14
REMARK SMILES IDX 13 15 14 16 15 17 29 18 31 19 16 20 28 21 27 22 17 23 25 24
REMARK SMILES IDX 18 25 19 26 24 27 26 28 20 29 23 30 21 31 22 32
REMARK H PARENT 4 7 22 33
REMARK Flexibility Score: inf
ROOT
ATOM      1  C   UNL     1     127.250 142.191 120.954  1.00  0.00     0.076 C 
ENDROOT
BRANCH   1   2
ATOM      2  C   UNL     1     128.537 141.369 120.796  1.00  0.00     0.013 C 
BRANCH   2   3
ATOM      3  C   UNL     1     129.216 141.029 122.144  1.00  0.00     0.012 C 
ATOM      4  C   UNL     1     130.579 141.733 122.222  1.00  0.00     0.010 C 
BRANCH   3   5
ATOM      5  C   UNL     1     128.352 141.428 123.363  1.00  0.00     0.159 C 
BRANCH   5   6
ATOM      6  O   UNL     1     128.326 140.407 124.323  1.00  0.00    -0.396 OA
ATOM      7  H   UNL     1     129.251 140.325 124.676  1.00  0.00     0.210 HD
ENDBRANCH   5   6
ENDBRANCH   3   5
ENDBRANCH   2   3
ENDBRANCH   1   2
BRANCH   1   8
ATOM      8  C   UNL     1     127.388 143.533 120.280  1.00  0.00     0.136 C 
ATOM      9  O   UNL     1     127.440 143.567 119.058  1.00  0.00    -0.299 OA
BRANCH   8  10
ATOM     10  C   UNL     1     127.424 144.844 121.053  1.00  0.00     0.064 C 
ATOM     11  C   UNL     1     127.258 146.044 120.101  1.00  0.00     0.017 C 
BRANCH  10  12
ATOM     12  C   UNL     1     128.662 144.922 122.023  1.00  0.00     0.072 C 
ATOM     13  C   UNL     1     129.948 145.391 121.417  1.00  0.00     0.137 C 
ATOM     14  C   UNL     1     128.508 145.809 123.320  1.00  0.00    -0.019 C 
ATOM     15  O   UNL     1     130.399 144.956 120.370  1.00  0.00    -0.299 OA
ATOM     16  C   UNL     1     130.728 146.315 122.268  1.00  0.00     0.080 C 
ATOM     17  C   UNL     1     129.931 146.415 123.577  1.00  0.00     0.007 C 
ATOM     18  C   UNL     1     128.024 144.927 124.509  1.00  0.00     0.008 C 
ATOM     19  C   UNL     1     127.520 147.000 123.153  1.00  0.00     0.012 C 
ATOM     20  C   UNL     1     130.670 145.829 124.812  1.00  0.00     0.001 C 
ATOM     21  C   UNL     1     128.336 145.518 125.893  1.00  0.00     0.005 C 
ATOM     22  C   UNL     1     129.806 146.033 126.090  1.00  0.00     0.003 C 
ATOM     23  C   UNL     1     131.186 144.364 124.647  1.00  0.00     0.031 C 
ATOM     24  C   UNL     1     130.538 145.420 127.339  1.00  0.00    -0.008 C 
ATOM     25  C   UNL     1     130.993 143.467 125.855  1.00  0.00    -0.027 C 
ATOM     26  C   UNL     1     130.711 143.929 127.094  1.00  0.00    -0.065 C 
ATOM     27  C   UNL     1     129.729 145.675 128.652  1.00  0.00     0.014 C 
ATOM     28  C   UNL     1     131.941 146.066 127.520  1.00  0.00     0.016 C 
ATOM     29  C   UNL     1     130.421 142.955 128.212  1.00  0.00     0.063 C 
ATOM     30  C   UNL     1     130.252 144.896 129.881  1.00  0.00     0.033 C 
ATOM     31  C   UNL     1     130.897 143.524 129.553  1.00  0.00     0.118 C 
BRANCH  31  32
ATOM     32  O   UNL     1     130.609 142.599 130.570  1.00  0.00    -0.393 OA
ATOM     33  H   UNL     1     131.478 142.346 130.979  1.00  0.00     0.210 HD
ENDBRANCH  31  32
ENDBRANCH  10  12
ENDBRANCH   8  10
ENDBRANCH   1   8
TORSDOF 8
ENDMDL
MODEL 7
REMARK VINA RESULT:    -5.242      1.833      6.872
REMARK INTER + INTRA:          -8.888
REMARK INTER:                  -7.534
REMARK INTRA:                  -1.354
REMARK UNBOUND:                -1.500
REMARK SMILES C[C@@H](CO)CCC(=O)[C@H](C)[C@H]1C(=O)C[C@@H]2[C@@H]3CC=C4C[C@H](O)CC[C@]4(C)[C@@H]3CC[C@@]21C
REMARK SMILES IDX 6 1 5 2 2 3 1 4 3 5 4 6 7 8 8 9 9 10 10 11 11 12 12 13 30 14
REMARK SMILES IDX 13 15 14 16 15 17 29 18 31 19 16 20 28 21 27 22 17 23 25 24
REMARK SMILES IDX 18 25 19 26 24 27 26 28 20 29 23 30 21 31 22 32
REMARK H PARENT 4 7 22 33
REMARK Flexibility Score: inf
ROOT
ATOM      1  C   UNL     1     137.539 142.952 122.738  1.00  0.00     0.076 C 
ENDROOT
BRANCH   1   2
ATOM      2  C   UNL     1     136.209 143.160 123.477  1.00  0.00     0.013 C 
BRANCH   2   3
ATOM      3  C   UNL     1     135.921 144.642 123.813  1.00  0.00     0.012 C 
ATOM      4  C   UNL     1     135.074 144.720 125.093  1.00  0.00     0.010 C 
BRANCH   3   5
ATOM      5  C   UNL     1     137.212 145.474 123.991  1.00  0.00     0.159 C 
BRANCH   5   6
ATOM      6  O   UNL     1     137.235 146.568 123.115  1.00  0.00    -0.396 OA
ATOM      7  H   UNL     1     137.511 147.357 123.651  1.00  0.00     0.210 HD
ENDBRANCH   5   6
ENDBRANCH   3   5
ENDBRANCH   2   3
ENDBRANCH   1   2
BRANCH   1   8
ATOM      8  C   UNL     1     137.305 142.787 121.257  1.00  0.00     0.136 C 
ATOM      9  O   UNL     1     137.011 141.677 120.834  1.00  0.00    -0.299 OA
BRANCH   8  10
ATOM     10  C   UNL     1     137.380 143.950 120.277  1.00  0.00     0.064 C 
ATOM     11  C   UNL     1     138.716 144.703 120.426  1.00  0.00     0.017 C 
BRANCH  10  12
ATOM     12  C   UNL     1     136.091 144.853 120.335  1.00  0.00     0.072 C 
ATOM     13  C   UNL     1     136.247 146.260 119.850  1.00  0.00     0.137 C 
ATOM     14  C   UNL     1     134.809 144.329 119.577  1.00  0.00    -0.019 C 
ATOM     15  O   UNL     1     137.158 146.996 120.193  1.00  0.00    -0.299 OA
ATOM     16  C   UNL     1     135.115 146.760 119.039  1.00  0.00     0.080 C 
ATOM     17  C   UNL     1     134.089 145.617 119.045  1.00  0.00     0.007 C 
ATOM     18  C   UNL     1     133.909 143.519 120.556  1.00  0.00     0.008 C 
ATOM     19  C   UNL     1     135.130 143.435 118.344  1.00  0.00     0.012 C 
ATOM     20  C   UNL     1     132.762 145.964 119.772  1.00  0.00     0.001 C 
ATOM     21  C   UNL     1     132.440 143.416 120.116  1.00  0.00     0.005 C 
ATOM     22  C   UNL     1     131.774 144.766 119.669  1.00  0.00     0.003 C 
ATOM     23  C   UNL     1     132.922 146.503 121.230  1.00  0.00     0.031 C 
ATOM     24  C   UNL     1     130.438 145.101 120.426  1.00  0.00    -0.008 C 
ATOM     25  C   UNL     1     131.922 145.965 122.235  1.00  0.00    -0.027 C 
ATOM     26  C   UNL     1     130.776 145.336 121.890  1.00  0.00    -0.065 C 
ATOM     27  C   UNL     1     129.396 143.946 120.277  1.00  0.00     0.014 C 
ATOM     28  C   UNL     1     129.793 146.392 119.846  1.00  0.00     0.016 C 
ATOM     29  C   UNL     1     129.897 144.732 122.960  1.00  0.00     0.063 C 
ATOM     30  C   UNL     1     128.156 144.088 121.190  1.00  0.00     0.033 C 
ATOM     31  C   UNL     1     128.424 144.798 122.542  1.00  0.00     0.118 C 
BRANCH  31  32
ATOM     32  O   UNL     1     127.636 144.225 123.554  1.00  0.00    -0.393 OA
ATOM     33  H   UNL     1     127.391 143.314 123.243  1.00  0.00     0.210 HD
ENDBRANCH  31  32
ENDBRANCH  10  12
ENDBRANCH   8  10
ENDBRANCH   1   8
TORSDOF 8
ENDMDL
MODEL 8
REMARK VINA RESULT:    -5.141      4.302      8.342
REMARK INTER + INTRA:          -8.745
REMARK INTER:                  -8.004
REMARK INTRA:                  -0.741
REMARK UNBOUND:                -1.500
REMARK SMILES C[C@@H](CO)CCC(=O)[C@H](C)[C@H]1C(=O)C[C@@H]2[C@@H]3CC=C4C[C@H](O)CC[C@]4(C)[C@@H]3CC[C@@]21C
REMARK SMILES IDX 6 1 5 2 2 3 1 4 3 5 4 6 7 8 8 9 9 10 10 11 11 12 12 13 30 14
REMARK SMILES IDX 13 15 14 16 15 17 29 18 31 19 16 20 28 21 27 22 17 23 25 24
REMARK SMILES IDX 18 25 19 26 24 27 26 28 20 29 23 30 21 31 22 32
REMARK H PARENT 4 7 22 33
REMARK Flexibility Score: inf
ROOT
ATOM      1  C   UNL     1     127.377 141.369 120.684  1.00  0.00     0.076 C 
ENDROOT
BRANCH   1   2
ATOM      2  C   UNL     1     128.159 140.089 120.357  1.00  0.00     0.013 C 
BRANCH   2   3
ATOM      3  C   UNL     1     127.250 138.860 120.117  1.00  0.00     0.012 C 
ATOM      4  C   UNL     1     127.705 138.130 118.844  1.00  0.00     0.010 C 
BRANCH   3   5
ATOM      5  C   UNL     1     127.250 137.877 121.311  1.00  0.00     0.159 C 
BRANCH   5   6
ATOM      6  O   UNL     1     127.625 138.522 122.498  1.00  0.00    -0.396 OA
ATOM      7  H   UNL     1     127.706 139.488 122.284  1.00  0.00     0.210 HD
ENDBRANCH   5   6
ENDBRANCH   3   5
ENDBRANCH   2   3
ENDBRANCH   1   2
BRANCH   1   8
ATOM      8  C   UNL     1     127.935 142.035 121.917  1.00  0.00     0.136 C 
ATOM      9  O   UNL     1     128.384 141.326 122.808  1.00  0.00    -0.299 OA
BRANCH   8  10
ATOM     10  C   UNL     1     128.000 143.547 122.078  1.00  0.00     0.064 C 
ATOM     11  C   UNL     1     128.307 144.227 120.730  1.00  0.00     0.017 C 
BRANCH  10  12
ATOM     12  C   UNL     1     128.933 143.973 123.273  1.00  0.00     0.072 C 
ATOM     13  C   UNL     1     130.225 144.630 122.902  1.00  0.00     0.137 C 
ATOM     14  C   UNL     1     128.316 144.935 124.363  1.00  0.00    -0.019 C 
ATOM     15  O   UNL     1     130.985 144.193 122.053  1.00  0.00    -0.299 OA
ATOM     16  C   UNL     1     130.602 145.775 123.759  1.00  0.00     0.080 C 
ATOM     17  C   UNL     1     129.507 145.841 124.834  1.00  0.00     0.007 C 
ATOM     18  C   UNL     1     127.721 144.097 125.532  1.00  0.00     0.008 C 
ATOM     19  C   UNL     1     127.206 145.877 123.813  1.00  0.00     0.012 C 
ATOM     20  C   UNL     1     130.015 145.545 126.272  1.00  0.00     0.001 C 
ATOM     21  C   UNL     1     127.580 144.875 126.850  1.00  0.00     0.005 C 
ATOM     22  C   UNL     1     128.845 145.695 127.287  1.00  0.00     0.003 C 
ATOM     23  C   UNL     1     130.803 144.206 126.438  1.00  0.00     0.031 C 
ATOM     24  C   UNL     1     129.348 145.373 128.740  1.00  0.00    -0.008 C 
ATOM     25  C   UNL     1     130.482 143.415 127.691  1.00  0.00    -0.027 C 
ATOM     26  C   UNL     1     129.833 143.931 128.758  1.00  0.00    -0.065 C 
ATOM     27  C   UNL     1     128.213 145.588 129.794  1.00  0.00     0.014 C 
ATOM     28  C   UNL     1     130.530 146.305 129.128  1.00  0.00     0.016 C 
ATOM     29  C   UNL     1     129.455 143.036 129.915  1.00  0.00     0.063 C 
ATOM     30  C   UNL     1     128.551 145.059 131.207  1.00  0.00     0.033 C 
ATOM     31  C   UNL     1     129.485 143.822 131.231  1.00  0.00     0.118 C 
BRANCH  31  32
ATOM     32  O   UNL     1     129.125 142.964 132.283  1.00  0.00    -0.393 OA
ATOM     33  H   UNL     1     128.307 142.483 131.992  1.00  0.00     0.210 HD
ENDBRANCH  31  32
ENDBRANCH  10  12
ENDBRANCH   8  10
ENDBRANCH   1   8
TORSDOF 8
ENDMDL
MODEL 9
REMARK VINA RESULT:    -5.126      2.191      6.812
REMARK INTER + INTRA:          -8.724
REMARK INTER:                  -7.409
REMARK INTRA:                  -1.315
REMARK UNBOUND:                -1.500
REMARK SMILES C[C@@H](CO)CCC(=O)[C@H](C)[C@H]1C(=O)C[C@@H]2[C@@H]3CC=C4C[C@H](O)CC[C@]4(C)[C@@H]3CC[C@@]21C
REMARK SMILES IDX 6 1 5 2 2 3 1 4 3 5 4 6 7 8 8 9 9 10 10 11 11 12 12 13 30 14
REMARK SMILES IDX 13 15 14 16 15 17 29 18 31 19 16 20 28 21 27 22 17 23 25 24
REMARK SMILES IDX 18 25 19 26 24 27 26 28 20 29 23 30 21 31 22 32
REMARK H PARENT 4 7 22 33
REMARK Flexibility Score: inf
ROOT
ATOM      1  C   UNL     1     135.716 143.370 121.360  1.00  0.00     0.076 C 
ENDROOT
BRANCH   1   2
ATOM      2  C   UNL     1     137.117 143.959 121.138  1.00  0.00     0.013 C 
BRANCH   2   3
ATOM      3  C   UNL     1     137.265 145.405 121.669  1.00  0.00     0.012 C 
ATOM      4  C   UNL     1     137.578 146.349 120.498  1.00  0.00     0.010 C 
BRANCH   3   5
ATOM      5  C   UNL     1     136.002 145.897 122.413  1.00  0.00     0.159 C 
BRANCH   5   6
ATOM      6  O   UNL     1     135.541 147.110 121.881  1.00  0.00    -0.396 OA
ATOM      7  H   UNL     1     136.093 147.296 121.077  1.00  0.00     0.210 HD
ENDBRANCH   5   6
ENDBRANCH   3   5
ENDBRANCH   2   3
ENDBRANCH   1   2
BRANCH   1   8
ATOM      8  C   UNL     1     135.189 142.754 120.089  1.00  0.00     0.136 C 
ATOM      9  O   UNL     1     135.733 141.744 119.663  1.00  0.00    -0.299 OA
BRANCH   8  10
ATOM     10  C   UNL     1     133.987 143.313 119.340  1.00  0.00     0.064 C 
ATOM     11  C   UNL     1     134.384 143.744 117.915  1.00  0.00     0.017 C 
BRANCH  10  12
ATOM     12  C   UNL     1     133.222 144.402 120.182  1.00  0.00     0.072 C 
ATOM     13  C   UNL     1     133.273 145.802 119.656  1.00  0.00     0.137 C 
ATOM     14  C   UNL     1     131.687 144.154 120.457  1.00  0.00    -0.019 C 
ATOM     15  O   UNL     1     134.302 146.351 119.297  1.00  0.00    -0.299 OA
ATOM     16  C   UNL     1     131.996 146.542 119.752  1.00  0.00     0.080 C 
ATOM     17  C   UNL     1     131.035 145.581 120.467  1.00  0.00     0.007 C 
ATOM     18  C   UNL     1     131.505 143.419 121.817  1.00  0.00     0.008 C 
ATOM     19  C   UNL     1     130.976 143.327 119.347  1.00  0.00     0.012 C 
ATOM     20  C   UNL     1     130.575 146.073 121.866  1.00  0.00     0.001 C 
ATOM     21  C   UNL     1     130.109 143.589 122.438  1.00  0.00     0.005 C 
ATOM     22  C   UNL     1     129.563 145.060 122.476  1.00  0.00     0.003 C 
ATOM     23  C   UNL     1     131.727 146.455 122.850  1.00  0.00     0.031 C 
ATOM     24  C   UNL     1     129.113 145.540 123.903  1.00  0.00    -0.008 C 
ATOM     25  C   UNL     1     131.534 146.001 124.284  1.00  0.00    -0.027 C 
ATOM     26  C   UNL     1     130.349 145.594 124.789  1.00  0.00    -0.065 C 
ATOM     27  C   UNL     1     128.038 144.582 124.511  1.00  0.00     0.014 C 
ATOM     28  C   UNL     1     128.486 146.961 123.828  1.00  0.00     0.016 C 
ATOM     29  C   UNL     1     130.276 145.050 126.196  1.00  0.00     0.063 C 
ATOM     30  C   UNL     1     127.727 144.843 126.003  1.00  0.00     0.033 C 
ATOM     31  C   UNL     1     128.921 145.385 126.830  1.00  0.00     0.118 C 
BRANCH  31  32
ATOM     32  O   UNL     1     128.885 144.863 128.133  1.00  0.00    -0.393 OA
ATOM     33  H   UNL     1     128.550 143.931 128.057  1.00  0.00     0.210 HD
ENDBRANCH  31  32
ENDBRANCH  10  12
ENDBRANCH   8  10
ENDBRANCH   1   8
TORSDOF 8
ENDMDL
