MODEL 1
REMARK VINA RESULT:     9.180      0.000      0.000
REMARK INTER + INTRA:          10.040
REMARK INTER:                  10.253
REMARK INTRA:                  -0.213
REMARK UNBOUND:                -0.213
REMARK SMILES O=C([O-])c1ccccc1C(=O)[O-]
REMARK SMILES IDX 4 1 9 2 5 3 8 4 6 5 7 6 2 7 1 8 3 9 10 10 11 11 12 12
REMARK H PARENT
REMARK Flexibility Score: inf
ROOT
ATOM      1  C   UNL     1      -3.822   7.534  31.409  1.00  0.00     0.006 A 
ATOM      2  C   UNL     1      -5.218   7.765  31.250  1.00  0.00     0.006 A 
ATOM      3  C   UNL     1      -3.390   6.569  32.336  1.00  0.00     0.010 A 
ATOM      4  C   UNL     1      -6.124   7.070  32.071  1.00  0.00     0.010 A 
ATOM      5  C   UNL     1      -4.308   5.875  33.125  1.00  0.00     0.001 A 
ATOM      6  C   UNL     1      -5.671   6.134  33.001  1.00  0.00     0.001 A 
ENDROOT
BRANCH   1   7
ATOM      7  C   UNL     1      -2.788   8.314  30.689  1.00  0.00     0.072 C 
ATOM      8  O   UNL     1      -2.406   9.433  31.121  1.00  0.00    -0.545 OA
ATOM      9  O   UNL     1      -2.178   7.783  29.557  1.00  0.00    -0.545 OA
ENDBRANCH   1   7
BRANCH   2  10
ATOM     10  C   UNL     1      -5.775   8.658  30.208  1.00  0.00     0.072 C 
ATOM     11  O   UNL     1      -5.998   8.232  29.044  1.00  0.00    -0.545 OA
ATOM     12  O   UNL     1      -6.123   9.967  30.525  1.00  0.00    -0.545 OA
ENDBRANCH   2  10
TORSDOF 2
ENDMDL
