MODEL 1
REMARK VINA RESULT:    -5.236      0.000      0.000
REMARK INTER + INTRA:          -5.852
REMARK INTER:                  -5.542
REMARK INTRA:                  -0.310
REMARK UNBOUND:                -0.310
REMARK SMILES C=C1CC[C@H](C(C)C)[C@H]2C=C(C)CC[C@@H]12
REMARK SMILES IDX 12 1 11 2 10 3 9 4 15 5 14 6 13 7 2 8 1 9 3 10 4 11 5 12
REMARK SMILES IDX 6 13 7 14 8 15
REMARK H PARENT
REMARK Flexibility Score: inf
ROOT
ATOM      1  C   UNL     1      19.245  62.702  13.968  1.00  0.00     0.039 C 
ATOM      2  C   UNL     1      20.528  63.180  14.592  1.00  0.00    -0.077 C 
ATOM      3  C   UNL     1      21.697  62.659  14.164  1.00  0.00    -0.024 C 
ATOM      4  C   UNL     1      23.056  63.099  14.688  1.00  0.00     0.022 C 
ATOM      5  C   UNL     1      22.952  63.765  16.093  1.00  0.00     0.022 C 
ATOM      6  C   UNL     1      21.804  64.797  16.072  1.00  0.00     0.013 C 
ATOM      7  C   UNL     1      20.455  64.140  15.758  1.00  0.00     0.031 C 
ATOM      8  C   UNL     1      22.882  62.710  17.198  1.00  0.00    -0.074 C 
ATOM      9  C   UNL     1      22.189  62.878  18.339  1.00  0.00     0.008 C 
ATOM     10  C   UNL     1      23.760  61.490  17.078  1.00  0.00     0.031 C 
ATOM     11  C   UNL     1      24.782  61.640  15.950  1.00  0.00     0.009 C 
ATOM     12  C   UNL     1      24.090  61.912  14.593  1.00  0.00    -0.001 C 
ENDROOT
BRANCH  12  13
ATOM     13  C   UNL     1      25.124  62.142  13.437  1.00  0.00    -0.014 C 
ATOM     14  C   UNL     1      24.929  63.521  12.780  1.00  0.00     0.007 C 
ATOM     15  C   UNL     1      25.044  61.064  12.338  1.00  0.00     0.007 C 
ENDBRANCH  12  13
TORSDOF 1
ENDMDL
MODEL 2
REMARK VINA RESULT:    -4.912      1.964      5.622
REMARK INTER + INTRA:          -5.509
REMARK INTER:                  -5.278
REMARK INTRA:                  -0.231
REMARK UNBOUND:                -0.310
REMARK SMILES C=C1CC[C@H](C(C)C)[C@H]2C=C(C)CC[C@@H]12
REMARK SMILES IDX 12 1 11 2 10 3 9 4 15 5 14 6 13 7 2 8 1 9 3 10 4 11 5 12
REMARK SMILES IDX 6 13 7 14 8 15
REMARK H PARENT
REMARK Flexibility Score: inf
ROOT
ATOM      1  C   UNL     1      21.999  63.123  19.232  1.00  0.00     0.039 C 
ATOM      2  C   UNL     1      21.739  63.773  17.900  1.00  0.00    -0.077 C 
ATOM      3  C   UNL     1      20.464  63.947  17.496  1.00  0.00    -0.024 C 
ATOM      4  C   UNL     1      20.080  64.632  16.192  1.00  0.00     0.022 C 
ATOM      5  C   UNL     1      21.244  64.609  15.157  1.00  0.00     0.022 C 
ATOM      6  C   UNL     1      22.546  65.047  15.861  1.00  0.00     0.013 C 
ATOM      7  C   UNL     1      22.916  64.102  17.009  1.00  0.00     0.031 C 
ATOM      8  C   UNL     1      21.299  63.270  14.421  1.00  0.00    -0.074 C 
ATOM      9  C   UNL     1      22.444  62.706  13.994  1.00  0.00     0.008 C 
ATOM     10  C   UNL     1      19.999  62.627  14.009  1.00  0.00     0.031 C 
ATOM     11  C   UNL     1      18.815  63.578  14.194  1.00  0.00     0.009 C 
ATOM     12  C   UNL     1      18.708  64.067  15.658  1.00  0.00    -0.001 C 
ENDROOT
BRANCH  12  13
ATOM     13  C   UNL     1      17.546  65.101  15.854  1.00  0.00    -0.014 C 
ATOM     14  C   UNL     1      16.953  65.013  17.272  1.00  0.00     0.007 C 
ATOM     15  C   UNL     1      16.402  64.918  14.837  1.00  0.00     0.007 C 
ENDBRANCH  12  13
TORSDOF 1
ENDMDL
MODEL 3
REMARK VINA RESULT:    -4.856      1.709      3.815
REMARK INTER + INTRA:          -5.450
REMARK INTER:                  -5.189
REMARK INTRA:                  -0.261
REMARK UNBOUND:                -0.310
REMARK SMILES C=C1CC[C@H](C(C)C)[C@H]2C=C(C)CC[C@@H]12
REMARK SMILES IDX 12 1 11 2 10 3 9 4 15 5 14 6 13 7 2 8 1 9 3 10 4 11 5 12
REMARK SMILES IDX 6 13 7 14 8 15
REMARK H PARENT
REMARK Flexibility Score: inf
ROOT
ATOM      1  C   UNL     1      18.084  65.095  16.894  1.00  0.00     0.039 C 
ATOM      2  C   UNL     1      19.019  64.292  16.030  1.00  0.00    -0.077 C 
ATOM      3  C   UNL     1      20.237  63.968  16.510  1.00  0.00    -0.024 C 
ATOM      4  C   UNL     1      21.245  63.122  15.746  1.00  0.00     0.022 C 
ATOM      5  C   UNL     1      20.977  63.140  14.212  1.00  0.00     0.022 C 
ATOM      6  C   UNL     1      19.474  62.891  13.965  1.00  0.00     0.013 C 
ATOM      7  C   UNL     1      18.605  63.977  14.610  1.00  0.00     0.031 C 
ATOM      8  C   UNL     1      21.562  64.396  13.566  1.00  0.00    -0.074 C 
ATOM      9  C   UNL     1      21.007  65.011  12.505  1.00  0.00     0.008 C 
ATOM     10  C   UNL     1      22.912  64.879  14.034  1.00  0.00     0.031 C 
ATOM     11  C   UNL     1      23.595  63.852  14.940  1.00  0.00     0.009 C 
ATOM     12  C   UNL     1      22.716  63.508  16.166  1.00  0.00    -0.001 C 
ENDROOT
BRANCH  12  13
ATOM     13  C   UNL     1      23.365  62.403  17.069  1.00  0.00    -0.014 C 
ATOM     14  C   UNL     1      24.104  63.025  18.268  1.00  0.00     0.007 C 
ATOM     15  C   UNL     1      24.353  61.505  16.300  1.00  0.00     0.007 C 
ENDBRANCH  12  13
TORSDOF 1
ENDMDL
MODEL 4
REMARK VINA RESULT:    -4.786      1.498      3.387
REMARK INTER + INTRA:          -5.376
REMARK INTER:                  -5.106
REMARK INTRA:                  -0.269
REMARK UNBOUND:                -0.310
REMARK SMILES C=C1CC[C@H](C(C)C)[C@H]2C=C(C)CC[C@@H]12
REMARK SMILES IDX 12 1 11 2 10 3 9 4 15 5 14 6 13 7 2 8 1 9 3 10 4 11 5 12
REMARK SMILES IDX 6 13 7 14 8 15
REMARK H PARENT
REMARK Flexibility Score: inf
ROOT
ATOM      1  C   UNL     1      20.346  63.866  18.022  1.00  0.00     0.039 C 
ATOM      2  C   UNL     1      20.650  63.503  16.593  1.00  0.00    -0.077 C 
ATOM      3  C   UNL     1      21.915  63.177  16.257  1.00  0.00    -0.024 C 
ATOM      4  C   UNL     1      22.330  62.750  14.857  1.00  0.00     0.022 C 
ATOM      5  C   UNL     1      21.324  63.243  13.774  1.00  0.00     0.022 C 
ATOM      6  C   UNL     1      19.889  62.922  14.245  1.00  0.00     0.013 C 
ATOM      7  C   UNL     1      19.551  63.630  15.562  1.00  0.00     0.031 C 
ATOM      8  C   UNL     1      21.593  64.699  13.395  1.00  0.00    -0.074 C 
ATOM      9  C   UNL     1      20.625  65.563  13.037  1.00  0.00     0.008 C 
ATOM     10  C   UNL     1      23.026  65.149  13.258  1.00  0.00     0.031 C 
ATOM     11  C   UNL     1      23.994  63.964  13.289  1.00  0.00     0.009 C 
ATOM     12  C   UNL     1      23.835  63.139  14.588  1.00  0.00    -0.001 C 
ENDROOT
BRANCH  12  13
ATOM     13  C   UNL     1      24.766  61.879  14.606  1.00  0.00    -0.014 C 
ATOM     14  C   UNL     1      24.375  60.879  13.501  1.00  0.00     0.007 C 
ATOM     15  C   UNL     1      24.750  61.140  15.958  1.00  0.00     0.007 C 
ENDBRANCH  12  13
TORSDOF 1
ENDMDL
MODEL 5
REMARK VINA RESULT:    -4.636      1.401      5.079
REMARK INTER + INTRA:          -5.217
REMARK INTER:                  -4.901
REMARK INTRA:                  -0.316
REMARK UNBOUND:                -0.310
REMARK SMILES C=C1CC[C@H](C(C)C)[C@H]2C=C(C)CC[C@@H]12
REMARK SMILES IDX 12 1 11 2 10 3 9 4 15 5 14 6 13 7 2 8 1 9 3 10 4 11 5 12
REMARK SMILES IDX 6 13 7 14 8 15
REMARK H PARENT
REMARK Flexibility Score: inf
ROOT
ATOM      1  C   UNL     1      25.125  60.501  15.724  1.00  0.00     0.039 C 
ATOM      2  C   UNL     1      24.388  61.798  15.926  1.00  0.00    -0.077 C 
ATOM      3  C   UNL     1      23.719  61.997  17.080  1.00  0.00    -0.024 C 
ATOM      4  C   UNL     1      22.979  63.284  17.412  1.00  0.00     0.022 C 
ATOM      5  C   UNL     1      22.608  64.091  16.132  1.00  0.00     0.022 C 
ATOM      6  C   UNL     1      23.849  64.173  15.217  1.00  0.00     0.013 C 
ATOM      7  C   UNL     1      24.325  62.783  14.780  1.00  0.00     0.031 C 
ATOM      8  C   UNL     1      21.336  63.542  15.485  1.00  0.00    -0.074 C 
ATOM      9  C   UNL     1      21.118  63.550  14.157  1.00  0.00     0.008 C 
ATOM     10  C   UNL     1      20.202  63.119  16.383  1.00  0.00     0.031 C 
ATOM     11  C   UNL     1      20.438  63.553  17.832  1.00  0.00     0.009 C 
ATOM     12  C   UNL     1      21.769  62.987  18.380  1.00  0.00    -0.001 C 
ENDROOT
BRANCH  12  13
ATOM     13  C   UNL     1      22.066  63.480  19.838  1.00  0.00    -0.014 C 
ATOM     14  C   UNL     1      21.070  64.572  20.272  1.00  0.00     0.007 C 
ATOM     15  C   UNL     1      23.495  64.032  20.006  1.00  0.00     0.007 C 
ENDBRANCH  12  13
TORSDOF 1
ENDMDL
MODEL 6
REMARK VINA RESULT:    -4.603      1.157      4.318
REMARK INTER + INTRA:          -5.182
REMARK INTER:                  -4.933
REMARK INTRA:                  -0.248
REMARK UNBOUND:                -0.310
REMARK SMILES C=C1CC[C@H](C(C)C)[C@H]2C=C(C)CC[C@@H]12
REMARK SMILES IDX 12 1 11 2 10 3 9 4 15 5 14 6 13 7 2 8 1 9 3 10 4 11 5 12
REMARK SMILES IDX 6 13 7 14 8 15
REMARK H PARENT
REMARK Flexibility Score: inf
ROOT
ATOM      1  C   UNL     1      24.886  61.418  13.139  1.00  0.00     0.039 C 
ATOM      2  C   UNL     1      24.077  61.939  14.296  1.00  0.00    -0.077 C 
ATOM      3  C   UNL     1      22.938  62.617  14.045  1.00  0.00    -0.024 C 
ATOM      4  C   UNL     1      22.018  63.148  15.134  1.00  0.00     0.022 C 
ATOM      5  C   UNL     1      22.760  63.321  16.493  1.00  0.00     0.022 C 
ATOM      6  C   UNL     1      23.577  62.043  16.781  1.00  0.00     0.013 C 
ATOM      7  C   UNL     1      24.629  61.784  15.696  1.00  0.00     0.031 C 
ATOM      8  C   UNL     1      23.541  64.636  16.530  1.00  0.00    -0.074 C 
ATOM      9  C   UNL     1      24.703  64.789  17.191  1.00  0.00     0.008 C 
ATOM     10  C   UNL     1      22.901  65.864  15.935  1.00  0.00     0.031 C 
ATOM     11  C   UNL     1      21.427  65.626  15.599  1.00  0.00     0.009 C 
ATOM     12  C   UNL     1      21.255  64.433  14.628  1.00  0.00    -0.001 C 
ENDROOT
BRANCH  12  13
ATOM     13  C   UNL     1      19.747  64.126  14.330  1.00  0.00    -0.014 C 
ATOM     14  C   UNL     1      18.851  64.518  15.520  1.00  0.00     0.007 C 
ATOM     15  C   UNL     1      19.492  62.643  13.996  1.00  0.00     0.007 C 
ENDBRANCH  12  13
TORSDOF 1
ENDMDL
MODEL 7
REMARK VINA RESULT:    -4.564      1.227      4.408
REMARK INTER + INTRA:          -5.140
REMARK INTER:                  -4.835
REMARK INTRA:                  -0.305
REMARK UNBOUND:                -0.310
REMARK SMILES C=C1CC[C@H](C(C)C)[C@H]2C=C(C)CC[C@@H]12
REMARK SMILES IDX 12 1 11 2 10 3 9 4 15 5 14 6 13 7 2 8 1 9 3 10 4 11 5 12
REMARK SMILES IDX 6 13 7 14 8 15
REMARK H PARENT
REMARK Flexibility Score: inf
ROOT
ATOM      1  C   UNL     1      24.990  65.428  12.244  1.00  0.00     0.039 C 
ATOM      2  C   UNL     1      24.244  64.294  12.894  1.00  0.00    -0.077 C 
ATOM      3  C   UNL     1      22.980  64.501  13.318  1.00  0.00    -0.024 C 
ATOM      4  C   UNL     1      22.115  63.417  13.946  1.00  0.00     0.022 C 
ATOM      5  C   UNL     1      22.971  62.260  14.540  1.00  0.00     0.022 C 
ATOM      6  C   UNL     1      24.034  61.840  13.502  1.00  0.00     0.013 C 
ATOM      7  C   UNL     1      24.978  62.997  13.156  1.00  0.00     0.031 C 
ATOM      8  C   UNL     1      23.500  62.623  15.928  1.00  0.00    -0.074 C 
ATOM      9  C   UNL     1      24.687  62.200  16.403  1.00  0.00     0.008 C 
ATOM     10  C   UNL     1      22.583  63.356  16.874  1.00  0.00     0.031 C 
ATOM     11  C   UNL     1      21.147  63.398  16.347  1.00  0.00     0.009 C 
ATOM     12  C   UNL     1      21.078  64.056  14.948  1.00  0.00    -0.001 C 
ENDROOT
BRANCH  12  13
ATOM     13  C   UNL     1      19.626  64.043  14.358  1.00  0.00    -0.014 C 
ATOM     14  C   UNL     1      18.598  64.534  15.394  1.00  0.00     0.007 C 
ATOM     15  C   UNL     1      19.192  62.649  13.865  1.00  0.00     0.007 C 
ENDBRANCH  12  13
TORSDOF 1
ENDMDL
MODEL 8
REMARK VINA RESULT:    -4.492      1.502      4.506
REMARK INTER + INTRA:          -5.065
REMARK INTER:                  -4.727
REMARK INTRA:                  -0.338
REMARK UNBOUND:                -0.310
REMARK SMILES C=C1CC[C@H](C(C)C)[C@H]2C=C(C)CC[C@@H]12
REMARK SMILES IDX 12 1 11 2 10 3 9 4 15 5 14 6 13 7 2 8 1 9 3 10 4 11 5 12
REMARK SMILES IDX 6 13 7 14 8 15
REMARK H PARENT
REMARK Flexibility Score: inf
ROOT
ATOM      1  C   UNL     1      24.004  61.510  13.783  1.00  0.00     0.039 C 
ATOM      2  C   UNL     1      23.400  62.619  14.602  1.00  0.00    -0.077 C 
ATOM      3  C   UNL     1      23.520  62.579  15.945  1.00  0.00    -0.024 C 
ATOM      4  C   UNL     1      22.991  63.666  16.869  1.00  0.00     0.022 C 
ATOM      5  C   UNL     1      21.863  64.505  16.198  1.00  0.00     0.022 C 
ATOM      6  C   UNL     1      22.316  64.905  14.778  1.00  0.00     0.013 C 
ATOM      7  C   UNL     1      22.581  63.678  13.899  1.00  0.00     0.031 C 
ATOM      8  C   UNL     1      20.515  63.788  16.292  1.00  0.00    -0.074 C 
ATOM      9  C   UNL     1      19.560  63.879  15.348  1.00  0.00     0.008 C 
ATOM     10  C   UNL     1      20.172  63.077  17.576  1.00  0.00     0.031 C 
ATOM     11  C   UNL     1      21.168  63.410  18.689  1.00  0.00     0.009 C 
ATOM     12  C   UNL     1      22.616  63.057  18.275  1.00  0.00    -0.001 C 
ENDROOT
BRANCH  12  13
ATOM     13  C   UNL     1      23.660  63.458  19.372  1.00  0.00    -0.014 C 
ATOM     14  C   UNL     1      23.026  63.452  20.776  1.00  0.00     0.007 C 
ATOM     15  C   UNL     1      24.285  64.845  19.127  1.00  0.00     0.007 C 
ENDBRANCH  12  13
TORSDOF 1
ENDMDL
MODEL 9
REMARK VINA RESULT:    -4.350      2.086      3.125
REMARK INTER + INTRA:          -4.914
REMARK INTER:                  -4.559
REMARK INTRA:                  -0.355
REMARK UNBOUND:                -0.310
REMARK SMILES C=C1CC[C@H](C(C)C)[C@H]2C=C(C)CC[C@@H]12
REMARK SMILES IDX 12 1 11 2 10 3 9 4 15 5 14 6 13 7 2 8 1 9 3 10 4 11 5 12
REMARK SMILES IDX 6 13 7 14 8 15
REMARK H PARENT
REMARK Flexibility Score: inf
ROOT
ATOM      1  C   UNL     1      19.390  62.766  13.872  1.00  0.00     0.039 C 
ATOM      2  C   UNL     1      20.193  63.628  14.809  1.00  0.00    -0.077 C 
ATOM      3  C   UNL     1      21.189  63.066  15.523  1.00  0.00    -0.024 C 
ATOM      4  C   UNL     1      22.094  63.847  16.464  1.00  0.00     0.022 C 
ATOM      5  C   UNL     1      21.437  65.180  16.933  1.00  0.00     0.022 C 
ATOM      6  C   UNL     1      20.854  65.908  15.703  1.00  0.00     0.013 C 
ATOM      7  C   UNL     1      19.777  65.069  15.004  1.00  0.00     0.031 C 
ATOM      8  C   UNL     1      20.467  64.938  18.089  1.00  0.00    -0.074 C 
ATOM      9  C   UNL     1      19.347  65.660  18.280  1.00  0.00     0.008 C 
ATOM     10  C   UNL     1      20.861  63.952  19.159  1.00  0.00     0.031 C 
ATOM     11  C   UNL     1      22.325  63.527  19.023  1.00  0.00     0.009 C 
ATOM     12  C   UNL     1      22.608  62.917  17.630  1.00  0.00    -0.001 C 
ENDROOT
BRANCH  12  13
ATOM     13  C   UNL     1      24.118  62.543  17.443  1.00  0.00    -0.014 C 
ATOM     14  C   UNL     1      24.832  63.547  16.519  1.00  0.00     0.007 C 
ATOM     15  C   UNL     1      24.320  61.126  16.871  1.00  0.00     0.007 C 
ENDBRANCH  12  13
TORSDOF 1
ENDMDL
