MODEL 1
REMARK VINA RESULT:    -4.462      0.000      0.000
REMARK INTER + INTRA:          -4.593
REMARK INTER:                  -4.593
REMARK INTRA:                   0.000
REMARK UNBOUND:                 0.000
REMARK SMILES O=c1ccc2ccc(O)cc2o1
REMARK SMILES IDX 6 1 7 2 8 3 10 4 11 5 5 6 4 7 3 8 2 9 1 10 12 11 9 12
REMARK H PARENT 9 13
REMARK Flexibility Score: inf
ROOT
ATOM      1  C   UNL     1      73.169  40.925  21.795  1.00  0.00     0.016 A 
ATOM      2  C   UNL     1      74.430  41.525  21.732  1.00  0.00     0.047 A 
ATOM      3  C   UNL     1      75.440  40.967  20.933  1.00  0.00     0.119 A 
ATOM      4  C   UNL     1      75.184  39.806  20.194  1.00  0.00     0.094 A 
ATOM      5  C   UNL     1      73.925  39.199  20.251  1.00  0.00     0.142 A 
ATOM      6  C   UNL     1      72.910  39.762  21.057  1.00  0.00     0.018 A 
ATOM      7  C   UNL     1      71.663  39.132  21.093  1.00  0.00     0.019 A 
ATOM      8  C   UNL     1      71.456  37.977  20.340  1.00  0.00     0.094 A 
ATOM      9  C   UNL     1      72.508  37.476  19.565  1.00  0.00     0.336 A 
ATOM     10  O   UNL     1      72.342  36.435  18.879  1.00  0.00    -0.246 OA
ATOM     11  O   UNL     1      73.686  38.094  19.548  1.00  0.00    -0.423 OA
ENDROOT
BRANCH   3  12
ATOM     12  O   UNL     1      76.698  41.560  20.865  1.00  0.00    -0.508 OA
ATOM     13  H   UNL     1      77.118  41.813  19.979  1.00  0.00     0.293 HD
ENDBRANCH   3  12
TORSDOF 1
ENDMDL
MODEL 2
REMARK VINA RESULT:    -4.450      1.779      2.502
REMARK INTER + INTRA:          -4.580
REMARK INTER:                  -4.580
REMARK INTRA:                   0.000
REMARK UNBOUND:                 0.000
REMARK SMILES O=c1ccc2ccc(O)cc2o1
REMARK SMILES IDX 6 1 7 2 8 3 10 4 11 5 5 6 4 7 3 8 2 9 1 10 12 11 9 12
REMARK H PARENT 9 13
REMARK Flexibility Score: inf
ROOT
ATOM      1  C   UNL     1      75.511  40.793  21.006  1.00  0.00     0.016 A 
ATOM      2  C   UNL     1      75.550  41.791  21.984  1.00  0.00     0.047 A 
ATOM      3  C   UNL     1      74.443  42.008  22.819  1.00  0.00     0.119 A 
ATOM      4  C   UNL     1      73.295  41.221  22.674  1.00  0.00     0.094 A 
ATOM      5  C   UNL     1      73.247  40.219  21.699  1.00  0.00     0.142 A 
ATOM      6  C   UNL     1      74.362  40.003  20.859  1.00  0.00     0.018 A 
ATOM      7  C   UNL     1      74.283  38.995  19.893  1.00  0.00     0.019 A 
ATOM      8  C   UNL     1      73.117  38.237  19.787  1.00  0.00     0.094 A 
ATOM      9  C   UNL     1      72.053  38.508  20.654  1.00  0.00     0.336 A 
ATOM     10  O   UNL     1      70.992  37.835  20.574  1.00  0.00    -0.246 OA
ATOM     11  O   UNL     1      72.152  39.473  21.564  1.00  0.00    -0.423 OA
ENDROOT
BRANCH   3  12
ATOM     12  O   UNL     1      74.476  43.001  23.795  1.00  0.00    -0.508 OA
ATOM     13  H   UNL     1      75.338  43.261  24.258  1.00  0.00     0.293 HD
ENDBRANCH   3  12
TORSDOF 1
ENDMDL
MODEL 3
REMARK VINA RESULT:    -4.304      0.993      1.077
REMARK INTER + INTRA:          -4.430
REMARK INTER:                  -4.430
REMARK INTRA:                   0.000
REMARK UNBOUND:                 0.000
REMARK SMILES O=c1ccc2ccc(O)cc2o1
REMARK SMILES IDX 6 1 7 2 8 3 10 4 11 5 5 6 4 7 3 8 2 9 1 10 12 11 9 12
REMARK H PARENT 9 13
REMARK Flexibility Score: inf
ROOT
ATOM      1  C   UNL     1      72.616  40.919  22.605  1.00  0.00     0.016 A 
ATOM      2  C   UNL     1      73.803  41.553  22.986  1.00  0.00     0.047 A 
ATOM      3  C   UNL     1      75.025  41.171  22.410  1.00  0.00     0.119 A 
ATOM      4  C   UNL     1      75.057  40.154  21.449  1.00  0.00     0.094 A 
ATOM      5  C   UNL     1      73.874  39.515  21.062  1.00  0.00     0.142 A 
ATOM      6  C   UNL     1      72.645  39.900  21.643  1.00  0.00     0.018 A 
ATOM      7  C   UNL     1      71.481  39.243  21.235  1.00  0.00     0.019 A 
ATOM      8  C   UNL     1      71.563  38.235  20.274  1.00  0.00     0.094 A 
ATOM      9  C   UNL     1      72.815  37.907  19.743  1.00  0.00     0.336 A 
ATOM     10  O   UNL     1      72.910  37.000  18.875  1.00  0.00    -0.246 OA
ATOM     11  O   UNL     1      73.908  38.547  20.148  1.00  0.00    -0.423 OA
ENDROOT
BRANCH   3  12
ATOM     12  O   UNL     1      76.211  41.798  22.785  1.00  0.00    -0.508 OA
ATOM     13  H   UNL     1      77.113  41.446  22.489  1.00  0.00     0.293 HD
ENDBRANCH   3  12
TORSDOF 1
ENDMDL
MODEL 4
REMARK VINA RESULT:    -4.106      1.545      4.795
REMARK INTER + INTRA:          -4.226
REMARK INTER:                  -4.226
REMARK INTRA:                   0.000
REMARK UNBOUND:                 0.000
REMARK SMILES O=c1ccc2ccc(O)cc2o1
REMARK SMILES IDX 6 1 7 2 8 3 10 4 11 5 5 6 4 7 3 8 2 9 1 10 12 11 9 12
REMARK H PARENT 9 13
REMARK Flexibility Score: inf
ROOT
ATOM      1  C   UNL     1      74.342  39.001  18.875  1.00  0.00     0.016 A 
ATOM      2  C   UNL     1      73.320  38.115  19.228  1.00  0.00     0.047 A 
ATOM      3  C   UNL     1      72.734  38.182  20.501  1.00  0.00     0.119 A 
ATOM      4  C   UNL     1      73.172  39.141  21.422  1.00  0.00     0.094 A 
ATOM      5  C   UNL     1      74.194  40.031  21.078  1.00  0.00     0.142 A 
ATOM      6  C   UNL     1      74.784  39.961  19.795  1.00  0.00     0.018 A 
ATOM      7  C   UNL     1      75.804  40.865  19.482  1.00  0.00     0.019 A 
ATOM      8  C   UNL     1      76.207  41.802  20.433  1.00  0.00     0.094 A 
ATOM      9  C   UNL     1      75.577  41.812  21.682  1.00  0.00     0.336 A 
ATOM     10  O   UNL     1      75.927  42.649  22.555  1.00  0.00    -0.246 OA
ATOM     11  O   UNL     1      74.610  40.941  21.957  1.00  0.00    -0.423 OA
ENDROOT
BRANCH   3  12
ATOM     12  O   UNL     1      71.714  37.303  20.858  1.00  0.00    -0.508 OA
ATOM     13  H   UNL     1      70.749  37.482  20.610  1.00  0.00     0.293 HD
ENDBRANCH   3  12
TORSDOF 1
ENDMDL
MODEL 5
REMARK VINA RESULT:    -3.946      2.835      3.875
REMARK INTER + INTRA:          -4.062
REMARK INTER:                  -4.062
REMARK INTRA:                   0.000
REMARK UNBOUND:                 0.000
REMARK SMILES O=c1ccc2ccc(O)cc2o1
REMARK SMILES IDX 6 1 7 2 8 3 10 4 11 5 5 6 4 7 3 8 2 9 1 10 12 11 9 12
REMARK H PARENT 9 13
REMARK Flexibility Score: inf
ROOT
ATOM      1  C   UNL     1      73.970  39.581  20.881  1.00  0.00     0.016 A 
ATOM      2  C   UNL     1      75.249  39.971  20.473  1.00  0.00     0.047 A 
ATOM      3  C   UNL     1      75.744  41.240  20.811  1.00  0.00     0.119 A 
ATOM      4  C   UNL     1      74.954  42.120  21.561  1.00  0.00     0.094 A 
ATOM      5  C   UNL     1      73.673  41.738  21.973  1.00  0.00     0.142 A 
ATOM      6  C   UNL     1      73.177  40.460  21.631  1.00  0.00     0.018 A 
ATOM      7  C   UNL     1      71.893  40.109  22.057  1.00  0.00     0.019 A 
ATOM      8  C   UNL     1      71.144  41.020  22.802  1.00  0.00     0.094 A 
ATOM      9  C   UNL     1      71.700  42.267  23.103  1.00  0.00     0.336 A 
ATOM     10  O   UNL     1      71.041  43.104  23.773  1.00  0.00    -0.246 OA
ATOM     11  O   UNL     1      72.925  42.578  22.685  1.00  0.00    -0.423 OA
ENDROOT
BRANCH   3  12
ATOM     12  O   UNL     1      77.017  41.634  20.409  1.00  0.00    -0.508 OA
ATOM     13  H   UNL     1      77.583  42.256  20.974  1.00  0.00     0.293 HD
ENDBRANCH   3  12
TORSDOF 1
ENDMDL
MODEL 6
REMARK VINA RESULT:    -3.931      2.460      4.425
REMARK INTER + INTRA:          -4.046
REMARK INTER:                  -4.046
REMARK INTRA:                   0.000
REMARK UNBOUND:                 0.000
REMARK SMILES O=c1ccc2ccc(O)cc2o1
REMARK SMILES IDX 6 1 7 2 8 3 10 4 11 5 5 6 4 7 3 8 2 9 1 10 12 11 9 12
REMARK H PARENT 9 13
REMARK Flexibility Score: inf
ROOT
ATOM      1  C   UNL     1      74.416  39.779  20.569  1.00  0.00     0.016 A 
ATOM      2  C   UNL     1      74.080  38.639  19.831  1.00  0.00     0.047 A 
ATOM      3  C   UNL     1      72.792  38.089  19.926  1.00  0.00     0.119 A 
ATOM      4  C   UNL     1      71.839  38.684  20.761  1.00  0.00     0.094 A 
ATOM      5  C   UNL     1      72.166  39.824  21.502  1.00  0.00     0.142 A 
ATOM      6  C   UNL     1      73.463  40.376  21.406  1.00  0.00     0.018 A 
ATOM      7  C   UNL     1      73.760  41.516  22.159  1.00  0.00     0.019 A 
ATOM      8  C   UNL     1      72.776  42.071  22.977  1.00  0.00     0.094 A 
ATOM      9  C   UNL     1      71.514  41.471  23.022  1.00  0.00     0.336 A 
ATOM     10  O   UNL     1      70.613  41.957  23.755  1.00  0.00    -0.246 OA
ATOM     11  O   UNL     1      71.257  40.386  22.296  1.00  0.00    -0.423 OA
ENDROOT
BRANCH   3  12
ATOM     12  O   UNL     1      72.451  36.955  19.194  1.00  0.00    -0.508 OA
ATOM     13  H   UNL     1      72.146  37.018  18.231  1.00  0.00     0.293 HD
ENDBRANCH   3  12
TORSDOF 1
ENDMDL
MODEL 7
REMARK VINA RESULT:    -3.930      0.959      4.274
REMARK INTER + INTRA:          -4.045
REMARK INTER:                  -4.045
REMARK INTRA:                   0.000
REMARK UNBOUND:                 0.000
REMARK SMILES O=c1ccc2ccc(O)cc2o1
REMARK SMILES IDX 6 1 7 2 8 3 10 4 11 5 5 6 4 7 3 8 2 9 1 10 12 11 9 12
REMARK H PARENT 9 13
REMARK Flexibility Score: inf
ROOT
ATOM      1  C   UNL     1      72.466  39.366  21.493  1.00  0.00     0.016 A 
ATOM      2  C   UNL     1      72.093  38.250  20.737  1.00  0.00     0.047 A 
ATOM      3  C   UNL     1      72.862  37.854  19.632  1.00  0.00     0.119 A 
ATOM      4  C   UNL     1      74.010  38.577  19.286  1.00  0.00     0.094 A 
ATOM      5  C   UNL     1      74.391  39.694  20.037  1.00  0.00     0.142 A 
ATOM      6  C   UNL     1      73.614  40.091  21.148  1.00  0.00     0.018 A 
ATOM      7  C   UNL     1      74.022  41.212  21.878  1.00  0.00     0.019 A 
ATOM      8  C   UNL     1      75.172  41.900  21.493  1.00  0.00     0.094 A 
ATOM      9  C   UNL     1      75.892  41.448  20.382  1.00  0.00     0.336 A 
ATOM     10  O   UNL     1      76.932  42.055  20.018  1.00  0.00    -0.246 OA
ATOM     11  O   UNL     1      75.483  40.379  19.703  1.00  0.00    -0.423 OA
ENDROOT
BRANCH   3  12
ATOM     12  O   UNL     1      72.496  36.744  18.875  1.00  0.00    -0.508 OA
ATOM     13  H   UNL     1      71.524  36.517  18.703  1.00  0.00     0.293 HD
ENDBRANCH   3  12
TORSDOF 1
ENDMDL
MODEL 8
REMARK VINA RESULT:    -3.902      2.783      3.712
REMARK INTER + INTRA:          -4.017
REMARK INTER:                  -4.017
REMARK INTRA:                   0.000
REMARK UNBOUND:                 0.000
REMARK SMILES O=c1ccc2ccc(O)cc2o1
REMARK SMILES IDX 6 1 7 2 8 3 10 4 11 5 5 6 4 7 3 8 2 9 1 10 12 11 9 12
REMARK H PARENT 9 13
REMARK Flexibility Score: inf
ROOT
ATOM      1  C   UNL     1      73.599  42.513  22.577  1.00  0.00     0.016 A 
ATOM      2  C   UNL     1      72.557  43.125  23.279  1.00  0.00     0.047 A 
ATOM      3  C   UNL     1      71.330  42.464  23.443  1.00  0.00     0.119 A 
ATOM      4  C   UNL     1      71.148  41.185  22.903  1.00  0.00     0.094 A 
ATOM      5  C   UNL     1      72.185  40.565  22.199  1.00  0.00     0.142 A 
ATOM      6  C   UNL     1      73.420  41.233  22.035  1.00  0.00     0.018 A 
ATOM      7  C   UNL     1      74.437  40.586  21.326  1.00  0.00     0.019 A 
ATOM      8  C   UNL     1      74.208  39.312  20.807  1.00  0.00     0.094 A 
ATOM      9  C   UNL     1      72.961  38.713  21.009  1.00  0.00     0.336 A 
ATOM     10  O   UNL     1      72.734  37.564  20.548  1.00  0.00    -0.246 OA
ATOM     11  O   UNL     1      72.009  39.349  21.686  1.00  0.00    -0.423 OA
ENDROOT
BRANCH   3  12
ATOM     12  O   UNL     1      70.287  43.068  24.141  1.00  0.00    -0.508 OA
ATOM     13  H   UNL     1      69.404  42.596  24.288  1.00  0.00     0.293 HD
ENDBRANCH   3  12
TORSDOF 1
ENDMDL
