MODEL 1
REMARK VINA RESULT:    -1.894      0.000      0.000
REMARK INTER + INTRA:          -4.436
REMARK INTER:                  -3.112
REMARK INTRA:                  -1.324
REMARK UNBOUND:                -1.324
REMARK SMILES COc1ccc([C@H]2CC(=O)c3c(O)cc(O[C@@H]4O[C@H](CO[C@@H]5O[C@@H](C)[C@H](O)[C@@H](O)[C@@H]5O)[C@@H](O)[C@H](O)[C@@H]4O)cc3O2)cc1O
REMARK SMILES IDX 19 1 32 2 34 3 36 4 17 5 18 6 20 7 21 8 22 9 25 10 24 11
REMARK SMILES IDX 26 12 23 13 28 14 30 15 27 16 29 18 31 20 33 22 35 24 16 26
REMARK SMILES IDX 15 27 14 28 38 29 12 30 39 31 11 32 40 33 9 34 7 35 10 36
REMARK SMILES IDX 8 37 13 38 6 40 41 41 5 42 42 43 4 44 3 45 43 46 2 48 1 49
REMARK SMILES IDX 37 50
REMARK H PARENT 27 17 29 19 31 21 33 23 35 25 13 39 43 47 37 51
REMARK Flexibility Score: inf
ROOT
ATOM      1  C   UNL     1     -39.642  75.075 -20.381  1.00  0.00     0.180 C 
ATOM      2  C   UNL     1     -40.900  74.253 -20.866  1.00  0.00     0.177 C 
ATOM      3  C   UNL     1     -42.214  74.815 -20.276  1.00  0.00     0.180 C 
ATOM      4  C   UNL     1     -41.937  76.233 -19.727  1.00  0.00     0.214 C 
ATOM      5  C   UNL     1     -41.062  76.964 -20.821  1.00  0.00     0.339 C 
ATOM      6  O   UNL     1     -39.740  76.483 -20.625  1.00  0.00    -0.332 OA
ENDROOT
BRANCH   1   7
ATOM      7  C   UNL     1     -38.277  74.617 -20.908  1.00  0.00     0.198 C 
BRANCH   7   8
ATOM      8  O   UNL     1     -38.022  73.303 -20.429  1.00  0.00    -0.347 OA
BRANCH   8   9
ATOM      9  C   UNL     1     -37.960  73.094 -19.014  1.00  0.00     0.281 C 
ATOM     10  C   UNL     1     -34.454  73.634 -17.839  1.00  0.00     0.041 C 
ATOM     11  C   UNL     1     -35.571  73.045 -18.740  1.00  0.00     0.150 C 
ATOM     12  C   UNL     1     -35.569  71.494 -18.613  1.00  0.00     0.174 C 
ATOM     13  O   UNL     1     -36.812  73.651 -18.343  1.00  0.00    -0.344 OA
ATOM     14  C   UNL     1     -36.792  70.936 -19.361  1.00  0.00     0.179 C 
ATOM     15  C   UNL     1     -38.054  71.592 -18.766  1.00  0.00     0.202 C 
BRANCH  12  16
ATOM     16  O   UNL     1     -34.400  70.984 -19.219  1.00  0.00    -0.388 OA
ATOM     17  H   UNL     1     -34.151  71.580 -19.982  1.00  0.00     0.211 HD
ENDBRANCH  12  16
BRANCH  14  18
ATOM     18  O   UNL     1     -36.854  69.528 -19.200  1.00  0.00    -0.387 OA
ATOM     19  H   UNL     1     -35.993  69.154 -19.516  1.00  0.00     0.211 HD
ENDBRANCH  14  18
BRANCH  15  20
ATOM     20  O   UNL     1     -39.220  71.097 -19.404  1.00  0.00    -0.385 OA
ATOM     21  H   UNL     1     -39.042  71.108 -20.385  1.00  0.00     0.211 HD
ENDBRANCH  15  20
ENDBRANCH   8   9
ENDBRANCH   7   8
ENDBRANCH   1   7
BRANCH   2  22
ATOM     22  O   UNL     1     -40.739  72.895 -20.523  1.00  0.00    -0.387 OA
ATOM     23  H   UNL     1     -39.892  72.815 -20.011  1.00  0.00     0.211 HD
ENDBRANCH   2  22
BRANCH   3  24
ATOM     24  O   UNL     1     -43.215  74.884 -21.285  1.00  0.00    -0.387 OA
ATOM     25  H   UNL     1     -43.595  75.816 -21.216  1.00  0.00     0.211 HD
ENDBRANCH   3  24
BRANCH   5  26
ATOM     26  O   UNL     1     -41.555  76.774 -22.204  1.00  0.00    -0.462 OA
BRANCH  26  27
ATOM     27  C   UNL     1     -40.761  76.747 -23.426  1.00  0.00     0.130 A 
ATOM     28  C   UNL     1     -41.407  76.304 -24.595  1.00  0.00     0.093 A 
ATOM     29  C   UNL     1     -39.377  76.903 -23.435  1.00  0.00     0.094 A 
ATOM     30  C   UNL     1     -40.678  75.895 -25.741  1.00  0.00     0.133 A 
ATOM     31  C   UNL     1     -38.652  76.599 -24.610  1.00  0.00     0.138 A 
ATOM     32  C   UNL     1     -39.318  76.169 -25.782  1.00  0.00     0.102 A 
ATOM     33  O   UNL     1     -37.244  76.664 -24.654  1.00  0.00    -0.484 OA
ATOM     34  C   UNL     1     -38.610  76.306 -27.072  1.00  0.00     0.174 C 
ATOM     35  C   UNL     1     -36.519  77.125 -25.808  1.00  0.00     0.211 C 
ATOM     36  O   UNL     1     -39.174  75.997 -28.179  1.00  0.00    -0.294 OA
ATOM     37  C   UNL     1     -37.359  77.121 -27.128  1.00  0.00     0.131 C 
BRANCH  30  38
ATOM     38  O   UNL     1     -41.336  75.121 -26.692  1.00  0.00    -0.507 OA
ATOM     39  H   UNL     1     -40.885  74.280 -27.014  1.00  0.00     0.293 HD
ENDBRANCH  30  38
BRANCH  35  40
ATOM     40  C   UNL     1     -35.235  76.340 -26.073  1.00  0.00    -0.003 A 
ATOM     41  C   UNL     1     -35.237  75.093 -26.712  1.00  0.00     0.057 A 
ATOM     42  C   UNL     1     -34.002  77.058 -25.990  1.00  0.00     0.011 A 
ATOM     43  C   UNL     1     -34.069  74.575 -27.311  1.00  0.00     0.158 A 
ATOM     44  C   UNL     1     -32.830  76.516 -26.530  1.00  0.00     0.051 A 
ATOM     45  C   UNL     1     -32.852  75.270 -27.187  1.00  0.00     0.160 A 
BRANCH  43  46
ATOM     46  O   UNL     1     -34.198  73.417 -28.099  1.00  0.00    -0.504 OA
ATOM     47  H   UNL     1     -33.711  73.273 -28.943  1.00  0.00     0.293 HD
ENDBRANCH  43  46
BRANCH  45  48
ATOM     48  O   UNL     1     -31.669  74.795 -27.750  1.00  0.00    -0.493 OA
ATOM     49  C   UNL     1     -30.698  75.655 -28.330  1.00  0.00     0.278 C 
ENDBRANCH  45  48
ENDBRANCH  35  40
ENDBRANCH  26  27
ENDBRANCH   5  26
BRANCH   4  50
ATOM     50  O   UNL     1     -42.958  77.047 -19.197  1.00  0.00    -0.384 OA
ATOM     51  H   UNL     1     -43.752  77.148 -19.802  1.00  0.00     0.211 HD
ENDBRANCH   4  50
TORSDOF 15
ENDMDL
