MODEL 1
REMARK VINA RESULT:    -5.068      0.000      0.000
REMARK INTER + INTRA:          -5.539
REMARK INTER:                  -5.512
REMARK INTRA:                  -0.027
REMARK UNBOUND:                -0.027
REMARK SMILES O=C([O-])c1ccc(O)cc1
REMARK SMILES IDX 7 1 6 2 9 3 5 4 10 5 4 6 8 7 2 9 1 10 3 11
REMARK H PARENT 8 8
REMARK Flexibility Score: inf
ROOT
ATOM      1  C   UNL     1      15.781  -2.876  17.237  1.00  0.00     0.115 A 
ATOM      2  C   UNL     1      14.453  -3.234  16.981  1.00  0.00     0.047 A 
ATOM      3  C   UNL     1      16.821  -3.684  16.761  1.00  0.00     0.047 A 
ATOM      4  C   UNL     1      14.163  -4.392  16.255  1.00  0.00     0.014 A 
ATOM      5  C   UNL     1      16.535  -4.843  16.034  1.00  0.00     0.014 A 
ATOM      6  C   UNL     1      15.202  -5.210  15.774  1.00  0.00    -0.003 A 
ENDROOT
BRANCH   1   7
ATOM      7  O   UNL     1      16.054  -1.718  17.962  1.00  0.00    -0.508 OA
ATOM      8  H   UNL     1      16.948  -1.247  17.889  1.00  0.00     0.293 HD
ENDBRANCH   1   7
BRANCH   6   9
ATOM      9  C   UNL     1      14.892  -6.436  15.005  1.00  0.00     0.071 C 
ATOM     10  O   UNL     1      14.874  -7.561  15.573  1.00  0.00    -0.545 OA
ATOM     11  O   UNL     1      14.618  -6.364  13.644  1.00  0.00    -0.545 OA
ENDBRANCH   6   9
TORSDOF 2
ENDMDL
MODEL 2
REMARK VINA RESULT:    -5.056      3.470      5.243
REMARK INTER + INTRA:          -5.527
REMARK INTER:                  -5.498
REMARK INTRA:                  -0.028
REMARK UNBOUND:                -0.027
REMARK SMILES O=C([O-])c1ccc(O)cc1
REMARK SMILES IDX 7 1 6 2 9 3 5 4 10 5 4 6 8 7 2 9 1 10 3 11
REMARK H PARENT 8 8
REMARK Flexibility Score: inf
ROOT
ATOM      1  C   UNL     1      15.812  -5.368  10.292  1.00  0.00     0.115 A 
ATOM      2  C   UNL     1      14.558  -5.459  10.904  1.00  0.00     0.047 A 
ATOM      3  C   UNL     1      16.958  -5.759  10.997  1.00  0.00     0.047 A 
ATOM      4  C   UNL     1      14.446  -5.939  12.213  1.00  0.00     0.014 A 
ATOM      5  C   UNL     1      16.849  -6.240  12.305  1.00  0.00     0.014 A 
ATOM      6  C   UNL     1      15.591  -6.334  12.927  1.00  0.00    -0.003 A 
ENDROOT
BRANCH   1   7
ATOM      7  O   UNL     1      15.909  -4.888   8.988  1.00  0.00    -0.508 OA
ATOM      8  H   UNL     1      15.537  -3.983   8.729  1.00  0.00     0.293 HD
ENDBRANCH   1   7
BRANCH   6   9
ATOM      9  C   UNL     1      15.469  -6.841  14.312  1.00  0.00     0.071 C 
ATOM     10  O   UNL     1      15.790  -8.028  14.590  1.00  0.00    -0.545 OA
ATOM     11  O   UNL     1      14.999  -6.015  15.327  1.00  0.00    -0.545 OA
ENDBRANCH   6   9
TORSDOF 2
ENDMDL
MODEL 3
REMARK VINA RESULT:    -5.028      4.591      6.508
REMARK INTER + INTRA:          -5.496
REMARK INTER:                  -5.461
REMARK INTRA:                  -0.035
REMARK UNBOUND:                -0.027
REMARK SMILES O=C([O-])c1ccc(O)cc1
REMARK SMILES IDX 7 1 6 2 9 3 5 4 10 5 4 6 8 7 2 9 1 10 3 11
REMARK H PARENT 8 8
REMARK Flexibility Score: inf
ROOT
ATOM      1  C   UNL     1      13.825  -5.580   9.793  1.00  0.00     0.115 A 
ATOM      2  C   UNL     1      15.082  -5.687   9.187  1.00  0.00     0.047 A 
ATOM      3  C   UNL     1      13.734  -5.483  11.187  1.00  0.00     0.047 A 
ATOM      4  C   UNL     1      16.241  -5.698   9.968  1.00  0.00     0.014 A 
ATOM      5  C   UNL     1      14.891  -5.493  11.970  1.00  0.00     0.014 A 
ATOM      6  C   UNL     1      16.158  -5.602  11.368  1.00  0.00    -0.003 A 
ENDROOT
BRANCH   1   7
ATOM      7  O   UNL     1      12.679  -5.570   9.002  1.00  0.00    -0.508 OA
ATOM      8  H   UNL     1      12.634  -5.039   8.141  1.00  0.00     0.293 HD
ENDBRANCH   1   7
BRANCH   6   9
ATOM      9  C   UNL     1      17.388  -5.613  12.192  1.00  0.00     0.071 C 
ATOM     10  O   UNL     1      18.460  -6.093  11.736  1.00  0.00    -0.545 OA
ATOM     11  O   UNL     1      17.376  -5.094  13.482  1.00  0.00    -0.545 OA
ENDBRANCH   6   9
TORSDOF 2
ENDMDL
MODEL 4
REMARK VINA RESULT:    -5.007      3.791      5.024
REMARK INTER + INTRA:          -5.474
REMARK INTER:                  -5.445
REMARK INTRA:                  -0.029
REMARK UNBOUND:                -0.027
REMARK SMILES O=C([O-])c1ccc(O)cc1
REMARK SMILES IDX 7 1 6 2 9 3 5 4 10 5 4 6 8 7 2 9 1 10 3 11
REMARK H PARENT 8 8
REMARK Flexibility Score: inf
ROOT
ATOM      1  C   UNL     1      15.923  -6.623  13.784  1.00  0.00     0.115 A 
ATOM      2  C   UNL     1      14.531  -6.754  13.758  1.00  0.00     0.047 A 
ATOM      3  C   UNL     1      16.589  -6.080  12.679  1.00  0.00     0.047 A 
ATOM      4  C   UNL     1      13.806  -6.345  12.635  1.00  0.00     0.014 A 
ATOM      5  C   UNL     1      15.867  -5.670  11.554  1.00  0.00     0.014 A 
ATOM      6  C   UNL     1      14.467  -5.799  11.520  1.00  0.00    -0.003 A 
ENDROOT
BRANCH   1   7
ATOM      7  O   UNL     1      16.632  -7.035  14.910  1.00  0.00    -0.508 OA
ATOM      8  H   UNL     1      17.314  -7.783  14.862  1.00  0.00     0.293 HD
ENDBRANCH   1   7
BRANCH   6   9
ATOM      9  C   UNL     1      13.697  -5.366  10.333  1.00  0.00     0.071 C 
ATOM     10  O   UNL     1      12.824  -4.463  10.430  1.00  0.00    -0.545 OA
ATOM     11  O   UNL     1      13.927  -5.952   9.093  1.00  0.00    -0.545 OA
ENDBRANCH   6   9
TORSDOF 2
ENDMDL
MODEL 5
REMARK VINA RESULT:    -4.982      1.950      2.834
REMARK INTER + INTRA:          -5.445
REMARK INTER:                  -5.409
REMARK INTRA:                  -0.036
REMARK UNBOUND:                -0.027
REMARK SMILES O=C([O-])c1ccc(O)cc1
REMARK SMILES IDX 7 1 6 2 9 3 5 4 10 5 4 6 8 7 2 9 1 10 3 11
REMARK H PARENT 8 8
REMARK Flexibility Score: inf
ROOT
ATOM      1  C   UNL     1      17.831  -3.140  17.775  1.00  0.00     0.115 A 
ATOM      2  C   UNL     1      17.859  -3.988  16.663  1.00  0.00     0.047 A 
ATOM      3  C   UNL     1      16.621  -2.558  18.173  1.00  0.00     0.047 A 
ATOM      4  C   UNL     1      16.687  -4.255  15.951  1.00  0.00     0.014 A 
ATOM      5  C   UNL     1      15.446  -2.823  17.463  1.00  0.00     0.014 A 
ATOM      6  C   UNL     1      15.467  -3.674  16.342  1.00  0.00    -0.003 A 
ENDROOT
BRANCH   1   7
ATOM      7  O   UNL     1      19.007  -2.884  18.476  1.00  0.00    -0.508 OA
ATOM      8  H   UNL     1      19.894  -3.276  18.183  1.00  0.00     0.293 HD
ENDBRANCH   1   7
BRANCH   6   9
ATOM      9  C   UNL     1      14.227  -3.958  15.586  1.00  0.00     0.071 C 
ATOM     10  O   UNL     1      14.253  -4.701  14.569  1.00  0.00    -0.545 OA
ATOM     11  O   UNL     1      13.015  -3.410  15.989  1.00  0.00    -0.545 OA
ENDBRANCH   6   9
TORSDOF 2
ENDMDL
MODEL 6
REMARK VINA RESULT:    -4.925      1.517      4.247
REMARK INTER + INTRA:          -5.384
REMARK INTER:                  -5.354
REMARK INTRA:                  -0.030
REMARK UNBOUND:                -0.027
REMARK SMILES O=C([O-])c1ccc(O)cc1
REMARK SMILES IDX 7 1 6 2 9 3 5 4 10 5 4 6 8 7 2 9 1 10 3 11
REMARK H PARENT 8 8
REMARK Flexibility Score: inf
ROOT
ATOM      1  C   UNL     1      15.036  -5.897  15.326  1.00  0.00     0.115 A 
ATOM      2  C   UNL     1      14.598  -4.661  15.812  1.00  0.00     0.047 A 
ATOM      3  C   UNL     1      16.372  -6.277  15.501  1.00  0.00     0.047 A 
ATOM      4  C   UNL     1      15.488  -3.806  16.468  1.00  0.00     0.014 A 
ATOM      5  C   UNL     1      17.266  -5.425  16.158  1.00  0.00     0.014 A 
ATOM      6  C   UNL     1      16.832  -4.179  16.647  1.00  0.00    -0.003 A 
ENDROOT
BRANCH   1   7
ATOM      7  O   UNL     1      14.137  -6.738  14.674  1.00  0.00    -0.508 OA
ATOM      8  H   UNL     1      14.433  -7.621  14.274  1.00  0.00     0.293 HD
ENDBRANCH   1   7
BRANCH   6   9
ATOM      9  C   UNL     1      17.773  -3.273  17.343  1.00  0.00     0.071 C 
ATOM     10  O   UNL     1      18.889  -2.992  16.830  1.00  0.00    -0.545 OA
ATOM     11  O   UNL     1      17.438  -2.719  18.573  1.00  0.00    -0.545 OA
ENDBRANCH   6   9
TORSDOF 2
ENDMDL
MODEL 7
REMARK VINA RESULT:    -4.916      4.101      5.099
REMARK INTER + INTRA:          -5.374
REMARK INTER:                  -5.338
REMARK INTRA:                  -0.036
REMARK UNBOUND:                -0.027
REMARK SMILES O=C([O-])c1ccc(O)cc1
REMARK SMILES IDX 7 1 6 2 9 3 5 4 10 5 4 6 8 7 2 9 1 10 3 11
REMARK H PARENT 8 8
REMARK Flexibility Score: inf
ROOT
ATOM      1  C   UNL     1      17.636  -5.000  12.937  1.00  0.00     0.115 A 
ATOM      2  C   UNL     1      16.401  -4.429  13.260  1.00  0.00     0.047 A 
ATOM      3  C   UNL     1      17.797  -5.658  11.712  1.00  0.00     0.047 A 
ATOM      4  C   UNL     1      15.330  -4.513  12.365  1.00  0.00     0.014 A 
ATOM      5  C   UNL     1      16.729  -5.743  10.814  1.00  0.00     0.014 A 
ATOM      6  C   UNL     1      15.483  -5.172  11.132  1.00  0.00    -0.003 A 
ENDROOT
BRANCH   1   7
ATOM      7  O   UNL     1      18.694  -4.908  13.839  1.00  0.00    -0.508 OA
ATOM      8  H   UNL     1      19.527  -5.476  13.738  1.00  0.00     0.293 HD
ENDBRANCH   1   7
BRANCH   6   9
ATOM      9  C   UNL     1      14.349  -5.259  10.186  1.00  0.00     0.071 C 
ATOM     10  O   UNL     1      13.242  -4.724  10.462  1.00  0.00    -0.545 OA
ATOM     11  O   UNL     1      14.489  -5.934   8.978  1.00  0.00    -0.545 OA
ENDBRANCH   6   9
TORSDOF 2
ENDMDL
MODEL 8
REMARK VINA RESULT:    -4.898      2.107      4.274
REMARK INTER + INTRA:          -5.355
REMARK INTER:                  -5.319
REMARK INTRA:                  -0.036
REMARK UNBOUND:                -0.027
REMARK SMILES O=C([O-])c1ccc(O)cc1
REMARK SMILES IDX 7 1 6 2 9 3 5 4 10 5 4 6 8 7 2 9 1 10 3 11
REMARK H PARENT 8 8
REMARK Flexibility Score: inf
ROOT
ATOM      1  C   UNL     1      14.135  -3.751  15.268  1.00  0.00     0.115 A 
ATOM      2  C   UNL     1      15.398  -3.932  14.695  1.00  0.00     0.047 A 
ATOM      3  C   UNL     1      14.031  -3.327  16.598  1.00  0.00     0.047 A 
ATOM      4  C   UNL     1      16.553  -3.691  15.446  1.00  0.00     0.014 A 
ATOM      5  C   UNL     1      15.184  -3.085  17.352  1.00  0.00     0.014 A 
ATOM      6  C   UNL     1      16.458  -3.266  16.783  1.00  0.00    -0.003 A 
ENDROOT
BRANCH   1   7
ATOM      7  O   UNL     1      12.994  -3.995  14.508  1.00  0.00    -0.508 OA
ATOM      8  H   UNL     1      12.997  -3.893  13.500  1.00  0.00     0.293 HD
ENDBRANCH   1   7
BRANCH   6   9
ATOM      9  C   UNL     1      17.682  -3.011  17.575  1.00  0.00     0.071 C 
ATOM     10  O   UNL     1      18.810  -2.973  17.016  1.00  0.00    -0.545 OA
ATOM     11  O   UNL     1      17.603  -2.810  18.948  1.00  0.00    -0.545 OA
ENDBRANCH   6   9
TORSDOF 2
ENDMDL
MODEL 9
REMARK VINA RESULT:    -4.871      2.504      4.363
REMARK INTER + INTRA:          -5.325
REMARK INTER:                  -5.296
REMARK INTRA:                  -0.029
REMARK UNBOUND:                -0.027
REMARK SMILES O=C([O-])c1ccc(O)cc1
REMARK SMILES IDX 7 1 6 2 9 3 5 4 10 5 4 6 8 7 2 9 1 10 3 11
REMARK H PARENT 8 8
REMARK Flexibility Score: inf
ROOT
ATOM      1  C   UNL     1      15.340  -7.656  15.044  1.00  0.00     0.115 A 
ATOM      2  C   UNL     1      14.955  -6.614  15.893  1.00  0.00     0.047 A 
ATOM      3  C   UNL     1      15.858  -7.363  13.777  1.00  0.00     0.047 A 
ATOM      4  C   UNL     1      15.085  -5.285  15.481  1.00  0.00     0.014 A 
ATOM      5  C   UNL     1      15.991  -6.035  13.361  1.00  0.00     0.014 A 
ATOM      6  C   UNL     1      15.605  -4.981  14.210  1.00  0.00    -0.003 A 
ENDROOT
BRANCH   1   7
ATOM      7  O   UNL     1      15.203  -8.976  15.469  1.00  0.00    -0.508 OA
ATOM      8  H   UNL     1      14.501  -9.243  16.148  1.00  0.00     0.293 HD
ENDBRANCH   1   7
BRANCH   6   9
ATOM      9  C   UNL     1      15.743  -3.573  13.776  1.00  0.00     0.071 C 
ATOM     10  O   UNL     1      14.737  -2.815  13.730  1.00  0.00    -0.545 OA
ATOM     11  O   UNL     1      16.985  -3.066  13.412  1.00  0.00    -0.545 OA
ENDBRANCH   6   9
TORSDOF 2
ENDMDL
