MODEL 1
REMARK VINA RESULT:    -6.923      0.000      0.000
REMARK INTER + INTRA:          -9.476
REMARK INTER:                  -8.745
REMARK INTRA:                  -0.731
REMARK UNBOUND:                -0.731
REMARK SMILES O=C(C=Cc1ccc(O)cc1)c1ccc(O)cc1O
REMARK SMILES IDX 4 1 3 2 5 3 6 4 7 5 8 6 11 7 10 8 9 9 2 11 1 12 12 13 18 14
REMARK SMILES IDX 13 15 17 16 14 17 15 18 19 19 16 21
REMARK H PARENT 9 10 19 20 16 22
REMARK Flexibility Score: inf
ROOT
ATOM      1  C   UNL     1      20.082  24.787  39.769  1.00  0.00     0.012 C 
ATOM      2  C   UNL     1      19.403  25.884  39.404  1.00  0.00     0.053 C 
ENDROOT
BRANCH   1   3
ATOM      3  C   UNL     1      20.123  23.535  38.974  1.00  0.00    -0.025 A 
ATOM      4  C   UNL     1      19.607  23.448  37.664  1.00  0.00     0.012 A 
ATOM      5  C   UNL     1      19.662  22.241  36.962  1.00  0.00     0.047 A 
ATOM      6  C   UNL     1      20.218  21.105  37.553  1.00  0.00     0.115 A 
ATOM      7  C   UNL     1      20.667  22.383  39.565  1.00  0.00     0.012 A 
ATOM      8  C   UNL     1      20.720  21.177  38.858  1.00  0.00     0.047 A 
BRANCH   6   9
ATOM      9  O   UNL     1      20.265  19.909  36.839  1.00  0.00    -0.508 OA
ATOM     10  H   UNL     1      21.101  19.621  36.343  1.00  0.00     0.293 HD
ENDBRANCH   6   9
ENDBRANCH   1   3
BRANCH   2  11
ATOM     11  C   UNL     1      19.377  27.119  40.218  1.00  0.00     0.189 C 
ATOM     12  O   UNL     1      19.752  28.194  39.677  1.00  0.00    -0.289 OA
BRANCH  11  13
ATOM     13  C   UNL     1      18.959  27.139  41.641  1.00  0.00     0.064 A 
ATOM     14  C   UNL     1      19.906  27.327  42.668  1.00  0.00     0.130 A 
ATOM     15  C   UNL     1      17.612  26.922  41.982  1.00  0.00     0.020 A 
ATOM     16  C   UNL     1      19.497  27.315  44.009  1.00  0.00     0.093 A 
ATOM     17  C   UNL     1      17.212  26.915  43.321  1.00  0.00     0.047 A 
ATOM     18  C   UNL     1      18.150  27.111  44.336  1.00  0.00     0.119 A 
BRANCH  14  19
ATOM     19  O   UNL     1      21.249  27.540  42.354  1.00  0.00    -0.507 OA
ATOM     20  H   UNL     1      21.951  26.823  42.504  1.00  0.00     0.293 HD
ENDBRANCH  14  19
BRANCH  18  21
ATOM     21  O   UNL     1      17.736  27.100  45.667  1.00  0.00    -0.508 OA
ATOM     22  H   UNL     1      16.755  27.043  45.915  1.00  0.00     0.293 HD
ENDBRANCH  18  21
ENDBRANCH  11  13
ENDBRANCH   2  11
TORSDOF 6
ENDMDL
MODEL 2
REMARK VINA RESULT:    -6.432      4.773      7.992
REMARK INTER + INTRA:          -8.855
REMARK INTER:                  -8.226
REMARK INTRA:                  -0.629
REMARK UNBOUND:                -0.731
REMARK SMILES O=C(C=Cc1ccc(O)cc1)c1ccc(O)cc1O
REMARK SMILES IDX 4 1 3 2 5 3 6 4 7 5 8 6 11 7 10 8 9 9 2 11 1 12 12 13 18 14
REMARK SMILES IDX 13 15 17 16 14 17 15 18 19 19 16 21
REMARK H PARENT 9 10 19 20 16 22
REMARK Flexibility Score: inf
ROOT
ATOM      1  C   UNL     1      16.665  25.622  43.425  1.00  0.00     0.012 C 
ATOM      2  C   UNL     1      17.073  24.548  42.735  1.00  0.00     0.053 C 
ENDROOT
BRANCH   1   3
ATOM      3  C   UNL     1      17.581  26.654  43.969  1.00  0.00    -0.025 A 
ATOM      4  C   UNL     1      18.946  26.721  43.620  1.00  0.00     0.012 A 
ATOM      5  C   UNL     1      19.768  27.709  44.169  1.00  0.00     0.047 A 
ATOM      6  C   UNL     1      19.250  28.635  45.077  1.00  0.00     0.115 A 
ATOM      7  C   UNL     1      17.073  27.581  44.895  1.00  0.00     0.012 A 
ATOM      8  C   UNL     1      17.900  28.567  45.442  1.00  0.00     0.047 A 
BRANCH   6   9
ATOM      9  O   UNL     1      20.083  29.614  45.615  1.00  0.00    -0.508 OA
ATOM     10  H   UNL     1      21.065  29.667  45.370  1.00  0.00     0.293 HD
ENDBRANCH   6   9
ENDBRANCH   1   3
BRANCH   2  11
ATOM     11  C   UNL     1      16.138  23.531  42.206  1.00  0.00     0.189 C 
ATOM     12  O   UNL     1      15.433  23.836  41.207  1.00  0.00    -0.289 OA
BRANCH  11  13
ATOM     13  C   UNL     1      15.976  22.189  42.816  1.00  0.00     0.064 A 
ATOM     14  C   UNL     1      14.693  21.649  43.041  1.00  0.00     0.130 A 
ATOM     15  C   UNL     1      17.107  21.458  43.220  1.00  0.00     0.020 A 
ATOM     16  C   UNL     1      14.558  20.391  43.645  1.00  0.00     0.093 A 
ATOM     17  C   UNL     1      16.964  20.203  43.818  1.00  0.00     0.047 A 
ATOM     18  C   UNL     1      15.693  19.666  44.032  1.00  0.00     0.119 A 
BRANCH  14  19
ATOM     19  O   UNL     1      13.555  22.357  42.652  1.00  0.00    -0.507 OA
ATOM     20  H   UNL     1      13.068  22.974  43.292  1.00  0.00     0.293 HD
ENDBRANCH  14  19
BRANCH  18  21
ATOM     21  O   UNL     1      15.567  18.414  44.630  1.00  0.00    -0.508 OA
ATOM     22  H   UNL     1      16.312  17.729  44.586  1.00  0.00     0.293 HD
ENDBRANCH  18  21
ENDBRANCH  11  13
ENDBRANCH   2  11
TORSDOF 6
ENDMDL
MODEL 3
REMARK VINA RESULT:    -6.245      1.560      7.341
REMARK INTER + INTRA:          -8.618
REMARK INTER:                  -7.965
REMARK INTRA:                  -0.653
REMARK UNBOUND:                -0.731
REMARK SMILES O=C(C=Cc1ccc(O)cc1)c1ccc(O)cc1O
REMARK SMILES IDX 4 1 3 2 5 3 6 4 7 5 8 6 11 7 10 8 9 9 2 11 1 12 12 13 18 14
REMARK SMILES IDX 13 15 17 16 14 17 15 18 19 19 16 21
REMARK H PARENT 9 10 19 20 16 22
REMARK Flexibility Score: inf
ROOT
ATOM      1  C   UNL     1      18.872  26.359  42.086  1.00  0.00     0.012 C 
ATOM      2  C   UNL     1      18.473  25.844  40.914  1.00  0.00     0.053 C 
ENDROOT
BRANCH   1   3
ATOM      3  C   UNL     1      18.006  26.451  43.288  1.00  0.00    -0.025 A 
ATOM      4  C   UNL     1      16.899  25.603  43.496  1.00  0.00     0.012 A 
ATOM      5  C   UNL     1      16.110  25.738  44.642  1.00  0.00     0.047 A 
ATOM      6  C   UNL     1      16.403  26.722  45.588  1.00  0.00     0.115 A 
ATOM      7  C   UNL     1      18.284  27.448  44.239  1.00  0.00     0.012 A 
ATOM      8  C   UNL     1      17.491  27.579  45.384  1.00  0.00     0.047 A 
BRANCH   6   9
ATOM      9  O   UNL     1      15.607  26.843  46.725  1.00  0.00    -0.508 OA
ATOM     10  H   UNL     1      15.153  26.039  47.142  1.00  0.00     0.293 HD
ENDBRANCH   6   9
ENDBRANCH   1   3
BRANCH   2  11
ATOM     11  C   UNL     1      19.356  25.767  39.730  1.00  0.00     0.189 C 
ATOM     12  O   UNL     1      19.812  26.843  39.260  1.00  0.00    -0.289 OA
BRANCH  11  13
ATOM     13  C   UNL     1      19.701  24.488  39.062  1.00  0.00     0.064 A 
ATOM     14  C   UNL     1      19.430  24.295  37.693  1.00  0.00     0.130 A 
ATOM     15  C   UNL     1      20.263  23.435  39.806  1.00  0.00     0.020 A 
ATOM     16  C   UNL     1      19.737  23.069  37.084  1.00  0.00     0.093 A 
ATOM     17  C   UNL     1      20.569  22.218  39.191  1.00  0.00     0.047 A 
ATOM     18  C   UNL     1      20.308  22.031  37.831  1.00  0.00     0.119 A 
BRANCH  14  19
ATOM     19  O   UNL     1      18.869  25.324  36.935  1.00  0.00    -0.507 OA
ATOM     20  H   UNL     1      17.909  25.621  37.070  1.00  0.00     0.293 HD
ENDBRANCH  14  19
BRANCH  18  21
ATOM     21  O   UNL     1      20.618  20.811  37.233  1.00  0.00    -0.508 OA
ATOM     22  H   UNL     1      19.897  20.140  36.994  1.00  0.00     0.293 HD
ENDBRANCH  18  21
ENDBRANCH  11  13
ENDBRANCH   2  11
TORSDOF 6
ENDMDL
MODEL 4
REMARK VINA RESULT:    -6.203      5.016      8.617
REMARK INTER + INTRA:          -8.566
REMARK INTER:                  -7.880
REMARK INTRA:                  -0.686
REMARK UNBOUND:                -0.731
REMARK SMILES O=C(C=Cc1ccc(O)cc1)c1ccc(O)cc1O
REMARK SMILES IDX 4 1 3 2 5 3 6 4 7 5 8 6 11 7 10 8 9 9 2 11 1 12 12 13 18 14
REMARK SMILES IDX 13 15 17 16 14 17 15 18 19 19 16 21
REMARK H PARENT 9 10 19 20 16 22
REMARK Flexibility Score: inf
ROOT
ATOM      1  C   UNL     1      15.973  24.654  44.548  1.00  0.00     0.012 C 
ATOM      2  C   UNL     1      15.407  24.377  43.364  1.00  0.00     0.053 C 
ENDROOT
BRANCH   1   3
ATOM      3  C   UNL     1      16.567  25.969  44.895  1.00  0.00    -0.025 A 
ATOM      4  C   UNL     1      16.175  26.705  46.032  1.00  0.00     0.012 A 
ATOM      5  C   UNL     1      16.760  27.944  46.307  1.00  0.00     0.047 A 
ATOM      6  C   UNL     1      17.733  28.471  45.454  1.00  0.00     0.115 A 
ATOM      7  C   UNL     1      17.535  26.514  44.035  1.00  0.00     0.012 A 
ATOM      8  C   UNL     1      18.118  27.754  44.315  1.00  0.00     0.047 A 
BRANCH   6   9
ATOM      9  O   UNL     1      18.307  29.707  45.743  1.00  0.00    -0.508 OA
ATOM     10  H   UNL     1      18.836  30.221  45.048  1.00  0.00     0.293 HD
ENDBRANCH   6   9
ENDBRANCH   1   3
BRANCH   2  11
ATOM     11  C   UNL     1      14.825  23.056  43.043  1.00  0.00     0.189 C 
ATOM     12  O   UNL     1      13.728  23.026  42.424  1.00  0.00    -0.289 OA
BRANCH  11  13
ATOM     13  C   UNL     1      15.460  21.776  43.442  1.00  0.00     0.064 A 
ATOM     14  C   UNL     1      14.728  20.797  44.144  1.00  0.00     0.130 A 
ATOM     15  C   UNL     1      16.819  21.546  43.161  1.00  0.00     0.020 A 
ATOM     16  C   UNL     1      15.353  19.604  44.538  1.00  0.00     0.093 A 
ATOM     17  C   UNL     1      17.432  20.354  43.555  1.00  0.00     0.047 A 
ATOM     18  C   UNL     1      16.703  19.381  44.242  1.00  0.00     0.119 A 
BRANCH  14  19
ATOM     19  O   UNL     1      13.379  21.003  44.437  1.00  0.00    -0.507 OA
ATOM     20  H   UNL     1      12.742  21.402  43.757  1.00  0.00     0.293 HD
ENDBRANCH  14  19
BRANCH  18  21
ATOM     21  O   UNL     1      17.330  18.198  44.628  1.00  0.00    -0.508 OA
ATOM     22  H   UNL     1      18.215  18.204  45.123  1.00  0.00     0.293 HD
ENDBRANCH  18  21
ENDBRANCH  11  13
ENDBRANCH   2  11
TORSDOF 6
ENDMDL
MODEL 5
REMARK VINA RESULT:    -6.197      4.946      5.598
REMARK INTER + INTRA:          -8.559
REMARK INTER:                  -7.899
REMARK INTRA:                  -0.660
REMARK UNBOUND:                -0.731
REMARK SMILES O=C(C=Cc1ccc(O)cc1)c1ccc(O)cc1O
REMARK SMILES IDX 4 1 3 2 5 3 6 4 7 5 8 6 11 7 10 8 9 9 2 11 1 12 12 13 18 14
REMARK SMILES IDX 13 15 17 16 14 17 15 18 19 19 16 21
REMARK H PARENT 9 10 19 20 16 22
REMARK Flexibility Score: inf
ROOT
ATOM      1  C   UNL     1      16.758  22.381  42.723  1.00  0.00     0.012 C 
ATOM      2  C   UNL     1      16.053  23.521  42.660  1.00  0.00     0.053 C 
ENDROOT
BRANCH   1   3
ATOM      3  C   UNL     1      16.282  21.149  43.399  1.00  0.00    -0.025 A 
ATOM      4  C   UNL     1      14.929  20.942  43.740  1.00  0.00     0.012 A 
ATOM      5  C   UNL     1      14.535  19.766  44.385  1.00  0.00     0.047 A 
ATOM      6  C   UNL     1      15.478  18.788  44.708  1.00  0.00     0.115 A 
ATOM      7  C   UNL     1      17.225  20.166  43.741  1.00  0.00     0.012 A 
ATOM      8  C   UNL     1      16.826  18.991  44.386  1.00  0.00     0.047 A 
BRANCH   6   9
ATOM      9  O   UNL     1      15.069  17.622  45.350  1.00  0.00    -0.508 OA
ATOM     10  H   UNL     1      14.302  17.062  44.995  1.00  0.00     0.293 HD
ENDBRANCH   6   9
ENDBRANCH   1   3
BRANCH   2  11
ATOM     11  C   UNL     1      16.553  24.737  41.982  1.00  0.00     0.189 C 
ATOM     12  O   UNL     1      16.193  24.943  40.793  1.00  0.00    -0.289 OA
BRANCH  11  13
ATOM     13  C   UNL     1      17.477  25.700  42.630  1.00  0.00     0.064 A 
ATOM     14  C   UNL     1      18.577  26.228  41.925  1.00  0.00     0.130 A 
ATOM     15  C   UNL     1      17.287  26.061  43.976  1.00  0.00     0.020 A 
ATOM     16  C   UNL     1      19.456  27.116  42.563  1.00  0.00     0.093 A 
ATOM     17  C   UNL     1      18.165  26.949  44.603  1.00  0.00     0.047 A 
ATOM     18  C   UNL     1      19.250  27.478  43.900  1.00  0.00     0.119 A 
BRANCH  14  19
ATOM     19  O   UNL     1      18.789  25.882  40.590  1.00  0.00    -0.507 OA
ATOM     20  H   UNL     1      18.115  25.330  40.071  1.00  0.00     0.293 HD
ENDBRANCH  14  19
BRANCH  18  21
ATOM     21  O   UNL     1      20.118  28.362  44.540  1.00  0.00    -0.508 OA
ATOM     22  H   UNL     1      21.102  28.149  44.651  1.00  0.00     0.293 HD
ENDBRANCH  18  21
ENDBRANCH  11  13
ENDBRANCH   2  11
TORSDOF 6
ENDMDL
MODEL 6
REMARK VINA RESULT:    -6.191      4.990      5.726
REMARK INTER + INTRA:          -8.550
REMARK INTER:                  -7.892
REMARK INTRA:                  -0.658
REMARK UNBOUND:                -0.731
REMARK SMILES O=C(C=Cc1ccc(O)cc1)c1ccc(O)cc1O
REMARK SMILES IDX 4 1 3 2 5 3 6 4 7 5 8 6 11 7 10 8 9 9 2 11 1 12 12 13 18 14
REMARK SMILES IDX 13 15 17 16 14 17 15 18 19 19 16 21
REMARK H PARENT 9 10 19 20 16 22
REMARK Flexibility Score: inf
ROOT
ATOM      1  C   UNL     1      16.821  22.299  42.800  1.00  0.00     0.012 C 
ATOM      2  C   UNL     1      16.163  23.467  42.784  1.00  0.00     0.053 C 
ENDROOT
BRANCH   1   3
ATOM      3  C   UNL     1      16.331  21.082  43.493  1.00  0.00    -0.025 A 
ATOM      4  C   UNL     1      17.172  19.995  43.810  1.00  0.00     0.012 A 
ATOM      5  C   UNL     1      16.656  18.868  44.456  1.00  0.00     0.047 A 
ATOM      6  C   UNL     1      15.301  18.800  44.785  1.00  0.00     0.115 A 
ATOM      7  C   UNL     1      14.966  20.998  43.815  1.00  0.00     0.012 A 
ATOM      8  C   UNL     1      14.455  19.868  44.461  1.00  0.00     0.047 A 
BRANCH   6   9
ATOM      9  O   UNL     1      14.803  17.670  45.429  1.00  0.00    -0.508 OA
ATOM     10  H   UNL     1      15.364  16.832  45.537  1.00  0.00     0.293 HD
ENDBRANCH   6   9
ENDBRANCH   1   3
BRANCH   2  11
ATOM     11  C   UNL     1      16.676  24.667  42.088  1.00  0.00     0.189 C 
ATOM     12  O   UNL     1      16.350  24.838  40.883  1.00  0.00    -0.289 OA
BRANCH  11  13
ATOM     13  C   UNL     1      17.574  25.654  42.736  1.00  0.00     0.064 A 
ATOM     14  C   UNL     1      18.663  26.208  42.033  1.00  0.00     0.130 A 
ATOM     15  C   UNL     1      17.372  26.013  44.081  1.00  0.00     0.020 A 
ATOM     16  C   UNL     1      19.519  27.118  42.671  1.00  0.00     0.093 A 
ATOM     17  C   UNL     1      18.227  26.923  44.708  1.00  0.00     0.047 A 
ATOM     18  C   UNL     1      19.301  27.478  44.007  1.00  0.00     0.119 A 
BRANCH  14  19
ATOM     19  O   UNL     1      18.886  25.864  40.699  1.00  0.00    -0.507 OA
ATOM     20  H   UNL     1      18.158  25.449  40.128  1.00  0.00     0.293 HD
ENDBRANCH  14  19
BRANCH  18  21
ATOM     21  O   UNL     1      20.145  28.383  44.646  1.00  0.00    -0.508 OA
ATOM     22  H   UNL     1      21.041  28.096  45.024  1.00  0.00     0.293 HD
ENDBRANCH  18  21
ENDBRANCH  11  13
ENDBRANCH   2  11
TORSDOF 6
ENDMDL
MODEL 7
REMARK VINA RESULT:    -6.162      2.240      7.597
REMARK INTER + INTRA:          -8.513
REMARK INTER:                  -7.869
REMARK INTRA:                  -0.644
REMARK UNBOUND:                -0.731
REMARK SMILES O=C(C=Cc1ccc(O)cc1)c1ccc(O)cc1O
REMARK SMILES IDX 4 1 3 2 5 3 6 4 7 5 8 6 11 7 10 8 9 9 2 11 1 12 12 13 18 14
REMARK SMILES IDX 13 15 17 16 14 17 15 18 19 19 16 21
REMARK H PARENT 9 10 19 20 16 22
REMARK Flexibility Score: inf
ROOT
ATOM      1  C   UNL     1      17.792  25.671  42.244  1.00  0.00     0.012 C 
ATOM      2  C   UNL     1      17.924  25.749  40.911  1.00  0.00     0.053 C 
ENDROOT
BRANCH   1   3
ATOM      3  C   UNL     1      18.290  26.704  43.186  1.00  0.00    -0.025 A 
ATOM      4  C   UNL     1      17.466  27.309  44.158  1.00  0.00     0.012 A 
ATOM      5  C   UNL     1      17.984  28.284  45.015  1.00  0.00     0.047 A 
ATOM      6  C   UNL     1      19.320  28.677  44.913  1.00  0.00     0.115 A 
ATOM      7  C   UNL     1      19.629  27.116  43.082  1.00  0.00     0.012 A 
ATOM      8  C   UNL     1      20.142  28.092  43.942  1.00  0.00     0.047 A 
BRANCH   6   9
ATOM      9  O   UNL     1      19.820  29.649  45.776  1.00  0.00    -0.508 OA
ATOM     10  H   UNL     1      19.557  29.676  46.754  1.00  0.00     0.293 HD
ENDBRANCH   6   9
ENDBRANCH   1   3
BRANCH   2  11
ATOM     11  C   UNL     1      17.420  24.703  39.994  1.00  0.00     0.189 C 
ATOM     12  O   UNL     1      16.177  24.510  39.940  1.00  0.00    -0.289 OA
BRANCH  11  13
ATOM     13  C   UNL     1      18.315  23.860  39.164  1.00  0.00     0.064 A 
ATOM     14  C   UNL     1      17.931  23.462  37.867  1.00  0.00     0.130 A 
ATOM     15  C   UNL     1      19.541  23.409  39.684  1.00  0.00     0.020 A 
ATOM     16  C   UNL     1      18.777  22.641  37.107  1.00  0.00     0.093 A 
ATOM     17  C   UNL     1      20.380  22.595  38.919  1.00  0.00     0.047 A 
ATOM     18  C   UNL     1      20.002  22.209  37.631  1.00  0.00     0.119 A 
BRANCH  14  19
ATOM     19  O   UNL     1      16.717  23.893  37.331  1.00  0.00    -0.507 OA
ATOM     20  H   UNL     1      16.404  23.592  36.414  1.00  0.00     0.293 HD
ENDBRANCH  14  19
BRANCH  18  21
ATOM     21  O   UNL     1      20.849  21.395  36.881  1.00  0.00    -0.508 OA
ATOM     22  H   UNL     1      20.590  20.447  36.635  1.00  0.00     0.293 HD
ENDBRANCH  18  21
ENDBRANCH  11  13
ENDBRANCH   2  11
TORSDOF 6
ENDMDL
MODEL 8
REMARK VINA RESULT:    -4.668     12.142     13.761
REMARK INTER + INTRA:          -6.626
REMARK INTER:                  -5.894
REMARK INTRA:                  -0.732
REMARK UNBOUND:                -0.731
REMARK SMILES O=C(C=Cc1ccc(O)cc1)c1ccc(O)cc1O
REMARK SMILES IDX 4 1 3 2 5 3 6 4 7 5 8 6 11 7 10 8 9 9 2 11 1 12 12 13 18 14
REMARK SMILES IDX 13 15 17 16 14 17 15 18 19 19 16 21
REMARK H PARENT 9 10 19 20 16 22
REMARK Flexibility Score: inf
ROOT
ATOM      1  C   UNL     1      29.199  23.752  48.609  1.00  0.00     0.012 C 
ATOM      2  C   UNL     1      29.931  22.642  48.791  1.00  0.00     0.053 C 
ENDROOT
BRANCH   1   3
ATOM      3  C   UNL     1      28.557  24.118  47.322  1.00  0.00    -0.025 A 
ATOM      4  C   UNL     1      27.239  23.738  46.994  1.00  0.00     0.012 A 
ATOM      5  C   UNL     1      26.685  24.101  45.763  1.00  0.00     0.047 A 
ATOM      6  C   UNL     1      27.434  24.836  44.841  1.00  0.00     0.115 A 
ATOM      7  C   UNL     1      29.307  24.845  46.382  1.00  0.00     0.012 A 
ATOM      8  C   UNL     1      28.748  25.206  45.152  1.00  0.00     0.047 A 
BRANCH   6   9
ATOM      9  O   UNL     1      26.866  25.191  43.619  1.00  0.00    -0.508 OA
ATOM     10  H   UNL     1      27.070  24.674  42.771  1.00  0.00     0.293 HD
ENDBRANCH   6   9
ENDBRANCH   1   3
BRANCH   2  11
ATOM     11  C   UNL     1      30.563  22.303  50.085  1.00  0.00     0.189 C 
ATOM     12  O   UNL     1      31.705  21.770  50.065  1.00  0.00    -0.289 OA
BRANCH  11  13
ATOM     13  C   UNL     1      29.902  22.536  51.392  1.00  0.00     0.064 A 
ATOM     14  C   UNL     1      30.393  23.509  52.285  1.00  0.00     0.130 A 
ATOM     15  C   UNL     1      28.799  21.750  51.773  1.00  0.00     0.020 A 
ATOM     16  C   UNL     1      29.772  23.696  53.528  1.00  0.00     0.093 A 
ATOM     17  C   UNL     1      28.184  21.945  53.013  1.00  0.00     0.047 A 
ATOM     18  C   UNL     1      28.667  22.916  53.892  1.00  0.00     0.119 A 
BRANCH  14  19
ATOM     19  O   UNL     1      31.488  24.299  51.931  1.00  0.00    -0.507 OA
ATOM     20  H   UNL     1      32.220  23.951  51.321  1.00  0.00     0.293 HD
ENDBRANCH  14  19
BRANCH  18  21
ATOM     21  O   UNL     1      28.043  23.098  55.125  1.00  0.00    -0.508 OA
ATOM     22  H   UNL     1      28.532  22.924  55.996  1.00  0.00     0.293 HD
ENDBRANCH  18  21
ENDBRANCH  11  13
ENDBRANCH   2  11
TORSDOF 6
ENDMDL
