MODEL 1
REMARK VINA RESULT:    -6.925      0.000      0.000
REMARK INTER + INTRA:          -8.674
REMARK INTER:                  -8.342
REMARK INTRA:                  -0.332
REMARK UNBOUND:                -0.332
REMARK SMILES Oc1cc(O)c2c(c1)O[C@H](c1ccc(O)c(O)c1)[C@H](O)C2
REMARK SMILES IDX 21 1 19 2 10 3 9 4 7 5 8 6 2 7 3 8 4 9 6 10 20 11 11 13
REMARK SMILES IDX 18 14 12 15 16 16 13 17 14 18 17 19 15 21 5 23 1 25
REMARK H PARENT 20 12 17 20 15 22 5 24 1 26
REMARK Flexibility Score: inf
ROOT
ATOM      1  C   UNL     1      27.888  11.254 -31.855  1.00  0.00     0.079 C 
ATOM      2  C   UNL     1      26.614  10.387 -31.839  1.00  0.00     0.164 C 
ATOM      3  C   UNL     1      27.005   8.900 -31.856  1.00  0.00     0.232 C 
ATOM      4  O   UNL     1      27.810   8.622 -33.002  1.00  0.00    -0.482 OA
ATOM      5  C   UNL     1      28.788   9.514 -33.455  1.00  0.00     0.131 A 
ATOM      6  C   UNL     1      29.669   9.104 -34.458  1.00  0.00     0.093 A 
ATOM      7  C   UNL     1      30.667   9.969 -34.919  1.00  0.00     0.122 A 
ATOM      8  C   UNL     1      30.786  11.247 -34.367  1.00  0.00     0.092 A 
ATOM      9  C   UNL     1      29.912  11.676 -33.361  1.00  0.00     0.126 A 
ATOM     10  C   UNL     1      28.874  10.820 -32.922  1.00  0.00     0.039 A 
ENDROOT
BRANCH   2  11
ATOM     11  O   UNL     1      25.820  10.685 -32.961  1.00  0.00    -0.389 OA
ATOM     12  H   UNL     1      25.941   9.938 -33.604  1.00  0.00     0.211 HD
ENDBRANCH   2  11
BRANCH   3  13
ATOM     13  C   UNL     1      25.787   8.006 -31.833  1.00  0.00    -0.001 A 
ATOM     14  C   UNL     1      25.341   7.360 -33.001  1.00  0.00     0.057 A 
ATOM     15  C   UNL     1      25.046   7.862 -30.649  1.00  0.00     0.012 A 
ATOM     16  C   UNL     1      24.191   6.563 -32.981  1.00  0.00     0.157 A 
ATOM     17  C   UNL     1      23.898   7.066 -30.625  1.00  0.00     0.050 A 
ATOM     18  C   UNL     1      23.467   6.411 -31.787  1.00  0.00     0.157 A 
BRANCH  16  19
ATOM     19  O   UNL     1      23.784   5.931 -34.155  1.00  0.00    -0.504 OA
ATOM     20  H   UNL     1      23.561   4.944 -34.186  1.00  0.00     0.293 HD
ENDBRANCH  16  19
BRANCH  18  21
ATOM     21  O   UNL     1      22.322   5.617 -31.759  1.00  0.00    -0.504 OA
ATOM     22  H   UNL     1      21.837   5.414 -30.892  1.00  0.00     0.293 HD
ENDBRANCH  18  21
ENDBRANCH   3  13
BRANCH   9  23
ATOM     23  O   UNL     1      30.111  12.946 -32.817  1.00  0.00    -0.507 OA
ATOM     24  H   UNL     1      29.359  13.529 -32.473  1.00  0.00     0.293 HD
ENDBRANCH   9  23
BRANCH   7  25
ATOM     25  O   UNL     1      31.548   9.568 -35.921  1.00  0.00    -0.508 OA
ATOM     26  H   UNL     1      31.221   9.101 -36.758  1.00  0.00     0.293 HD
ENDBRANCH   7  25
TORSDOF 6
ENDMDL
MODEL 2
REMARK VINA RESULT:    -6.149     13.431     14.908
REMARK INTER + INTRA:          -7.740
REMARK INTER:                  -7.458
REMARK INTRA:                  -0.282
REMARK UNBOUND:                -0.332
REMARK SMILES Oc1cc(O)c2c(c1)O[C@H](c1ccc(O)c(O)c1)[C@H](O)C2
REMARK SMILES IDX 21 1 19 2 10 3 9 4 7 5 8 6 2 7 3 8 4 9 6 10 20 11 11 13
REMARK SMILES IDX 18 14 12 15 16 16 13 17 14 18 17 19 15 21 5 23 1 25
REMARK H PARENT 20 12 17 20 15 22 5 24 1 26
REMARK Flexibility Score: inf
ROOT
ATOM      1  C   UNL     1      34.139   7.285 -20.412  1.00  0.00     0.079 C 
ATOM      2  C   UNL     1      35.178   6.182 -20.690  1.00  0.00     0.164 C 
ATOM      3  C   UNL     1      35.178   5.845 -22.191  1.00  0.00     0.232 C 
ATOM      4  O   UNL     1      33.871   5.443 -22.598  1.00  0.00    -0.482 OA
ATOM      5  C   UNL     1      32.717   6.072 -22.115  1.00  0.00     0.131 A 
ATOM      6  C   UNL     1      31.484   5.765 -22.695  1.00  0.00     0.093 A 
ATOM      7  C   UNL     1      30.317   6.390 -22.242  1.00  0.00     0.122 A 
ATOM      8  C   UNL     1      30.389   7.332 -21.212  1.00  0.00     0.092 A 
ATOM      9  C   UNL     1      31.616   7.651 -20.620  1.00  0.00     0.126 A 
ATOM     10  C   UNL     1      32.793   6.989 -21.044  1.00  0.00     0.039 A 
ENDROOT
BRANCH   2  11
ATOM     11  O   UNL     1      34.867   5.033 -19.942  1.00  0.00    -0.389 OA
ATOM     12  H   UNL     1      33.968   5.182 -19.549  1.00  0.00     0.211 HD
ENDBRANCH   2  11
BRANCH   3  13
ATOM     13  C   UNL     1      36.190   4.770 -22.517  1.00  0.00    -0.001 A 
ATOM     14  C   UNL     1      37.542   5.090 -22.734  1.00  0.00     0.057 A 
ATOM     15  C   UNL     1      35.771   3.438 -22.670  1.00  0.00     0.012 A 
ATOM     16  C   UNL     1      38.466   4.094 -23.072  1.00  0.00     0.157 A 
ATOM     17  C   UNL     1      36.691   2.442 -23.006  1.00  0.00     0.050 A 
ATOM     18  C   UNL     1      38.040   2.762 -23.205  1.00  0.00     0.157 A 
BRANCH  16  19
ATOM     19  O   UNL     1      39.800   4.448 -23.271  1.00  0.00    -0.504 OA
ATOM     20  H   UNL     1      40.073   5.171 -23.925  1.00  0.00     0.293 HD
ENDBRANCH  16  19
BRANCH  18  21
ATOM     21  O   UNL     1      38.955   1.765 -23.539  1.00  0.00    -0.504 OA
ATOM     22  H   UNL     1      39.149   0.992 -22.914  1.00  0.00     0.293 HD
ENDBRANCH  18  21
ENDBRANCH   3  13
BRANCH   9  23
ATOM     23  O   UNL     1      31.630   8.634 -19.627  1.00  0.00    -0.507 OA
ATOM     24  H   UNL     1      30.800   9.118 -19.312  1.00  0.00     0.293 HD
ENDBRANCH   9  23
BRANCH   7  25
ATOM     25  O   UNL     1      29.083   6.088 -22.813  1.00  0.00    -0.508 OA
ATOM     26  H   UNL     1      28.234   6.555 -22.517  1.00  0.00     0.293 HD
ENDBRANCH   7  25
TORSDOF 6
ENDMDL
MODEL 3
REMARK VINA RESULT:    -6.008      1.523      1.903
REMARK INTER + INTRA:          -7.569
REMARK INTER:                  -7.350
REMARK INTRA:                  -0.220
REMARK UNBOUND:                -0.332
REMARK SMILES Oc1cc(O)c2c(c1)O[C@H](c1ccc(O)c(O)c1)[C@H](O)C2
REMARK SMILES IDX 21 1 19 2 10 3 9 4 7 5 8 6 2 7 3 8 4 9 6 10 20 11 11 13
REMARK SMILES IDX 18 14 12 15 16 16 13 17 14 18 17 19 15 21 5 23 1 25
REMARK H PARENT 20 12 17 20 15 22 5 24 1 26
REMARK Flexibility Score: inf
ROOT
ATOM      1  C   UNL     1      27.065  10.941 -32.520  1.00  0.00     0.079 C 
ATOM      2  C   UNL     1      26.233   9.685 -32.197  1.00  0.00     0.164 C 
ATOM      3  C   UNL     1      27.159   8.581 -31.658  1.00  0.00     0.232 C 
ATOM      4  O   UNL     1      28.182   8.297 -32.612  1.00  0.00    -0.482 OA
ATOM      5  C   UNL     1      28.806   9.307 -33.354  1.00  0.00     0.131 A 
ATOM      6  C   UNL     1      29.927   8.990 -34.125  1.00  0.00     0.093 A 
ATOM      7  C   UNL     1      30.579   9.983 -34.864  1.00  0.00     0.122 A 
ATOM      8  C   UNL     1      30.111  11.298 -34.823  1.00  0.00     0.092 A 
ATOM      9  C   UNL     1      28.989  11.634 -34.056  1.00  0.00     0.126 A 
ATOM     10  C   UNL     1      28.300  10.626 -33.342  1.00  0.00     0.039 A 
ENDROOT
BRANCH   2  11
ATOM     11  O   UNL     1      25.578   9.234 -33.357  1.00  0.00    -0.389 OA
ATOM     12  H   UNL     1      24.703   9.702 -33.392  1.00  0.00     0.211 HD
ENDBRANCH   2  11
BRANCH   3  13
ATOM     13  C   UNL     1      26.388   7.327 -31.318  1.00  0.00    -0.001 A 
ATOM     14  C   UNL     1      25.082   7.399 -30.798  1.00  0.00     0.057 A 
ATOM     15  C   UNL     1      26.997   6.070 -31.462  1.00  0.00     0.012 A 
ATOM     16  C   UNL     1      24.388   6.234 -30.452  1.00  0.00     0.157 A 
ATOM     17  C   UNL     1      26.306   4.905 -31.119  1.00  0.00     0.050 A 
ATOM     18  C   UNL     1      25.000   4.980 -30.616  1.00  0.00     0.157 A 
BRANCH  16  19
ATOM     19  O   UNL     1      23.093   6.343 -29.946  1.00  0.00    -0.504 OA
ATOM     20  H   UNL     1      22.641   5.580 -29.456  1.00  0.00     0.293 HD
ENDBRANCH  16  19
BRANCH  18  21
ATOM     21  O   UNL     1      24.313   3.816 -30.275  1.00  0.00    -0.504 OA
ATOM     22  H   UNL     1      23.640   3.799 -29.518  1.00  0.00     0.293 HD
ENDBRANCH  18  21
ENDBRANCH   3  13
BRANCH   9  23
ATOM     23  O   UNL     1      28.598  12.975 -34.018  1.00  0.00    -0.507 OA
ATOM     24  H   UNL     1      27.694  13.299 -34.335  1.00  0.00     0.293 HD
ENDBRANCH   9  23
BRANCH   7  25
ATOM     25  O   UNL     1      31.696   9.674 -35.637  1.00  0.00    -0.508 OA
ATOM     26  H   UNL     1      31.615   9.147 -36.499  1.00  0.00     0.293 HD
ENDBRANCH   7  25
TORSDOF 6
ENDMDL
MODEL 4
REMARK VINA RESULT:    -6.001      2.106      6.968
REMARK INTER + INTRA:          -7.561
REMARK INTER:                  -7.507
REMARK INTRA:                  -0.053
REMARK UNBOUND:                -0.332
REMARK SMILES Oc1cc(O)c2c(c1)O[C@H](c1ccc(O)c(O)c1)[C@H](O)C2
REMARK SMILES IDX 21 1 19 2 10 3 9 4 7 5 8 6 2 7 3 8 4 9 6 10 20 11 11 13
REMARK SMILES IDX 18 14 12 15 16 16 13 17 14 18 17 19 15 21 5 23 1 25
REMARK H PARENT 20 12 17 20 15 22 5 24 1 26
REMARK Flexibility Score: inf
ROOT
ATOM      1  C   UNL     1      24.659   8.171 -31.038  1.00  0.00     0.079 C 
ATOM      2  C   UNL     1      25.883   9.040 -31.389  1.00  0.00     0.164 C 
ATOM      3  C   UNL     1      26.664   8.384 -32.541  1.00  0.00     0.232 C 
ATOM      4  O   UNL     1      27.053   7.061 -32.172  1.00  0.00    -0.482 OA
ATOM      5  C   UNL     1      26.206   6.213 -31.449  1.00  0.00     0.131 A 
ATOM      6  C   UNL     1      26.564   4.872 -31.287  1.00  0.00     0.093 A 
ATOM      7  C   UNL     1      25.729   3.999 -30.583  1.00  0.00     0.122 A 
ATOM      8  C   UNL     1      24.527   4.468 -30.048  1.00  0.00     0.092 A 
ATOM      9  C   UNL     1      24.151   5.808 -30.201  1.00  0.00     0.126 A 
ATOM     10  C   UNL     1      25.014   6.706 -30.873  1.00  0.00     0.039 A 
ENDROOT
BRANCH   2  11
ATOM     11  O   UNL     1      26.714   9.172 -30.263  1.00  0.00    -0.389 OA
ATOM     12  H   UNL     1      26.492  10.045 -29.845  1.00  0.00     0.211 HD
ENDBRANCH   2  11
BRANCH   3  13
ATOM     13  C   UNL     1      27.872   9.204 -32.928  1.00  0.00    -0.001 A 
ATOM     14  C   UNL     1      27.944  10.576 -32.625  1.00  0.00     0.057 A 
ATOM     15  C   UNL     1      28.916   8.611 -33.657  1.00  0.00     0.012 A 
ATOM     16  C   UNL     1      29.051  11.336 -33.019  1.00  0.00     0.157 A 
ATOM     17  C   UNL     1      30.023   9.367 -34.052  1.00  0.00     0.050 A 
ATOM     18  C   UNL     1      30.098  10.730 -33.733  1.00  0.00     0.157 A 
BRANCH  16  19
ATOM     19  O   UNL     1      29.091  12.692 -32.694  1.00  0.00    -0.504 OA
ATOM     20  H   UNL     1      29.700  13.053 -31.970  1.00  0.00     0.293 HD
ENDBRANCH  16  19
BRANCH  18  21
ATOM     21  O   UNL     1      31.204  11.481 -34.127  1.00  0.00    -0.504 OA
ATOM     22  H   UNL     1      32.132  11.076 -34.172  1.00  0.00     0.293 HD
ENDBRANCH  18  21
ENDBRANCH   3  13
BRANCH   9  23
ATOM     23  O   UNL     1      22.917   6.207 -29.684  1.00  0.00    -0.507 OA
ATOM     24  H   UNL     1      22.254   6.770 -30.199  1.00  0.00     0.293 HD
ENDBRANCH   9  23
BRANCH   7  25
ATOM     25  O   UNL     1      26.080   2.661 -30.415  1.00  0.00    -0.508 OA
ATOM     26  H   UNL     1      26.463   2.320 -29.541  1.00  0.00     0.293 HD
ENDBRANCH   7  25
TORSDOF 6
ENDMDL
MODEL 5
REMARK VINA RESULT:    -5.935     13.372     15.158
REMARK INTER + INTRA:          -7.481
REMARK INTER:                  -7.116
REMARK INTRA:                  -0.366
REMARK UNBOUND:                -0.332
REMARK SMILES Oc1cc(O)c2c(c1)O[C@H](c1ccc(O)c(O)c1)[C@H](O)C2
REMARK SMILES IDX 21 1 19 2 10 3 9 4 7 5 8 6 2 7 3 8 4 9 6 10 20 11 11 13
REMARK SMILES IDX 18 14 12 15 16 16 13 17 14 18 17 19 15 21 5 23 1 25
REMARK H PARENT 20 12 17 20 15 22 5 24 1 26
REMARK Flexibility Score: inf
ROOT
ATOM      1  C   UNL     1      33.239   7.792 -22.127  1.00  0.00     0.079 C 
ATOM      2  C   UNL     1      34.730   7.406 -22.185  1.00  0.00     0.164 C 
ATOM      3  C   UNL     1      34.868   5.979 -22.741  1.00  0.00     0.232 C 
ATOM      4  O   UNL     1      34.126   5.068 -21.930  1.00  0.00    -0.482 OA
ATOM      5  C   UNL     1      32.872   5.397 -21.403  1.00  0.00     0.131 A 
ATOM      6  C   UNL     1      32.113   4.401 -20.784  1.00  0.00     0.093 A 
ATOM      7  C   UNL     1      30.850   4.699 -20.262  1.00  0.00     0.122 A 
ATOM      8  C   UNL     1      30.343   5.996 -20.369  1.00  0.00     0.092 A 
ATOM      9  C   UNL     1      31.089   7.007 -20.985  1.00  0.00     0.126 A 
ATOM     10  C   UNL     1      32.386   6.722 -21.476  1.00  0.00     0.039 A 
ENDROOT
BRANCH   2  11
ATOM     11  O   UNL     1      35.291   7.474 -20.897  1.00  0.00    -0.389 OA
ATOM     12  H   UNL     1      34.977   6.671 -20.406  1.00  0.00     0.211 HD
ENDBRANCH   2  11
BRANCH   3  13
ATOM     13  C   UNL     1      36.317   5.555 -22.824  1.00  0.00    -0.001 A 
ATOM     14  C   UNL     1      37.265   6.346 -23.499  1.00  0.00     0.057 A 
ATOM     15  C   UNL     1      36.719   4.326 -22.278  1.00  0.00     0.012 A 
ATOM     16  C   UNL     1      38.596   5.929 -23.604  1.00  0.00     0.157 A 
ATOM     17  C   UNL     1      38.048   3.907 -22.380  1.00  0.00     0.050 A 
ATOM     18  C   UNL     1      38.992   4.705 -23.039  1.00  0.00     0.157 A 
BRANCH  16  19
ATOM     19  O   UNL     1      39.510   6.743 -24.273  1.00  0.00    -0.504 OA
ATOM     20  H   UNL     1      40.428   6.944 -23.896  1.00  0.00     0.293 HD
ENDBRANCH  16  19
BRANCH  18  21
ATOM     21  O   UNL     1      40.318   4.285 -23.137  1.00  0.00    -0.504 OA
ATOM     22  H   UNL     1      40.562   3.302 -23.166  1.00  0.00     0.293 HD
ENDBRANCH  18  21
ENDBRANCH   3  13
BRANCH   9  23
ATOM     23  O   UNL     1      30.509   8.272 -21.103  1.00  0.00    -0.507 OA
ATOM     24  H   UNL     1      29.539   8.419 -21.345  1.00  0.00     0.293 HD
ENDBRANCH   9  23
BRANCH   7  25
ATOM     25  O   UNL     1      30.088   3.712 -19.641  1.00  0.00    -0.508 OA
ATOM     26  H   UNL     1      29.784   2.885 -20.141  1.00  0.00     0.293 HD
ENDBRANCH   7  25
TORSDOF 6
ENDMDL
MODEL 6
REMARK VINA RESULT:    -5.926      2.112      6.841
REMARK INTER + INTRA:          -7.471
REMARK INTER:                  -7.469
REMARK INTRA:                  -0.002
REMARK UNBOUND:                -0.332
REMARK SMILES Oc1cc(O)c2c(c1)O[C@H](c1ccc(O)c(O)c1)[C@H](O)C2
REMARK SMILES IDX 21 1 19 2 10 3 9 4 7 5 8 6 2 7 3 8 4 9 6 10 20 11 11 13
REMARK SMILES IDX 18 14 12 15 16 16 13 17 14 18 17 19 15 21 5 23 1 25
REMARK H PARENT 20 12 17 20 15 22 5 24 1 26
REMARK Flexibility Score: inf
ROOT
ATOM      1  C   UNL     1      24.708   8.185 -31.017  1.00  0.00     0.079 C 
ATOM      2  C   UNL     1      25.918   9.051 -31.414  1.00  0.00     0.164 C 
ATOM      3  C   UNL     1      26.645   8.402 -32.605  1.00  0.00     0.232 C 
ATOM      4  O   UNL     1      27.044   7.075 -32.264  1.00  0.00    -0.482 OA
ATOM      5  C   UNL     1      26.226   6.224 -31.512  1.00  0.00     0.131 A 
ATOM      6  C   UNL     1      26.586   4.881 -31.377  1.00  0.00     0.093 A 
ATOM      7  C   UNL     1      25.779   4.004 -30.644  1.00  0.00     0.122 A 
ATOM      8  C   UNL     1      24.604   4.474 -30.052  1.00  0.00     0.092 A 
ATOM      9  C   UNL     1      24.228   5.816 -30.177  1.00  0.00     0.126 A 
ATOM     10  C   UNL     1      25.063   6.717 -30.880  1.00  0.00     0.039 A 
ENDROOT
BRANCH   2  11
ATOM     11  O   UNL     1      26.799   9.171 -30.325  1.00  0.00    -0.389 OA
ATOM     12  H   UNL     1      27.716   9.033 -30.681  1.00  0.00     0.211 HD
ENDBRANCH   2  11
BRANCH   3  13
ATOM     13  C   UNL     1      27.839   9.221 -33.039  1.00  0.00    -0.001 A 
ATOM     14  C   UNL     1      28.891   8.636 -33.767  1.00  0.00     0.057 A 
ATOM     15  C   UNL     1      27.937  10.570 -32.662  1.00  0.00     0.012 A 
ATOM     16  C   UNL     1      30.010   9.392 -34.134  1.00  0.00     0.157 A 
ATOM     17  C   UNL     1      29.052  11.327 -33.028  1.00  0.00     0.050 A 
ATOM     18  C   UNL     1      30.091  10.746 -33.766  1.00  0.00     0.157 A 
BRANCH  16  19
ATOM     19  O   UNL     1      31.031   8.781 -34.862  1.00  0.00    -0.504 OA
ATOM     20  H   UNL     1      30.875   7.942 -35.407  1.00  0.00     0.293 HD
ENDBRANCH  16  19
BRANCH  18  21
ATOM     21  O   UNL     1      31.202  11.505 -34.131  1.00  0.00    -0.504 OA
ATOM     22  H   UNL     1      31.914  11.761 -33.457  1.00  0.00     0.293 HD
ENDBRANCH  18  21
ENDBRANCH   3  13
BRANCH   9  23
ATOM     23  O   UNL     1      23.019   6.215 -29.602  1.00  0.00    -0.507 OA
ATOM     24  H   UNL     1      22.375   5.574 -29.160  1.00  0.00     0.293 HD
ENDBRANCH   9  23
BRANCH   7  25
ATOM     25  O   UNL     1      26.132   2.664 -30.503  1.00  0.00    -0.508 OA
ATOM     26  H   UNL     1      27.029   2.316 -30.821  1.00  0.00     0.293 HD
ENDBRANCH   7  25
TORSDOF 6
ENDMDL
MODEL 7
REMARK VINA RESULT:    -5.910     13.147     13.696
REMARK INTER + INTRA:          -7.452
REMARK INTER:                  -7.081
REMARK INTRA:                  -0.371
REMARK UNBOUND:                -0.332
REMARK SMILES Oc1cc(O)c2c(c1)O[C@H](c1ccc(O)c(O)c1)[C@H](O)C2
REMARK SMILES IDX 21 1 19 2 10 3 9 4 7 5 8 6 2 7 3 8 4 9 6 10 20 11 11 13
REMARK SMILES IDX 18 14 12 15 16 16 13 17 14 18 17 19 15 21 5 23 1 25
REMARK H PARENT 20 12 17 20 15 22 5 24 1 26
REMARK Flexibility Score: inf
ROOT
ATOM      1  C   UNL     1      35.988   6.979 -20.010  1.00  0.00     0.079 C 
ATOM      2  C   UNL     1      34.529   7.094 -20.493  1.00  0.00     0.164 C 
ATOM      3  C   UNL     1      34.222   5.953 -21.477  1.00  0.00     0.232 C 
ATOM      4  O   UNL     1      35.137   5.996 -22.571  1.00  0.00    -0.482 OA
ATOM      5  C   UNL     1      36.492   6.299 -22.394  1.00  0.00     0.131 A 
ATOM      6  C   UNL     1      37.371   6.137 -23.467  1.00  0.00     0.093 A 
ATOM      7  C   UNL     1      38.733   6.418 -23.314  1.00  0.00     0.122 A 
ATOM      8  C   UNL     1      39.216   6.854 -22.077  1.00  0.00     0.092 A 
ATOM      9  C   UNL     1      38.350   7.023 -20.991  1.00  0.00     0.126 A 
ATOM     10  C   UNL     1      36.965   6.783 -21.153  1.00  0.00     0.039 A 
ENDROOT
BRANCH   2  11
ATOM     11  O   UNL     1      34.332   8.335 -21.124  1.00  0.00    -0.389 OA
ATOM     12  H   UNL     1      35.222   8.770 -21.186  1.00  0.00     0.211 HD
ENDBRANCH   2  11
BRANCH   3  13
ATOM     13  C   UNL     1      32.797   6.018 -21.974  1.00  0.00    -0.001 A 
ATOM     14  C   UNL     1      31.716   6.057 -21.074  1.00  0.00     0.057 A 
ATOM     15  C   UNL     1      32.534   5.976 -23.353  1.00  0.00     0.012 A 
ATOM     16  C   UNL     1      30.398   6.081 -21.542  1.00  0.00     0.157 A 
ATOM     17  C   UNL     1      31.219   6.001 -23.824  1.00  0.00     0.050 A 
ATOM     18  C   UNL     1      30.146   6.056 -22.924  1.00  0.00     0.157 A 
BRANCH  16  19
ATOM     19  O   UNL     1      29.353   6.128 -20.621  1.00  0.00    -0.504 OA
ATOM     20  H   UNL     1      29.487   6.451 -19.671  1.00  0.00     0.293 HD
ENDBRANCH  16  19
BRANCH  18  21
ATOM     21  O   UNL     1      28.835   6.082 -23.398  1.00  0.00    -0.504 OA
ATOM     22  H   UNL     1      28.067   5.709 -22.852  1.00  0.00     0.293 HD
ENDBRANCH  18  21
ENDBRANCH   3  13
BRANCH   9  23
ATOM     23  O   UNL     1      38.900   7.417 -19.769  1.00  0.00    -0.507 OA
ATOM     24  H   UNL     1      39.884   7.603 -19.636  1.00  0.00     0.293 HD
ENDBRANCH   9  23
BRANCH   7  25
ATOM     25  O   UNL     1      39.615   6.261 -24.380  1.00  0.00    -0.508 OA
ATOM     26  H   UNL     1      39.575   6.862 -25.194  1.00  0.00     0.293 HD
ENDBRANCH   7  25
TORSDOF 6
ENDMDL
MODEL 8
REMARK VINA RESULT:    -5.861      1.404      6.863
REMARK INTER + INTRA:          -7.392
REMARK INTER:                  -7.123
REMARK INTRA:                  -0.269
REMARK UNBOUND:                -0.332
REMARK SMILES Oc1cc(O)c2c(c1)O[C@H](c1ccc(O)c(O)c1)[C@H](O)C2
REMARK SMILES IDX 21 1 19 2 10 3 9 4 7 5 8 6 2 7 3 8 4 9 6 10 20 11 11 13
REMARK SMILES IDX 18 14 12 15 16 16 13 17 14 18 17 19 15 21 5 23 1 25
REMARK H PARENT 20 12 17 20 15 22 5 24 1 26
REMARK Flexibility Score: inf
ROOT
ATOM      1  C   UNL     1      24.893   7.726 -30.399  1.00  0.00     0.079 C 
ATOM      2  C   UNL     1      26.218   8.400 -30.807  1.00  0.00     0.164 C 
ATOM      3  C   UNL     1      26.083   8.979 -32.225  1.00  0.00     0.232 C 
ATOM      4  O   UNL     1      25.722   7.945 -33.140  1.00  0.00    -0.482 OA
ATOM      5  C   UNL     1      24.806   6.942 -32.802  1.00  0.00     0.131 A 
ATOM      6  C   UNL     1      24.349   6.076 -33.798  1.00  0.00     0.093 A 
ATOM      7  C   UNL     1      23.422   5.074 -33.492  1.00  0.00     0.122 A 
ATOM      8  C   UNL     1      22.944   4.947 -32.185  1.00  0.00     0.092 A 
ATOM      9  C   UNL     1      23.391   5.806 -31.174  1.00  0.00     0.126 A 
ATOM     10  C   UNL     1      24.362   6.792 -31.469  1.00  0.00     0.039 A 
ENDROOT
BRANCH   2  11
ATOM     11  O   UNL     1      27.263   7.459 -30.772  1.00  0.00    -0.389 OA
ATOM     12  H   UNL     1      27.772   7.628 -29.937  1.00  0.00     0.211 HD
ENDBRANCH   2  11
BRANCH   3  13
ATOM     13  C   UNL     1      27.358   9.659 -32.669  1.00  0.00    -0.001 A 
ATOM     14  C   UNL     1      28.305   8.979 -33.457  1.00  0.00     0.057 A 
ATOM     15  C   UNL     1      27.638  10.968 -32.243  1.00  0.00     0.012 A 
ATOM     16  C   UNL     1      29.499   9.604 -33.833  1.00  0.00     0.157 A 
ATOM     17  C   UNL     1      28.829  11.594 -32.618  1.00  0.00     0.050 A 
ATOM     18  C   UNL     1      29.762  10.919 -33.416  1.00  0.00     0.157 A 
BRANCH  16  19
ATOM     19  O   UNL     1      30.411   8.902 -34.621  1.00  0.00    -0.504 OA
ATOM     20  H   UNL     1      30.137   8.100 -35.176  1.00  0.00     0.293 HD
ENDBRANCH  16  19
BRANCH  18  21
ATOM     21  O   UNL     1      30.949  11.548 -33.790  1.00  0.00    -0.504 OA
ATOM     22  H   UNL     1      31.500  11.218 -34.574  1.00  0.00     0.293 HD
ENDBRANCH  18  21
ENDBRANCH   3  13
BRANCH   9  23
ATOM     23  O   UNL     1      22.841   5.660 -29.898  1.00  0.00    -0.507 OA
ATOM     24  H   UNL     1      22.830   6.399 -29.209  1.00  0.00     0.293 HD
ENDBRANCH   9  23
BRANCH   7  25
ATOM     25  O   UNL     1      22.964   4.205 -34.479  1.00  0.00    -0.508 OA
ATOM     26  H   UNL     1      21.979   4.133 -34.705  1.00  0.00     0.293 HD
ENDBRANCH   7  25
TORSDOF 6
ENDMDL
MODEL 9
REMARK VINA RESULT:    -5.570     14.338     15.160
REMARK INTER + INTRA:          -7.042
REMARK INTER:                  -6.657
REMARK INTRA:                  -0.384
REMARK UNBOUND:                -0.332
REMARK SMILES Oc1cc(O)c2c(c1)O[C@H](c1ccc(O)c(O)c1)[C@H](O)C2
REMARK SMILES IDX 21 1 19 2 10 3 9 4 7 5 8 6 2 7 3 8 4 9 6 10 20 11 11 13
REMARK SMILES IDX 18 14 12 15 16 16 13 17 14 18 17 19 15 21 5 23 1 25
REMARK H PARENT 20 12 17 20 15 22 5 24 1 26
REMARK Flexibility Score: inf
ROOT
ATOM      1  C   UNL     1      37.079   4.790 -22.791  1.00  0.00     0.079 C 
ATOM      2  C   UNL     1      35.607   5.182 -22.559  1.00  0.00     0.164 C 
ATOM      3  C   UNL     1      35.503   6.708 -22.395  1.00  0.00     0.232 C 
ATOM      4  O   UNL     1      36.332   7.137 -21.315  1.00  0.00    -0.482 OA
ATOM      5  C   UNL     1      37.598   6.585 -21.087  1.00  0.00     0.131 A 
ATOM      6  C   UNL     1      38.436   7.178 -20.140  1.00  0.00     0.093 A 
ATOM      7  C   UNL     1      39.713   6.656 -19.903  1.00  0.00     0.122 A 
ATOM      8  C   UNL     1      40.152   5.543 -20.624  1.00  0.00     0.092 A 
ATOM      9  C   UNL     1      39.325   4.936 -21.577  1.00  0.00     0.126 A 
ATOM     10  C   UNL     1      38.017   5.433 -21.789  1.00  0.00     0.039 A 
ENDROOT
BRANCH   2  11
ATOM     11  O   UNL     1      35.118   4.543 -21.407  1.00  0.00    -0.389 OA
ATOM     12  H   UNL     1      35.467   5.050 -20.628  1.00  0.00     0.211 HD
ENDBRANCH   2  11
BRANCH   3  13
ATOM     13  C   UNL     1      34.073   7.145 -22.172  1.00  0.00    -0.001 A 
ATOM     14  C   UNL     1      33.665   7.684 -20.938  1.00  0.00     0.057 A 
ATOM     15  C   UNL     1      33.118   6.957 -23.184  1.00  0.00     0.012 A 
ATOM     16  C   UNL     1      32.331   8.052 -20.727  1.00  0.00     0.157 A 
ATOM     17  C   UNL     1      31.786   7.325 -22.976  1.00  0.00     0.050 A 
ATOM     18  C   UNL     1      31.387   7.876 -21.752  1.00  0.00     0.157 A 
BRANCH  16  19
ATOM     19  O   UNL     1      31.965   8.591 -19.494  1.00  0.00    -0.504 OA
ATOM     20  H   UNL     1      32.651   8.891 -18.813  1.00  0.00     0.293 HD
ENDBRANCH  16  19
BRANCH  18  21
ATOM     21  O   UNL     1      30.057   8.243 -21.549  1.00  0.00    -0.504 OA
ATOM     22  H   UNL     1      29.297   7.766 -22.020  1.00  0.00     0.293 HD
ENDBRANCH  18  21
ENDBRANCH   3  13
BRANCH   9  23
ATOM     23  O   UNL     1      39.838   3.856 -22.298  1.00  0.00    -0.507 OA
ATOM     24  H   UNL     1      39.577   3.650 -23.253  1.00  0.00     0.293 HD
ENDBRANCH   9  23
BRANCH   7  25
ATOM     25  O   UNL     1      40.554   7.240 -18.959  1.00  0.00    -0.508 OA
ATOM     26  H   UNL     1      41.358   6.746 -18.588  1.00  0.00     0.293 HD
ENDBRANCH   7  25
TORSDOF 6
ENDMDL
