MODEL 1
REMARK VINA RESULT:    -5.652      0.000      0.000
REMARK INTER + INTRA:          -9.986
REMARK INTER:                  -9.618
REMARK INTRA:                  -0.368
REMARK UNBOUND:                -0.368
REMARK SMILES CCCCCCCCCCCCCC(=O)[O-]
REMARK SMILES IDX 8 1 9 2 10 3 11 4 12 5 13 6 14 7 15 8 16 9 7 10 6 11 5 12
REMARK SMILES IDX 4 13 3 14 2 15 1 16
REMARK H PARENT
REMARK Flexibility Score: inf
ROOT
ATOM      1  C   UNL     1       1.123 -27.292   0.762  1.00  0.00     0.000 C 
ENDROOT
BRANCH   1   2
ATOM      2  C   UNL     1       2.304 -28.246   0.514  1.00  0.00     0.000 C 
BRANCH   2   3
ATOM      3  C   UNL     1       2.361 -29.391   1.536  1.00  0.00     0.000 C 
BRANCH   3   4
ATOM      4  C   UNL     1       3.413 -29.110   2.617  1.00  0.00     0.000 C 
BRANCH   4   5
ATOM      5  C   UNL     1       3.403 -30.148   3.754  1.00  0.00     0.006 C 
BRANCH   5   6
ATOM      6  C   UNL     1       2.977 -29.578   5.119  1.00  0.00     0.053 C 
BRANCH   6   7
ATOM      7  C   UNL     1       2.317 -30.600   5.993  1.00  0.00     0.041 C 
ATOM      8  O   UNL     1       2.772 -31.773   6.056  1.00  0.00    -0.550 OA
ATOM      9  O   UNL     1       1.217 -30.249   6.765  1.00  0.00    -0.550 OA
ENDBRANCH   6   7
ENDBRANCH   5   6
ENDBRANCH   4   5
ENDBRANCH   3   4
ENDBRANCH   2   3
ENDBRANCH   1   2
BRANCH   1  10
ATOM     10  C   UNL     1       0.533 -26.731  -0.544  1.00  0.00     0.000 C 
BRANCH  10  11
ATOM     11  C   UNL     1      -0.748 -25.913  -0.313  1.00  0.00    -0.000 C 
BRANCH  11  12
ATOM     12  C   UNL     1      -1.211 -25.176  -1.582  1.00  0.00    -0.000 C 
BRANCH  12  13
ATOM     13  C   UNL     1      -2.328 -24.155  -1.304  1.00  0.00    -0.000 C 
BRANCH  13  14
ATOM     14  C   UNL     1      -2.571 -23.843   0.185  1.00  0.00    -0.000 C 
BRANCH  14  15
ATOM     15  C   UNL     1      -3.953 -24.297   0.701  1.00  0.00    -0.003 C 
ATOM     16  C   UNL     1      -4.573 -23.294   1.673  1.00  0.00     0.004 C 
ENDBRANCH  14  15
ENDBRANCH  13  14
ENDBRANCH  12  13
ENDBRANCH  11  12
ENDBRANCH  10  11
ENDBRANCH   1  10
TORSDOF 12
ENDMDL
MODEL 2
REMARK VINA RESULT:    -5.598      0.956      1.765
REMARK INTER + INTRA:          -9.894
REMARK INTER:                  -9.314
REMARK INTRA:                  -0.580
REMARK UNBOUND:                -0.368
REMARK SMILES CCCCCCCCCCCCCC(=O)[O-]
REMARK SMILES IDX 8 1 9 2 10 3 11 4 12 5 13 6 14 7 15 8 16 9 7 10 6 11 5 12
REMARK SMILES IDX 4 13 3 14 2 15 1 16
REMARK H PARENT
REMARK Flexibility Score: inf
ROOT
ATOM      1  C   UNL     1       2.016 -28.769   0.374  1.00  0.00     0.000 C 
ENDROOT
BRANCH   1   2
ATOM      2  C   UNL     1       2.764 -28.485   1.687  1.00  0.00     0.000 C 
BRANCH   2   3
ATOM      3  C   UNL     1       4.075 -29.278   1.803  1.00  0.00     0.000 C 
BRANCH   3   4
ATOM      4  C   UNL     1       4.293 -29.769   3.241  1.00  0.00     0.000 C 
BRANCH   4   5
ATOM      5  C   UNL     1       3.184 -29.315   4.208  1.00  0.00     0.006 C 
BRANCH   5   6
ATOM      6  C   UNL     1       3.341 -29.862   5.639  1.00  0.00     0.053 C 
BRANCH   6   7
ATOM      7  C   UNL     1       2.282 -30.859   5.997  1.00  0.00     0.041 C 
ATOM      8  O   UNL     1       2.461 -32.086   5.773  1.00  0.00    -0.550 OA
ATOM      9  O   UNL     1       1.109 -30.438   6.612  1.00  0.00    -0.550 OA
ENDBRANCH   6   7
ENDBRANCH   5   6
ENDBRANCH   4   5
ENDBRANCH   3   4
ENDBRANCH   2   3
ENDBRANCH   1   2
BRANCH   1  10
ATOM     10  C   UNL     1       2.252 -27.681  -0.688  1.00  0.00     0.000 C 
BRANCH  10  11
ATOM     11  C   UNL     1       1.069 -26.708  -0.815  1.00  0.00    -0.000 C 
BRANCH  11  12
ATOM     12  C   UNL     1      -0.046 -27.001   0.206  1.00  0.00    -0.000 C 
BRANCH  12  13
ATOM     13  C   UNL     1      -1.385 -26.343  -0.169  1.00  0.00    -0.000 C 
BRANCH  13  14
ATOM     14  C   UNL     1      -1.270 -25.089  -1.058  1.00  0.00    -0.000 C 
BRANCH  14  15
ATOM     15  C   UNL     1      -1.697 -23.784  -0.353  1.00  0.00    -0.003 C 
ATOM     16  C   UNL     1      -2.998 -23.943   0.434  1.00  0.00     0.004 C 
ENDBRANCH  14  15
ENDBRANCH  13  14
ENDBRANCH  12  13
ENDBRANCH  11  12
ENDBRANCH  10  11
ENDBRANCH   1  10
TORSDOF 12
ENDMDL
MODEL 3
REMARK VINA RESULT:    -5.509      1.307      1.928
REMARK INTER + INTRA:          -9.742
REMARK INTER:                  -9.163
REMARK INTRA:                  -0.579
REMARK UNBOUND:                -0.368
REMARK SMILES CCCCCCCCCCCCCC(=O)[O-]
REMARK SMILES IDX 8 1 9 2 10 3 11 4 12 5 13 6 14 7 15 8 16 9 7 10 6 11 5 12
REMARK SMILES IDX 4 13 3 14 2 15 1 16
REMARK H PARENT
REMARK Flexibility Score: inf
ROOT
ATOM      1  C   UNL     1       0.718 -26.320  -0.006  1.00  0.00     0.000 C 
ENDROOT
BRANCH   1   2
ATOM      2  C   UNL     1       1.274 -27.591   0.659  1.00  0.00     0.000 C 
BRANCH   2   3
ATOM      3  C   UNL     1       2.544 -28.111  -0.031  1.00  0.00     0.000 C 
BRANCH   3   4
ATOM      4  C   UNL     1       3.458 -28.828   0.972  1.00  0.00     0.000 C 
BRANCH   4   5
ATOM      5  C   UNL     1       2.866 -28.889   2.392  1.00  0.00     0.006 C 
BRANCH   5   6
ATOM      6  C   UNL     1       3.846 -29.415   3.456  1.00  0.00     0.053 C 
BRANCH   6   7
ATOM      7  C   UNL     1       3.149 -29.958   4.666  1.00  0.00     0.041 C 
ATOM      8  O   UNL     1       2.700 -31.135   4.668  1.00  0.00    -0.550 OA
ATOM      9  O   UNL     1       3.025 -29.175   5.807  1.00  0.00    -0.550 OA
ENDBRANCH   6   7
ENDBRANCH   5   6
ENDBRANCH   4   5
ENDBRANCH   3   4
ENDBRANCH   2   3
ENDBRANCH   1   2
BRANCH   1  10
ATOM     10  C   UNL     1      -0.795 -26.406  -0.272  1.00  0.00     0.000 C 
BRANCH  10  11
ATOM     11  C   UNL     1      -1.343 -25.161  -0.989  1.00  0.00    -0.000 C 
BRANCH  11  12
ATOM     12  C   UNL     1      -1.510 -23.962  -0.039  1.00  0.00    -0.000 C 
BRANCH  12  13
ATOM     13  C   UNL     1      -2.974 -23.723   0.367  1.00  0.00    -0.000 C 
BRANCH  13  14
ATOM     14  C   UNL     1      -4.021 -24.408  -0.532  1.00  0.00    -0.000 C 
BRANCH  14  15
ATOM     15  C   UNL     1      -4.820 -25.521   0.177  1.00  0.00    -0.003 C 
ATOM     16  C   UNL     1      -5.916 -26.110  -0.710  1.00  0.00     0.004 C 
ENDBRANCH  14  15
ENDBRANCH  13  14
ENDBRANCH  12  13
ENDBRANCH  11  12
ENDBRANCH  10  11
ENDBRANCH   1  10
TORSDOF 12
ENDMDL
MODEL 4
REMARK VINA RESULT:    -5.493      1.056      1.613
REMARK INTER + INTRA:          -9.716
REMARK INTER:                  -9.141
REMARK INTRA:                  -0.575
REMARK UNBOUND:                -0.368
REMARK SMILES CCCCCCCCCCCCCC(=O)[O-]
REMARK SMILES IDX 8 1 9 2 10 3 11 4 12 5 13 6 14 7 15 8 16 9 7 10 6 11 5 12
REMARK SMILES IDX 4 13 3 14 2 15 1 16
REMARK H PARENT
REMARK Flexibility Score: inf
ROOT
ATOM      1  C   UNL     1       1.623 -27.863   1.120  1.00  0.00     0.000 C 
ENDROOT
BRANCH   1   2
ATOM      2  C   UNL     1       2.739 -28.493   1.970  1.00  0.00     0.000 C 
BRANCH   2   3
ATOM      3  C   UNL     1       2.769 -30.026   1.861  1.00  0.00     0.000 C 
BRANCH   3   4
ATOM      4  C   UNL     1       3.172 -30.662   3.198  1.00  0.00     0.000 C 
BRANCH   4   5
ATOM      5  C   UNL     1       3.625 -29.629   4.247  1.00  0.00     0.006 C 
BRANCH   5   6
ATOM      6  C   UNL     1       2.822 -29.678   5.560  1.00  0.00     0.053 C 
BRANCH   6   7
ATOM      7  C   UNL     1       2.511 -31.077   5.996  1.00  0.00     0.041 C 
ATOM      8  O   UNL     1       1.322 -31.493   5.999  1.00  0.00    -0.550 OA
ATOM      9  O   UNL     1       3.538 -31.935   6.366  1.00  0.00    -0.550 OA
ENDBRANCH   6   7
ENDBRANCH   5   6
ENDBRANCH   4   5
ENDBRANCH   3   4
ENDBRANCH   2   3
ENDBRANCH   1   2
BRANCH   1  10
ATOM     10  C   UNL     1       2.058 -27.613  -0.334  1.00  0.00     0.000 C 
BRANCH  10  11
ATOM     11  C   UNL     1       1.110 -26.662  -1.082  1.00  0.00    -0.000 C 
BRANCH  11  12
ATOM     12  C   UNL     1      -0.159 -26.340  -0.273  1.00  0.00    -0.000 C 
BRANCH  12  13
ATOM     13  C   UNL     1      -1.126 -25.410  -1.026  1.00  0.00    -0.000 C 
BRANCH  13  14
ATOM     14  C   UNL     1      -1.633 -24.201  -0.217  1.00  0.00    -0.000 C 
BRANCH  14  15
ATOM     15  C   UNL     1      -3.156 -24.214   0.036  1.00  0.00    -0.003 C 
ATOM     16  C   UNL     1      -3.602 -25.426   0.853  1.00  0.00     0.004 C 
ENDBRANCH  14  15
ENDBRANCH  13  14
ENDBRANCH  12  13
ENDBRANCH  11  12
ENDBRANCH  10  11
ENDBRANCH   1  10
TORSDOF 12
ENDMDL
MODEL 5
REMARK VINA RESULT:    -5.451      4.059      8.127
REMARK INTER + INTRA:          -9.644
REMARK INTER:                  -9.105
REMARK INTRA:                  -0.538
REMARK UNBOUND:                -0.368
REMARK SMILES CCCCCCCCCCCCCC(=O)[O-]
REMARK SMILES IDX 8 1 9 2 10 3 11 4 12 5 13 6 14 7 15 8 16 9 7 10 6 11 5 12
REMARK SMILES IDX 4 13 3 14 2 15 1 16
REMARK H PARENT
REMARK Flexibility Score: inf
ROOT
ATOM      1  C   UNL     1       2.168 -28.288  -0.261  1.00  0.00     0.000 C 
ENDROOT
BRANCH   1   2
ATOM      2  C   UNL     1       1.251 -27.575   0.747  1.00  0.00     0.000 C 
BRANCH   2   3
ATOM      3  C   UNL     1       0.424 -26.454   0.100  1.00  0.00     0.000 C 
BRANCH   3   4
ATOM      4  C   UNL     1      -1.076 -26.777   0.154  1.00  0.00     0.000 C 
BRANCH   4   5
ATOM      5  C   UNL     1      -1.965 -25.589  -0.256  1.00  0.00     0.006 C 
BRANCH   5   6
ATOM      6  C   UNL     1      -1.198 -24.266  -0.435  1.00  0.00     0.053 C 
BRANCH   6   7
ATOM      7  C   UNL     1      -1.766 -23.151   0.389  1.00  0.00     0.041 C 
ATOM      8  O   UNL     1      -2.952 -23.211   0.810  1.00  0.00    -0.550 OA
ATOM      9  O   UNL     1      -0.974 -22.060   0.724  1.00  0.00    -0.550 OA
ENDBRANCH   6   7
ENDBRANCH   5   6
ENDBRANCH   4   5
ENDBRANCH   3   4
ENDBRANCH   2   3
ENDBRANCH   1   2
BRANCH   1  10
ATOM     10  C   UNL     1       3.477 -28.784   0.380  1.00  0.00     0.000 C 
BRANCH  10  11
ATOM     11  C   UNL     1       3.373 -28.929   1.906  1.00  0.00    -0.000 C 
BRANCH  11  12
ATOM     12  C   UNL     1       4.608 -29.613   2.517  1.00  0.00    -0.000 C 
BRANCH  12  13
ATOM     13  C   UNL     1       4.434 -29.933   4.012  1.00  0.00    -0.000 C 
BRANCH  13  14
ATOM     14  C   UNL     1       2.974 -30.082   4.482  1.00  0.00    -0.000 C 
BRANCH  14  15
ATOM     15  C   UNL     1       2.759 -29.732   5.970  1.00  0.00    -0.003 C 
ATOM     16  C   UNL     1       1.374 -30.137   6.471  1.00  0.00     0.004 C 
ENDBRANCH  14  15
ENDBRANCH  13  14
ENDBRANCH  12  13
ENDBRANCH  11  12
ENDBRANCH  10  11
ENDBRANCH   1  10
TORSDOF 12
ENDMDL
MODEL 6
REMARK VINA RESULT:    -5.414      4.080      8.362
REMARK INTER + INTRA:          -9.580
REMARK INTER:                  -8.981
REMARK INTRA:                  -0.599
REMARK UNBOUND:                -0.368
REMARK SMILES CCCCCCCCCCCCCC(=O)[O-]
REMARK SMILES IDX 8 1 9 2 10 3 11 4 12 5 13 6 14 7 15 8 16 9 7 10 6 11 5 12
REMARK SMILES IDX 4 13 3 14 2 15 1 16
REMARK H PARENT
REMARK Flexibility Score: inf
ROOT
ATOM      1  C   UNL     1       0.087 -27.357  -0.176  1.00  0.00     0.000 C 
ENDROOT
BRANCH   1   2
ATOM      2  C   UNL     1      -0.241 -25.932  -0.651  1.00  0.00     0.000 C 
BRANCH   2   3
ATOM      3  C   UNL     1      -1.727 -25.581  -0.478  1.00  0.00     0.000 C 
BRANCH   3   4
ATOM      4  C   UNL     1      -2.415 -26.565   0.479  1.00  0.00     0.000 C 
BRANCH   4   5
ATOM      5  C   UNL     1      -3.748 -26.032   1.036  1.00  0.00     0.006 C 
BRANCH   5   6
ATOM      6  C   UNL     1      -4.242 -24.744   0.352  1.00  0.00     0.053 C 
BRANCH   6   7
ATOM      7  C   UNL     1      -4.187 -23.551   1.258  1.00  0.00     0.041 C 
ATOM      8  O   UNL     1      -5.157 -23.281   2.015  1.00  0.00    -0.550 OA
ATOM      9  O   UNL     1      -3.048 -22.756   1.293  1.00  0.00    -0.550 OA
ENDBRANCH   6   7
ENDBRANCH   5   6
ENDBRANCH   4   5
ENDBRANCH   3   4
ENDBRANCH   2   3
ENDBRANCH   1   2
BRANCH   1  10
ATOM     10  C   UNL     1       1.336 -27.407   0.722  1.00  0.00     0.000 C 
BRANCH  10  11
ATOM     11  C   UNL     1       2.537 -28.074   0.032  1.00  0.00    -0.000 C 
BRANCH  11  12
ATOM     12  C   UNL     1       3.487 -28.755   1.034  1.00  0.00    -0.000 C 
BRANCH  12  13
ATOM     13  C   UNL     1       2.742 -29.405   2.214  1.00  0.00    -0.000 C 
BRANCH  13  14
ATOM     14  C   UNL     1       3.461 -29.308   3.573  1.00  0.00    -0.000 C 
BRANCH  14  15
ATOM     15  C   UNL     1       4.814 -30.049   3.618  1.00  0.00    -0.003 C 
ATOM     16  C   UNL     1       5.305 -30.281   5.046  1.00  0.00     0.004 C 
ENDBRANCH  14  15
ENDBRANCH  13  14
ENDBRANCH  12  13
ENDBRANCH  11  12
ENDBRANCH  10  11
ENDBRANCH   1  10
TORSDOF 12
ENDMDL
MODEL 7
REMARK VINA RESULT:    -5.387      3.942      8.324
REMARK INTER + INTRA:          -9.535
REMARK INTER:                  -9.088
REMARK INTRA:                  -0.447
REMARK UNBOUND:                -0.368
REMARK SMILES CCCCCCCCCCCCCC(=O)[O-]
REMARK SMILES IDX 8 1 9 2 10 3 11 4 12 5 13 6 14 7 15 8 16 9 7 10 6 11 5 12
REMARK SMILES IDX 4 13 3 14 2 15 1 16
REMARK H PARENT
REMARK Flexibility Score: inf
ROOT
ATOM      1  C   UNL     1       1.365 -27.742   0.669  1.00  0.00     0.000 C 
ENDROOT
BRANCH   1   2
ATOM      2  C   UNL     1       0.886 -26.459  -0.030  1.00  0.00     0.000 C 
BRANCH   2   3
ATOM      3  C   UNL     1      -0.642 -26.409  -0.190  1.00  0.00     0.000 C 
BRANCH   3   4
ATOM      4  C   UNL     1      -1.049 -25.377  -1.250  1.00  0.00     0.000 C 
BRANCH   4   5
ATOM      5  C   UNL     1      -2.500 -24.887  -1.090  1.00  0.00     0.006 C 
BRANCH   5   6
ATOM      6  C   UNL     1      -2.703 -23.905   0.079  1.00  0.00     0.053 C 
BRANCH   6   7
ATOM      7  C   UNL     1      -4.058 -24.025   0.706  1.00  0.00     0.041 C 
ATOM      8  O   UNL     1      -4.327 -23.401   1.767  1.00  0.00    -0.550 OA
ATOM      9  O   UNL     1      -5.040 -24.799   0.100  1.00  0.00    -0.550 OA
ENDBRANCH   6   7
ENDBRANCH   5   6
ENDBRANCH   4   5
ENDBRANCH   3   4
ENDBRANCH   2   3
ENDBRANCH   1   2
BRANCH   1  10
ATOM     10  C   UNL     1       2.660 -28.301   0.055  1.00  0.00     0.000 C 
BRANCH  10  11
ATOM     11  C   UNL     1       3.560 -28.990   1.092  1.00  0.00    -0.000 C 
BRANCH  11  12
ATOM     12  C   UNL     1       3.034 -28.825   2.529  1.00  0.00    -0.000 C 
BRANCH  12  13
ATOM     13  C   UNL     1       3.326 -30.049   3.415  1.00  0.00    -0.000 C 
BRANCH  13  14
ATOM     14  C   UNL     1       3.864 -29.723   4.822  1.00  0.00    -0.000 C 
BRANCH  14  15
ATOM     15  C   UNL     1       2.776 -29.707   5.917  1.00  0.00    -0.003 C 
ATOM     16  C   UNL     1       1.938 -30.985   5.927  1.00  0.00     0.004 C 
ENDBRANCH  14  15
ENDBRANCH  13  14
ENDBRANCH  12  13
ENDBRANCH  11  12
ENDBRANCH  10  11
ENDBRANCH   1  10
TORSDOF 12
ENDMDL
MODEL 8
REMARK VINA RESULT:    -5.332      3.513      7.893
REMARK INTER + INTRA:          -9.441
REMARK INTER:                  -8.495
REMARK INTRA:                  -0.946
REMARK UNBOUND:                -0.368
REMARK SMILES CCCCCCCCCCCCCC(=O)[O-]
REMARK SMILES IDX 8 1 9 2 10 3 11 4 12 5 13 6 14 7 15 8 16 9 7 10 6 11 5 12
REMARK SMILES IDX 4 13 3 14 2 15 1 16
REMARK H PARENT
REMARK Flexibility Score: inf
ROOT
ATOM      1  C   UNL     1      -0.808 -25.635  -1.470  1.00  0.00     0.000 C 
ENDROOT
BRANCH   1   2
ATOM      2  C   UNL     1      -1.731 -24.407  -1.403  1.00  0.00     0.000 C 
BRANCH   2   3
ATOM      3  C   UNL     1      -1.862 -23.845   0.021  1.00  0.00     0.000 C 
BRANCH   3   4
ATOM      4  C   UNL     1      -3.329 -23.836   0.474  1.00  0.00     0.000 C 
BRANCH   4   5
ATOM      5  C   UNL     1      -4.284 -24.458  -0.562  1.00  0.00     0.006 C 
BRANCH   5   6
ATOM      6  C   UNL     1      -5.136 -25.617  -0.011  1.00  0.00     0.053 C 
BRANCH   6   7
ATOM      7  C   UNL     1      -4.509 -26.957  -0.243  1.00  0.00     0.041 C 
ATOM      8  O   UNL     1      -5.040 -27.780  -1.035  1.00  0.00    -0.550 OA
ATOM      9  O   UNL     1      -3.315 -27.286   0.387  1.00  0.00    -0.550 OA
ENDBRANCH   6   7
ENDBRANCH   5   6
ENDBRANCH   4   5
ENDBRANCH   3   4
ENDBRANCH   2   3
ENDBRANCH   1   2
BRANCH   1  10
ATOM     10  C   UNL     1       0.031 -25.814  -0.192  1.00  0.00     0.000 C 
BRANCH  10  11
ATOM     11  C   UNL     1       0.349 -27.287   0.109  1.00  0.00    -0.000 C 
BRANCH  11  12
ATOM     12  C   UNL     1       1.560 -27.803  -0.689  1.00  0.00    -0.000 C 
BRANCH  12  13
ATOM     13  C   UNL     1       2.774 -28.111   0.204  1.00  0.00    -0.000 C 
BRANCH  13  14
ATOM     14  C   UNL     1       2.437 -28.464   1.666  1.00  0.00    -0.000 C 
BRANCH  14  15
ATOM     15  C   UNL     1       3.551 -29.246   2.392  1.00  0.00    -0.003 C 
ATOM     16  C   UNL     1       3.030 -30.516   3.065  1.00  0.00     0.004 C 
ENDBRANCH  14  15
ENDBRANCH  13  14
ENDBRANCH  12  13
ENDBRANCH  11  12
ENDBRANCH  10  11
ENDBRANCH   1  10
TORSDOF 12
ENDMDL
MODEL 9
REMARK VINA RESULT:    -5.239      2.985      4.841
REMARK INTER + INTRA:          -9.284
REMARK INTER:                  -8.123
REMARK INTRA:                  -1.161
REMARK UNBOUND:                -0.368
REMARK SMILES CCCCCCCCCCCCCC(=O)[O-]
REMARK SMILES IDX 8 1 9 2 10 3 11 4 12 5 13 6 14 7 15 8 16 9 7 10 6 11 5 12
REMARK SMILES IDX 4 13 3 14 2 15 1 16
REMARK H PARENT
REMARK Flexibility Score: inf
ROOT
ATOM      1  C   UNL     1      -2.729 -24.303  -1.876  1.00  0.00     0.000 C 
ENDROOT
BRANCH   1   2
ATOM      2  C   UNL     1      -1.460 -24.384  -1.012  1.00  0.00     0.000 C 
BRANCH   2   3
ATOM      3  C   UNL     1      -1.153 -25.817  -0.548  1.00  0.00     0.000 C 
BRANCH   3   4
ATOM      4  C   UNL     1       0.261 -26.239  -0.973  1.00  0.00     0.000 C 
BRANCH   4   5
ATOM      5  C   UNL     1       0.876 -27.305  -0.047  1.00  0.00     0.006 C 
BRANCH   5   6
ATOM      6  C   UNL     1       2.261 -27.802  -0.499  1.00  0.00     0.053 C 
BRANCH   6   7
ATOM      7  C   UNL     1       3.038 -28.439   0.613  1.00  0.00     0.041 C 
ATOM      8  O   UNL     1       4.075 -29.108   0.363  1.00  0.00    -0.550 OA
ATOM      9  O   UNL     1       2.637 -28.263   1.931  1.00  0.00    -0.550 OA
ENDBRANCH   6   7
ENDBRANCH   5   6
ENDBRANCH   4   5
ENDBRANCH   3   4
ENDBRANCH   2   3
ENDBRANCH   1   2
BRANCH   1  10
ATOM     10  C   UNL     1      -3.510 -25.628  -1.904  1.00  0.00     0.000 C 
BRANCH  10  11
ATOM     11  C   UNL     1      -5.023 -25.429  -1.719  1.00  0.00    -0.000 C 
BRANCH  11  12
ATOM     12  C   UNL     1      -5.567 -26.174  -0.487  1.00  0.00    -0.000 C 
BRANCH  12  13
ATOM     13  C   UNL     1      -4.461 -26.568   0.508  1.00  0.00    -0.000 C 
BRANCH  13  14
ATOM     14  C   UNL     1      -4.094 -25.485   1.540  1.00  0.00    -0.000 C 
BRANCH  14  15
ATOM     15  C   UNL     1      -4.890 -24.172   1.377  1.00  0.00    -0.003 C 
ATOM     16  C   UNL     1      -3.992 -22.936   1.419  1.00  0.00     0.004 C 
ENDBRANCH  14  15
ENDBRANCH  13  14
ENDBRANCH  12  13
ENDBRANCH  11  12
ENDBRANCH  10  11
ENDBRANCH   1  10
TORSDOF 12
ENDMDL
