MODEL 1
REMARK VINA RESULT:    -3.877      0.000      0.000
REMARK INTER + INTRA:         -10.608
REMARK INTER:                  -8.863
REMARK INTRA:                  -1.745
REMARK UNBOUND:                -1.745
REMARK SMILES CCCCCCCCCCCCCCCCCCCCCCCC(=O)[O-]
REMARK SMILES IDX 13 1 14 2 15 3 16 4 17 5 18 6 19 7 20 8 21 9 22 10 23 11
REMARK SMILES IDX 24 12 25 13 26 14 12 15 11 16 10 17 9 18 8 19 7 20 6 21 5 22
REMARK SMILES IDX 4 23 3 24 2 25 1 26
REMARK H PARENT
REMARK Flexibility Score: inf
ROOT
ATOM      1  C   UNL     1      33.858  26.703  70.879  1.00  0.00     0.000 C 
ENDROOT
BRANCH   1   2
ATOM      2  C   UNL     1      32.771  25.947  71.674  1.00  0.00     0.000 C 
BRANCH   2   3
ATOM      3  C   UNL     1      31.386  26.038  71.011  1.00  0.00     0.000 C 
BRANCH   3   4
ATOM      4  C   UNL     1      30.855  24.671  70.555  1.00  0.00     0.000 C 
BRANCH   4   5
ATOM      5  C   UNL     1      31.848  23.906  69.667  1.00  0.00     0.000 C 
BRANCH   5   6
ATOM      6  C   UNL     1      31.524  24.122  68.183  1.00  0.00     0.000 C 
BRANCH   6   7
ATOM      7  C   UNL     1      32.793  24.415  67.373  1.00  0.00     0.000 C 
BRANCH   7   8
ATOM      8  C   UNL     1      32.522  24.279  65.866  1.00  0.00     0.000 C 
BRANCH   8   9
ATOM      9  C   UNL     1      31.024  24.210  65.533  1.00  0.00     0.000 C 
BRANCH   9  10
ATOM     10  C   UNL     1      30.763  24.061  64.023  1.00  0.00     0.006 C 
BRANCH  10  11
ATOM     11  C   UNL     1      31.425  25.179  63.206  1.00  0.00     0.053 C 
BRANCH  11  12
ATOM     12  C   UNL     1      30.545  26.389  63.109  1.00  0.00     0.041 C 
ATOM     13  O   UNL     1      29.300  26.283  63.264  1.00  0.00    -0.550 OA
ATOM     14  O   UNL     1      31.107  27.641  62.894  1.00  0.00    -0.550 OA
ENDBRANCH  11  12
ENDBRANCH  10  11
ENDBRANCH   9  10
ENDBRANCH   8   9
ENDBRANCH   7   8
ENDBRANCH   6   7
ENDBRANCH   5   6
ENDBRANCH   4   5
ENDBRANCH   3   4
ENDBRANCH   2   3
ENDBRANCH   1   2
BRANCH   1  15
ATOM     15  C   UNL     1      35.181  25.925  70.738  1.00  0.00     0.000 C 
BRANCH  15  16
ATOM     16  C   UNL     1      35.591  25.603  69.292  1.00  0.00     0.000 C 
BRANCH  16  17
ATOM     17  C   UNL     1      36.241  24.218  69.150  1.00  0.00     0.000 C 
BRANCH  17  18
ATOM     18  C   UNL     1      37.147  23.910  70.348  1.00  0.00    -0.000 C 
BRANCH  18  19
ATOM     19  C   UNL     1      38.527  24.563  70.180  1.00  0.00    -0.000 C 
BRANCH  19  20
ATOM     20  C   UNL     1      39.506  24.182  71.304  1.00  0.00    -0.000 C 
BRANCH  20  21
ATOM     21  C   UNL     1      39.098  24.665  72.710  1.00  0.00    -0.000 C 
BRANCH  21  22
ATOM     22  C   UNL     1      40.285  25.133  73.577  1.00  0.00    -0.000 C 
BRANCH  22  23
ATOM     23  C   UNL     1      39.832  25.668  74.948  1.00  0.00    -0.000 C 
BRANCH  23  24
ATOM     24  C   UNL     1      39.499  27.171  74.919  1.00  0.00    -0.000 C 
BRANCH  24  25
ATOM     25  C   UNL     1      40.263  28.019  75.953  1.00  0.00    -0.003 C 
ATOM     26  C   UNL     1      39.362  29.016  76.684  1.00  0.00     0.004 C 
ENDBRANCH  24  25
ENDBRANCH  23  24
ENDBRANCH  22  23
ENDBRANCH  21  22
ENDBRANCH  20  21
ENDBRANCH  19  20
ENDBRANCH  18  19
ENDBRANCH  17  18
ENDBRANCH  16  17
ENDBRANCH  15  16
ENDBRANCH   1  15
TORSDOF 22
ENDMDL
MODEL 2
REMARK VINA RESULT:    -2.877      1.484      2.927
REMARK INTER + INTRA:          -8.322
REMARK INTER:                  -6.819
REMARK INTRA:                  -1.503
REMARK UNBOUND:                -1.745
REMARK SMILES CCCCCCCCCCCCCCCCCCCCCCCC(=O)[O-]
REMARK SMILES IDX 13 1 14 2 15 3 16 4 17 5 18 6 19 7 20 8 21 9 22 10 23 11
REMARK SMILES IDX 24 12 25 13 26 14 12 15 11 16 10 17 9 18 8 19 7 20 6 21 5 22
REMARK SMILES IDX 4 23 3 24 2 25 1 26
REMARK H PARENT
REMARK Flexibility Score: inf
ROOT
ATOM      1  C   UNL     1      31.174  26.358  71.090  1.00  0.00     0.000 C 
ENDROOT
BRANCH   1   2
ATOM      2  C   UNL     1      30.955  25.059  70.283  1.00  0.00     0.000 C 
BRANCH   2   3
ATOM      3  C   UNL     1      32.276  24.433  69.804  1.00  0.00     0.000 C 
BRANCH   3   4
ATOM      4  C   UNL     1      32.204  23.932  68.354  1.00  0.00     0.000 C 
BRANCH   4   5
ATOM      5  C   UNL     1      31.053  24.564  67.557  1.00  0.00     0.000 C 
BRANCH   5   6
ATOM      6  C   UNL     1      31.210  24.275  66.059  1.00  0.00     0.000 C 
BRANCH   6   7
ATOM      7  C   UNL     1      32.647  24.530  65.590  1.00  0.00     0.000 C 
BRANCH   7   8
ATOM      8  C   UNL     1      32.752  24.413  64.061  1.00  0.00     0.000 C 
BRANCH   8   9
ATOM      9  C   UNL     1      33.122  25.742  63.384  1.00  0.00     0.000 C 
BRANCH   9  10
ATOM     10  C   UNL     1      32.074  26.187  62.348  1.00  0.00     0.006 C 
BRANCH  10  11
ATOM     11  C   UNL     1      31.143  27.278  62.895  1.00  0.00     0.053 C 
BRANCH  11  12
ATOM     12  C   UNL     1      29.712  26.830  62.905  1.00  0.00     0.041 C 
ATOM     13  O   UNL     1      29.427  25.611  62.774  1.00  0.00    -0.550 OA
ATOM     14  O   UNL     1      28.696  27.756  63.106  1.00  0.00    -0.550 OA
ENDBRANCH  11  12
ENDBRANCH  10  11
ENDBRANCH   9  10
ENDBRANCH   8   9
ENDBRANCH   7   8
ENDBRANCH   6   7
ENDBRANCH   5   6
ENDBRANCH   4   5
ENDBRANCH   3   4
ENDBRANCH   2   3
ENDBRANCH   1   2
BRANCH   1  15
ATOM     15  C   UNL     1      32.455  27.122  70.702  1.00  0.00     0.000 C 
BRANCH  15  16
ATOM     16  C   UNL     1      33.683  26.809  71.573  1.00  0.00     0.000 C 
BRANCH  16  17
ATOM     17  C   UNL     1      34.899  26.356  70.750  1.00  0.00     0.000 C 
BRANCH  17  18
ATOM     18  C   UNL     1      35.571  25.135  71.388  1.00  0.00    -0.000 C 
BRANCH  18  19
ATOM     19  C   UNL     1      35.436  23.897  70.488  1.00  0.00    -0.000 C 
BRANCH  19  20
ATOM     20  C   UNL     1      36.113  24.081  69.118  1.00  0.00    -0.000 C 
BRANCH  20  21
ATOM     21  C   UNL     1      37.575  24.568  69.179  1.00  0.00    -0.000 C 
BRANCH  21  22
ATOM     22  C   UNL     1      38.418  23.876  70.270  1.00  0.00    -0.000 C 
BRANCH  22  23
ATOM     23  C   UNL     1      39.169  24.886  71.157  1.00  0.00    -0.000 C 
BRANCH  23  24
ATOM     24  C   UNL     1      39.203  24.466  72.638  1.00  0.00    -0.000 C 
BRANCH  24  25
ATOM     25  C   UNL     1      39.741  25.542  73.600  1.00  0.00    -0.003 C 
ATOM     26  C   UNL     1      39.629  25.133  75.069  1.00  0.00     0.004 C 
ENDBRANCH  24  25
ENDBRANCH  23  24
ENDBRANCH  22  23
ENDBRANCH  21  22
ENDBRANCH  20  21
ENDBRANCH  19  20
ENDBRANCH  18  19
ENDBRANCH  17  18
ENDBRANCH  16  17
ENDBRANCH  15  16
ENDBRANCH   1  15
TORSDOF 22
ENDMDL
MODEL 3
REMARK VINA RESULT:    -2.770      5.297     13.171
REMARK INTER + INTRA:          -8.078
REMARK INTER:                  -7.103
REMARK INTRA:                  -0.975
REMARK UNBOUND:                -1.745
REMARK SMILES CCCCCCCCCCCCCCCCCCCCCCCC(=O)[O-]
REMARK SMILES IDX 13 1 14 2 15 3 16 4 17 5 18 6 19 7 20 8 21 9 22 10 23 11
REMARK SMILES IDX 24 12 25 13 26 14 12 15 11 16 10 17 9 18 8 19 7 20 6 21 5 22
REMARK SMILES IDX 4 23 3 24 2 25 1 26
REMARK H PARENT
REMARK Flexibility Score: inf
ROOT
ATOM      1  C   UNL     1      31.029  27.425  61.970  1.00  0.00     0.000 C 
ENDROOT
BRANCH   1   2
ATOM      2  C   UNL     1      32.225  26.520  62.339  1.00  0.00     0.000 C 
BRANCH   2   3
ATOM      3  C   UNL     1      31.781  25.149  62.878  1.00  0.00     0.000 C 
BRANCH   3   4
ATOM      4  C   UNL     1      32.937  24.140  62.957  1.00  0.00     0.000 C 
BRANCH   4   5
ATOM      5  C   UNL     1      33.877  24.396  64.145  1.00  0.00     0.000 C 
BRANCH   5   6
ATOM      6  C   UNL     1      33.256  23.875  65.448  1.00  0.00     0.000 C 
BRANCH   6   7
ATOM      7  C   UNL     1      32.022  24.694  65.844  1.00  0.00     0.000 C 
BRANCH   7   8
ATOM      8  C   UNL     1      31.109  23.888  66.780  1.00  0.00     0.000 C 
BRANCH   8   9
ATOM      9  C   UNL     1      31.072  24.450  68.209  1.00  0.00     0.000 C 
BRANCH   9  10
ATOM     10  C   UNL     1      32.476  24.762  68.756  1.00  0.00     0.006 C 
BRANCH  10  11
ATOM     11  C   UNL     1      32.581  24.512  70.267  1.00  0.00     0.053 C 
BRANCH  11  12
ATOM     12  C   UNL     1      32.572  25.795  71.042  1.00  0.00     0.041 C 
ATOM     13  O   UNL     1      33.568  26.564  71.008  1.00  0.00    -0.550 OA
ATOM     14  O   UNL     1      31.444  26.162  71.765  1.00  0.00    -0.550 OA
ENDBRANCH  11  12
ENDBRANCH  10  11
ENDBRANCH   9  10
ENDBRANCH   8   9
ENDBRANCH   7   8
ENDBRANCH   6   7
ENDBRANCH   5   6
ENDBRANCH   4   5
ENDBRANCH   3   4
ENDBRANCH   2   3
ENDBRANCH   1   2
BRANCH   1  15
ATOM     15  C   UNL     1      30.211  27.902  63.187  1.00  0.00     0.000 C 
BRANCH  15  16
ATOM     16  C   UNL     1      28.706  27.597  63.114  1.00  0.00     0.000 C 
BRANCH  16  17
ATOM     17  C   UNL     1      28.397  26.094  63.202  1.00  0.00     0.000 C 
BRANCH  17  18
ATOM     18  C   UNL     1      27.694  25.602  61.932  1.00  0.00    -0.000 C 
BRANCH  18  19
ATOM     19  C   UNL     1      26.836  24.361  62.220  1.00  0.00    -0.000 C 
BRANCH  19  20
ATOM     20  C   UNL     1      25.496  24.376  61.463  1.00  0.00    -0.000 C 
BRANCH  20  21
ATOM     21  C   UNL     1      24.795  25.750  61.415  1.00  0.00    -0.000 C 
BRANCH  21  22
ATOM     22  C   UNL     1      24.627  26.314  59.990  1.00  0.00    -0.000 C 
BRANCH  22  23
ATOM     23  C   UNL     1      23.826  27.628  59.973  1.00  0.00    -0.000 C 
BRANCH  23  24
ATOM     24  C   UNL     1      23.982  28.404  58.652  1.00  0.00    -0.000 C 
BRANCH  24  25
ATOM     25  C   UNL     1      23.594  29.892  58.729  1.00  0.00    -0.003 C 
ATOM     26  C   UNL     1      24.507  30.787  57.890  1.00  0.00     0.004 C 
ENDBRANCH  24  25
ENDBRANCH  23  24
ENDBRANCH  22  23
ENDBRANCH  21  22
ENDBRANCH  20  21
ENDBRANCH  19  20
ENDBRANCH  18  19
ENDBRANCH  17  18
ENDBRANCH  16  17
ENDBRANCH  15  16
ENDBRANCH   1  15
TORSDOF 22
ENDMDL
MODEL 4
REMARK VINA RESULT:    -2.661      4.453     12.712
REMARK INTER + INTRA:          -7.828
REMARK INTER:                  -6.927
REMARK INTRA:                  -0.901
REMARK UNBOUND:                -1.745
REMARK SMILES CCCCCCCCCCCCCCCCCCCCCCCC(=O)[O-]
REMARK SMILES IDX 13 1 14 2 15 3 16 4 17 5 18 6 19 7 20 8 21 9 22 10 23 11
REMARK SMILES IDX 24 12 25 13 26 14 12 15 11 16 10 17 9 18 8 19 7 20 6 21 5 22
REMARK SMILES IDX 4 23 3 24 2 25 1 26
REMARK H PARENT
REMARK Flexibility Score: inf
ROOT
ATOM      1  C   UNL     1      32.792  25.440  62.349  1.00  0.00     0.000 C 
ENDROOT
BRANCH   1   2
ATOM      2  C   UNL     1      33.541  24.503  63.322  1.00  0.00     0.000 C 
BRANCH   2   3
ATOM      3  C   UNL     1      32.632  23.969  64.442  1.00  0.00     0.000 C 
BRANCH   3   4
ATOM      4  C   UNL     1      32.803  24.737  65.761  1.00  0.00     0.000 C 
BRANCH   4   5
ATOM      5  C   UNL     1      33.422  23.883  66.878  1.00  0.00     0.000 C 
BRANCH   5   6
ATOM      6  C   UNL     1      34.952  23.875  66.767  1.00  0.00     0.000 C 
BRANCH   6   7
ATOM      7  C   UNL     1      35.600  24.622  67.939  1.00  0.00     0.000 C 
BRANCH   7   8
ATOM      8  C   UNL     1      34.550  24.989  69.000  1.00  0.00     0.000 C 
BRANCH   8   9
ATOM      9  C   UNL     1      35.161  25.219  70.391  1.00  0.00     0.000 C 
BRANCH   9  10
ATOM     10  C   UNL     1      34.169  25.871  71.370  1.00  0.00     0.006 C 
BRANCH  10  11
ATOM     11  C   UNL     1      32.952  26.469  70.651  1.00  0.00     0.053 C 
BRANCH  11  12
ATOM     12  C   UNL     1      31.669  25.873  71.148  1.00  0.00     0.041 C 
ATOM     13  O   UNL     1      31.002  26.456  72.042  1.00  0.00    -0.550 OA
ATOM     14  O   UNL     1      31.187  24.696  70.588  1.00  0.00    -0.550 OA
ENDBRANCH  11  12
ENDBRANCH  10  11
ENDBRANCH   9  10
ENDBRANCH   8   9
ENDBRANCH   7   8
ENDBRANCH   6   7
ENDBRANCH   5   6
ENDBRANCH   4   5
ENDBRANCH   3   4
ENDBRANCH   2   3
ENDBRANCH   1   2
BRANCH   1  15
ATOM     15  C   UNL     1      31.725  26.319  63.030  1.00  0.00     0.000 C 
BRANCH  15  16
ATOM     16  C   UNL     1      30.345  25.659  63.184  1.00  0.00     0.000 C 
BRANCH  16  17
ATOM     17  C   UNL     1      29.292  26.607  63.777  1.00  0.00     0.000 C 
BRANCH  17  18
ATOM     18  C   UNL     1      28.039  26.660  62.894  1.00  0.00    -0.000 C 
BRANCH  18  19
ATOM     19  C   UNL     1      27.776  25.302  62.227  1.00  0.00    -0.000 C 
BRANCH  19  20
ATOM     20  C   UNL     1      26.362  24.765  62.510  1.00  0.00    -0.000 C 
BRANCH  20  21
ATOM     21  C   UNL     1      25.513  24.483  61.254  1.00  0.00    -0.000 C 
BRANCH  21  22
ATOM     22  C   UNL     1      24.347  25.473  61.054  1.00  0.00    -0.000 C 
BRANCH  22  23
ATOM     23  C   UNL     1      24.782  26.741  60.296  1.00  0.00    -0.000 C 
BRANCH  23  24
ATOM     24  C   UNL     1      23.667  27.308  59.397  1.00  0.00    -0.000 C 
BRANCH  24  25
ATOM     25  C   UNL     1      24.040  28.601  58.648  1.00  0.00    -0.003 C 
ATOM     26  C   UNL     1      24.065  29.828  59.560  1.00  0.00     0.004 C 
ENDBRANCH  24  25
ENDBRANCH  23  24
ENDBRANCH  22  23
ENDBRANCH  21  22
ENDBRANCH  20  21
ENDBRANCH  19  20
ENDBRANCH  18  19
ENDBRANCH  17  18
ENDBRANCH  16  17
ENDBRANCH  15  16
ENDBRANCH   1  15
TORSDOF 22
ENDMDL
MODEL 5
REMARK VINA RESULT:    -2.336      2.076      3.323
REMARK INTER + INTRA:          -7.086
REMARK INTER:                  -6.171
REMARK INTRA:                  -0.915
REMARK UNBOUND:                -1.745
REMARK SMILES CCCCCCCCCCCCCCCCCCCCCCCC(=O)[O-]
REMARK SMILES IDX 13 1 14 2 15 3 16 4 17 5 18 6 19 7 20 8 21 9 22 10 23 11
REMARK SMILES IDX 24 12 25 13 26 14 12 15 11 16 10 17 9 18 8 19 7 20 6 21 5 22
REMARK SMILES IDX 4 23 3 24 2 25 1 26
REMARK H PARENT
REMARK Flexibility Score: inf
ROOT
ATOM      1  C   UNL     1      31.308  26.030  70.960  1.00  0.00     0.000 C 
ENDROOT
BRANCH   1   2
ATOM      2  C   UNL     1      31.217  24.509  70.706  1.00  0.00     0.000 C 
BRANCH   2   3
ATOM      3  C   UNL     1      32.475  23.950  70.020  1.00  0.00     0.000 C 
BRANCH   3   4
ATOM      4  C   UNL     1      32.335  23.879  68.492  1.00  0.00     0.000 C 
BRANCH   4   5
ATOM      5  C   UNL     1      31.071  24.579  67.971  1.00  0.00     0.000 C 
BRANCH   5   6
ATOM      6  C   UNL     1      30.725  24.090  66.559  1.00  0.00     0.000 C 
BRANCH   6   7
ATOM      7  C   UNL     1      31.863  24.383  65.574  1.00  0.00     0.000 C 
BRANCH   7   8
ATOM      8  C   UNL     1      31.426  25.418  64.525  1.00  0.00     0.000 C 
BRANCH   8   9
ATOM      9  C   UNL     1      31.656  24.942  63.083  1.00  0.00     0.000 C 
BRANCH   9  10
ATOM     10  C   UNL     1      33.104  24.482  62.838  1.00  0.00     0.006 C 
BRANCH  10  11
ATOM     11  C   UNL     1      33.410  24.292  61.346  1.00  0.00     0.053 C 
BRANCH  11  12
ATOM     12  C   UNL     1      34.825  24.662  61.020  1.00  0.00     0.041 C 
ATOM     13  O   UNL     1      35.098  25.231  59.931  1.00  0.00    -0.550 OA
ATOM     14  O   UNL     1      35.836  24.420  61.942  1.00  0.00    -0.550 OA
ENDBRANCH  11  12
ENDBRANCH  10  11
ENDBRANCH   9  10
ENDBRANCH   8   9
ENDBRANCH   7   8
ENDBRANCH   6   7
ENDBRANCH   5   6
ENDBRANCH   4   5
ENDBRANCH   3   4
ENDBRANCH   2   3
ENDBRANCH   1   2
BRANCH   1  15
ATOM     15  C   UNL     1      32.683  26.636  70.619  1.00  0.00     0.000 C 
BRANCH  15  16
ATOM     16  C   UNL     1      33.740  26.509  71.729  1.00  0.00     0.000 C 
BRANCH  16  17
ATOM     17  C   UNL     1      35.177  26.488  71.187  1.00  0.00     0.000 C 
BRANCH  17  18
ATOM     18  C   UNL     1      35.801  25.096  71.336  1.00  0.00    -0.000 C 
BRANCH  18  19
ATOM     19  C   UNL     1      35.643  24.278  70.047  1.00  0.00    -0.000 C 
BRANCH  19  20
ATOM     20  C   UNL     1      36.986  24.011  69.343  1.00  0.00    -0.000 C 
BRANCH  20  21
ATOM     21  C   UNL     1      38.066  25.086  69.581  1.00  0.00    -0.000 C 
BRANCH  21  22
ATOM     22  C   UNL     1      39.278  24.582  70.392  1.00  0.00    -0.000 C 
BRANCH  22  23
ATOM     23  C   UNL     1      38.904  24.227  71.842  1.00  0.00    -0.000 C 
BRANCH  23  24
ATOM     24  C   UNL     1      39.951  24.711  72.863  1.00  0.00    -0.000 C 
BRANCH  24  25
ATOM     25  C   UNL     1      39.370  25.164  74.215  1.00  0.00    -0.003 C 
ATOM     26  C   UNL     1      39.679  26.628  74.532  1.00  0.00     0.004 C 
ENDBRANCH  24  25
ENDBRANCH  23  24
ENDBRANCH  22  23
ENDBRANCH  21  22
ENDBRANCH  20  21
ENDBRANCH  19  20
ENDBRANCH  18  19
ENDBRANCH  17  18
ENDBRANCH  16  17
ENDBRANCH  15  16
ENDBRANCH   1  15
TORSDOF 22
ENDMDL
MODEL 6
REMARK VINA RESULT:    -2.277      1.592      1.902
REMARK INTER + INTRA:          -6.951
REMARK INTER:                  -6.073
REMARK INTRA:                  -0.879
REMARK UNBOUND:                -1.745
REMARK SMILES CCCCCCCCCCCCCCCCCCCCCCCC(=O)[O-]
REMARK SMILES IDX 13 1 14 2 15 3 16 4 17 5 18 6 19 7 20 8 21 9 22 10 23 11
REMARK SMILES IDX 24 12 25 13 26 14 12 15 11 16 10 17 9 18 8 19 7 20 6 21 5 22
REMARK SMILES IDX 4 23 3 24 2 25 1 26
REMARK H PARENT
REMARK Flexibility Score: inf
ROOT
ATOM      1  C   UNL     1      33.739  25.258  69.954  1.00  0.00     0.000 C 
ENDROOT
BRANCH   1   2
ATOM      2  C   UNL     1      32.516  25.520  70.861  1.00  0.00     0.000 C 
BRANCH   2   3
ATOM      3  C   UNL     1      31.591  24.295  70.970  1.00  0.00     0.000 C 
BRANCH   3   4
ATOM      4  C   UNL     1      30.724  24.094  69.719  1.00  0.00     0.000 C 
BRANCH   4   5
ATOM      5  C   UNL     1      31.192  24.934  68.521  1.00  0.00     0.000 C 
BRANCH   5   6
ATOM      6  C   UNL     1      31.272  24.073  67.254  1.00  0.00     0.000 C 
BRANCH   6   7
ATOM      7  C   UNL     1      32.723  23.883  66.799  1.00  0.00     0.000 C 
BRANCH   7   8
ATOM      8  C   UNL     1      32.883  24.245  65.314  1.00  0.00     0.000 C 
BRANCH   8   9
ATOM      9  C   UNL     1      31.868  25.298  64.844  1.00  0.00     0.000 C 
BRANCH   9  10
ATOM     10  C   UNL     1      31.361  25.032  63.415  1.00  0.00     0.006 C 
BRANCH  10  11
ATOM     11  C   UNL     1      32.293  24.094  62.634  1.00  0.00     0.053 C 
BRANCH  11  12
ATOM     12  C   UNL     1      33.397  24.850  61.958  1.00  0.00     0.041 C 
ATOM     13  O   UNL     1      33.398  26.109  61.957  1.00  0.00    -0.550 OA
ATOM     14  O   UNL     1      34.451  24.161  61.370  1.00  0.00    -0.550 OA
ENDBRANCH  11  12
ENDBRANCH  10  11
ENDBRANCH   9  10
ENDBRANCH   8   9
ENDBRANCH   7   8
ENDBRANCH   6   7
ENDBRANCH   5   6
ENDBRANCH   4   5
ENDBRANCH   3   4
ENDBRANCH   2   3
ENDBRANCH   1   2
BRANCH   1  15
ATOM     15  C   UNL     1      34.399  23.884  70.182  1.00  0.00     0.000 C 
BRANCH  15  16
ATOM     16  C   UNL     1      35.720  23.923  70.969  1.00  0.00     0.000 C 
BRANCH  16  17
ATOM     17  C   UNL     1      36.788  24.800  70.299  1.00  0.00     0.000 C 
BRANCH  17  18
ATOM     18  C   UNL     1      38.020  23.971  69.916  1.00  0.00    -0.000 C 
BRANCH  18  19
ATOM     19  C   UNL     1      39.316  24.688  70.320  1.00  0.00    -0.000 C 
BRANCH  19  20
ATOM     20  C   UNL     1      39.932  24.120  71.612  1.00  0.00    -0.000 C 
BRANCH  20  21
ATOM     21  C   UNL     1      39.097  24.361  72.886  1.00  0.00    -0.000 C 
BRANCH  21  22
ATOM     22  C   UNL     1      39.859  25.115  73.996  1.00  0.00    -0.000 C 
BRANCH  22  23
ATOM     23  C   UNL     1      39.310  26.535  74.220  1.00  0.00    -0.000 C 
BRANCH  23  24
ATOM     24  C   UNL     1      40.035  27.282  75.355  1.00  0.00    -0.000 C 
BRANCH  24  25
ATOM     25  C   UNL     1      39.210  28.397  76.022  1.00  0.00    -0.003 C 
ATOM     26  C   UNL     1      39.834  28.898  77.325  1.00  0.00     0.004 C 
ENDBRANCH  24  25
ENDBRANCH  23  24
ENDBRANCH  22  23
ENDBRANCH  21  22
ENDBRANCH  20  21
ENDBRANCH  19  20
ENDBRANCH  18  19
ENDBRANCH  17  18
ENDBRANCH  16  17
ENDBRANCH  15  16
ENDBRANCH   1  15
TORSDOF 22
ENDMDL
MODEL 7
REMARK VINA RESULT:    -1.907      4.355     11.457
REMARK INTER + INTRA:          -6.104
REMARK INTER:                  -6.509
REMARK INTRA:                   0.405
REMARK UNBOUND:                -1.745
REMARK SMILES CCCCCCCCCCCCCCCCCCCCCCCC(=O)[O-]
REMARK SMILES IDX 13 1 14 2 15 3 16 4 17 5 18 6 19 7 20 8 21 9 22 10 23 11
REMARK SMILES IDX 24 12 25 13 26 14 12 15 11 16 10 17 9 18 8 19 7 20 6 21 5 22
REMARK SMILES IDX 4 23 3 24 2 25 1 26
REMARK H PARENT
REMARK Flexibility Score: inf
ROOT
ATOM      1  C   UNL     1      31.936  25.030  68.022  1.00  0.00     0.000 C 
ENDROOT
BRANCH   1   2
ATOM      2  C   UNL     1      31.100  23.907  68.676  1.00  0.00     0.000 C 
BRANCH   2   3
ATOM      3  C   UNL     1      31.230  23.893  70.208  1.00  0.00     0.000 C 
BRANCH   3   4
ATOM      4  C   UNL     1      31.016  25.279  70.835  1.00  0.00     0.000 C 
BRANCH   4   5
ATOM      5  C   UNL     1      31.886  26.370  70.192  1.00  0.00     0.000 C 
BRANCH   5   6
ATOM      6  C   UNL     1      33.033  26.769  71.129  1.00  0.00     0.000 C 
BRANCH   6   7
ATOM      7  C   UNL     1      33.870  25.551  71.536  1.00  0.00     0.000 C 
BRANCH   7   8
ATOM      8  C   UNL     1      34.961  25.264  70.493  1.00  0.00     0.000 C 
BRANCH   8   9
ATOM      9  C   UNL     1      35.598  23.876  70.661  1.00  0.00     0.000 C 
BRANCH   9  10
ATOM     10  C   UNL     1      36.902  23.921  71.478  1.00  0.00     0.006 C 
BRANCH  10  11
ATOM     11  C   UNL     1      38.149  23.925  70.583  1.00  0.00     0.053 C 
BRANCH  11  12
ATOM     12  C   UNL     1      39.357  24.416  71.321  1.00  0.00     0.041 C 
ATOM     13  O   UNL     1      39.326  24.551  72.573  1.00  0.00    -0.550 OA
ATOM     14  O   UNL     1      40.533  24.681  70.630  1.00  0.00    -0.550 OA
ENDBRANCH  11  12
ENDBRANCH  10  11
ENDBRANCH   9  10
ENDBRANCH   8   9
ENDBRANCH   7   8
ENDBRANCH   6   7
ENDBRANCH   5   6
ENDBRANCH   4   5
ENDBRANCH   3   4
ENDBRANCH   2   3
ENDBRANCH   1   2
BRANCH   1  15
ATOM     15  C   UNL     1      33.148  24.518  67.220  1.00  0.00     0.000 C 
BRANCH  15  16
ATOM     16  C   UNL     1      32.802  23.875  65.867  1.00  0.00     0.000 C 
BRANCH  16  17
ATOM     17  C   UNL     1      31.322  24.039  65.488  1.00  0.00     0.000 C 
BRANCH  17  18
ATOM     18  C   UNL     1      30.954  25.519  65.335  1.00  0.00    -0.000 C 
BRANCH  18  19
ATOM     19  C   UNL     1      31.068  25.969  63.872  1.00  0.00    -0.000 C 
BRANCH  19  20
ATOM     20  C   UNL     1      30.380  24.998  62.895  1.00  0.00    -0.000 C 
BRANCH  20  21
ATOM     21  C   UNL     1      28.863  25.216  62.727  1.00  0.00    -0.000 C 
BRANCH  21  22
ATOM     22  C   UNL     1      28.159  24.107  61.919  1.00  0.00    -0.000 C 
BRANCH  22  23
ATOM     23  C   UNL     1      26.673  23.964  62.294  1.00  0.00    -0.000 C 
BRANCH  23  24
ATOM     24  C   UNL     1      25.730  24.271  61.116  1.00  0.00    -0.000 C 
BRANCH  24  25
ATOM     25  C   UNL     1      24.637  25.313  61.421  1.00  0.00    -0.003 C 
ATOM     26  C   UNL     1      24.549  26.407  60.356  1.00  0.00     0.004 C 
ENDBRANCH  24  25
ENDBRANCH  23  24
ENDBRANCH  22  23
ENDBRANCH  21  22
ENDBRANCH  20  21
ENDBRANCH  19  20
ENDBRANCH  18  19
ENDBRANCH  17  18
ENDBRANCH  16  17
ENDBRANCH  15  16
ENDBRANCH   1  15
TORSDOF 22
ENDMDL
