MODEL 1
REMARK VINA RESULT:    -4.111      0.000      0.000
REMARK INTER + INTRA:          -5.015
REMARK INTER:                  -4.712
REMARK INTRA:                  -0.303
REMARK UNBOUND:                -0.303
REMARK SMILES COc1ccc(C(C)=O)c(O)c1
REMARK SMILES IDX 6 1 10 2 12 3 3 4 4 5 5 6 7 7 8 8 9 9 11 10 2 12 1 13
REMARK H PARENT 11 11
REMARK Flexibility Score: inf
ROOT
ATOM      1  C   UNL     1     -15.134 -17.838  26.655  1.00  0.00     0.059 A 
ATOM      2  C   UNL     1     -15.725 -16.959  25.715  1.00  0.00     0.130 A 
ATOM      3  C   UNL     1     -17.039 -16.514  25.908  1.00  0.00     0.093 A 
ATOM      4  C   UNL     1     -17.794 -16.954  27.010  1.00  0.00     0.122 A 
ATOM      5  C   UNL     1     -17.217 -17.845  27.918  1.00  0.00     0.047 A 
ATOM      6  C   UNL     1     -15.903 -18.283  27.745  1.00  0.00     0.019 A 
ENDROOT
BRANCH   1   7
ATOM      7  C   UNL     1     -13.721 -18.273  26.544  1.00  0.00     0.163 C 
ATOM      8  C   UNL     1     -12.939 -18.679  27.755  1.00  0.00     0.093 C 
ATOM      9  O   UNL     1     -13.135 -18.225  25.430  1.00  0.00    -0.294 OA
ENDBRANCH   1   7
BRANCH   2  10
ATOM     10  O   UNL     1     -15.055 -16.533  24.566  1.00  0.00    -0.507 OA
ATOM     11  H   UNL     1     -14.268 -15.900  24.584  1.00  0.00     0.293 HD
ENDBRANCH   2  10
BRANCH   4  12
ATOM     12  O   UNL     1     -19.114 -16.537  27.234  1.00  0.00    -0.497 OA
ATOM     13  C   UNL     1     -20.162 -17.389  27.687  1.00  0.00     0.278 C 
ENDBRANCH   4  12
TORSDOF 3
ENDMDL
MODEL 2
REMARK VINA RESULT:    -4.074      2.854      4.982
REMARK INTER + INTRA:          -4.973
REMARK INTER:                  -4.646
REMARK INTRA:                  -0.327
REMARK UNBOUND:                -0.303
REMARK SMILES COc1ccc(C(C)=O)c(O)c1
REMARK SMILES IDX 6 1 10 2 12 3 3 4 4 5 5 6 7 7 8 8 9 9 11 10 2 12 1 13
REMARK H PARENT 11 11
REMARK Flexibility Score: inf
ROOT
ATOM      1  C   UNL     1     -13.778 -18.916  28.888  1.00  0.00     0.059 A 
ATOM      2  C   UNL     1     -14.650 -18.539  27.838  1.00  0.00     0.130 A 
ATOM      3  C   UNL     1     -14.122 -18.146  26.602  1.00  0.00     0.093 A 
ATOM      4  C   UNL     1     -12.732 -18.090  26.397  1.00  0.00     0.122 A 
ATOM      5  C   UNL     1     -11.876 -18.435  27.446  1.00  0.00     0.047 A 
ATOM      6  C   UNL     1     -12.390 -18.843  28.677  1.00  0.00     0.019 A 
ENDROOT
BRANCH   1   7
ATOM      7  C   UNL     1     -14.283 -19.419  30.188  1.00  0.00     0.163 C 
ATOM      8  C   UNL     1     -13.609 -20.556  30.893  1.00  0.00     0.093 C 
ATOM      9  O   UNL     1     -15.344 -18.945  30.675  1.00  0.00    -0.294 OA
ENDBRANCH   1   7
BRANCH   2  10
ATOM     10  O   UNL     1     -16.037 -18.510  27.994  1.00  0.00    -0.507 OA
ATOM     11  H   UNL     1     -16.570 -17.656  28.087  1.00  0.00     0.293 HD
ENDBRANCH   2  10
BRANCH   4  12
ATOM     12  O   UNL     1     -12.165 -17.696  25.176  1.00  0.00    -0.497 OA
ATOM     13  C   UNL     1     -12.653 -16.627  24.370  1.00  0.00     0.278 C 
ENDBRANCH   4  12
TORSDOF 3
ENDMDL
MODEL 3
REMARK VINA RESULT:    -4.052      3.282      6.154
REMARK INTER + INTRA:          -4.947
REMARK INTER:                  -4.610
REMARK INTRA:                  -0.338
REMARK UNBOUND:                -0.303
REMARK SMILES COc1ccc(C(C)=O)c(O)c1
REMARK SMILES IDX 6 1 10 2 12 3 3 4 4 5 5 6 7 7 8 8 9 9 11 10 2 12 1 13
REMARK H PARENT 11 11
REMARK Flexibility Score: inf
ROOT
ATOM      1  C   UNL     1     -18.820 -18.344  29.227  1.00  0.00     0.059 A 
ATOM      2  C   UNL     1     -18.633 -19.179  30.355  1.00  0.00     0.130 A 
ATOM      3  C   UNL     1     -17.342 -19.591  30.710  1.00  0.00     0.093 A 
ATOM      4  C   UNL     1     -16.228 -19.212  29.940  1.00  0.00     0.122 A 
ATOM      5  C   UNL     1     -16.422 -18.413  28.811  1.00  0.00     0.047 A 
ATOM      6  C   UNL     1     -17.701 -17.982  28.456  1.00  0.00     0.019 A 
ENDROOT
BRANCH   1   7
ATOM      7  C   UNL     1     -20.153 -17.811  28.856  1.00  0.00     0.163 C 
ATOM      8  C   UNL     1     -20.486 -17.481  27.433  1.00  0.00     0.093 C 
ATOM      9  O   UNL     1     -20.997 -17.550  29.754  1.00  0.00    -0.294 OA
ENDBRANCH   1   7
BRANCH   2  10
ATOM     10  O   UNL     1     -19.701 -19.645  31.125  1.00  0.00    -0.507 OA
ATOM     11  H   UNL     1     -19.940 -19.267  32.031  1.00  0.00     0.293 HD
ENDBRANCH   2  10
BRANCH   4  12
ATOM     12  O   UNL     1     -14.921 -19.609  30.259  1.00  0.00    -0.497 OA
ATOM     13  C   UNL     1     -13.747 -19.063  29.665  1.00  0.00     0.278 C 
ENDBRANCH   4  12
TORSDOF 3
ENDMDL
MODEL 4
REMARK VINA RESULT:    -4.015      1.615      4.859
REMARK INTER + INTRA:          -4.905
REMARK INTER:                  -4.600
REMARK INTRA:                  -0.306
REMARK UNBOUND:                -0.303
REMARK SMILES COc1ccc(C(C)=O)c(O)c1
REMARK SMILES IDX 6 1 10 2 12 3 3 4 4 5 5 6 7 7 8 8 9 9 11 10 2 12 1 13
REMARK H PARENT 11 11
REMARK Flexibility Score: inf
ROOT
ATOM      1  C   UNL     1     -17.410 -17.000  26.986  1.00  0.00     0.059 A 
ATOM      2  C   UNL     1     -16.343 -17.896  27.241  1.00  0.00     0.130 A 
ATOM      3  C   UNL     1     -15.165 -17.807  26.489  1.00  0.00     0.093 A 
ATOM      4  C   UNL     1     -15.038 -16.859  25.458  1.00  0.00     0.122 A 
ATOM      5  C   UNL     1     -16.106 -15.999  25.190  1.00  0.00     0.047 A 
ATOM      6  C   UNL     1     -17.278 -16.066  25.943  1.00  0.00     0.019 A 
ENDROOT
BRANCH   1   7
ATOM      7  C   UNL     1     -18.645 -16.995  27.806  1.00  0.00     0.163 C 
ATOM      8  C   UNL     1     -18.937 -15.875  28.758  1.00  0.00     0.093 C 
ATOM      9  O   UNL     1     -19.427 -17.982  27.771  1.00  0.00    -0.294 OA
ENDBRANCH   1   7
BRANCH   2  10
ATOM     10  O   UNL     1     -16.426 -18.901  28.206  1.00  0.00    -0.507 OA
ATOM     11  H   UNL     1     -16.690 -19.854  27.997  1.00  0.00     0.293 HD
ENDBRANCH   2  10
BRANCH   4  12
ATOM     12  O   UNL     1     -13.878 -16.744  24.679  1.00  0.00    -0.497 OA
ATOM     13  C   UNL     1     -12.652 -17.415  24.956  1.00  0.00     0.278 C 
ENDBRANCH   4  12
TORSDOF 3
ENDMDL
MODEL 5
REMARK VINA RESULT:    -3.964      2.438      5.910
REMARK INTER + INTRA:          -4.846
REMARK INTER:                  -4.508
REMARK INTRA:                  -0.338
REMARK UNBOUND:                -0.303
REMARK SMILES COc1ccc(C(C)=O)c(O)c1
REMARK SMILES IDX 6 1 10 2 12 3 3 4 4 5 5 6 7 7 8 8 9 9 11 10 2 12 1 13
REMARK H PARENT 11 11
REMARK Flexibility Score: inf
ROOT
ATOM      1  C   UNL     1     -19.503 -17.566  29.137  1.00  0.00     0.059 A 
ATOM      2  C   UNL     1     -18.712 -18.711  29.403  1.00  0.00     0.130 A 
ATOM      3  C   UNL     1     -17.493 -18.885  28.735  1.00  0.00     0.093 A 
ATOM      4  C   UNL     1     -17.057 -17.952  27.778  1.00  0.00     0.122 A 
ATOM      5  C   UNL     1     -17.855 -16.841  27.498  1.00  0.00     0.047 A 
ATOM      6  C   UNL     1     -19.063 -16.648  28.168  1.00  0.00     0.019 A 
ENDROOT
BRANCH   1   7
ATOM      7  C   UNL     1     -20.759 -17.290  29.876  1.00  0.00     0.163 C 
ATOM      8  C   UNL     1     -21.869 -16.505  29.247  1.00  0.00     0.093 C 
ATOM      9  O   UNL     1     -20.871 -17.646  31.079  1.00  0.00    -0.294 OA
ENDBRANCH   1   7
BRANCH   2  10
ATOM     10  O   UNL     1     -19.116 -19.707  30.294  1.00  0.00    -0.507 OA
ATOM     11  H   UNL     1     -19.547 -20.573  30.002  1.00  0.00     0.293 HD
ENDBRANCH   2  10
BRANCH   4  12
ATOM     12  O   UNL     1     -15.847 -18.095  27.083  1.00  0.00    -0.497 OA
ATOM     13  C   UNL     1     -15.483 -17.334  25.935  1.00  0.00     0.278 C 
ENDBRANCH   4  12
TORSDOF 3
ENDMDL
MODEL 6
REMARK VINA RESULT:    -3.962      1.459      4.340
REMARK INTER + INTRA:          -4.844
REMARK INTER:                  -4.503
REMARK INTRA:                  -0.342
REMARK UNBOUND:                -0.303
REMARK SMILES COc1ccc(C(C)=O)c(O)c1
REMARK SMILES IDX 6 1 10 2 12 3 3 4 4 5 5 6 7 7 8 8 9 9 11 10 2 12 1 13
REMARK H PARENT 11 11
REMARK Flexibility Score: inf
ROOT
ATOM      1  C   UNL     1     -16.682 -17.699  27.333  1.00  0.00     0.059 A 
ATOM      2  C   UNL     1     -17.043 -16.643  26.460  1.00  0.00     0.130 A 
ATOM      3  C   UNL     1     -16.148 -16.222  25.469  1.00  0.00     0.093 A 
ATOM      4  C   UNL     1     -14.877 -16.813  25.348  1.00  0.00     0.122 A 
ATOM      5  C   UNL     1     -14.514 -17.833  26.231  1.00  0.00     0.047 A 
ATOM      6  C   UNL     1     -15.404 -18.272  27.212  1.00  0.00     0.019 A 
ENDROOT
BRANCH   1   7
ATOM      7  C   UNL     1     -17.622 -18.239  28.343  1.00  0.00     0.163 C 
ATOM      8  C   UNL     1     -17.125 -18.806  29.638  1.00  0.00     0.093 C 
ATOM      9  O   UNL     1     -18.854 -18.303  28.085  1.00  0.00    -0.294 OA
ENDBRANCH   1   7
BRANCH   2  10
ATOM     10  O   UNL     1     -18.262 -15.971  26.566  1.00  0.00    -0.507 OA
ATOM     11  H   UNL     1     -18.641 -15.387  25.833  1.00  0.00     0.293 HD
ENDBRANCH   2  10
BRANCH   4  12
ATOM     12  O   UNL     1     -13.951 -16.415  24.373  1.00  0.00    -0.497 OA
ATOM     13  C   UNL     1     -12.568 -16.755  24.391  1.00  0.00     0.278 C 
ENDBRANCH   4  12
TORSDOF 3
ENDMDL
MODEL 7
REMARK VINA RESULT:    -3.914      2.045      2.488
REMARK INTER + INTRA:          -4.789
REMARK INTER:                  -4.535
REMARK INTRA:                  -0.254
REMARK UNBOUND:                -0.303
REMARK SMILES COc1ccc(C(C)=O)c(O)c1
REMARK SMILES IDX 6 1 10 2 12 3 3 4 4 5 5 6 7 7 8 8 9 9 11 10 2 12 1 13
REMARK H PARENT 11 11
REMARK Flexibility Score: inf
ROOT
ATOM      1  C   UNL     1     -14.641 -18.568  27.959  1.00  0.00     0.059 A 
ATOM      2  C   UNL     1     -15.858 -18.182  27.344  1.00  0.00     0.130 A 
ATOM      3  C   UNL     1     -17.040 -18.159  28.095  1.00  0.00     0.093 A 
ATOM      4  C   UNL     1     -17.043 -18.547  29.447  1.00  0.00     0.122 A 
ATOM      5  C   UNL     1     -15.846 -18.956  30.040  1.00  0.00     0.047 A 
ATOM      6  C   UNL     1     -14.658 -18.967  29.307  1.00  0.00     0.019 A 
ENDROOT
BRANCH   1   7
ATOM      7  C   UNL     1     -13.348 -18.530  27.235  1.00  0.00     0.163 C 
ATOM      8  C   UNL     1     -12.046 -18.544  27.975  1.00  0.00     0.093 C 
ATOM      9  O   UNL     1     -13.334 -18.400  25.981  1.00  0.00    -0.294 OA
ENDBRANCH   1   7
BRANCH   2  10
ATOM     10  O   UNL     1     -15.938 -17.847  25.992  1.00  0.00    -0.507 OA
ATOM     11  H   UNL     1     -15.961 -16.894  25.654  1.00  0.00     0.293 HD
ENDBRANCH   2  10
BRANCH   4  12
ATOM     12  O   UNL     1     -18.206 -18.544  30.230  1.00  0.00    -0.497 OA
ATOM     13  C   UNL     1     -18.620 -19.624  31.061  1.00  0.00     0.278 C 
ENDBRANCH   4  12
TORSDOF 3
ENDMDL
MODEL 8
REMARK VINA RESULT:    -3.882      2.598      5.335
REMARK INTER + INTRA:          -4.753
REMARK INTER:                  -4.439
REMARK INTRA:                  -0.314
REMARK UNBOUND:                -0.303
REMARK SMILES COc1ccc(C(C)=O)c(O)c1
REMARK SMILES IDX 6 1 10 2 12 3 3 4 4 5 5 6 7 7 8 8 9 9 11 10 2 12 1 13
REMARK H PARENT 11 11
REMARK Flexibility Score: inf
ROOT
ATOM      1  C   UNL     1     -16.895 -19.004  29.517  1.00  0.00     0.059 A 
ATOM      2  C   UNL     1     -16.315 -18.509  28.324  1.00  0.00     0.130 A 
ATOM      3  C   UNL     1     -14.920 -18.454  28.199  1.00  0.00     0.093 A 
ATOM      4  C   UNL     1     -14.086 -18.855  29.258  1.00  0.00     0.122 A 
ATOM      5  C   UNL     1     -14.665 -19.314  30.444  1.00  0.00     0.047 A 
ATOM      6  C   UNL     1     -16.052 -19.389  30.574  1.00  0.00     0.019 A 
ENDROOT
BRANCH   1   7
ATOM      7  C   UNL     1     -18.362 -19.162  29.671  1.00  0.00     0.163 C 
ATOM      8  C   UNL     1     -18.988 -19.290  31.025  1.00  0.00     0.093 C 
ATOM      9  O   UNL     1     -19.092 -19.274  28.650  1.00  0.00    -0.294 OA
ENDBRANCH   1   7
BRANCH   2  10
ATOM     10  O   UNL     1     -17.084 -18.035  27.259  1.00  0.00    -0.507 OA
ATOM     11  H   UNL     1     -17.078 -17.073  26.953  1.00  0.00     0.293 HD
ENDBRANCH   2  10
BRANCH   4  12
ATOM     12  O   UNL     1     -12.687 -18.809  29.174  1.00  0.00    -0.497 OA
ATOM     13  C   UNL     1     -11.962 -18.487  27.990  1.00  0.00     0.278 C 
ENDBRANCH   4  12
TORSDOF 3
ENDMDL
