MODEL 1
REMARK VINA RESULT:     2.880      0.000      0.000
REMARK INTER + INTRA:           7.577
REMARK INTER:                   7.595
REMARK INTRA:                  -0.018
REMARK UNBOUND:                -0.018
REMARK SMILES CCCCCCCCCCCCCCCCCCCCCCCCCCCCCC(=O)[O-]
REMARK SMILES IDX 16 1 17 2 18 3 19 4 20 5 21 6 22 7 23 8 24 9 25 10 26 11
REMARK SMILES IDX 27 12 28 13 29 14 30 15 31 16 32 17 15 18 14 19 13 20 12 21
REMARK SMILES IDX 11 22 10 23 9 24 8 25 7 26 6 27 5 28 4 29 3 30 2 31 1 32
REMARK H PARENT
REMARK Flexibility Score: inf
ROOT
ATOM      1  C   UNL     1      24.672   4.448  -1.732  1.00  0.00     0.000 C 
ENDROOT
BRANCH   1   2
ATOM      2  C   UNL     1      26.017   5.104  -1.351  1.00  0.00     0.000 C 
BRANCH   2   3
ATOM      3  C   UNL     1      27.064   4.106  -0.818  1.00  0.00     0.000 C 
BRANCH   3   4
ATOM      4  C   UNL     1      28.209   4.740  -0.006  1.00  0.00     0.000 C 
BRANCH   4   5
ATOM      5  C   UNL     1      28.375   6.262  -0.193  1.00  0.00     0.000 C 
BRANCH   5   6
ATOM      6  C   UNL     1      29.125   6.691  -1.470  1.00  0.00     0.000 C 
BRANCH   6   7
ATOM      7  C   UNL     1      28.397   7.732  -2.340  1.00  0.00     0.000 C 
BRANCH   7   8
ATOM      8  C   UNL     1      26.874   7.728  -2.127  1.00  0.00     0.000 C 
BRANCH   8   9
ATOM      9  C   UNL     1      26.132   8.622  -3.134  1.00  0.00     0.000 C 
BRANCH   9  10
ATOM     10  C   UNL     1      27.084   9.354  -4.093  1.00  0.00     0.000 C 
BRANCH  10  11
ATOM     11  C   UNL     1      27.350  10.789  -3.613  1.00  0.00     0.000 C 
BRANCH  11  12
ATOM     12  C   UNL     1      28.815  11.024  -3.203  1.00  0.00     0.000 C 
BRANCH  12  13
ATOM     13  C   UNL     1      29.064  11.111  -1.683  1.00  0.00     0.006 C 
BRANCH  13  14
ATOM     14  C   UNL     1      29.055   9.758  -0.956  1.00  0.00     0.053 C 
BRANCH  14  15
ATOM     15  C   UNL     1      28.385   9.845   0.382  1.00  0.00     0.041 C 
ATOM     16  O   UNL     1      29.075   9.868   1.434  1.00  0.00    -0.550 OA
ATOM     17  O   UNL     1      26.999   9.850   0.469  1.00  0.00    -0.550 OA
ENDBRANCH  14  15
ENDBRANCH  13  14
ENDBRANCH  12  13
ENDBRANCH  11  12
ENDBRANCH  10  11
ENDBRANCH   9  10
ENDBRANCH   8   9
ENDBRANCH   7   8
ENDBRANCH   6   7
ENDBRANCH   5   6
ENDBRANCH   4   5
ENDBRANCH   3   4
ENDBRANCH   2   3
ENDBRANCH   1   2
BRANCH   1  18
ATOM     18  C   UNL     1      24.857   3.190  -2.598  1.00  0.00     0.000 C 
BRANCH  18  19
ATOM     19  C   UNL     1      23.576   2.799  -3.354  1.00  0.00     0.000 C 
BRANCH  19  20
ATOM     20  C   UNL     1      23.327   1.281  -3.341  1.00  0.00     0.000 C 
BRANCH  20  21
ATOM     21  C   UNL     1      22.254   0.866  -2.322  1.00  0.00     0.000 C 
BRANCH  21  22
ATOM     22  C   UNL     1      21.896  -0.629  -2.410  1.00  0.00     0.000 C 
BRANCH  22  23
ATOM     23  C   UNL     1      22.510  -1.455  -1.268  1.00  0.00     0.000 C 
BRANCH  23  24
ATOM     24  C   UNL     1      23.481  -2.537  -1.773  1.00  0.00    -0.000 C 
BRANCH  24  25
ATOM     25  C   UNL     1      24.850  -1.954  -2.160  1.00  0.00    -0.000 C 
BRANCH  25  26
ATOM     26  C   UNL     1      25.092  -1.989  -3.679  1.00  0.00    -0.000 C 
BRANCH  26  27
ATOM     27  C   UNL     1      26.281  -2.886  -4.072  1.00  0.00    -0.000 C 
BRANCH  27  28
ATOM     28  C   UNL     1      26.007  -4.404  -3.997  1.00  0.00    -0.000 C 
BRANCH  28  29
ATOM     29  C   UNL     1      27.260  -5.297  -3.933  1.00  0.00    -0.000 C 
BRANCH  29  30
ATOM     30  C   UNL     1      27.527  -5.854  -2.524  1.00  0.00    -0.000 C 
BRANCH  30  31
ATOM     31  C   UNL     1      28.080  -4.789  -1.565  1.00  0.00    -0.003 C 
ATOM     32  C   UNL     1      27.277  -4.680  -0.268  1.00  0.00     0.004 C 
ENDBRANCH  30  31
ENDBRANCH  29  30
ENDBRANCH  28  29
ENDBRANCH  27  28
ENDBRANCH  26  27
ENDBRANCH  25  26
ENDBRANCH  24  25
ENDBRANCH  23  24
ENDBRANCH  22  23
ENDBRANCH  21  22
ENDBRANCH  20  21
ENDBRANCH  19  20
ENDBRANCH  18  19
ENDBRANCH   1  18
TORSDOF 28
ENDMDL
MODEL 2
REMARK VINA RESULT:     2.882      2.101      3.357
REMARK INTER + INTRA:           7.581
REMARK INTER:                   8.942
REMARK INTRA:                  -1.362
REMARK UNBOUND:                -0.018
REMARK SMILES CCCCCCCCCCCCCCCCCCCCCCCCCCCCCC(=O)[O-]
REMARK SMILES IDX 16 1 17 2 18 3 19 4 20 5 21 6 22 7 23 8 24 9 25 10 26 11
REMARK SMILES IDX 27 12 28 13 29 14 30 15 31 16 32 17 15 18 14 19 13 20 12 21
REMARK SMILES IDX 11 22 10 23 9 24 8 25 7 26 6 27 5 28 4 29 3 30 2 31 1 32
REMARK H PARENT
REMARK Flexibility Score: inf
ROOT
ATOM      1  C   UNL     1      25.590   5.018  -1.177  1.00  0.00     0.000 C 
ENDROOT
BRANCH   1   2
ATOM      2  C   UNL     1      26.411   6.183  -1.769  1.00  0.00     0.000 C 
BRANCH   2   3
ATOM      3  C   UNL     1      25.808   6.774  -3.059  1.00  0.00     0.000 C 
BRANCH   3   4
ATOM      4  C   UNL     1      26.622   7.919  -3.689  1.00  0.00     0.000 C 
BRANCH   4   5
ATOM      5  C   UNL     1      27.955   8.239  -2.980  1.00  0.00     0.000 C 
BRANCH   5   6
ATOM      6  C   UNL     1      28.845   9.279  -3.689  1.00  0.00     0.000 C 
BRANCH   6   7
ATOM      7  C   UNL     1      28.967  10.636  -2.971  1.00  0.00     0.000 C 
BRANCH   7   8
ATOM      8  C   UNL     1      28.923  10.507  -1.439  1.00  0.00     0.000 C 
BRANCH   8   9
ATOM      9  C   UNL     1      27.525  10.140  -0.916  1.00  0.00     0.000 C 
BRANCH   9  10
ATOM     10  C   UNL     1      27.572   9.308   0.375  1.00  0.00     0.000 C 
BRANCH  10  11
ATOM     11  C   UNL     1      29.016   9.153   0.875  1.00  0.00     0.000 C 
BRANCH  11  12
ATOM     12  C   UNL     1      29.100   8.616   2.315  1.00  0.00     0.000 C 
BRANCH  12  13
ATOM     13  C   UNL     1      28.649   9.606   3.410  1.00  0.00     0.006 C 
BRANCH  13  14
ATOM     14  C   UNL     1      27.731   9.000   4.482  1.00  0.00     0.053 C 
BRANCH  14  15
ATOM     15  C   UNL     1      28.500   8.526   5.677  1.00  0.00     0.041 C 
ATOM     16  O   UNL     1      28.622   9.268   6.686  1.00  0.00    -0.550 OA
ATOM     17  O   UNL     1      29.125   7.286   5.657  1.00  0.00    -0.550 OA
ENDBRANCH  14  15
ENDBRANCH  13  14
ENDBRANCH  12  13
ENDBRANCH  11  12
ENDBRANCH  10  11
ENDBRANCH   9  10
ENDBRANCH   8   9
ENDBRANCH   7   8
ENDBRANCH   6   7
ENDBRANCH   5   6
ENDBRANCH   4   5
ENDBRANCH   3   4
ENDBRANCH   2   3
ENDBRANCH   1   2
BRANCH   1  18
ATOM     18  C   UNL     1      24.450   4.569  -2.109  1.00  0.00     0.000 C 
BRANCH  18  19
ATOM     19  C   UNL     1      24.560   3.089  -2.509  1.00  0.00     0.000 C 
BRANCH  19  20
ATOM     20  C   UNL     1      23.329   2.598  -3.288  1.00  0.00     0.000 C 
BRANCH  20  21
ATOM     21  C   UNL     1      22.690   1.349  -2.660  1.00  0.00     0.000 C 
BRANCH  21  22
ATOM     22  C   UNL     1      23.433   0.052  -3.029  1.00  0.00     0.000 C 
BRANCH  22  23
ATOM     23  C   UNL     1      23.006  -1.144  -2.162  1.00  0.00     0.000 C 
BRANCH  23  24
ATOM     24  C   UNL     1      23.626  -2.472  -2.635  1.00  0.00    -0.000 C 
BRANCH  24  25
ATOM     25  C   UNL     1      25.162  -2.421  -2.657  1.00  0.00    -0.000 C 
BRANCH  25  26
ATOM     26  C   UNL     1      25.739  -2.745  -4.047  1.00  0.00    -0.000 C 
BRANCH  26  27
ATOM     27  C   UNL     1      26.345  -4.157  -4.125  1.00  0.00    -0.000 C 
BRANCH  27  28
ATOM     28  C   UNL     1      26.104  -5.042  -2.883  1.00  0.00    -0.000 C 
BRANCH  28  29
ATOM     29  C   UNL     1      27.264  -5.984  -2.510  1.00  0.00    -0.000 C 
BRANCH  29  30
ATOM     30  C   UNL     1      28.294  -5.324  -1.576  1.00  0.00    -0.000 C 
BRANCH  30  31
ATOM     31  C   UNL     1      27.635  -4.507  -0.455  1.00  0.00    -0.003 C 
ATOM     32  C   UNL     1      28.607  -4.147   0.669  1.00  0.00     0.004 C 
ENDBRANCH  30  31
ENDBRANCH  29  30
ENDBRANCH  28  29
ENDBRANCH  27  28
ENDBRANCH  26  27
ENDBRANCH  25  26
ENDBRANCH  24  25
ENDBRANCH  23  24
ENDBRANCH  22  23
ENDBRANCH  21  22
ENDBRANCH  20  21
ENDBRANCH  19  20
ENDBRANCH  18  19
ENDBRANCH   1  18
TORSDOF 28
ENDMDL
MODEL 3
REMARK VINA RESULT:     3.002      3.567     11.485
REMARK INTER + INTRA:           7.897
REMARK INTER:                   8.405
REMARK INTRA:                  -0.508
REMARK UNBOUND:                -0.018
REMARK SMILES CCCCCCCCCCCCCCCCCCCCCCCCCCCCCC(=O)[O-]
REMARK SMILES IDX 16 1 17 2 18 3 19 4 20 5 21 6 22 7 23 8 24 9 25 10 26 11
REMARK SMILES IDX 27 12 28 13 29 14 30 15 31 16 32 17 15 18 14 19 13 20 12 21
REMARK SMILES IDX 11 22 10 23 9 24 8 25 7 26 6 27 5 28 4 29 3 30 2 31 1 32
REMARK H PARENT
REMARK Flexibility Score: inf
ROOT
ATOM      1  C   UNL     1      24.365   2.838  -2.645  1.00  0.00     0.000 C 
ENDROOT
BRANCH   1   2
ATOM      2  C   UNL     1      22.889   2.420  -2.474  1.00  0.00     0.000 C 
BRANCH   2   3
ATOM      3  C   UNL     1      22.603   0.966  -2.898  1.00  0.00     0.000 C 
BRANCH   3   4
ATOM      4  C   UNL     1      21.792   0.142  -1.881  1.00  0.00     0.000 C 
BRANCH   4   5
ATOM      5  C   UNL     1      22.494  -1.131  -1.366  1.00  0.00     0.000 C 
BRANCH   5   6
ATOM      6  C   UNL     1      23.307  -1.908  -2.421  1.00  0.00     0.000 C 
BRANCH   6   7
ATOM      7  C   UNL     1      24.329  -1.068  -3.210  1.00  0.00     0.000 C 
BRANCH   7   8
ATOM      8  C   UNL     1      25.710  -1.741  -3.302  1.00  0.00     0.000 C 
BRANCH   8   9
ATOM      9  C   UNL     1      25.643  -3.261  -3.081  1.00  0.00     0.000 C 
BRANCH   9  10
ATOM     10  C   UNL     1      26.462  -4.049  -4.116  1.00  0.00     0.000 C 
BRANCH  10  11
ATOM     11  C   UNL     1      27.379  -5.070  -3.426  1.00  0.00     0.000 C 
BRANCH  11  12
ATOM     12  C   UNL     1      26.667  -5.867  -2.319  1.00  0.00     0.000 C 
BRANCH  12  13
ATOM     13  C   UNL     1      27.465  -6.022  -1.007  1.00  0.00     0.006 C 
BRANCH  13  14
ATOM     14  C   UNL     1      28.431  -4.867  -0.706  1.00  0.00     0.053 C 
BRANCH  14  15
ATOM     15  C   UNL     1      28.120  -4.201   0.599  1.00  0.00     0.041 C 
ATOM     16  O   UNL     1      26.957  -4.261   1.078  1.00  0.00    -0.550 OA
ATOM     17  O   UNL     1      29.099  -3.472   1.261  1.00  0.00    -0.550 OA
ENDBRANCH  14  15
ENDBRANCH  13  14
ENDBRANCH  12  13
ENDBRANCH  11  12
ENDBRANCH  10  11
ENDBRANCH   9  10
ENDBRANCH   8   9
ENDBRANCH   7   8
ENDBRANCH   6   7
ENDBRANCH   5   6
ENDBRANCH   4   5
ENDBRANCH   3   4
ENDBRANCH   2   3
ENDBRANCH   1   2
BRANCH   1  18
ATOM     18  C   UNL     1      24.543   4.366  -2.670  1.00  0.00     0.000 C 
BRANCH  18  19
ATOM     19  C   UNL     1      25.318   4.892  -1.449  1.00  0.00     0.000 C 
BRANCH  19  20
ATOM     20  C   UNL     1      26.155   3.795  -0.770  1.00  0.00     0.000 C 
BRANCH  20  21
ATOM     21  C   UNL     1      27.591   3.726  -1.312  1.00  0.00     0.000 C 
BRANCH  21  22
ATOM     22  C   UNL     1      28.643   3.584  -0.197  1.00  0.00     0.000 C 
BRANCH  22  23
ATOM     23  C   UNL     1      29.075   4.938   0.388  1.00  0.00     0.000 C 
BRANCH  23  24
ATOM     24  C   UNL     1      28.939   6.093  -0.621  1.00  0.00    -0.000 C 
BRANCH  24  25
ATOM     25  C   UNL     1      28.375   7.367   0.027  1.00  0.00    -0.000 C 
BRANCH  25  26
ATOM     26  C   UNL     1      29.118   8.634  -0.431  1.00  0.00    -0.000 C 
BRANCH  26  27
ATOM     27  C   UNL     1      28.346   9.422  -1.505  1.00  0.00    -0.000 C 
BRANCH  27  28
ATOM     28  C   UNL     1      29.064   9.546  -2.866  1.00  0.00    -0.000 C 
BRANCH  28  29
ATOM     29  C   UNL     1      28.200  10.090  -4.019  1.00  0.00    -0.000 C 
BRANCH  29  30
ATOM     30  C   UNL     1      26.833   9.391  -4.125  1.00  0.00    -0.000 C 
BRANCH  30  31
ATOM     31  C   UNL     1      26.778   8.082  -3.322  1.00  0.00    -0.003 C 
ATOM     32  C   UNL     1      25.495   7.940  -2.502  1.00  0.00     0.004 C 
ENDBRANCH  30  31
ENDBRANCH  29  30
ENDBRANCH  28  29
ENDBRANCH  27  28
ENDBRANCH  26  27
ENDBRANCH  25  26
ENDBRANCH  24  25
ENDBRANCH  23  24
ENDBRANCH  22  23
ENDBRANCH  21  22
ENDBRANCH  20  21
ENDBRANCH  19  20
ENDBRANCH  18  19
ENDBRANCH   1  18
TORSDOF 28
ENDMDL
MODEL 4
REMARK VINA RESULT:     4.054      1.663      3.385
REMARK INTER + INTRA:          10.673
REMARK INTER:                  10.939
REMARK INTRA:                  -0.267
REMARK UNBOUND:                -0.018
REMARK SMILES CCCCCCCCCCCCCCCCCCCCCCCCCCCCCC(=O)[O-]
REMARK SMILES IDX 16 1 17 2 18 3 19 4 20 5 21 6 22 7 23 8 24 9 25 10 26 11
REMARK SMILES IDX 27 12 28 13 29 14 30 15 31 16 32 17 15 18 14 19 13 20 12 21
REMARK SMILES IDX 11 22 10 23 9 24 8 25 7 26 6 27 5 28 4 29 3 30 2 31 1 32
REMARK H PARENT
REMARK Flexibility Score: inf
ROOT
ATOM      1  C   UNL     1      21.888   2.712  -3.218  1.00  0.00     0.000 C 
ENDROOT
BRANCH   1   2
ATOM      2  C   UNL     1      23.321   3.118  -2.814  1.00  0.00     0.000 C 
BRANCH   2   3
ATOM      3  C   UNL     1      23.621   4.616  -3.015  1.00  0.00     0.000 C 
BRANCH   3   4
ATOM      4  C   UNL     1      24.927   5.109  -2.363  1.00  0.00     0.000 C 
BRANCH   4   5
ATOM      5  C   UNL     1      25.721   4.031  -1.598  1.00  0.00     0.000 C 
BRANCH   5   6
ATOM      6  C   UNL     1      26.445   4.522  -0.329  1.00  0.00     0.000 C 
BRANCH   6   7
ATOM      7  C   UNL     1      27.755   3.785   0.006  1.00  0.00     0.000 C 
BRANCH   7   8
ATOM      8  C   UNL     1      28.894   4.742   0.400  1.00  0.00     0.000 C 
BRANCH   8   9
ATOM      9  C   UNL     1      29.125   5.847  -0.644  1.00  0.00     0.000 C 
BRANCH   9  10
ATOM     10  C   UNL     1      28.792   7.249  -0.110  1.00  0.00     0.000 C 
BRANCH  10  11
ATOM     11  C   UNL     1      27.688   7.909  -0.950  1.00  0.00     0.000 C 
BRANCH  11  12
ATOM     12  C   UNL     1      28.176   9.154  -1.712  1.00  0.00     0.000 C 
BRANCH  12  13
ATOM     13  C   UNL     1      28.904   8.865  -3.042  1.00  0.00     0.006 C 
BRANCH  13  14
ATOM     14  C   UNL     1      28.706   9.936  -4.125  1.00  0.00     0.053 C 
BRANCH  14  15
ATOM     15  C   UNL     1      28.073  11.179  -3.576  1.00  0.00     0.041 C 
ATOM     16  O   UNL     1      26.940  11.544  -3.983  1.00  0.00    -0.550 OA
ATOM     17  O   UNL     1      28.756  11.959  -2.653  1.00  0.00    -0.550 OA
ENDBRANCH  14  15
ENDBRANCH  13  14
ENDBRANCH  12  13
ENDBRANCH  11  12
ENDBRANCH  10  11
ENDBRANCH   9  10
ENDBRANCH   8   9
ENDBRANCH   7   8
ENDBRANCH   6   7
ENDBRANCH   5   6
ENDBRANCH   4   5
ENDBRANCH   3   4
ENDBRANCH   2   3
ENDBRANCH   1   2
BRANCH   1  18
ATOM     18  C   UNL     1      21.605   1.221  -2.960  1.00  0.00     0.000 C 
BRANCH  18  19
ATOM     19  C   UNL     1      20.254   0.987  -2.263  1.00  0.00     0.000 C 
BRANCH  19  20
ATOM     20  C   UNL     1      20.416   0.404  -0.850  1.00  0.00     0.000 C 
BRANCH  20  21
ATOM     21  C   UNL     1      21.141  -0.951  -0.848  1.00  0.00     0.000 C 
BRANCH  21  22
ATOM     22  C   UNL     1      21.990  -1.174  -2.113  1.00  0.00     0.000 C 
BRANCH  22  23
ATOM     23  C   UNL     1      23.485  -1.355  -1.801  1.00  0.00     0.000 C 
BRANCH  23  24
ATOM     24  C   UNL     1      24.198  -2.264  -2.819  1.00  0.00    -0.000 C 
BRANCH  24  25
ATOM     25  C   UNL     1      25.587  -2.706  -2.330  1.00  0.00    -0.000 C 
BRANCH  25  26
ATOM     26  C   UNL     1      26.422  -3.354  -3.448  1.00  0.00    -0.000 C 
BRANCH  26  27
ATOM     27  C   UNL     1      25.918  -4.757  -3.830  1.00  0.00    -0.000 C 
BRANCH  27  28
ATOM     28  C   UNL     1      26.042  -5.821  -2.719  1.00  0.00    -0.000 C 
BRANCH  28  29
ATOM     29  C   UNL     1      27.405  -5.873  -2.004  1.00  0.00    -0.000 C 
BRANCH  29  30
ATOM     30  C   UNL     1      27.312  -5.509  -0.511  1.00  0.00    -0.000 C 
BRANCH  30  31
ATOM     31  C   UNL     1      27.716  -4.053  -0.234  1.00  0.00    -0.003 C 
ATOM     32  C   UNL     1      28.603  -3.907   1.003  1.00  0.00     0.004 C 
ENDBRANCH  30  31
ENDBRANCH  29  30
ENDBRANCH  28  29
ENDBRANCH  27  28
ENDBRANCH  26  27
ENDBRANCH  25  26
ENDBRANCH  24  25
ENDBRANCH  23  24
ENDBRANCH  22  23
ENDBRANCH  21  22
ENDBRANCH  20  21
ENDBRANCH  19  20
ENDBRANCH  18  19
ENDBRANCH   1  18
TORSDOF 28
ENDMDL
MODEL 5
REMARK VINA RESULT:     4.837      4.070     12.027
REMARK INTER + INTRA:          12.737
REMARK INTER:                  11.350
REMARK INTRA:                   1.388
REMARK UNBOUND:                -0.018
REMARK SMILES CCCCCCCCCCCCCCCCCCCCCCCCCCCCCC(=O)[O-]
REMARK SMILES IDX 16 1 17 2 18 3 19 4 20 5 21 6 22 7 23 8 24 9 25 10 26 11
REMARK SMILES IDX 27 12 28 13 29 14 30 15 31 16 32 17 15 18 14 19 13 20 12 21
REMARK SMILES IDX 11 22 10 23 9 24 8 25 7 26 6 27 5 28 4 29 3 30 2 31 1 32
REMARK H PARENT
REMARK Flexibility Score: inf
ROOT
ATOM      1  C   UNL     1      25.519   6.531  -2.026  1.00  0.00     0.000 C 
ENDROOT
BRANCH   1   2
ATOM      2  C   UNL     1      26.398   5.728  -1.043  1.00  0.00     0.000 C 
BRANCH   2   3
ATOM      3  C   UNL     1      25.773   4.389  -0.603  1.00  0.00     0.000 C 
BRANCH   3   4
ATOM      4  C   UNL     1      25.396   3.440  -1.756  1.00  0.00     0.000 C 
BRANCH   4   5
ATOM      5  C   UNL     1      23.897   3.422  -2.121  1.00  0.00     0.000 C 
BRANCH   5   6
ATOM      6  C   UNL     1      23.418   2.166  -2.876  1.00  0.00     0.000 C 
BRANCH   6   7
ATOM      7  C   UNL     1      23.907   0.826  -2.296  1.00  0.00     0.000 C 
BRANCH   7   8
ATOM      8  C   UNL     1      22.850  -0.288  -2.395  1.00  0.00     0.000 C 
BRANCH   8   9
ATOM      9  C   UNL     1      23.430  -1.607  -2.931  1.00  0.00     0.000 C 
BRANCH   9  10
ATOM     10  C   UNL     1      24.658  -1.397  -3.829  1.00  0.00     0.000 C 
BRANCH  10  11
ATOM     11  C   UNL     1      25.467  -2.696  -3.967  1.00  0.00     0.000 C 
BRANCH  11  12
ATOM     12  C   UNL     1      25.356  -3.607  -2.731  1.00  0.00     0.000 C 
BRANCH  12  13
ATOM     13  C   UNL     1      26.124  -4.941  -2.830  1.00  0.00     0.006 C 
BRANCH  13  14
ATOM     14  C   UNL     1      27.566  -4.890  -2.302  1.00  0.00     0.053 C 
BRANCH  14  15
ATOM     15  C   UNL     1      27.616  -4.573  -0.838  1.00  0.00     0.041 C 
ATOM     16  O   UNL     1      26.980  -3.588  -0.382  1.00  0.00    -0.550 OA
ATOM     17  O   UNL     1      28.406  -5.335   0.013  1.00  0.00    -0.550 OA
ENDBRANCH  14  15
ENDBRANCH  13  14
ENDBRANCH  12  13
ENDBRANCH  11  12
ENDBRANCH  10  11
ENDBRANCH   9  10
ENDBRANCH   8   9
ENDBRANCH   7   8
ENDBRANCH   6   7
ENDBRANCH   5   6
ENDBRANCH   4   5
ENDBRANCH   3   4
ENDBRANCH   2   3
ENDBRANCH   1   2
BRANCH   1  18
ATOM     18  C   UNL     1      26.250   6.851  -3.341  1.00  0.00     0.000 C 
BRANCH  18  19
ATOM     19  C   UNL     1      26.909   8.241  -3.328  1.00  0.00     0.000 C 
BRANCH  19  20
ATOM     20  C   UNL     1      28.436   8.167  -3.492  1.00  0.00     0.000 C 
BRANCH  20  21
ATOM     21  C   UNL     1      29.125   9.517  -3.233  1.00  0.00     0.000 C 
BRANCH  21  22
ATOM     22  C   UNL     1      28.496  10.670  -4.036  1.00  0.00     0.000 C 
BRANCH  22  23
ATOM     23  C   UNL     1      28.563  12.015  -3.295  1.00  0.00     0.000 C 
BRANCH  23  24
ATOM     24  C   UNL     1      28.757  11.849  -1.777  1.00  0.00    -0.000 C 
BRANCH  24  25
ATOM     25  C   UNL     1      28.737  10.373  -1.347  1.00  0.00    -0.000 C 
BRANCH  25  26
ATOM     26  C   UNL     1      27.618  10.072  -0.336  1.00  0.00    -0.000 C 
BRANCH  26  27
ATOM     27  C   UNL     1      28.136   9.379   0.937  1.00  0.00    -0.000 C 
BRANCH  27  28
ATOM     28  C   UNL     1      29.118  10.217   1.785  1.00  0.00    -0.000 C 
BRANCH  28  29
ATOM     29  C   UNL     1      28.971  10.061   3.310  1.00  0.00    -0.000 C 
BRANCH  29  30
ATOM     30  C   UNL     1      28.291   8.741   3.713  1.00  0.00    -0.000 C 
BRANCH  30  31
ATOM     31  C   UNL     1      28.154   8.591   5.236  1.00  0.00    -0.003 C 
ATOM     32  C   UNL     1      29.125   7.566   5.823  1.00  0.00     0.004 C 
ENDBRANCH  30  31
ENDBRANCH  29  30
ENDBRANCH  28  29
ENDBRANCH  27  28
ENDBRANCH  26  27
ENDBRANCH  25  26
ENDBRANCH  24  25
ENDBRANCH  23  24
ENDBRANCH  22  23
ENDBRANCH  21  22
ENDBRANCH  20  21
ENDBRANCH  19  20
ENDBRANCH  18  19
ENDBRANCH   1  18
TORSDOF 28
ENDMDL
MODEL 6
REMARK VINA RESULT:     5.284      2.008      3.355
REMARK INTER + INTRA:          13.914
REMARK INTER:                  12.166
REMARK INTRA:                   1.748
REMARK UNBOUND:                -0.018
REMARK SMILES CCCCCCCCCCCCCCCCCCCCCCCCCCCCCC(=O)[O-]
REMARK SMILES IDX 16 1 17 2 18 3 19 4 20 5 21 6 22 7 23 8 24 9 25 10 26 11
REMARK SMILES IDX 27 12 28 13 29 14 30 15 31 16 32 17 15 18 14 19 13 20 12 21
REMARK SMILES IDX 11 22 10 23 9 24 8 25 7 26 6 27 5 28 4 29 3 30 2 31 1 32
REMARK H PARENT
REMARK Flexibility Score: inf
ROOT
ATOM      1  C   UNL     1      21.527   2.935  -2.756  1.00  0.00     0.000 C 
ENDROOT
BRANCH   1   2
ATOM      2  C   UNL     1      22.975   3.042  -2.232  1.00  0.00     0.000 C 
BRANCH   2   3
ATOM      3  C   UNL     1      23.611   4.430  -2.445  1.00  0.00     0.000 C 
BRANCH   3   4
ATOM      4  C   UNL     1      25.134   4.417  -2.674  1.00  0.00     0.000 C 
BRANCH   4   5
ATOM      5  C   UNL     1      25.975   4.030  -1.440  1.00  0.00     0.000 C 
BRANCH   5   6
ATOM      6  C   UNL     1      26.748   5.189  -0.780  1.00  0.00     0.000 C 
BRANCH   6   7
ATOM      7  C   UNL     1      27.938   4.765   0.102  1.00  0.00     0.000 C 
BRANCH   7   8
ATOM      8  C   UNL     1      29.055   5.822   0.144  1.00  0.00     0.000 C 
BRANCH   8   9
ATOM      9  C   UNL     1      28.934   6.857  -0.986  1.00  0.00     0.000 C 
BRANCH   9  10
ATOM     10  C   UNL     1      27.693   7.753  -0.842  1.00  0.00     0.000 C 
BRANCH  10  11
ATOM     11  C   UNL     1      26.810   7.670  -2.096  1.00  0.00     0.000 C 
BRANCH  11  12
ATOM     12  C   UNL     1      27.192   8.704  -3.171  1.00  0.00     0.000 C 
BRANCH  12  13
ATOM     13  C   UNL     1      28.677   9.124  -3.176  1.00  0.00     0.006 C 
BRANCH  13  14
ATOM     14  C   UNL     1      28.966  10.459  -2.472  1.00  0.00     0.053 C 
BRANCH  14  15
ATOM     15  C   UNL     1      28.463  11.629  -3.261  1.00  0.00     0.041 C 
ATOM     16  O   UNL     1      29.124  12.699  -3.298  1.00  0.00    -0.550 OA
ATOM     17  O   UNL     1      27.240  11.555  -3.914  1.00  0.00    -0.550 OA
ENDBRANCH  14  15
ENDBRANCH  13  14
ENDBRANCH  12  13
ENDBRANCH  11  12
ENDBRANCH  10  11
ENDBRANCH   9  10
ENDBRANCH   8   9
ENDBRANCH   7   8
ENDBRANCH   6   7
ENDBRANCH   5   6
ENDBRANCH   4   5
ENDBRANCH   3   4
ENDBRANCH   2   3
ENDBRANCH   1   2
BRANCH   1  18
ATOM     18  C   UNL     1      20.750   1.778  -2.102  1.00  0.00     0.000 C 
BRANCH  18  19
ATOM     19  C   UNL     1      19.319   2.176  -1.706  1.00  0.00     0.000 C 
BRANCH  19  20
ATOM     20  C   UNL     1      18.935   1.668  -0.306  1.00  0.00     0.000 C 
BRANCH  20  21
ATOM     21  C   UNL     1      19.102   0.147  -0.163  1.00  0.00     0.000 C 
BRANCH  21  22
ATOM     22  C   UNL     1      20.238  -0.413  -1.037  1.00  0.00     0.000 C 
BRANCH  22  23
ATOM     23  C   UNL     1      21.472  -0.822  -0.218  1.00  0.00     0.000 C 
BRANCH  23  24
ATOM     24  C   UNL     1      22.468  -1.672  -1.028  1.00  0.00    -0.000 C 
BRANCH  24  25
ATOM     25  C   UNL     1      23.479  -0.807  -1.798  1.00  0.00    -0.000 C 
BRANCH  25  26
ATOM     26  C   UNL     1      23.463  -1.093  -3.309  1.00  0.00    -0.000 C 
BRANCH  26  27
ATOM     27  C   UNL     1      24.774  -1.728  -3.809  1.00  0.00    -0.000 C 
BRANCH  27  28
ATOM     28  C   UNL     1      25.502  -2.620  -2.780  1.00  0.00    -0.000 C 
BRANCH  28  29
ATOM     29  C   UNL     1      26.774  -3.317  -3.297  1.00  0.00    -0.000 C 
BRANCH  29  30
ATOM     30  C   UNL     1      26.555  -4.808  -3.609  1.00  0.00    -0.000 C 
BRANCH  30  31
ATOM     31  C   UNL     1      26.604  -5.687  -2.350  1.00  0.00    -0.003 C 
ATOM     32  C   UNL     1      28.006  -5.787  -1.748  1.00  0.00     0.004 C 
ENDBRANCH  30  31
ENDBRANCH  29  30
ENDBRANCH  28  29
ENDBRANCH  27  28
ENDBRANCH  26  27
ENDBRANCH  25  26
ENDBRANCH  24  25
ENDBRANCH  23  24
ENDBRANCH  22  23
ENDBRANCH  21  22
ENDBRANCH  20  21
ENDBRANCH  19  20
ENDBRANCH  18  19
ENDBRANCH   1  18
TORSDOF 28
ENDMDL
MODEL 7
REMARK VINA RESULT:     5.305      4.090     11.588
REMARK INTER + INTRA:          13.969
REMARK INTER:                  10.816
REMARK INTRA:                   3.154
REMARK UNBOUND:                -0.018
REMARK SMILES CCCCCCCCCCCCCCCCCCCCCCCCCCCCCC(=O)[O-]
REMARK SMILES IDX 16 1 17 2 18 3 19 4 20 5 21 6 22 7 23 8 24 9 25 10 26 11
REMARK SMILES IDX 27 12 28 13 29 14 30 15 31 16 32 17 15 18 14 19 13 20 12 21
REMARK SMILES IDX 11 22 10 23 9 24 8 25 7 26 6 27 5 28 4 29 3 30 2 31 1 32
REMARK H PARENT
REMARK Flexibility Score: inf
ROOT
ATOM      1  C   UNL     1      23.297   2.521  -2.631  1.00  0.00     0.000 C 
ENDROOT
BRANCH   1   2
ATOM      2  C   UNL     1      21.822   2.973  -2.572  1.00  0.00     0.000 C 
BRANCH   2   3
ATOM      3  C   UNL     1      20.818   1.805  -2.521  1.00  0.00     0.000 C 
BRANCH   3   4
ATOM      4  C   UNL     1      19.757   1.911  -1.409  1.00  0.00     0.000 C 
BRANCH   4   5
ATOM      5  C   UNL     1      19.379   0.573  -0.740  1.00  0.00     0.000 C 
BRANCH   5   6
ATOM      6  C   UNL     1      20.537  -0.429  -0.571  1.00  0.00     0.000 C 
BRANCH   6   7
ATOM      7  C   UNL     1      21.830  -0.072  -1.327  1.00  0.00     0.000 C 
BRANCH   7   8
ATOM      8  C   UNL     1      22.409  -1.261  -2.113  1.00  0.00     0.000 C 
BRANCH   8   9
ATOM      9  C   UNL     1      23.947  -1.279  -2.112  1.00  0.00     0.000 C 
BRANCH   9  10
ATOM     10  C   UNL     1      24.534  -2.049  -3.305  1.00  0.00     0.000 C 
BRANCH  10  11
ATOM     11  C   UNL     1      25.900  -2.654  -2.947  1.00  0.00     0.000 C 
BRANCH  11  12
ATOM     12  C   UNL     1      26.266  -3.870  -3.817  1.00  0.00     0.000 C 
BRANCH  12  13
ATOM     13  C   UNL     1      27.778  -4.097  -4.024  1.00  0.00     0.006 C 
BRANCH  13  14
ATOM     14  C   UNL     1      28.369  -5.253  -3.203  1.00  0.00     0.053 C 
BRANCH  14  15
ATOM     15  C   UNL     1      27.642  -5.449  -1.908  1.00  0.00     0.041 C 
ATOM     16  O   UNL     1      26.473  -5.916  -1.903  1.00  0.00    -0.550 OA
ATOM     17  O   UNL     1      28.234  -5.071  -0.711  1.00  0.00    -0.550 OA
ENDBRANCH  14  15
ENDBRANCH  13  14
ENDBRANCH  12  13
ENDBRANCH  11  12
ENDBRANCH  10  11
ENDBRANCH   9  10
ENDBRANCH   8   9
ENDBRANCH   7   8
ENDBRANCH   6   7
ENDBRANCH   5   6
ENDBRANCH   4   5
ENDBRANCH   3   4
ENDBRANCH   2   3
ENDBRANCH   1   2
BRANCH   1  18
ATOM     18  C   UNL     1      24.278   3.703  -2.527  1.00  0.00     0.000 C 
BRANCH  18  19
ATOM     19  C   UNL     1      25.550   3.349  -1.740  1.00  0.00     0.000 C 
BRANCH  19  20
ATOM     20  C   UNL     1      26.452   4.571  -1.503  1.00  0.00     0.000 C 
BRANCH  20  21
ATOM     21  C   UNL     1      25.658   5.884  -1.407  1.00  0.00     0.000 C 
BRANCH  21  22
ATOM     22  C   UNL     1      25.361   6.502  -2.785  1.00  0.00     0.000 C 
BRANCH  22  23
ATOM     23  C   UNL     1      25.727   7.993  -2.858  1.00  0.00     0.000 C 
BRANCH  23  24
ATOM     24  C   UNL     1      27.246   8.228  -2.952  1.00  0.00    -0.000 C 
BRANCH  24  25
ATOM     25  C   UNL     1      27.621   9.148  -4.125  1.00  0.00    -0.000 C 
BRANCH  25  26
ATOM     26  C   UNL     1      27.651  10.631  -3.718  1.00  0.00    -0.000 C 
BRANCH  26  27
ATOM     27  C   UNL     1      28.643  10.915  -2.575  1.00  0.00    -0.000 C 
BRANCH  27  28
ATOM     28  C   UNL     1      28.925   9.718  -1.642  1.00  0.00    -0.000 C 
BRANCH  28  29
ATOM     29  C   UNL     1      28.267   9.796  -0.252  1.00  0.00    -0.000 C 
BRANCH  29  30
ATOM     30  C   UNL     1      28.891   8.820   0.761  1.00  0.00    -0.000 C 
BRANCH  30  31
ATOM     31  C   UNL     1      28.617   7.350   0.407  1.00  0.00    -0.003 C 
ATOM     32  C   UNL     1      29.121   6.969  -0.986  1.00  0.00     0.004 C 
ENDBRANCH  30  31
ENDBRANCH  29  30
ENDBRANCH  28  29
ENDBRANCH  27  28
ENDBRANCH  26  27
ENDBRANCH  25  26
ENDBRANCH  24  25
ENDBRANCH  23  24
ENDBRANCH  22  23
ENDBRANCH  21  22
ENDBRANCH  20  21
ENDBRANCH  19  20
ENDBRANCH  18  19
ENDBRANCH   1  18
TORSDOF 28
ENDMDL
