MODEL 1
REMARK VINA RESULT:    27.686      0.000      0.000
REMARK INTER + INTRA:          33.051
REMARK INTER:                  33.351
REMARK INTRA:                  -0.301
REMARK UNBOUND:                -0.301
REMARK SMILES Oc1cc(O)c2cc(O)c(-c3ccc(O)c(O)c3)[o+]c2c1
REMARK SMILES IDX 10 1 19 2 20 3 21 4 2 5 3 6 4 7 6 8 7 9 8 10 11 11 12 12
REMARK SMILES IDX 13 13 14 14 18 15 16 16 15 17 17 19 9 21 1 23 5 25
REMARK H PARENT 15 18 17 20 9 22 1 24 5 26
REMARK Flexibility Score: inf
ROOT
ATOM      1  C   UNL     1       9.376   2.246   8.557  1.00  0.00     0.402 A 
ATOM      2  O   UNL     1      10.203   1.360   8.008  1.00  0.00    -0.202 OA
ATOM      3  C   UNL     1      11.201   1.696   7.198  1.00  0.00     0.368 A 
ATOM      4  C   UNL     1      12.017   0.692   6.672  1.00  0.00     0.162 A 
ATOM      5  C   UNL     1      13.074   1.015   5.821  1.00  0.00     0.128 A 
ATOM      6  C   UNL     1      13.320   2.353   5.493  1.00  0.00     0.093 A 
ATOM      7  C   UNL     1      12.517   3.379   6.007  1.00  0.00     0.136 A 
ATOM      8  C   UNL     1      11.439   3.053   6.871  1.00  0.00     0.125 A 
ATOM      9  C   UNL     1      10.573   4.012   7.422  1.00  0.00     0.078 A 
ATOM     10  C   UNL     1       9.529   3.614   8.262  1.00  0.00     0.223 A 
ENDROOT
BRANCH   1  11
ATOM     11  C   UNL     1       8.308   1.747   9.452  1.00  0.00     0.087 A 
ATOM     12  C   UNL     1       8.587   1.332  10.766  1.00  0.00     0.022 A 
ATOM     13  C   UNL     1       7.566   0.843  11.585  1.00  0.00     0.051 A 
ATOM     14  C   UNL     1       6.255   0.750  11.100  1.00  0.00     0.157 A 
ATOM     15  C   UNL     1       6.996   1.632   8.964  1.00  0.00     0.068 A 
ATOM     16  C   UNL     1       5.970   1.144   9.782  1.00  0.00     0.158 A 
BRANCH  14  17
ATOM     17  O   UNL     1       5.237   0.264  11.919  1.00  0.00    -0.504 OA
ATOM     18  H   UNL     1       4.292   0.628  11.863  1.00  0.00     0.293 HD
ENDBRANCH  14  17
BRANCH  16  19
ATOM     19  O   UNL     1       4.677   1.057   9.267  1.00  0.00    -0.504 OA
ATOM     20  H   UNL     1       4.467   1.273   8.300  1.00  0.00     0.293 HD
ENDBRANCH  16  19
ENDBRANCH   1  11
BRANCH  10  21
ATOM     21  O   UNL     1       8.640   4.561   8.770  1.00  0.00    -0.500 OA
ATOM     22  H   UNL     1       7.638   4.413   8.753  1.00  0.00     0.294 HD
ENDBRANCH  10  21
BRANCH   5  23
ATOM     23  O   UNL     1      13.878  -0.000   5.306  1.00  0.00    -0.507 OA
ATOM     24  H   UNL     1      14.493   0.160   4.517  1.00  0.00     0.293 HD
ENDBRANCH   5  23
BRANCH   7  25
ATOM     25  O   UNL     1      12.829   4.690   5.635  1.00  0.00    -0.507 OA
ATOM     26  H   UNL     1      12.645   5.503   6.203  1.00  0.00     0.293 HD
ENDBRANCH   7  25
TORSDOF 6
ENDMDL
MODEL 2
REMARK VINA RESULT:    28.208      1.073      2.613
REMARK INTER + INTRA:          33.679
REMARK INTER:                  33.973
REMARK INTRA:                  -0.294
REMARK UNBOUND:                -0.301
REMARK SMILES Oc1cc(O)c2cc(O)c(-c3ccc(O)c(O)c3)[o+]c2c1
REMARK SMILES IDX 10 1 19 2 20 3 21 4 2 5 3 6 4 7 6 8 7 9 8 10 11 11 12 12
REMARK SMILES IDX 13 13 14 14 18 15 16 16 15 17 17 19 9 21 1 23 5 25
REMARK H PARENT 15 18 17 20 9 22 1 24 5 26
REMARK Flexibility Score: inf
ROOT
ATOM      1  C   UNL     1       9.333   1.390   8.749  1.00  0.00     0.402 A 
ATOM      2  O   UNL     1       9.640   2.597   8.282  1.00  0.00    -0.202 OA
ATOM      3  C   UNL     1      10.619   2.817   7.411  1.00  0.00     0.368 A 
ATOM      4  C   UNL     1      10.864   4.122   6.977  1.00  0.00     0.162 A 
ATOM      5  C   UNL     1      11.883   4.381   6.061  1.00  0.00     0.128 A 
ATOM      6  C   UNL     1      12.666   3.329   5.573  1.00  0.00     0.093 A 
ATOM      7  C   UNL     1      12.441   2.011   5.992  1.00  0.00     0.136 A 
ATOM      8  C   UNL     1      11.406   1.744   6.926  1.00  0.00     0.125 A 
ATOM      9  C   UNL     1      11.118   0.458   7.412  1.00  0.00     0.078 A 
ATOM     10  C   UNL     1      10.084   0.274   8.336  1.00  0.00     0.223 A 
ENDROOT
BRANCH   1  11
ATOM     11  C   UNL     1       8.211   1.274   9.709  1.00  0.00     0.087 A 
ATOM     12  C   UNL     1       8.439   1.081  11.082  1.00  0.00     0.022 A 
ATOM     13  C   UNL     1       7.364   0.952  11.965  1.00  0.00     0.051 A 
ATOM     14  C   UNL     1       6.047   1.000  11.488  1.00  0.00     0.157 A 
ATOM     15  C   UNL     1       6.891   1.301   9.233  1.00  0.00     0.068 A 
ATOM     16  C   UNL     1       5.811   1.173  10.115  1.00  0.00     0.158 A 
BRANCH  14  17
ATOM     17  O   UNL     1       4.976   0.873  12.371  1.00  0.00    -0.504 OA
ATOM     18  H   UNL     1       4.556  -0.028  12.568  1.00  0.00     0.293 HD
ENDBRANCH  14  17
BRANCH  16  19
ATOM     19  O   UNL     1       4.513   1.218   9.607  1.00  0.00    -0.504 OA
ATOM     20  H   UNL     1       3.901   0.411   9.622  1.00  0.00     0.293 HD
ENDBRANCH  16  19
ENDBRANCH   1  11
BRANCH  10  21
ATOM     21  O   UNL     1       9.830  -0.995   8.856  1.00  0.00    -0.500 OA
ATOM     22  H   UNL     1      10.544  -1.713   8.883  1.00  0.00     0.294 HD
ENDBRANCH  10  21
BRANCH   5  23
ATOM     23  O   UNL     1      12.113   5.690   5.640  1.00  0.00    -0.507 OA
ATOM     24  H   UNL     1      12.988   6.162   5.832  1.00  0.00     0.293 HD
ENDBRANCH   5  23
BRANCH   7  25
ATOM     25  O   UNL     1      13.263   1.016   5.456  1.00  0.00    -0.507 OA
ATOM     26  H   UNL     1      12.962   0.073   5.257  1.00  0.00     0.293 HD
ENDBRANCH   7  25
TORSDOF 6
ENDMDL
MODEL 3
REMARK VINA RESULT:    28.393      4.627      8.137
REMARK INTER + INTRA:          33.902
REMARK INTER:                  34.163
REMARK INTRA:                  -0.260
REMARK UNBOUND:                -0.301
REMARK SMILES Oc1cc(O)c2cc(O)c(-c3ccc(O)c(O)c3)[o+]c2c1
REMARK SMILES IDX 10 1 19 2 20 3 21 4 2 5 3 6 4 7 6 8 7 9 8 10 11 11 12 12
REMARK SMILES IDX 13 13 14 14 18 15 16 16 15 17 17 19 9 21 1 23 5 25
REMARK H PARENT 15 18 17 20 9 22 1 24 5 26
REMARK Flexibility Score: inf
ROOT
ATOM      1  C   UNL     1      15.043   2.916   8.438  1.00  0.00     0.402 A 
ATOM      2  O   UNL     1      14.145   3.798   8.006  1.00  0.00    -0.202 OA
ATOM      3  C   UNL     1      13.122   3.474   7.221  1.00  0.00     0.368 A 
ATOM      4  C   UNL     1      12.230   4.471   6.821  1.00  0.00     0.162 A 
ATOM      5  C   UNL     1      11.146   4.160   6.000  1.00  0.00     0.128 A 
ATOM      6  C   UNL     1      10.950   2.841   5.576  1.00  0.00     0.093 A 
ATOM      7  C   UNL     1      11.830   1.822   5.964  1.00  0.00     0.136 A 
ATOM      8  C   UNL     1      12.935   2.136   6.797  1.00  0.00     0.125 A 
ATOM      9  C   UNL     1      13.876   1.184   7.223  1.00  0.00     0.078 A 
ATOM     10  C   UNL     1      14.943   1.570   8.040  1.00  0.00     0.223 A 
ENDROOT
BRANCH   1  11
ATOM     11  C   UNL     1      16.132   3.399   9.318  1.00  0.00     0.087 A 
ATOM     12  C   UNL     1      15.884   3.785  10.646  1.00  0.00     0.022 A 
ATOM     13  C   UNL     1      16.925   4.259  11.450  1.00  0.00     0.051 A 
ATOM     14  C   UNL     1      18.223   4.367  10.935  1.00  0.00     0.157 A 
ATOM     15  C   UNL     1      17.431   3.529   8.799  1.00  0.00     0.068 A 
ATOM     16  C   UNL     1      18.476   4.003   9.602  1.00  0.00     0.158 A 
BRANCH  14  17
ATOM     17  O   UNL     1      19.260   4.839  11.739  1.00  0.00    -0.504 OA
ATOM     18  H   UNL     1      19.256   5.782  12.109  1.00  0.00     0.293 HD
ENDBRANCH  14  17
BRANCH  16  19
ATOM     19  O   UNL     1      19.755   4.105   9.057  1.00  0.00    -0.504 OA
ATOM     20  H   UNL     1      19.932   4.592   8.187  1.00  0.00     0.293 HD
ENDBRANCH  16  19
ENDBRANCH   1  11
BRANCH  10  21
ATOM     21  O   UNL     1      15.903   0.635   8.424  1.00  0.00    -0.500 OA
ATOM     22  H   UNL     1      16.893   0.852   8.410  1.00  0.00     0.294 HD
ENDBRANCH  10  21
BRANCH   5  23
ATOM     23  O   UNL     1      10.267   5.168   5.610  1.00  0.00    -0.507 OA
ATOM     24  H   UNL     1      10.402   5.686   4.751  1.00  0.00     0.293 HD
ENDBRANCH   5  23
BRANCH   7  25
ATOM     25  O   UNL     1      11.563   0.530   5.501  1.00  0.00    -0.507 OA
ATOM     26  H   UNL     1      12.075   0.072   4.761  1.00  0.00     0.293 HD
ENDBRANCH   7  25
TORSDOF 6
ENDMDL
MODEL 4
REMARK VINA RESULT:    28.885      4.865      7.926
REMARK INTER + INTRA:          34.495
REMARK INTER:                  34.755
REMARK INTRA:                  -0.261
REMARK UNBOUND:                -0.301
REMARK SMILES Oc1cc(O)c2cc(O)c(-c3ccc(O)c(O)c3)[o+]c2c1
REMARK SMILES IDX 10 1 19 2 20 3 21 4 2 5 3 6 4 7 6 8 7 9 8 10 11 11 12 12
REMARK SMILES IDX 13 13 14 14 18 15 16 16 15 17 17 19 9 21 1 23 5 25
REMARK H PARENT 15 18 17 20 9 22 1 24 5 26
REMARK Flexibility Score: inf
ROOT
ATOM      1  C   UNL     1      15.161   3.766   8.630  1.00  0.00     0.402 A 
ATOM      2  O   UNL     1      14.848   2.576   8.124  1.00  0.00    -0.202 OA
ATOM      3  C   UNL     1      13.809   2.375   7.319  1.00  0.00     0.368 A 
ATOM      4  C   UNL     1      13.563   1.087   6.838  1.00  0.00     0.162 A 
ATOM      5  C   UNL     1      12.482   0.847   5.989  1.00  0.00     0.128 A 
ATOM      6  C   UNL     1      11.641   1.901   5.616  1.00  0.00     0.093 A 
ATOM      7  C   UNL     1      11.866   3.201   6.086  1.00  0.00     0.136 A 
ATOM      8  C   UNL     1      12.964   3.449   6.952  1.00  0.00     0.125 A 
ATOM      9  C   UNL     1      13.259   4.716   7.481  1.00  0.00     0.078 A 
ATOM     10  C   UNL     1      14.355   4.881   8.333  1.00  0.00     0.223 A 
ENDROOT
BRANCH   1  11
ATOM     11  C   UNL     1      16.350   3.864   9.507  1.00  0.00     0.087 A 
ATOM     12  C   UNL     1      16.224   4.070  10.891  1.00  0.00     0.022 A 
ATOM     13  C   UNL     1      17.361   4.181  11.696  1.00  0.00     0.051 A 
ATOM     14  C   UNL     1      18.640   4.101  11.128  1.00  0.00     0.157 A 
ATOM     15  C   UNL     1      17.633   3.805   8.939  1.00  0.00     0.068 A 
ATOM     16  C   UNL     1      18.775   3.915   9.742  1.00  0.00     0.158 A 
BRANCH  14  17
ATOM     17  O   UNL     1      19.773   4.210  11.932  1.00  0.00    -0.504 OA
ATOM     18  H   UNL     1      19.819   4.877  12.694  1.00  0.00     0.293 HD
ENDBRANCH  14  17
BRANCH  16  19
ATOM     19  O   UNL     1      20.033   3.838   9.144  1.00  0.00    -0.504 OA
ATOM     20  H   UNL     1      20.390   2.975   8.753  1.00  0.00     0.293 HD
ENDBRANCH  16  19
ENDBRANCH   1  11
BRANCH  10  21
ATOM     21  O   UNL     1      14.620   6.128   8.898  1.00  0.00    -0.500 OA
ATOM     22  H   UNL     1      15.266   6.781   8.470  1.00  0.00     0.294 HD
ENDBRANCH  10  21
BRANCH   5  23
ATOM     23  O   UNL     1      12.251  -0.445   5.518  1.00  0.00    -0.507 OA
ATOM     24  H   UNL     1      12.697  -0.789   4.676  1.00  0.00     0.293 HD
ENDBRANCH   5  23
BRANCH   7  25
ATOM     25  O   UNL     1      10.983   4.200   5.665  1.00  0.00    -0.507 OA
ATOM     26  H   UNL     1      10.050   4.029   5.323  1.00  0.00     0.293 HD
ENDBRANCH   7  25
TORSDOF 6
ENDMDL
