MODEL 1
REMARK VINA RESULT:    -4.086      0.000      0.000
REMARK INTER + INTRA:          -5.222
REMARK INTER:                  -4.922
REMARK INTRA:                  -0.300
REMARK UNBOUND:                -0.300
REMARK SMILES O=c1c(O)c(-c2ccc(O)c(O)c2)oc2cc(O)cc(O)c12
REMARK SMILES IDX 5 1 3 2 2 3 1 4 22 5 20 6 19 7 17 8 16 9 15 10 14 11 6 12
REMARK SMILES IDX 7 13 8 14 9 15 13 16 11 17 10 18 12 20 4 22 21 24 18 26
REMARK H PARENT 10 19 12 21 4 23 21 25 18 27
REMARK Flexibility Score: inf
ROOT
ATOM      1  C   UNL     1    -119.656   2.458 -17.951  1.00  0.00     0.180 A 
ATOM      2  C   UNL     1    -118.891   3.450 -18.595  1.00  0.00     0.208 A 
ATOM      3  C   UNL     1    -119.146   3.730 -19.947  1.00  0.00     0.238 A 
ATOM      4  O   UNL     1    -118.475   4.623 -20.532  1.00  0.00    -0.285 OA
ATOM      5  C   UNL     1    -120.140   3.004 -20.634  1.00  0.00     0.111 A 
ATOM      6  C   UNL     1    -120.455   3.222 -21.998  1.00  0.00     0.134 A 
ATOM      7  C   UNL     1    -121.452   2.452 -22.613  1.00  0.00     0.093 A 
ATOM      8  C   UNL     1    -122.139   1.470 -21.895  1.00  0.00     0.123 A 
ATOM      9  C   UNL     1    -121.833   1.250 -20.548  1.00  0.00     0.094 A 
ATOM     10  C   UNL     1    -120.843   2.009 -19.916  1.00  0.00     0.146 A 
ATOM     11  O   UNL     1    -120.575   1.784 -18.635  1.00  0.00    -0.452 OA
ENDROOT
BRANCH   1  12
ATOM     12  C   UNL     1    -119.461   2.119 -16.523  1.00  0.00     0.025 A 
ATOM     13  C   UNL     1    -119.985   2.927 -15.500  1.00  0.00     0.016 A 
ATOM     14  C   UNL     1    -119.809   2.574 -14.159  1.00  0.00     0.051 A 
ATOM     15  C   UNL     1    -119.121   1.405 -13.820  1.00  0.00     0.157 A 
ATOM     16  C   UNL     1    -118.788   0.935 -16.180  1.00  0.00     0.062 A 
ATOM     17  C   UNL     1    -118.610   0.578 -14.835  1.00  0.00     0.158 A 
BRANCH  15  18
ATOM     18  O   UNL     1    -118.959   1.080 -12.474  1.00  0.00    -0.504 OA
ATOM     19  H   UNL     1    -119.476   0.326 -12.037  1.00  0.00     0.293 HD
ENDBRANCH  15  18
BRANCH  17  20
ATOM     20  O   UNL     1    -117.929  -0.593 -14.505  1.00  0.00    -0.504 OA
ATOM     21  H   UNL     1    -118.203  -1.491 -14.884  1.00  0.00     0.293 HD
ENDBRANCH  17  20
ENDBRANCH   1  12
BRANCH   2  22
ATOM     22  O   UNL     1    -117.879   4.120 -17.905  1.00  0.00    -0.502 OA
ATOM     23  H   UNL     1    -117.260   4.782 -18.358  1.00  0.00     0.293 HD
ENDBRANCH   2  22
BRANCH   6  24
ATOM     24  O   UNL     1    -119.787   4.195 -22.743  1.00  0.00    -0.507 OA
ATOM     25  H   UNL     1    -119.559   4.055 -23.720  1.00  0.00     0.293 HD
ENDBRANCH   6  24
BRANCH   8  26
ATOM     26  O   UNL     1    -123.125   0.718 -22.530  1.00  0.00    -0.508 OA
ATOM     27  H   UNL     1    -124.110   0.864 -22.338  1.00  0.00     0.293 HD
ENDBRANCH   8  26
TORSDOF 6
ENDMDL
MODEL 2
REMARK VINA RESULT:    -4.007      1.677      6.937
REMARK INTER + INTRA:          -5.126
REMARK INTER:                  -4.807
REMARK INTRA:                  -0.319
REMARK UNBOUND:                -0.300
REMARK SMILES O=c1c(O)c(-c2ccc(O)c(O)c2)oc2cc(O)cc(O)c12
REMARK SMILES IDX 5 1 3 2 2 3 1 4 22 5 20 6 19 7 17 8 16 9 15 10 14 11 6 12
REMARK SMILES IDX 7 13 8 14 9 15 13 16 11 17 10 18 12 20 4 22 21 24 18 26
REMARK H PARENT 10 19 12 21 4 23 21 25 18 27
REMARK Flexibility Score: inf
ROOT
ATOM      1  C   UNL     1    -120.113   2.228 -18.290  1.00  0.00     0.180 A 
ATOM      2  C   UNL     1    -119.007   1.531 -17.765  1.00  0.00     0.208 A 
ATOM      3  C   UNL     1    -118.727   1.639 -16.394  1.00  0.00     0.238 A 
ATOM      4  O   UNL     1    -117.746   1.012 -15.910  1.00  0.00    -0.285 OA
ATOM      5  C   UNL     1    -119.539   2.453 -15.578  1.00  0.00     0.111 A 
ATOM      6  C   UNL     1    -119.321   2.620 -14.189  1.00  0.00     0.134 A 
ATOM      7  C   UNL     1    -120.169   3.454 -13.447  1.00  0.00     0.093 A 
ATOM      8  C   UNL     1    -121.226   4.127 -14.064  1.00  0.00     0.123 A 
ATOM      9  C   UNL     1    -121.447   3.967 -15.436  1.00  0.00     0.094 A 
ATOM     10  C   UNL     1    -120.613   3.137 -16.193  1.00  0.00     0.146 A 
ATOM     11  O   UNL     1    -120.847   2.998 -17.493  1.00  0.00    -0.452 OA
ENDROOT
BRANCH   1  12
ATOM     12  C   UNL     1    -120.485   2.149 -19.721  1.00  0.00     0.025 A 
ATOM     13  C   UNL     1    -121.234   1.072 -20.225  1.00  0.00     0.016 A 
ATOM     14  C   UNL     1    -121.594   1.032 -21.575  1.00  0.00     0.051 A 
ATOM     15  C   UNL     1    -121.225   2.069 -22.436  1.00  0.00     0.157 A 
ATOM     16  C   UNL     1    -120.133   3.200 -20.585  1.00  0.00     0.062 A 
ATOM     17  C   UNL     1    -120.493   3.161 -21.940  1.00  0.00     0.158 A 
BRANCH  15  18
ATOM     18  O   UNL     1    -121.596   2.000 -23.778  1.00  0.00    -0.504 OA
ATOM     19  H   UNL     1    -122.209   2.687 -24.203  1.00  0.00     0.293 HD
ENDBRANCH  15  18
BRANCH  17  20
ATOM     20  O   UNL     1    -120.128   4.203 -22.792  1.00  0.00    -0.504 OA
ATOM     21  H   UNL     1    -120.820   4.753 -23.284  1.00  0.00     0.293 HD
ENDBRANCH  17  20
ENDBRANCH   1  12
BRANCH   2  22
ATOM     22  O   UNL     1    -118.189   0.771 -18.604  1.00  0.00    -0.502 OA
ATOM     23  H   UNL     1    -118.520   0.384 -19.479  1.00  0.00     0.293 HD
ENDBRANCH   2  22
BRANCH   6  24
ATOM     24  O   UNL     1    -118.273   1.962 -13.542  1.00  0.00    -0.507 OA
ATOM     25  H   UNL     1    -118.049   0.995 -13.738  1.00  0.00     0.293 HD
ENDBRANCH   6  24
BRANCH   8  26
ATOM     26  O   UNL     1    -122.053   4.951 -13.305  1.00  0.00    -0.508 OA
ATOM     27  H   UNL     1    -123.061   4.932 -13.409  1.00  0.00     0.293 HD
ENDBRANCH   8  26
TORSDOF 6
ENDMDL
MODEL 3
REMARK VINA RESULT:    -3.995      1.714      6.930
REMARK INTER + INTRA:          -5.112
REMARK INTER:                  -4.790
REMARK INTRA:                  -0.322
REMARK UNBOUND:                -0.300
REMARK SMILES O=c1c(O)c(-c2ccc(O)c(O)c2)oc2cc(O)cc(O)c12
REMARK SMILES IDX 5 1 3 2 2 3 1 4 22 5 20 6 19 7 17 8 16 9 15 10 14 11 6 12
REMARK SMILES IDX 7 13 8 14 9 15 13 16 11 17 10 18 12 20 4 22 21 24 18 26
REMARK H PARENT 10 19 12 21 4 23 21 25 18 27
REMARK Flexibility Score: inf
ROOT
ATOM      1  C   UNL     1    -120.314   2.677 -18.445  1.00  0.00     0.180 A 
ATOM      2  C   UNL     1    -119.211   1.891 -18.059  1.00  0.00     0.208 A 
ATOM      3  C   UNL     1    -118.858   1.839 -16.701  1.00  0.00     0.238 A 
ATOM      4  O   UNL     1    -117.879   1.131 -16.341  1.00  0.00    -0.285 OA
ATOM      5  C   UNL     1    -119.597   2.586 -15.760  1.00  0.00     0.111 A 
ATOM      6  C   UNL     1    -119.303   2.592 -14.374  1.00  0.00     0.134 A 
ATOM      7  C   UNL     1    -120.080   3.369 -13.502  1.00  0.00     0.093 A 
ATOM      8  C   UNL     1    -121.140   4.139 -13.986  1.00  0.00     0.123 A 
ATOM      9  C   UNL     1    -121.435   4.137 -15.353  1.00  0.00     0.094 A 
ATOM     10  C   UNL     1    -120.673   3.367 -16.239  1.00  0.00     0.146 A 
ATOM     11  O   UNL     1    -120.977   3.379 -17.532  1.00  0.00    -0.452 OA
ENDROOT
BRANCH   1  12
ATOM     12  C   UNL     1    -120.760   2.767 -19.854  1.00  0.00     0.025 A 
ATOM     13  C   UNL     1    -120.194   3.696 -20.743  1.00  0.00     0.016 A 
ATOM     14  C   UNL     1    -120.614   3.746 -22.075  1.00  0.00     0.051 A 
ATOM     15  C   UNL     1    -121.593   2.864 -22.542  1.00  0.00     0.157 A 
ATOM     16  C   UNL     1    -121.729   1.869 -20.331  1.00  0.00     0.062 A 
ATOM     17  C   UNL     1    -122.153   1.918 -21.667  1.00  0.00     0.158 A 
BRANCH  15  18
ATOM     18  O   UNL     1    -121.993   2.940 -23.875  1.00  0.00    -0.504 OA
ATOM     19  H   UNL     1    -121.334   3.105 -24.627  1.00  0.00     0.293 HD
ENDBRANCH  15  18
BRANCH  17  20
ATOM     20  O   UNL     1    -123.125   1.030 -22.127  1.00  0.00    -0.504 OA
ATOM     21  H   UNL     1    -124.015   1.357 -22.483  1.00  0.00     0.293 HD
ENDBRANCH  17  20
ENDBRANCH   1  12
BRANCH   2  22
ATOM     22  O   UNL     1    -118.466   1.200 -19.017  1.00  0.00    -0.502 OA
ATOM     23  H   UNL     1    -118.853   0.932 -19.914  1.00  0.00     0.293 HD
ENDBRANCH   2  22
BRANCH   6  24
ATOM     24  O   UNL     1    -118.250   1.835 -13.859  1.00  0.00    -0.507 OA
ATOM     25  H   UNL     1    -118.280   1.447 -12.924  1.00  0.00     0.293 HD
ENDBRANCH   6  24
BRANCH   8  26
ATOM     26  O   UNL     1    -121.895   4.902 -13.099  1.00  0.00    -0.508 OA
ATOM     27  H   UNL     1    -122.886   5.059 -13.245  1.00  0.00     0.293 HD
ENDBRANCH   8  26
TORSDOF 6
ENDMDL
MODEL 4
REMARK VINA RESULT:    -3.742      2.209      6.973
REMARK INTER + INTRA:          -4.807
REMARK INTER:                  -4.499
REMARK INTRA:                  -0.308
REMARK UNBOUND:                -0.300
REMARK SMILES O=c1c(O)c(-c2ccc(O)c(O)c2)oc2cc(O)cc(O)c12
REMARK SMILES IDX 5 1 3 2 2 3 1 4 22 5 20 6 19 7 17 8 16 9 15 10 14 11 6 12
REMARK SMILES IDX 7 13 8 14 9 15 13 16 11 17 10 18 12 20 4 22 21 24 18 26
REMARK H PARENT 10 19 12 21 4 23 21 25 18 27
REMARK Flexibility Score: inf
ROOT
ATOM      1  C   UNL     1    -121.314   3.295 -18.588  1.00  0.00     0.180 A 
ATOM      2  C   UNL     1    -122.004   4.402 -18.056  1.00  0.00     0.208 A 
ATOM      3  C   UNL     1    -121.844   4.711 -16.696  1.00  0.00     0.238 A 
ATOM      4  O   UNL     1    -122.447   5.706 -16.212  1.00  0.00    -0.285 OA
ATOM      5  C   UNL     1    -121.020   3.900 -15.889  1.00  0.00     0.111 A 
ATOM      6  C   UNL     1    -120.810   4.140 -14.509  1.00  0.00     0.134 A 
ATOM      7  C   UNL     1    -119.982   3.282 -13.772  1.00  0.00     0.093 A 
ATOM      8  C   UNL     1    -119.362   2.190 -14.384  1.00  0.00     0.123 A 
ATOM      9  C   UNL     1    -119.565   1.947 -15.746  1.00  0.00     0.094 A 
ATOM     10  C   UNL     1    -120.386   2.793 -16.499  1.00  0.00     0.146 A 
ATOM     11  O   UNL     1    -120.558   2.544 -17.792  1.00  0.00    -0.452 OA
ENDROOT
BRANCH   1  12
ATOM     12  C   UNL     1    -121.415   2.917 -20.015  1.00  0.00     0.025 A 
ATOM     13  C   UNL     1    -120.680   3.590 -21.005  1.00  0.00     0.016 A 
ATOM     14  C   UNL     1    -120.772   3.199 -22.344  1.00  0.00     0.051 A 
ATOM     15  C   UNL     1    -121.588   2.126 -22.712  1.00  0.00     0.157 A 
ATOM     16  C   UNL     1    -122.218   1.825 -20.386  1.00  0.00     0.062 A 
ATOM     17  C   UNL     1    -122.313   1.432 -21.729  1.00  0.00     0.158 A 
BRANCH  15  18
ATOM     18  O   UNL     1    -121.662   1.761 -24.056  1.00  0.00    -0.504 OA
ATOM     19  H   UNL     1    -121.732   0.792 -24.347  1.00  0.00     0.293 HD
ENDBRANCH  15  18
BRANCH  17  20
ATOM     20  O   UNL     1    -123.123   0.355 -22.088  1.00  0.00    -0.504 OA
ATOM     21  H   UNL     1    -124.121   0.463 -22.221  1.00  0.00     0.293 HD
ENDBRANCH  17  20
ENDBRANCH   1  12
BRANCH   2  22
ATOM     22  O   UNL     1    -122.852   5.160 -18.866  1.00  0.00    -0.502 OA
ATOM     23  H   UNL     1    -123.714   5.564 -18.521  1.00  0.00     0.293 HD
ENDBRANCH   2  22
BRANCH   6  24
ATOM     24  O   UNL     1    -121.416   5.222 -13.868  1.00  0.00    -0.507 OA
ATOM     25  H   UNL     1    -121.101   6.173 -14.015  1.00  0.00     0.293 HD
ENDBRANCH   6  24
BRANCH   8  26
ATOM     26  O   UNL     1    -118.545   1.352 -13.629  1.00  0.00    -0.508 OA
ATOM     27  H   UNL     1    -117.612   1.632 -13.348  1.00  0.00     0.293 HD
ENDBRANCH   8  26
TORSDOF 6
ENDMDL
MODEL 5
REMARK VINA RESULT:    -3.720      1.864      2.654
REMARK INTER + INTRA:          -4.781
REMARK INTER:                  -4.716
REMARK INTRA:                  -0.065
REMARK UNBOUND:                -0.300
REMARK SMILES O=c1c(O)c(-c2ccc(O)c(O)c2)oc2cc(O)cc(O)c12
REMARK SMILES IDX 5 1 3 2 2 3 1 4 22 5 20 6 19 7 17 8 16 9 15 10 14 11 6 12
REMARK SMILES IDX 7 13 8 14 9 15 13 16 11 17 10 18 12 20 4 22 21 24 18 26
REMARK H PARENT 10 19 12 21 4 23 21 25 18 27
REMARK Flexibility Score: inf
ROOT
ATOM      1  C   UNL     1    -119.144   1.053 -19.543  1.00  0.00     0.180 A 
ATOM      2  C   UNL     1    -119.033   2.413 -19.892  1.00  0.00     0.208 A 
ATOM      3  C   UNL     1    -119.798   2.903 -20.962  1.00  0.00     0.238 A 
ATOM      4  O   UNL     1    -119.715   4.121 -21.277  1.00  0.00    -0.285 OA
ATOM      5  C   UNL     1    -120.642   2.027 -21.675  1.00  0.00     0.111 A 
ATOM      6  C   UNL     1    -121.442   2.440 -22.768  1.00  0.00     0.134 A 
ATOM      7  C   UNL     1    -122.249   1.505 -23.432  1.00  0.00     0.093 A 
ATOM      8  C   UNL     1    -122.271   0.168 -23.028  1.00  0.00     0.123 A 
ATOM      9  C   UNL     1    -121.484  -0.246 -21.949  1.00  0.00     0.094 A 
ATOM     10  C   UNL     1    -120.674   0.672 -21.272  1.00  0.00     0.146 A 
ATOM     11  O   UNL     1    -119.939   0.253 -20.248  1.00  0.00    -0.452 OA
ENDROOT
BRANCH   1  12
ATOM     12  C   UNL     1    -118.386   0.466 -18.416  1.00  0.00     0.025 A 
ATOM     13  C   UNL     1    -117.493  -0.602 -18.611  1.00  0.00     0.016 A 
ATOM     14  C   UNL     1    -116.769  -1.124 -17.536  1.00  0.00     0.051 A 
ATOM     15  C   UNL     1    -116.914  -0.581 -16.256  1.00  0.00     0.157 A 
ATOM     16  C   UNL     1    -118.513   1.023 -17.133  1.00  0.00     0.062 A 
ATOM     17  C   UNL     1    -117.788   0.500 -16.052  1.00  0.00     0.158 A 
BRANCH  15  18
ATOM     18  O   UNL     1    -116.180  -1.125 -15.202  1.00  0.00    -0.504 OA
ATOM     19  H   UNL     1    -115.261  -0.778 -14.951  1.00  0.00     0.293 HD
ENDBRANCH  15  18
BRANCH  17  20
ATOM     20  O   UNL     1    -117.932   1.052 -14.779  1.00  0.00    -0.504 OA
ATOM     21  H   UNL     1    -118.048   2.048 -14.643  1.00  0.00     0.293 HD
ENDBRANCH  17  20
ENDBRANCH   1  12
BRANCH   2  22
ATOM     22  O   UNL     1    -118.153   3.249 -19.202  1.00  0.00    -0.502 OA
ATOM     23  H   UNL     1    -117.175   3.018 -19.070  1.00  0.00     0.293 HD
ENDBRANCH   2  22
BRANCH   6  24
ATOM     24  O   UNL     1    -121.442   3.768 -23.197  1.00  0.00    -0.507 OA
ATOM     25  H   UNL     1    -121.987   4.480 -22.727  1.00  0.00     0.293 HD
ENDBRANCH   6  24
BRANCH   8  26
ATOM     26  O   UNL     1    -123.081  -0.741 -23.704  1.00  0.00    -0.508 OA
ATOM     27  H   UNL     1    -124.091  -0.656 -23.703  1.00  0.00     0.293 HD
ENDBRANCH   8  26
TORSDOF 6
ENDMDL
MODEL 6
REMARK VINA RESULT:    -3.658      3.160      7.726
REMARK INTER + INTRA:          -4.706
REMARK INTER:                  -4.471
REMARK INTRA:                  -0.234
REMARK UNBOUND:                -0.300
REMARK SMILES O=c1c(O)c(-c2ccc(O)c(O)c2)oc2cc(O)cc(O)c12
REMARK SMILES IDX 5 1 3 2 2 3 1 4 22 5 20 6 19 7 17 8 16 9 15 10 14 11 6 12
REMARK SMILES IDX 7 13 8 14 9 15 13 16 11 17 10 18 12 20 4 22 21 24 18 26
REMARK H PARENT 10 19 12 21 4 23 21 25 18 27
REMARK Flexibility Score: inf
ROOT
ATOM      1  C   UNL     1    -120.069   1.061 -22.448  1.00  0.00     0.180 A 
ATOM      2  C   UNL     1    -120.426   2.382 -22.111  1.00  0.00     0.208 A 
ATOM      3  C   UNL     1    -120.075   2.878 -20.846  1.00  0.00     0.238 A 
ATOM      4  O   UNL     1    -120.380   4.061 -20.538  1.00  0.00    -0.285 OA
ATOM      5  C   UNL     1    -119.396   2.044 -19.934  1.00  0.00     0.111 A 
ATOM      6  C   UNL     1    -119.011   2.465 -18.638  1.00  0.00     0.134 A 
ATOM      7  C   UNL     1    -118.345   1.572 -17.785  1.00  0.00     0.093 A 
ATOM      8  C   UNL     1    -118.059   0.270 -18.201  1.00  0.00     0.123 A 
ATOM      9  C   UNL     1    -118.436  -0.152 -19.480  1.00  0.00     0.094 A 
ATOM     10  C   UNL     1    -119.099   0.724 -20.345  1.00  0.00     0.146 A 
ATOM     11  O   UNL     1    -119.442   0.299 -21.556  1.00  0.00    -0.452 OA
ENDROOT
BRANCH   1  12
ATOM     12  C   UNL     1    -120.386   0.473 -23.768  1.00  0.00     0.025 A 
ATOM     13  C   UNL     1    -121.704   0.140 -24.125  1.00  0.00     0.016 A 
ATOM     14  C   UNL     1    -121.982  -0.391 -25.387  1.00  0.00     0.051 A 
ATOM     15  C   UNL     1    -120.955  -0.586 -26.315  1.00  0.00     0.157 A 
ATOM     16  C   UNL     1    -119.359   0.296 -24.710  1.00  0.00     0.062 A 
ATOM     17  C   UNL     1    -119.636  -0.238 -25.977  1.00  0.00     0.158 A 
BRANCH  15  18
ATOM     18  O   UNL     1    -121.263  -1.121 -27.565  1.00  0.00    -0.504 OA
ATOM     19  H   UNL     1    -121.793  -1.978 -27.668  1.00  0.00     0.293 HD
ENDBRANCH  15  18
BRANCH  17  20
ATOM     20  O   UNL     1    -118.607  -0.423 -26.900  1.00  0.00    -0.504 OA
ATOM     21  H   UNL     1    -117.831   0.225 -26.966  1.00  0.00     0.293 HD
ENDBRANCH  17  20
ENDBRANCH   1  12
BRANCH   2  22
ATOM     22  O   UNL     1    -121.142   3.170 -23.014  1.00  0.00    -0.502 OA
ATOM     23  H   UNL     1    -120.710   3.593 -23.827  1.00  0.00     0.293 HD
ENDBRANCH   2  22
BRANCH   6  24
ATOM     24  O   UNL     1    -119.283   3.759 -18.193  1.00  0.00    -0.507 OA
ATOM     25  H   UNL     1    -120.066   3.959 -17.582  1.00  0.00     0.293 HD
ENDBRANCH   6  24
BRANCH   8  26
ATOM     26  O   UNL     1    -117.397  -0.597 -17.335  1.00  0.00    -0.508 OA
ATOM     27  H   UNL     1    -117.770  -0.819 -16.418  1.00  0.00     0.293 HD
ENDBRANCH   8  26
TORSDOF 6
ENDMDL
MODEL 7
REMARK VINA RESULT:    -3.650      1.641      6.941
REMARK INTER + INTRA:          -4.697
REMARK INTER:                  -4.376
REMARK INTRA:                  -0.321
REMARK UNBOUND:                -0.300
REMARK SMILES O=c1c(O)c(-c2ccc(O)c(O)c2)oc2cc(O)cc(O)c12
REMARK SMILES IDX 5 1 3 2 2 3 1 4 22 5 20 6 19 7 17 8 16 9 15 10 14 11 6 12
REMARK SMILES IDX 7 13 8 14 9 15 13 16 11 17 10 18 12 20 4 22 21 24 18 26
REMARK H PARENT 10 19 12 21 4 23 21 25 18 27
REMARK Flexibility Score: inf
ROOT
ATOM      1  C   UNL     1    -120.837   2.778 -18.306  1.00  0.00     0.180 A 
ATOM      2  C   UNL     1    -121.225   3.784 -17.401  1.00  0.00     0.208 A 
ATOM      3  C   UNL     1    -120.844   3.668 -16.054  1.00  0.00     0.238 A 
ATOM      4  O   UNL     1    -121.176   4.568 -15.236  1.00  0.00    -0.285 OA
ATOM      5  C   UNL     1    -120.105   2.543 -15.633  1.00  0.00     0.111 A 
ATOM      6  C   UNL     1    -119.687   2.348 -14.294  1.00  0.00     0.134 A 
ATOM      7  C   UNL     1    -118.961   1.198 -13.953  1.00  0.00     0.093 A 
ATOM      8  C   UNL     1    -118.647   0.240 -14.919  1.00  0.00     0.123 A 
ATOM      9  C   UNL     1    -119.057   0.427 -16.244  1.00  0.00     0.094 A 
ATOM     10  C   UNL     1    -119.780   1.569 -16.605  1.00  0.00     0.146 A 
ATOM     11  O   UNL     1    -120.153   1.724 -17.870  1.00  0.00    -0.452 OA
ENDROOT
BRANCH   1  12
ATOM     12  C   UNL     1    -121.182   2.839 -19.744  1.00  0.00     0.025 A 
ATOM     13  C   UNL     1    -122.350   2.237 -20.243  1.00  0.00     0.016 A 
ATOM     14  C   UNL     1    -122.668   2.329 -21.601  1.00  0.00     0.051 A 
ATOM     15  C   UNL     1    -121.835   3.031 -22.477  1.00  0.00     0.157 A 
ATOM     16  C   UNL     1    -120.358   3.561 -20.623  1.00  0.00     0.062 A 
ATOM     17  C   UNL     1    -120.674   3.653 -21.986  1.00  0.00     0.158 A 
BRANCH  15  18
ATOM     18  O   UNL     1    -122.177   3.102 -23.827  1.00  0.00    -0.504 OA
ATOM     19  H   UNL     1    -121.492   3.311 -24.545  1.00  0.00     0.293 HD
ENDBRANCH  15  18
BRANCH  17  20
ATOM     20  O   UNL     1    -119.842   4.361 -22.852  1.00  0.00    -0.504 OA
ATOM     21  H   UNL     1    -120.199   5.104 -23.442  1.00  0.00     0.293 HD
ENDBRANCH  17  20
ENDBRANCH   1  12
BRANCH   2  22
ATOM     22  O   UNL     1    -121.999   4.863 -17.833  1.00  0.00    -0.502 OA
ATOM     23  H   UNL     1    -121.838   5.810 -17.513  1.00  0.00     0.293 HD
ENDBRANCH   2  22
BRANCH   6  24
ATOM     24  O   UNL     1    -119.985   3.286 -13.305  1.00  0.00    -0.507 OA
ATOM     25  H   UNL     1    -120.917   3.668 -13.196  1.00  0.00     0.293 HD
ENDBRANCH   6  24
BRANCH   8  26
ATOM     26  O   UNL     1    -117.926  -0.894 -14.554  1.00  0.00    -0.508 OA
ATOM     27  H   UNL     1    -118.302  -1.575 -13.904  1.00  0.00     0.293 HD
ENDBRANCH   8  26
TORSDOF 6
ENDMDL
MODEL 8
REMARK VINA RESULT:    -3.644      2.876      4.670
REMARK INTER + INTRA:          -4.690
REMARK INTER:                  -4.501
REMARK INTRA:                  -0.189
REMARK UNBOUND:                -0.300
REMARK SMILES O=c1c(O)c(-c2ccc(O)c(O)c2)oc2cc(O)cc(O)c12
REMARK SMILES IDX 5 1 3 2 2 3 1 4 22 5 20 6 19 7 17 8 16 9 15 10 14 11 6 12
REMARK SMILES IDX 7 13 8 14 9 15 13 16 11 17 10 18 12 20 4 22 21 24 18 26
REMARK H PARENT 10 19 12 21 4 23 21 25 18 27
REMARK Flexibility Score: inf
ROOT
ATOM      1  C   UNL     1    -119.797   1.078 -21.288  1.00  0.00     0.180 A 
ATOM      2  C   UNL     1    -121.163   1.412 -21.373  1.00  0.00     0.208 A 
ATOM      3  C   UNL     1    -121.827   1.245 -22.598  1.00  0.00     0.238 A 
ATOM      4  O   UNL     1    -123.052   1.530 -22.684  1.00  0.00    -0.285 OA
ATOM      5  C   UNL     1    -121.114   0.770 -23.719  1.00  0.00     0.111 A 
ATOM      6  C   UNL     1    -121.707   0.579 -24.990  1.00  0.00     0.134 A 
ATOM      7  C   UNL     1    -120.928   0.111 -26.058  1.00  0.00     0.093 A 
ATOM      8  C   UNL     1    -119.571  -0.167 -25.882  1.00  0.00     0.123 A 
ATOM      9  C   UNL     1    -118.979   0.019 -24.628  1.00  0.00     0.094 A 
ATOM     10  C   UNL     1    -119.739   0.483 -23.550  1.00  0.00     0.146 A 
ATOM     11  O   UNL     1    -119.154   0.647 -22.369  1.00  0.00    -0.452 OA
ENDROOT
BRANCH   1  12
ATOM     12  C   UNL     1    -119.033   1.207 -20.027  1.00  0.00     0.025 A 
ATOM     13  C   UNL     1    -118.524   0.080 -19.360  1.00  0.00     0.016 A 
ATOM     14  C   UNL     1    -117.784   0.229 -18.184  1.00  0.00     0.051 A 
ATOM     15  C   UNL     1    -117.530   1.501 -17.664  1.00  0.00     0.157 A 
ATOM     16  C   UNL     1    -118.759   2.486 -19.514  1.00  0.00     0.062 A 
ATOM     17  C   UNL     1    -118.017   2.637 -18.333  1.00  0.00     0.158 A 
BRANCH  15  18
ATOM     18  O   UNL     1    -116.791   1.618 -16.487  1.00  0.00    -0.504 OA
ATOM     19  H   UNL     1    -116.115   2.360 -16.348  1.00  0.00     0.293 HD
ENDBRANCH  15  18
BRANCH  17  20
ATOM     20  O   UNL     1    -117.762   3.910 -17.824  1.00  0.00    -0.504 OA
ATOM     21  H   UNL     1    -117.206   4.585 -18.336  1.00  0.00     0.293 HD
ENDBRANCH  17  20
ENDBRANCH   1  12
BRANCH   2  22
ATOM     22  O   UNL     1    -121.833   1.927 -20.261  1.00  0.00    -0.502 OA
ATOM     23  H   UNL     1    -121.470   1.839 -19.320  1.00  0.00     0.293 HD
ENDBRANCH   2  22
BRANCH   6  24
ATOM     24  O   UNL     1    -123.061   0.848 -25.199  1.00  0.00    -0.507 OA
ATOM     25  H   UNL     1    -123.395   1.261 -26.061  1.00  0.00     0.293 HD
ENDBRANCH   6  24
BRANCH   8  26
ATOM     26  O   UNL     1    -118.819  -0.630 -26.959  1.00  0.00    -0.508 OA
ATOM     27  H   UNL     1    -119.251  -0.873 -27.843  1.00  0.00     0.293 HD
ENDBRANCH   8  26
TORSDOF 6
ENDMDL
MODEL 9
REMARK VINA RESULT:    -3.430      1.946      2.162
REMARK INTER + INTRA:          -4.432
REMARK INTER:                  -4.103
REMARK INTRA:                  -0.329
REMARK UNBOUND:                -0.300
REMARK SMILES O=c1c(O)c(-c2ccc(O)c(O)c2)oc2cc(O)cc(O)c12
REMARK SMILES IDX 5 1 3 2 2 3 1 4 22 5 20 6 19 7 17 8 16 9 15 10 14 11 6 12
REMARK SMILES IDX 7 13 8 14 9 15 13 16 11 17 10 18 12 20 4 22 21 24 18 26
REMARK H PARENT 10 19 12 21 4 23 21 25 18 27
REMARK Flexibility Score: inf
ROOT
ATOM      1  C   UNL     1    -120.597   2.177 -17.801  1.00  0.00     0.180 A 
ATOM      2  C   UNL     1    -121.018   3.361 -18.435  1.00  0.00     0.208 A 
ATOM      3  C   UNL     1    -121.023   3.414 -19.838  1.00  0.00     0.238 A 
ATOM      4  O   UNL     1    -121.409   4.465 -20.418  1.00  0.00    -0.285 OA
ATOM      5  C   UNL     1    -120.589   2.296 -20.580  1.00  0.00     0.111 A 
ATOM      6  C   UNL     1    -120.558   2.270 -21.996  1.00  0.00     0.134 A 
ATOM      7  C   UNL     1    -120.104   1.122 -22.661  1.00  0.00     0.093 A 
ATOM      8  C   UNL     1    -119.679   0.003 -21.941  1.00  0.00     0.123 A 
ATOM      9  C   UNL     1    -119.706   0.022 -20.543  1.00  0.00     0.094 A 
ATOM     10  C   UNL     1    -120.158   1.157 -19.861  1.00  0.00     0.146 A 
ATOM     11  O   UNL     1    -120.179   1.148 -18.533  1.00  0.00    -0.452 OA
ENDROOT
BRANCH   1  12
ATOM     12  C   UNL     1    -120.582   2.036 -16.328  1.00  0.00     0.025 A 
ATOM     13  C   UNL     1    -121.726   1.634 -15.618  1.00  0.00     0.016 A 
ATOM     14  C   UNL     1    -121.681   1.484 -14.230  1.00  0.00     0.051 A 
ATOM     15  C   UNL     1    -120.494   1.721 -13.531  1.00  0.00     0.157 A 
ATOM     16  C   UNL     1    -119.385   2.253 -15.625  1.00  0.00     0.062 A 
ATOM     17  C   UNL     1    -119.337   2.104 -14.231  1.00  0.00     0.158 A 
BRANCH  15  18
ATOM     18  O   UNL     1    -120.480   1.566 -12.145  1.00  0.00    -0.504 OA
ATOM     19  H   UNL     1    -120.013   0.787 -11.695  1.00  0.00     0.293 HD
ENDBRANCH  15  18
BRANCH  17  20
ATOM     20  O   UNL     1    -118.148   2.335 -13.542  1.00  0.00    -0.504 OA
ATOM     21  H   UNL     1    -117.271   2.475 -14.029  1.00  0.00     0.293 HD
ENDBRANCH  17  20
ENDBRANCH   1  12
BRANCH   2  22
ATOM     22  O   UNL     1    -121.397   4.471 -17.677  1.00  0.00    -0.502 OA
ATOM     23  H   UNL     1    -122.183   5.058 -17.929  1.00  0.00     0.293 HD
ENDBRANCH   2  22
BRANCH   6  24
ATOM     24  O   UNL     1    -120.976   3.372 -22.744  1.00  0.00    -0.507 OA
ATOM     25  H   UNL     1    -120.562   4.288 -22.619  1.00  0.00     0.293 HD
ENDBRANCH   6  24
BRANCH   8  26
ATOM     26  O   UNL     1    -119.231  -1.124 -22.625  1.00  0.00    -0.508 OA
ATOM     27  H   UNL     1    -119.475  -2.061 -22.323  1.00  0.00     0.293 HD
ENDBRANCH   8  26
TORSDOF 6
ENDMDL
