MODEL 1
REMARK VINA RESULT:    -3.670      0.000      0.000
REMARK INTER + INTRA:          -4.703
REMARK INTER:                  -4.528
REMARK INTRA:                  -0.175
REMARK UNBOUND:                -0.175
REMARK SMILES CCCCC=CC(C)=O
REMARK SMILES IDX 4 1 3 2 2 3 1 4 5 5 6 6 7 7 9 8 8 9
REMARK H PARENT
REMARK Flexibility Score: inf
ROOT
ATOM      1  C   UNL     1     -27.485 -13.354  22.310  1.00  0.00     0.027 C 
ENDROOT
BRANCH   1   2
ATOM      2  C   UNL     1     -28.971 -13.521  21.943  1.00  0.00     0.004 C 
BRANCH   2   3
ATOM      3  C   UNL     1     -29.656 -14.707  22.645  1.00  0.00    -0.003 C 
ATOM      4  C   UNL     1     -29.385 -16.050  21.967  1.00  0.00     0.004 C 
ENDBRANCH   2   3
ENDBRANCH   1   2
BRANCH   1   5
ATOM      5  C   UNL     1     -27.265 -12.377  23.428  1.00  0.00    -0.023 C 
ATOM      6  C   UNL     1     -27.759 -11.133  23.380  1.00  0.00     0.042 C 
BRANCH   6   7
ATOM      7  C   UNL     1     -27.561 -10.140  24.454  1.00  0.00     0.152 C 
ATOM      8  O   UNL     1     -27.399  -8.932  24.137  1.00  0.00    -0.295 OA
ATOM      9  C   UNL     1     -27.542 -10.518  25.905  1.00  0.00     0.093 C 
ENDBRANCH   6   7
ENDBRANCH   1   5
TORSDOF 4
ENDMDL
MODEL 2
REMARK VINA RESULT:    -3.631      1.371      1.922
REMARK INTER + INTRA:          -4.655
REMARK INTER:                  -4.440
REMARK INTRA:                  -0.215
REMARK UNBOUND:                -0.175
REMARK SMILES CCCCC=CC(C)=O
REMARK SMILES IDX 4 1 3 2 2 3 1 4 5 5 6 6 7 7 9 8 8 9
REMARK H PARENT
REMARK Flexibility Score: inf
ROOT
ATOM      1  C   UNL     1     -27.275 -12.188  22.744  1.00  0.00     0.027 C 
ENDROOT
BRANCH   1   2
ATOM      2  C   UNL     1     -28.065 -13.508  22.672  1.00  0.00     0.004 C 
BRANCH   2   3
ATOM      3  C   UNL     1     -29.496 -13.349  22.129  1.00  0.00    -0.003 C 
ATOM      4  C   UNL     1     -29.638 -12.204  21.126  1.00  0.00     0.004 C 
ENDBRANCH   2   3
ENDBRANCH   1   2
BRANCH   1   5
ATOM      5  C   UNL     1     -27.543 -11.414  24.002  1.00  0.00    -0.023 C 
ATOM      6  C   UNL     1     -27.530 -10.075  24.018  1.00  0.00     0.042 C 
BRANCH   6   7
ATOM      7  C   UNL     1     -27.782  -9.276  25.233  1.00  0.00     0.152 C 
ATOM      8  O   UNL     1     -26.797  -8.806  25.862  1.00  0.00    -0.295 OA
ATOM      9  C   UNL     1     -29.165  -9.007  25.746  1.00  0.00     0.093 C 
ENDBRANCH   6   7
ENDBRANCH   1   5
TORSDOF 4
ENDMDL
MODEL 3
REMARK VINA RESULT:    -3.551      2.433      4.971
REMARK INTER + INTRA:          -4.557
REMARK INTER:                  -4.283
REMARK INTRA:                  -0.274
REMARK UNBOUND:                -0.175
REMARK SMILES CCCCC=CC(C)=O
REMARK SMILES IDX 4 1 3 2 2 3 1 4 5 5 6 6 7 7 9 8 8 9
REMARK H PARENT
REMARK Flexibility Score: inf
ROOT
ATOM      1  C   UNL     1     -27.572 -12.141  25.911  1.00  0.00     0.027 C 
ENDROOT
BRANCH   1   2
ATOM      2  C   UNL     1     -28.303 -10.792  26.027  1.00  0.00     0.004 C 
BRANCH   2   3
ATOM      3  C   UNL     1     -27.360  -9.579  26.124  1.00  0.00    -0.003 C 
ATOM      4  C   UNL     1     -27.128  -8.885  24.781  1.00  0.00     0.004 C 
ENDBRANCH   2   3
ENDBRANCH   1   2
BRANCH   1   5
ATOM      5  C   UNL     1     -27.730 -12.778  24.561  1.00  0.00    -0.023 C 
ATOM      6  C   UNL     1     -28.524 -12.247  23.623  1.00  0.00     0.042 C 
BRANCH   6   7
ATOM      7  C   UNL     1     -28.713 -12.844  22.286  1.00  0.00     0.152 C 
ATOM      8  O   UNL     1     -28.055 -13.875  21.987  1.00  0.00    -0.295 OA
ATOM      9  C   UNL     1     -29.655 -12.265  21.274  1.00  0.00     0.093 C 
ENDBRANCH   6   7
ENDBRANCH   1   5
TORSDOF 4
ENDMDL
MODEL 4
REMARK VINA RESULT:    -3.541      0.935      0.975
REMARK INTER + INTRA:          -4.545
REMARK INTER:                  -4.394
REMARK INTRA:                  -0.151
REMARK UNBOUND:                -0.175
REMARK SMILES CCCCC=CC(C)=O
REMARK SMILES IDX 4 1 3 2 2 3 1 4 5 5 6 6 7 7 9 8 8 9
REMARK H PARENT
REMARK Flexibility Score: inf
ROOT
ATOM      1  C   UNL     1     -27.471 -13.375  23.648  1.00  0.00     0.027 C 
ENDROOT
BRANCH   1   2
ATOM      2  C   UNL     1     -28.384 -13.477  22.412  1.00  0.00     0.004 C 
BRANCH   2   3
ATOM      3  C   UNL     1     -29.576 -14.434  22.596  1.00  0.00    -0.003 C 
ATOM      4  C   UNL     1     -29.314 -15.837  22.048  1.00  0.00     0.004 C 
ENDBRANCH   2   3
ENDBRANCH   1   2
BRANCH   1   5
ATOM      5  C   UNL     1     -27.700 -12.121  24.441  1.00  0.00    -0.023 C 
ATOM      6  C   UNL     1     -27.472 -10.909  23.919  1.00  0.00     0.042 C 
BRANCH   6   7
ATOM      7  C   UNL     1     -27.677  -9.653  24.667  1.00  0.00     0.152 C 
ATOM      8  O   UNL     1     -26.771  -8.779  24.640  1.00  0.00    -0.295 OA
ATOM      9  C   UNL     1     -28.923  -9.382  25.457  1.00  0.00     0.093 C 
ENDBRANCH   6   7
ENDBRANCH   1   5
TORSDOF 4
ENDMDL
MODEL 5
REMARK VINA RESULT:    -3.511      2.181      5.034
REMARK INTER + INTRA:          -4.508
REMARK INTER:                  -4.290
REMARK INTRA:                  -0.218
REMARK UNBOUND:                -0.175
REMARK SMILES CCCCC=CC(C)=O
REMARK SMILES IDX 4 1 3 2 2 3 1 4 5 5 6 6 7 7 9 8 8 9
REMARK H PARENT
REMARK Flexibility Score: inf
ROOT
ATOM      1  C   UNL     1     -29.064 -12.157  26.005  1.00  0.00     0.027 C 
ENDROOT
BRANCH   1   2
ATOM      2  C   UNL     1     -27.979 -11.069  26.104  1.00  0.00     0.004 C 
BRANCH   2   3
ATOM      3  C   UNL     1     -28.340  -9.763  25.374  1.00  0.00    -0.003 C 
ATOM      4  C   UNL     1     -27.116  -8.970  24.913  1.00  0.00     0.004 C 
ENDBRANCH   2   3
ENDBRANCH   1   2
BRANCH   1   5
ATOM      5  C   UNL     1     -29.162 -12.762  24.634  1.00  0.00    -0.023 C 
ATOM      6  C   UNL     1     -28.090 -13.273  24.015  1.00  0.00     0.042 C 
BRANCH   6   7
ATOM      7  C   UNL     1     -28.142 -13.871  22.666  1.00  0.00     0.152 C 
ATOM      8  O   UNL     1     -27.393 -13.403  21.768  1.00  0.00    -0.295 OA
ATOM      9  C   UNL     1     -29.056 -15.011  22.327  1.00  0.00     0.093 C 
ENDBRANCH   6   7
ENDBRANCH   1   5
TORSDOF 4
ENDMDL
MODEL 6
REMARK VINA RESULT:    -3.474      2.246      4.983
REMARK INTER + INTRA:          -4.461
REMARK INTER:                  -4.251
REMARK INTRA:                  -0.210
REMARK UNBOUND:                -0.175
REMARK SMILES CCCCC=CC(C)=O
REMARK SMILES IDX 4 1 3 2 2 3 1 4 5 5 6 6 7 7 9 8 8 9
REMARK H PARENT
REMARK Flexibility Score: inf
ROOT
ATOM      1  C   UNL     1     -27.421  -9.808  24.273  1.00  0.00     0.027 C 
ENDROOT
BRANCH   1   2
ATOM      2  C   UNL     1     -27.723  -9.497  25.751  1.00  0.00     0.004 C 
BRANCH   2   3
ATOM      3  C   UNL     1     -29.209  -9.638  26.125  1.00  0.00    -0.003 C 
ATOM      4  C   UNL     1     -30.099  -8.576  25.477  1.00  0.00     0.004 C 
ENDBRANCH   2   3
ENDBRANCH   1   2
BRANCH   1   5
ATOM      5  C   UNL     1     -27.949 -11.144  23.837  1.00  0.00    -0.023 C 
ATOM      6  C   UNL     1     -27.957 -11.508  22.548  1.00  0.00     0.042 C 
BRANCH   6   7
ATOM      7  C   UNL     1     -28.473 -12.808  22.076  1.00  0.00     0.152 C 
ATOM      8  O   UNL     1     -29.333 -12.819  21.157  1.00  0.00    -0.295 OA
ATOM      9  C   UNL     1     -28.011 -14.113  22.653  1.00  0.00     0.093 C 
ENDBRANCH   6   7
ENDBRANCH   1   5
TORSDOF 4
ENDMDL
MODEL 7
REMARK VINA RESULT:    -3.312      2.107      4.363
REMARK INTER + INTRA:          -4.262
REMARK INTER:                  -4.047
REMARK INTRA:                  -0.215
REMARK UNBOUND:                -0.175
REMARK SMILES CCCCC=CC(C)=O
REMARK SMILES IDX 4 1 3 2 2 3 1 4 5 5 6 6 7 7 9 8 8 9
REMARK H PARENT
REMARK Flexibility Score: inf
ROOT
ATOM      1  C   UNL     1     -27.548 -10.356  24.510  1.00  0.00     0.027 C 
ENDROOT
BRANCH   1   2
ATOM      2  C   UNL     1     -27.352 -10.850  25.955  1.00  0.00     0.004 C 
BRANCH   2   3
ATOM      3  C   UNL     1     -27.522 -12.371  26.121  1.00  0.00    -0.003 C 
ATOM      4  C   UNL     1     -26.263 -13.162  25.767  1.00  0.00     0.004 C 
ENDBRANCH   2   3
ENDBRANCH   1   2
BRANCH   1   5
ATOM      5  C   UNL     1     -28.447 -11.248  23.704  1.00  0.00    -0.023 C 
ATOM      6  C   UNL     1     -28.022 -11.841  22.581  1.00  0.00     0.042 C 
BRANCH   6   7
ATOM      7  C   UNL     1     -28.875 -12.720  21.756  1.00  0.00     0.152 C 
ATOM      8  O   UNL     1     -29.589 -12.200  20.859  1.00  0.00    -0.295 OA
ATOM      9  C   UNL     1     -28.922 -14.206  21.950  1.00  0.00     0.093 C 
ENDBRANCH   6   7
ENDBRANCH   1   5
TORSDOF 4
ENDMDL
MODEL 8
REMARK VINA RESULT:    -3.028      1.886      2.514
REMARK INTER + INTRA:          -3.911
REMARK INTER:                  -3.719
REMARK INTRA:                  -0.192
REMARK UNBOUND:                -0.175
REMARK SMILES CCCCC=CC(C)=O
REMARK SMILES IDX 4 1 3 2 2 3 1 4 5 5 6 6 7 7 9 8 8 9
REMARK H PARENT
REMARK Flexibility Score: inf
ROOT
ATOM      1  C   UNL     1     -28.635 -11.918  22.716  1.00  0.00     0.027 C 
ENDROOT
BRANCH   1   2
ATOM      2  C   UNL     1     -27.335 -12.743  22.710  1.00  0.00     0.004 C 
BRANCH   2   3
ATOM      3  C   UNL     1     -27.269 -13.808  23.818  1.00  0.00    -0.003 C 
ATOM      4  C   UNL     1     -26.358 -13.415  24.981  1.00  0.00     0.004 C 
ENDBRANCH   2   3
ENDBRANCH   1   2
BRANCH   1   5
ATOM      5  C   UNL     1     -28.751 -11.019  23.913  1.00  0.00    -0.023 C 
ATOM      6  C   UNL     1     -27.782 -10.154  24.238  1.00  0.00     0.042 C 
BRANCH   6   7
ATOM      7  C   UNL     1     -27.853  -9.258  25.409  1.00  0.00     0.152 C 
ATOM      8  O   UNL     1     -26.783  -8.781  25.871  1.00  0.00    -0.295 OA
ATOM      9  C   UNL     1     -29.151  -8.898  26.067  1.00  0.00     0.093 C 
ENDBRANCH   6   7
ENDBRANCH   1   5
TORSDOF 4
ENDMDL
