MODEL 1
REMARK VINA RESULT:    -3.939      0.000      0.000
REMARK INTER + INTRA:          -5.815
REMARK INTER:                  -5.550
REMARK INTRA:                  -0.264
REMARK UNBOUND:                -0.264
REMARK SMILES CCCCCCCCC(=O)[O-]
REMARK SMILES IDX 6 1 7 2 8 3 9 4 10 5 11 6 5 7 4 8 3 9 2 10 1 11
REMARK H PARENT
REMARK Flexibility Score: inf
ROOT
ATOM      1  C   UNL     1      -4.465  -3.575  -3.296  1.00  0.00     0.000 C 
ENDROOT
BRANCH   1   2
ATOM      2  C   UNL     1      -5.251  -3.369  -4.603  1.00  0.00     0.006 C 
BRANCH   2   3
ATOM      3  C   UNL     1      -4.325  -3.125  -5.802  1.00  0.00     0.053 C 
BRANCH   3   4
ATOM      4  C   UNL     1      -4.391  -1.706  -6.275  1.00  0.00     0.041 C 
ATOM      5  O   UNL     1      -5.505  -1.148  -6.457  1.00  0.00    -0.550 OA
ATOM      6  O   UNL     1      -3.220  -1.010  -6.550  1.00  0.00    -0.550 OA
ENDBRANCH   3   4
ENDBRANCH   2   3
ENDBRANCH   1   2
BRANCH   1   7
ATOM      7  C   UNL     1      -5.376  -3.879  -2.096  1.00  0.00     0.000 C 
BRANCH   7   8
ATOM      8  C   UNL     1      -5.027  -3.031  -0.860  1.00  0.00    -0.000 C 
BRANCH   8   9
ATOM      9  C   UNL     1      -6.175  -2.978   0.162  1.00  0.00    -0.000 C 
BRANCH   9  10
ATOM     10  C   UNL     1      -7.545  -3.272  -0.470  1.00  0.00    -0.003 C 
ATOM     11  C   UNL     1      -8.467  -3.974   0.523  1.00  0.00     0.004 C 
ENDBRANCH   9  10
ENDBRANCH   8   9
ENDBRANCH   7   8
ENDBRANCH   1   7
TORSDOF 7
ENDMDL
MODEL 2
REMARK VINA RESULT:    -3.858     10.850     13.978
REMARK INTER + INTRA:          -5.701
REMARK INTER:                  -5.363
REMARK INTRA:                  -0.338
REMARK UNBOUND:                -0.264
REMARK SMILES CCCCCCCCC(=O)[O-]
REMARK SMILES IDX 6 1 7 2 8 3 9 4 10 5 11 6 5 7 4 8 3 9 2 10 1 11
REMARK H PARENT
REMARK Flexibility Score: inf
ROOT
ATOM      1  C   UNL     1      -3.749   4.997 -13.256  1.00  0.00     0.000 C 
ENDROOT
BRANCH   1   2
ATOM      2  C   UNL     1      -3.827   3.588 -12.644  1.00  0.00     0.006 C 
BRANCH   2   3
ATOM      3  C   UNL     1      -2.442   2.945 -12.495  1.00  0.00     0.053 C 
BRANCH   3   4
ATOM      4  C   UNL     1      -1.929   3.048 -11.091  1.00  0.00     0.041 C 
ATOM      5  O   UNL     1      -0.914   2.393 -10.737  1.00  0.00    -0.550 OA
ATOM      6  O   UNL     1      -2.593   3.842 -10.165  1.00  0.00    -0.550 OA
ENDBRANCH   3   4
ENDBRANCH   2   3
ENDBRANCH   1   2
BRANCH   1   7
ATOM      7  C   UNL     1      -2.634   5.126 -14.308  1.00  0.00     0.000 C 
BRANCH   7   8
ATOM      8  C   UNL     1      -3.177   5.485 -15.702  1.00  0.00    -0.000 C 
BRANCH   8   9
ATOM      9  C   UNL     1      -4.626   5.012 -15.909  1.00  0.00    -0.000 C 
BRANCH   9  10
ATOM     10  C   UNL     1      -5.175   5.374 -17.298  1.00  0.00    -0.003 C 
ATOM     11  C   UNL     1      -5.932   4.199 -17.911  1.00  0.00     0.004 C 
ENDBRANCH   9  10
ENDBRANCH   8   9
ENDBRANCH   7   8
ENDBRANCH   1   7
TORSDOF 7
ENDMDL
MODEL 3
REMARK VINA RESULT:    -3.821      3.130      6.009
REMARK INTER + INTRA:          -5.649
REMARK INTER:                  -5.174
REMARK INTRA:                  -0.475
REMARK UNBOUND:                -0.264
REMARK SMILES CCCCCCCCC(=O)[O-]
REMARK SMILES IDX 6 1 7 2 8 3 9 4 10 5 11 6 5 7 4 8 3 9 2 10 1 11
REMARK H PARENT
REMARK Flexibility Score: inf
ROOT
ATOM      1  C   UNL     1      -4.124  -1.418  -6.453  1.00  0.00     0.000 C 
ENDROOT
BRANCH   1   2
ATOM      2  C   UNL     1      -4.119  -2.872  -5.949  1.00  0.00     0.006 C 
BRANCH   2   3
ATOM      3  C   UNL     1      -5.299  -3.163  -5.012  1.00  0.00     0.053 C 
BRANCH   3   4
ATOM      4  C   UNL     1      -4.840  -3.472  -3.620  1.00  0.00     0.041 C 
ATOM      5  O   UNL     1      -3.979  -2.743  -3.060  1.00  0.00    -0.550 OA
ATOM      6  O   UNL     1      -5.336  -4.586  -2.954  1.00  0.00    -0.550 OA
ENDBRANCH   3   4
ENDBRANCH   2   3
ENDBRANCH   1   2
BRANCH   1   7
ATOM      7  C   UNL     1      -5.509  -0.758  -6.345  1.00  0.00     0.000 C 
BRANCH   7   8
ATOM      8  C   UNL     1      -5.421   0.759  -6.099  1.00  0.00    -0.000 C 
BRANCH   8   9
ATOM      9  C   UNL     1      -4.207   1.147  -5.239  1.00  0.00    -0.000 C 
BRANCH   9  10
ATOM     10  C   UNL     1      -3.302   2.183  -5.924  1.00  0.00    -0.003 C 
ATOM     11  C   UNL     1      -4.109   3.086  -6.853  1.00  0.00     0.004 C 
ENDBRANCH   9  10
ENDBRANCH   8   9
ENDBRANCH   7   8
ENDBRANCH   1   7
TORSDOF 7
ENDMDL
MODEL 4
REMARK VINA RESULT:    -3.763     17.295     18.115
REMARK INTER + INTRA:          -5.567
REMARK INTER:                  -5.059
REMARK INTRA:                  -0.508
REMARK UNBOUND:                -0.264
REMARK SMILES CCCCCCCCC(=O)[O-]
REMARK SMILES IDX 6 1 7 2 8 3 9 4 10 5 11 6 5 7 4 8 3 9 2 10 1 11
REMARK H PARENT
REMARK Flexibility Score: inf
ROOT
ATOM      1  C   UNL     1     -12.239   5.622 -16.707  1.00  0.00     0.000 C 
ENDROOT
BRANCH   1   2
ATOM      2  C   UNL     1     -12.715   6.397 -15.465  1.00  0.00     0.006 C 
BRANCH   2   3
ATOM      3  C   UNL     1     -14.231   6.631 -15.476  1.00  0.00     0.053 C 
BRANCH   3   4
ATOM      4  C   UNL     1     -14.570   8.081 -15.314  1.00  0.00     0.041 C 
ATOM      5  O   UNL     1     -15.764   8.436 -15.132  1.00  0.00    -0.550 OA
ATOM      6  O   UNL     1     -13.571   9.043 -15.400  1.00  0.00    -0.550 OA
ENDBRANCH   3   4
ENDBRANCH   2   3
ENDBRANCH   1   2
BRANCH   1   7
ATOM      7  C   UNL     1     -12.788   4.187 -16.758  1.00  0.00     0.000 C 
BRANCH   7   8
ATOM      8  C   UNL     1     -13.629   3.922 -18.019  1.00  0.00    -0.000 C 
BRANCH   8   9
ATOM      9  C   UNL     1     -15.035   3.395 -17.689  1.00  0.00    -0.000 C 
BRANCH   9  10
ATOM     10  C   UNL     1     -15.120   2.768 -16.289  1.00  0.00    -0.003 C 
ATOM     11  C   UNL     1     -15.019   1.247 -16.361  1.00  0.00     0.004 C 
ENDBRANCH   9  10
ENDBRANCH   8   9
ENDBRANCH   7   8
ENDBRANCH   1   7
TORSDOF 7
ENDMDL
MODEL 5
REMARK VINA RESULT:    -3.760      1.215      2.091
REMARK INTER + INTRA:          -5.563
REMARK INTER:                  -5.236
REMARK INTRA:                  -0.327
REMARK UNBOUND:                -0.264
REMARK SMILES CCCCCCCCC(=O)[O-]
REMARK SMILES IDX 6 1 7 2 8 3 9 4 10 5 11 6 5 7 4 8 3 9 2 10 1 11
REMARK H PARENT
REMARK Flexibility Score: inf
ROOT
ATOM      1  C   UNL     1      -4.129  -3.693  -5.399  1.00  0.00     0.000 C 
ENDROOT
BRANCH   1   2
ATOM      2  C   UNL     1      -4.099  -2.522  -6.397  1.00  0.00     0.006 C 
BRANCH   2   3
ATOM      3  C   UNL     1      -4.050  -1.161  -5.689  1.00  0.00     0.053 C 
BRANCH   3   4
ATOM      4  C   UNL     1      -5.160  -0.261  -6.136  1.00  0.00     0.041 C 
ATOM      5  O   UNL     1      -6.257  -0.749  -6.517  1.00  0.00    -0.550 OA
ATOM      6  O   UNL     1      -4.972   1.115  -6.166  1.00  0.00    -0.550 OA
ENDBRANCH   3   4
ENDBRANCH   2   3
ENDBRANCH   1   2
BRANCH   1   7
ATOM      7  C   UNL     1      -5.189  -3.509  -4.301  1.00  0.00     0.000 C 
BRANCH   7   8
ATOM      8  C   UNL     1      -4.615  -3.713  -2.887  1.00  0.00    -0.000 C 
BRANCH   8   9
ATOM      9  C   UNL     1      -5.571  -4.495  -1.971  1.00  0.00    -0.000 C 
BRANCH   9  10
ATOM     10  C   UNL     1      -5.848  -3.770  -0.646  1.00  0.00    -0.003 C 
ATOM     11  C   UNL     1      -7.297  -3.296  -0.572  1.00  0.00     0.004 C 
ENDBRANCH   9  10
ENDBRANCH   8   9
ENDBRANCH   7   8
ENDBRANCH   1   7
TORSDOF 7
ENDMDL
MODEL 6
REMARK VINA RESULT:    -3.752      1.949      3.175
REMARK INTER + INTRA:          -5.552
REMARK INTER:                  -4.848
REMARK INTRA:                  -0.704
REMARK UNBOUND:                -0.264
REMARK SMILES CCCCCCCCC(=O)[O-]
REMARK SMILES IDX 6 1 7 2 8 3 9 4 10 5 11 6 5 7 4 8 3 9 2 10 1 11
REMARK H PARENT
REMARK Flexibility Score: inf
ROOT
ATOM      1  C   UNL     1      -5.191  -2.856  -0.516  1.00  0.00     0.000 C 
ENDROOT
BRANCH   1   2
ATOM      2  C   UNL     1      -4.784  -4.134  -1.272  1.00  0.00     0.006 C 
BRANCH   2   3
ATOM      3  C   UNL     1      -5.284  -4.130  -2.722  1.00  0.00     0.053 C 
BRANCH   3   4
ATOM      4  C   UNL     1      -4.222  -3.675  -3.675  1.00  0.00     0.041 C 
ATOM      5  O   UNL     1      -3.562  -4.517  -4.338  1.00  0.00    -0.550 OA
ATOM      6  O   UNL     1      -3.936  -2.321  -3.804  1.00  0.00    -0.550 OA
ENDBRANCH   3   4
ENDBRANCH   2   3
ENDBRANCH   1   2
BRANCH   1   7
ATOM      7  C   UNL     1      -6.264  -3.116   0.554  1.00  0.00     0.000 C 
BRANCH   7   8
ATOM      8  C   UNL     1      -7.691  -3.073  -0.020  1.00  0.00    -0.000 C 
BRANCH   8   9
ATOM      9  C   UNL     1      -8.452  -4.392   0.193  1.00  0.00    -0.000 C 
BRANCH   9  10
ATOM     10  C   UNL     1      -7.565  -5.499   0.785  1.00  0.00    -0.003 C 
ATOM     11  C   UNL     1      -7.405  -6.657  -0.196  1.00  0.00     0.004 C 
ENDBRANCH   9  10
ENDBRANCH   8   9
ENDBRANCH   7   8
ENDBRANCH   1   7
TORSDOF 7
ENDMDL
MODEL 7
REMARK VINA RESULT:    -3.724      3.929      6.483
REMARK INTER + INTRA:          -5.513
REMARK INTER:                  -5.278
REMARK INTRA:                  -0.235
REMARK UNBOUND:                -0.264
REMARK SMILES CCCCCCCCC(=O)[O-]
REMARK SMILES IDX 6 1 7 2 8 3 9 4 10 5 11 6 5 7 4 8 3 9 2 10 1 11
REMARK H PARENT
REMARK Flexibility Score: inf
ROOT
ATOM      1  C   UNL     1      -5.601  -4.018  -1.324  1.00  0.00     0.000 C 
ENDROOT
BRANCH   1   2
ATOM      2  C   UNL     1      -6.045  -2.972  -0.285  1.00  0.00     0.006 C 
BRANCH   2   3
ATOM      3  C   UNL     1      -7.559  -3.009  -0.038  1.00  0.00     0.053 C 
BRANCH   3   4
ATOM      4  C   UNL     1      -7.969  -4.235   0.719  1.00  0.00     0.041 C 
ATOM      5  O   UNL     1      -7.418  -4.517   1.815  1.00  0.00    -0.550 OA
ATOM      6  O   UNL     1      -8.937  -5.084   0.196  1.00  0.00    -0.550 OA
ENDBRANCH   3   4
ENDBRANCH   2   3
ENDBRANCH   1   2
BRANCH   1   7
ATOM      7  C   UNL     1      -4.532  -3.480  -2.288  1.00  0.00     0.000 C 
BRANCH   7   8
ATOM      8  C   UNL     1      -4.525  -4.224  -3.635  1.00  0.00    -0.000 C 
BRANCH   8   9
ATOM      9  C   UNL     1      -5.194  -3.414  -4.759  1.00  0.00    -0.000 C 
BRANCH   9  10
ATOM     10  C   UNL     1      -4.275  -3.215  -5.974  1.00  0.00    -0.003 C 
ATOM     11  C   UNL     1      -4.332  -1.774  -6.474  1.00  0.00     0.004 C 
ENDBRANCH   9  10
ENDBRANCH   8   9
ENDBRANCH   7   8
ENDBRANCH   1   7
TORSDOF 7
ENDMDL
MODEL 8
REMARK VINA RESULT:    -3.690     11.252     13.614
REMARK INTER + INTRA:          -5.465
REMARK INTER:                  -5.154
REMARK INTRA:                  -0.311
REMARK UNBOUND:                -0.264
REMARK SMILES CCCCCCCCC(=O)[O-]
REMARK SMILES IDX 6 1 7 2 8 3 9 4 10 5 11 6 5 7 4 8 3 9 2 10 1 11
REMARK H PARENT
REMARK Flexibility Score: inf
ROOT
ATOM      1  C   UNL     1      -2.812   4.982 -14.176  1.00  0.00     0.000 C 
ENDROOT
BRANCH   1   2
ATOM      2  C   UNL     1      -3.363   5.462 -15.530  1.00  0.00     0.006 C 
BRANCH   2   3
ATOM      3  C   UNL     1      -4.763   4.901 -15.816  1.00  0.00     0.053 C 
BRANCH   3   4
ATOM      4  C   UNL     1      -5.117   5.002 -17.268  1.00  0.00     0.041 C 
ATOM      5  O   UNL     1      -5.953   4.208 -17.774  1.00  0.00    -0.550 OA
ATOM      6  O   UNL     1      -4.496   5.952 -18.071  1.00  0.00    -0.550 OA
ENDBRANCH   3   4
ENDBRANCH   2   3
ENDBRANCH   1   2
BRANCH   1   7
ATOM      7  C   UNL     1      -3.924   4.599 -13.185  1.00  0.00     0.000 C 
BRANCH   7   8
ATOM      8  C   UNL     1      -3.674   3.236 -12.516  1.00  0.00    -0.000 C 
BRANCH   8   9
ATOM      9  C   UNL     1      -2.183   2.976 -12.248  1.00  0.00    -0.000 C 
BRANCH   9  10
ATOM     10  C   UNL     1      -1.785   3.255 -10.791  1.00  0.00    -0.003 C 
ATOM     11  C   UNL     1      -0.888   2.147 -10.246  1.00  0.00     0.004 C 
ENDBRANCH   9  10
ENDBRANCH   8   9
ENDBRANCH   7   8
ENDBRANCH   1   7
TORSDOF 7
ENDMDL
MODEL 9
REMARK VINA RESULT:    -3.680     13.212     14.353
REMARK INTER + INTRA:          -5.450
REMARK INTER:                  -4.655
REMARK INTRA:                  -0.794
REMARK UNBOUND:                -0.264
REMARK SMILES CCCCCCCCC(=O)[O-]
REMARK SMILES IDX 6 1 7 2 8 3 9 4 10 5 11 6 5 7 4 8 3 9 2 10 1 11
REMARK H PARENT
REMARK Flexibility Score: inf
ROOT
ATOM      1  C   UNL     1     -15.123  -1.478 -10.350  1.00  0.00     0.000 C 
ENDROOT
BRANCH   1   2
ATOM      2  C   UNL     1     -15.008  -1.835 -11.842  1.00  0.00     0.006 C 
BRANCH   2   3
ATOM      3  C   UNL     1     -16.367  -2.198 -12.456  1.00  0.00     0.053 C 
BRANCH   3   4
ATOM      4  C   UNL     1     -16.299  -2.276 -13.950  1.00  0.00     0.041 C 
ATOM      5  O   UNL     1     -15.971  -1.264 -14.623  1.00  0.00    -0.550 OA
ATOM      6  O   UNL     1     -16.633  -3.457 -14.602  1.00  0.00    -0.550 OA
ENDBRANCH   3   4
ENDBRANCH   2   3
ENDBRANCH   1   2
BRANCH   1   7
ATOM      7  C   UNL     1     -16.582  -1.354  -9.880  1.00  0.00     0.000 C 
BRANCH   7   8
ATOM      8  C   UNL     1     -16.852  -0.033  -9.138  1.00  0.00    -0.000 C 
BRANCH   8   9
ATOM      9  C   UNL     1     -16.419   1.198  -9.950  1.00  0.00    -0.000 C 
BRANCH   9  10
ATOM     10  C   UNL     1     -17.326   1.457 -11.163  1.00  0.00    -0.003 C 
ATOM     11  C   UNL     1     -16.511   1.525 -12.452  1.00  0.00     0.004 C 
ENDBRANCH   9  10
ENDBRANCH   8   9
ENDBRANCH   7   8
ENDBRANCH   1   7
TORSDOF 7
ENDMDL
