MODEL 1
REMARK VINA RESULT:    -4.563      0.000      0.000
REMARK INTER + INTRA:          -9.695
REMARK INTER:                  -7.763
REMARK INTRA:                  -1.931
REMARK UNBOUND:                -1.931
REMARK SMILES CCCCCCCCCCCCCC(=O)[O-]
REMARK SMILES IDX 8 1 9 2 10 3 11 4 12 5 13 6 14 7 15 8 16 9 7 10 6 11 5 12
REMARK SMILES IDX 4 13 3 14 2 15 1 16
REMARK H PARENT
REMARK Flexibility Score: inf
ROOT
ATOM      1  C   UNL     1      18.041  55.443  13.922  1.00  0.00     0.000 C 
ENDROOT
BRANCH   1   2
ATOM      2  C   UNL     1      19.046  54.306  13.659  1.00  0.00     0.000 C 
BRANCH   2   3
ATOM      3  C   UNL     1      19.925  53.925  14.867  1.00  0.00     0.000 C 
BRANCH   3   4
ATOM      4  C   UNL     1      19.591  52.568  15.518  1.00  0.00     0.000 C 
BRANCH   4   5
ATOM      5  C   UNL     1      19.056  52.652  16.962  1.00  0.00     0.006 C 
BRANCH   5   6
ATOM      6  C   UNL     1      20.107  53.066  18.005  1.00  0.00     0.053 C 
BRANCH   6   7
ATOM      7  C   UNL     1      19.587  52.942  19.404  1.00  0.00     0.041 C 
ATOM      8  O   UNL     1      20.323  52.476  20.314  1.00  0.00    -0.550 OA
ATOM      9  O   UNL     1      18.304  53.376  19.711  1.00  0.00    -0.550 OA
ENDBRANCH   6   7
ENDBRANCH   5   6
ENDBRANCH   4   5
ENDBRANCH   3   4
ENDBRANCH   2   3
ENDBRANCH   1   2
BRANCH   1  10
ATOM     10  C   UNL     1      16.704  54.934  14.487  1.00  0.00     0.000 C 
BRANCH  10  11
ATOM     11  C   UNL     1      16.535  55.246  15.983  1.00  0.00    -0.000 C 
BRANCH  11  12
ATOM     12  C   UNL     1      17.325  56.494  16.416  1.00  0.00    -0.000 C 
BRANCH  12  13
ATOM     13  C   UNL     1      18.120  56.277  17.716  1.00  0.00    -0.000 C 
BRANCH  13  14
ATOM     14  C   UNL     1      19.316  57.230  17.922  1.00  0.00    -0.000 C 
BRANCH  14  15
ATOM     15  C   UNL     1      20.676  56.674  17.468  1.00  0.00    -0.003 C 
ATOM     16  C   UNL     1      21.003  57.012  16.013  1.00  0.00     0.004 C 
ENDBRANCH  14  15
ENDBRANCH  13  14
ENDBRANCH  12  13
ENDBRANCH  11  12
ENDBRANCH  10  11
ENDBRANCH   1  10
TORSDOF 12
ENDMDL
MODEL 2
REMARK VINA RESULT:    -4.526      1.982      3.927
REMARK INTER + INTRA:          -9.632
REMARK INTER:                  -7.868
REMARK INTRA:                  -1.764
REMARK UNBOUND:                -1.931
REMARK SMILES CCCCCCCCCCCCCC(=O)[O-]
REMARK SMILES IDX 8 1 9 2 10 3 11 4 12 5 13 6 14 7 15 8 16 9 7 10 6 11 5 12
REMARK SMILES IDX 4 13 3 14 2 15 1 16
REMARK H PARENT
REMARK Flexibility Score: inf
ROOT
ATOM      1  C   UNL     1      17.808  57.094  16.308  1.00  0.00     0.000 C 
ENDROOT
BRANCH   1   2
ATOM      2  C   UNL     1      18.786  56.349  15.381  1.00  0.00     0.000 C 
BRANCH   2   3
ATOM      3  C   UNL     1      18.135  55.686  14.151  1.00  0.00     0.000 C 
BRANCH   3   4
ATOM      4  C   UNL     1      18.821  54.394  13.663  1.00  0.00     0.000 C 
BRANCH   4   5
ATOM      5  C   UNL     1      20.115  54.020  14.414  1.00  0.00     0.006 C 
BRANCH   5   6
ATOM      6  C   UNL     1      19.916  53.010  15.556  1.00  0.00     0.053 C 
BRANCH   6   7
ATOM      7  C   UNL     1      20.937  53.179  16.639  1.00  0.00     0.041 C 
ATOM      8  O   UNL     1      22.118  53.510  16.350  1.00  0.00    -0.550 OA
ATOM      9  O   UNL     1      20.577  53.007  17.969  1.00  0.00    -0.550 OA
ENDBRANCH   6   7
ENDBRANCH   5   6
ENDBRANCH   4   5
ENDBRANCH   3   4
ENDBRANCH   2   3
ENDBRANCH   1   2
BRANCH   1  10
ATOM     10  C   UNL     1      17.646  56.405  17.674  1.00  0.00     0.000 C 
BRANCH  10  11
ATOM     11  C   UNL     1      17.564  54.874  17.561  1.00  0.00    -0.000 C 
BRANCH  11  12
ATOM     12  C   UNL     1      16.120  54.353  17.658  1.00  0.00    -0.000 C 
BRANCH  12  13
ATOM     13  C   UNL     1      15.546  53.924  16.296  1.00  0.00    -0.000 C 
BRANCH  13  14
ATOM     14  C   UNL     1      14.861  55.046  15.489  1.00  0.00    -0.000 C 
BRANCH  14  15
ATOM     15  C   UNL     1      13.875  55.915  16.289  1.00  0.00    -0.003 C 
ATOM     16  C   UNL     1      14.231  57.400  16.262  1.00  0.00     0.004 C 
ENDBRANCH  14  15
ENDBRANCH  13  14
ENDBRANCH  12  13
ENDBRANCH  11  12
ENDBRANCH  10  11
ENDBRANCH   1  10
TORSDOF 12
ENDMDL
MODEL 3
REMARK VINA RESULT:    -4.479      1.787      2.695
REMARK INTER + INTRA:          -9.552
REMARK INTER:                  -7.901
REMARK INTRA:                  -1.651
REMARK UNBOUND:                -1.931
REMARK SMILES CCCCCCCCCCCCCC(=O)[O-]
REMARK SMILES IDX 8 1 9 2 10 3 11 4 12 5 13 6 14 7 15 8 16 9 7 10 6 11 5 12
REMARK SMILES IDX 4 13 3 14 2 15 1 16
REMARK H PARENT
REMARK Flexibility Score: inf
ROOT
ATOM      1  C   UNL     1      16.146  55.196  14.763  1.00  0.00     0.000 C 
ENDROOT
BRANCH   1   2
ATOM      2  C   UNL     1      16.485  54.767  13.323  1.00  0.00     0.000 C 
BRANCH   2   3
ATOM      3  C   UNL     1      17.931  55.066  12.881  1.00  0.00     0.000 C 
BRANCH   3   4
ATOM      4  C   UNL     1      18.979  54.025  13.321  1.00  0.00     0.000 C 
BRANCH   4   5
ATOM      5  C   UNL     1      19.656  54.313  14.676  1.00  0.00     0.006 C 
BRANCH   5   6
ATOM      6  C   UNL     1      19.825  53.078  15.576  1.00  0.00     0.053 C 
BRANCH   6   7
ATOM      7  C   UNL     1      20.912  53.268  16.590  1.00  0.00     0.041 C 
ATOM      8  O   UNL     1      22.103  53.436  16.218  1.00  0.00    -0.550 OA
ATOM      9  O   UNL     1      20.603  53.293  17.944  1.00  0.00    -0.550 OA
ENDBRANCH   6   7
ENDBRANCH   5   6
ENDBRANCH   4   5
ENDBRANCH   3   4
ENDBRANCH   2   3
ENDBRANCH   1   2
BRANCH   1  10
ATOM     10  C   UNL     1      15.353  54.124  15.530  1.00  0.00     0.000 C 
BRANCH  10  11
ATOM     11  C   UNL     1      16.216  53.361  16.547  1.00  0.00    -0.000 C 
BRANCH  11  12
ATOM     12  C   UNL     1      16.160  53.985  17.953  1.00  0.00    -0.000 C 
BRANCH  12  13
ATOM     13  C   UNL     1      17.449  54.740  18.324  1.00  0.00    -0.000 C 
BRANCH  13  14
ATOM     14  C   UNL     1      17.419  56.259  18.062  1.00  0.00    -0.000 C 
BRANCH  14  15
ATOM     15  C   UNL     1      18.543  56.784  17.153  1.00  0.00    -0.003 C 
ATOM     16  C   UNL     1      19.818  57.132  17.920  1.00  0.00     0.004 C 
ENDBRANCH  14  15
ENDBRANCH  13  14
ENDBRANCH  12  13
ENDBRANCH  11  12
ENDBRANCH  10  11
ENDBRANCH   1  10
TORSDOF 12
ENDMDL
MODEL 4
REMARK VINA RESULT:    -4.473      2.255      3.410
REMARK INTER + INTRA:          -9.543
REMARK INTER:                  -7.732
REMARK INTRA:                  -1.811
REMARK UNBOUND:                -1.931
REMARK SMILES CCCCCCCCCCCCCC(=O)[O-]
REMARK SMILES IDX 8 1 9 2 10 3 11 4 12 5 13 6 14 7 15 8 16 9 7 10 6 11 5 12
REMARK SMILES IDX 4 13 3 14 2 15 1 16
REMARK H PARENT
REMARK Flexibility Score: inf
ROOT
ATOM      1  C   UNL     1      18.615  55.045  14.049  1.00  0.00     0.000 C 
ENDROOT
BRANCH   1   2
ATOM      2  C   UNL     1      19.604  53.870  13.937  1.00  0.00     0.000 C 
BRANCH   2   3
ATOM      3  C   UNL     1      19.690  52.976  15.191  1.00  0.00     0.000 C 
BRANCH   3   4
ATOM      4  C   UNL     1      19.017  53.549  16.453  1.00  0.00     0.000 C 
BRANCH   4   5
ATOM      5  C   UNL     1      19.988  53.980  17.571  1.00  0.00     0.006 C 
BRANCH   5   6
ATOM      6  C   UNL     1      20.179  55.500  17.693  1.00  0.00     0.053 C 
BRANCH   6   7
ATOM      7  C   UNL     1      21.174  56.022  16.702  1.00  0.00     0.041 C 
ATOM      8  O   UNL     1      22.281  55.441  16.550  1.00  0.00    -0.550 OA
ATOM      9  O   UNL     1      20.864  57.129  15.922  1.00  0.00    -0.550 OA
ENDBRANCH   6   7
ENDBRANCH   5   6
ENDBRANCH   4   5
ENDBRANCH   3   4
ENDBRANCH   2   3
ENDBRANCH   1   2
BRANCH   1  10
ATOM     10  C   UNL     1      17.679  55.150  12.833  1.00  0.00     0.000 C 
BRANCH  10  11
ATOM     11  C   UNL     1      16.217  54.829  13.180  1.00  0.00    -0.000 C 
BRANCH  11  12
ATOM     12  C   UNL     1      16.006  54.604  14.687  1.00  0.00    -0.000 C 
BRANCH  12  13
ATOM     13  C   UNL     1      14.770  55.340  15.235  1.00  0.00    -0.000 C 
BRANCH  13  14
ATOM     14  C   UNL     1      15.049  56.321  16.392  1.00  0.00    -0.000 C 
BRANCH  14  15
ATOM     15  C   UNL     1      16.517  56.393  16.845  1.00  0.00    -0.003 C 
ATOM     16  C   UNL     1      17.294  57.524  16.171  1.00  0.00     0.004 C 
ENDBRANCH  14  15
ENDBRANCH  13  14
ENDBRANCH  12  13
ENDBRANCH  11  12
ENDBRANCH  10  11
ENDBRANCH   1  10
TORSDOF 12
ENDMDL
MODEL 5
REMARK VINA RESULT:    -4.471      2.379      4.175
REMARK INTER + INTRA:          -9.538
REMARK INTER:                  -7.549
REMARK INTRA:                  -1.989
REMARK UNBOUND:                -1.931
REMARK SMILES CCCCCCCCCCCCCC(=O)[O-]
REMARK SMILES IDX 8 1 9 2 10 3 11 4 12 5 13 6 14 7 15 8 16 9 7 10 6 11 5 12
REMARK SMILES IDX 4 13 3 14 2 15 1 16
REMARK H PARENT
REMARK Flexibility Score: inf
ROOT
ATOM      1  C   UNL     1      20.634  54.232  14.677  1.00  0.00     0.000 C 
ENDROOT
BRANCH   1   2
ATOM      2  C   UNL     1      19.276  54.069  13.970  1.00  0.00     0.000 C 
BRANCH   2   3
ATOM      3  C   UNL     1      18.342  55.292  14.071  1.00  0.00     0.000 C 
BRANCH   3   4
ATOM      4  C   UNL     1      16.843  54.989  13.877  1.00  0.00     0.000 C 
BRANCH   4   5
ATOM      5  C   UNL     1      16.100  54.531  15.149  1.00  0.00     0.006 C 
BRANCH   5   6
ATOM      6  C   UNL     1      14.888  55.398  15.523  1.00  0.00     0.053 C 
BRANCH   6   7
ATOM      7  C   UNL     1      15.235  56.435  16.547  1.00  0.00     0.041 C 
ATOM      8  O   UNL     1      14.881  56.284  17.746  1.00  0.00    -0.550 OA
ATOM      9  O   UNL     1      15.978  57.551  16.184  1.00  0.00    -0.550 OA
ENDBRANCH   6   7
ENDBRANCH   5   6
ENDBRANCH   4   5
ENDBRANCH   3   4
ENDBRANCH   2   3
ENDBRANCH   1   2
BRANCH   1  10
ATOM     10  C   UNL     1      20.806  53.268  15.863  1.00  0.00     0.000 C 
BRANCH  10  11
ATOM     11  C   UNL     1      19.495  52.565  16.251  1.00  0.00    -0.000 C 
BRANCH  11  12
ATOM     12  C   UNL     1      19.043  52.910  17.681  1.00  0.00    -0.000 C 
BRANCH  12  13
ATOM     13  C   UNL     1      19.500  54.309  18.131  1.00  0.00    -0.000 C 
BRANCH  13  14
ATOM     14  C   UNL     1      18.487  55.444  17.878  1.00  0.00    -0.000 C 
BRANCH  14  15
ATOM     15  C   UNL     1      19.103  56.844  17.719  1.00  0.00    -0.003 C 
ATOM     16  C   UNL     1      20.572  56.804  17.298  1.00  0.00     0.004 C 
ENDBRANCH  14  15
ENDBRANCH  13  14
ENDBRANCH  12  13
ENDBRANCH  11  12
ENDBRANCH  10  11
ENDBRANCH   1  10
TORSDOF 12
ENDMDL
MODEL 6
REMARK VINA RESULT:    -4.461      2.730      4.392
REMARK INTER + INTRA:          -9.522
REMARK INTER:                  -7.634
REMARK INTRA:                  -1.888
REMARK UNBOUND:                -1.931
REMARK SMILES CCCCCCCCCCCCCC(=O)[O-]
REMARK SMILES IDX 8 1 9 2 10 3 11 4 12 5 13 6 14 7 15 8 16 9 7 10 6 11 5 12
REMARK SMILES IDX 4 13 3 14 2 15 1 16
REMARK H PARENT
REMARK Flexibility Score: inf
ROOT
ATOM      1  C   UNL     1      17.697  55.417  14.799  1.00  0.00     0.000 C 
ENDROOT
BRANCH   1   2
ATOM      2  C   UNL     1      18.493  56.551  15.470  1.00  0.00     0.000 C 
BRANCH   2   3
ATOM      3  C   UNL     1      18.194  56.753  16.970  1.00  0.00     0.000 C 
BRANCH   3   4
ATOM      4  C   UNL     1      18.061  55.456  17.791  1.00  0.00     0.000 C 
BRANCH   4   5
ATOM      5  C   UNL     1      16.633  55.135  18.277  1.00  0.00     0.006 C 
BRANCH   5   6
ATOM      6  C   UNL     1      15.712  56.360  18.390  1.00  0.00     0.053 C 
BRANCH   6   7
ATOM      7  C   UNL     1      14.745  56.442  17.249  1.00  0.00     0.041 C 
ATOM      8  O   UNL     1      14.318  57.561  16.859  1.00  0.00    -0.550 OA
ATOM      9  O   UNL     1      14.342  55.286  16.593  1.00  0.00    -0.550 OA
ENDBRANCH   6   7
ENDBRANCH   5   6
ENDBRANCH   4   5
ENDBRANCH   3   4
ENDBRANCH   2   3
ENDBRANCH   1   2
BRANCH   1  10
ATOM     10  C   UNL     1      18.410  54.840  13.565  1.00  0.00     0.000 C 
BRANCH  10  11
ATOM     11  C   UNL     1      19.559  53.888  13.934  1.00  0.00    -0.000 C 
BRANCH  11  12
ATOM     12  C   UNL     1      19.207  52.973  15.119  1.00  0.00    -0.000 C 
BRANCH  12  13
ATOM     13  C   UNL     1      20.299  52.951  16.203  1.00  0.00    -0.000 C 
BRANCH  13  14
ATOM     14  C   UNL     1      21.524  53.845  15.920  1.00  0.00    -0.000 C 
BRANCH  14  15
ATOM     15  C   UNL     1      21.636  55.097  16.806  1.00  0.00    -0.003 C 
ATOM     16  C   UNL     1      22.111  56.330  16.040  1.00  0.00     0.004 C 
ENDBRANCH  14  15
ENDBRANCH  13  14
ENDBRANCH  12  13
ENDBRANCH  11  12
ENDBRANCH  10  11
ENDBRANCH   1  10
TORSDOF 12
ENDMDL
MODEL 7
REMARK VINA RESULT:    -4.444      1.823      4.379
REMARK INTER + INTRA:          -9.493
REMARK INTER:                  -7.859
REMARK INTRA:                  -1.634
REMARK UNBOUND:                -1.931
REMARK SMILES CCCCCCCCCCCCCC(=O)[O-]
REMARK SMILES IDX 8 1 9 2 10 3 11 4 12 5 13 6 14 7 15 8 16 9 7 10 6 11 5 12
REMARK SMILES IDX 4 13 3 14 2 15 1 16
REMARK H PARENT
REMARK Flexibility Score: inf
ROOT
ATOM      1  C   UNL     1      15.365  54.602  15.326  1.00  0.00     0.000 C 
ENDROOT
BRANCH   1   2
ATOM      2  C   UNL     1      14.540  55.798  15.834  1.00  0.00     0.000 C 
BRANCH   2   3
ATOM      3  C   UNL     1      15.321  56.799  16.710  1.00  0.00     0.000 C 
BRANCH   3   4
ATOM      4  C   UNL     1      15.660  56.301  18.128  1.00  0.00     0.000 C 
BRANCH   4   5
ATOM      5  C   UNL     1      17.128  55.875  18.335  1.00  0.00     0.006 C 
BRANCH   5   6
ATOM      6  C   UNL     1      18.134  56.607  17.434  1.00  0.00     0.053 C 
BRANCH   6   7
ATOM      7  C   UNL     1      19.550  56.253  17.770  1.00  0.00     0.041 C 
ATOM      8  O   UNL     1      20.470  57.098  17.608  1.00  0.00    -0.550 OA
ATOM      9  O   UNL     1      19.850  55.002  18.294  1.00  0.00    -0.550 OA
ENDBRANCH   6   7
ENDBRANCH   5   6
ENDBRANCH   4   5
ENDBRANCH   3   4
ENDBRANCH   2   3
ENDBRANCH   1   2
BRANCH   1  10
ATOM     10  C   UNL     1      16.005  54.863  13.952  1.00  0.00     0.000 C 
BRANCH  10  11
ATOM     11  C   UNL     1      17.493  55.236  14.051  1.00  0.00    -0.000 C 
BRANCH  11  12
ATOM     12  C   UNL     1      18.328  54.637  12.906  1.00  0.00    -0.000 C 
BRANCH  12  13
ATOM     13  C   UNL     1      19.487  53.757  13.408  1.00  0.00    -0.000 C 
BRANCH  13  14
ATOM     14  C   UNL     1      19.814  53.894  14.909  1.00  0.00    -0.000 C 
BRANCH  14  15
ATOM     15  C   UNL     1      19.677  52.597  15.725  1.00  0.00    -0.003 C 
ATOM     16  C   UNL     1      18.291  52.425  16.344  1.00  0.00     0.004 C 
ENDBRANCH  14  15
ENDBRANCH  13  14
ENDBRANCH  12  13
ENDBRANCH  11  12
ENDBRANCH  10  11
ENDBRANCH   1  10
TORSDOF 12
ENDMDL
MODEL 8
REMARK VINA RESULT:    -4.432      1.720      3.626
REMARK INTER + INTRA:          -9.472
REMARK INTER:                  -7.781
REMARK INTRA:                  -1.691
REMARK UNBOUND:                -1.931
REMARK SMILES CCCCCCCCCCCCCC(=O)[O-]
REMARK SMILES IDX 8 1 9 2 10 3 11 4 12 5 13 6 14 7 15 8 16 9 7 10 6 11 5 12
REMARK SMILES IDX 4 13 3 14 2 15 1 16
REMARK H PARENT
REMARK Flexibility Score: inf
ROOT
ATOM      1  C   UNL     1      18.706  54.984  14.110  1.00  0.00     0.000 C 
ENDROOT
BRANCH   1   2
ATOM      2  C   UNL     1      17.673  55.102  12.975  1.00  0.00     0.000 C 
BRANCH   2   3
ATOM      3  C   UNL     1      16.213  54.840  13.398  1.00  0.00     0.000 C 
BRANCH   3   4
ATOM      4  C   UNL     1      16.003  54.585  14.903  1.00  0.00     0.000 C 
BRANCH   4   5
ATOM      5  C   UNL     1      15.454  55.788  15.697  1.00  0.00     0.006 C 
BRANCH   5   6
ATOM      6  C   UNL     1      16.408  56.324  16.776  1.00  0.00     0.053 C 
BRANCH   6   7
ATOM      7  C   UNL     1      16.074  55.792  18.136  1.00  0.00     0.041 C 
ATOM      8  O   UNL     1      16.960  55.226  18.829  1.00  0.00    -0.550 OA
ATOM      9  O   UNL     1      14.794  55.953  18.651  1.00  0.00    -0.550 OA
ENDBRANCH   6   7
ENDBRANCH   5   6
ENDBRANCH   4   5
ENDBRANCH   3   4
ENDBRANCH   2   3
ENDBRANCH   1   2
BRANCH   1  10
ATOM     10  C   UNL     1      19.597  53.738  13.976  1.00  0.00     0.000 C 
BRANCH  10  11
ATOM     11  C   UNL     1      19.835  53.031  15.319  1.00  0.00    -0.000 C 
BRANCH  11  12
ATOM     12  C   UNL     1      19.142  53.747  16.492  1.00  0.00    -0.000 C 
BRANCH  12  13
ATOM     13  C   UNL     1      20.139  54.318  17.517  1.00  0.00    -0.000 C 
BRANCH  13  14
ATOM     14  C   UNL     1      21.250  55.209  16.926  1.00  0.00    -0.000 C 
BRANCH  14  15
ATOM     15  C   UNL     1      20.915  56.708  16.857  1.00  0.00    -0.003 C 
ATOM     16  C   UNL     1      19.845  57.127  17.864  1.00  0.00     0.004 C 
ENDBRANCH  14  15
ENDBRANCH  13  14
ENDBRANCH  12  13
ENDBRANCH  11  12
ENDBRANCH  10  11
ENDBRANCH   1  10
TORSDOF 12
ENDMDL
MODEL 9
REMARK VINA RESULT:    -4.386      2.411      3.248
REMARK INTER + INTRA:          -9.393
REMARK INTER:                  -7.429
REMARK INTRA:                  -1.964
REMARK UNBOUND:                -1.931
REMARK SMILES CCCCCCCCCCCCCC(=O)[O-]
REMARK SMILES IDX 8 1 9 2 10 3 11 4 12 5 13 6 14 7 15 8 16 9 7 10 6 11 5 12
REMARK SMILES IDX 4 13 3 14 2 15 1 16
REMARK H PARENT
REMARK Flexibility Score: inf
ROOT
ATOM      1  C   UNL     1      18.382  55.273  13.811  1.00  0.00     0.000 C 
ENDROOT
BRANCH   1   2
ATOM      2  C   UNL     1      19.352  54.079  13.880  1.00  0.00     0.000 C 
BRANCH   2   3
ATOM      3  C   UNL     1      19.011  53.029  14.957  1.00  0.00     0.000 C 
BRANCH   3   4
ATOM      4  C   UNL     1      20.161  52.688  15.925  1.00  0.00     0.000 C 
BRANCH   4   5
ATOM      5  C   UNL     1      21.343  53.678  15.909  1.00  0.00     0.006 C 
BRANCH   5   6
ATOM      6  C   UNL     1      21.309  54.725  17.033  1.00  0.00     0.053 C 
BRANCH   6   7
ATOM      7  C   UNL     1      21.881  56.038  16.595  1.00  0.00     0.041 C 
ATOM      8  O   UNL     1      23.091  56.306  16.813  1.00  0.00    -0.550 OA
ATOM      9  O   UNL     1      21.086  56.952  15.914  1.00  0.00    -0.550 OA
ENDBRANCH   6   7
ENDBRANCH   5   6
ENDBRANCH   4   5
ENDBRANCH   3   4
ENDBRANCH   2   3
ENDBRANCH   1   2
BRANCH   1  10
ATOM     10  C   UNL     1      16.940  54.888  14.180  1.00  0.00     0.000 C 
BRANCH  10  11
ATOM     11  C   UNL     1      16.498  55.470  15.532  1.00  0.00    -0.000 C 
BRANCH  11  12
ATOM     12  C   UNL     1      17.414  56.611  16.010  1.00  0.00    -0.000 C 
BRANCH  12  13
ATOM     13  C   UNL     1      17.975  56.375  17.424  1.00  0.00    -0.000 C 
BRANCH  13  14
ATOM     14  C   UNL     1      17.247  55.292  18.247  1.00  0.00    -0.000 C 
BRANCH  14  15
ATOM     15  C   UNL     1      18.086  54.043  18.564  1.00  0.00    -0.003 C 
ATOM     16  C   UNL     1      17.295  52.742  18.430  1.00  0.00     0.004 C 
ENDBRANCH  14  15
ENDBRANCH  13  14
ENDBRANCH  12  13
ENDBRANCH  11  12
ENDBRANCH  10  11
ENDBRANCH   1  10
TORSDOF 12
ENDMDL
