MODEL 1
REMARK VINA RESULT:    -5.072      0.000      0.000
REMARK INTER + INTRA:          -8.983
REMARK INTER:                  -8.037
REMARK INTRA:                  -0.946
REMARK UNBOUND:                -0.946
REMARK SMILES CCCCCCCCCCCC(=O)[O-]
REMARK SMILES IDX 7 1 8 2 9 3 10 4 11 5 12 6 13 7 14 8 6 9 5 10 4 11 3 12 2 13
REMARK SMILES IDX 1 14
REMARK H PARENT
REMARK Flexibility Score: inf
ROOT
ATOM      1  C   UNL     1      12.293 -24.801  20.641  1.00  0.00     0.000 C 
ENDROOT
BRANCH   1   2
ATOM      2  C   UNL     1      10.941 -24.944  21.358  1.00  0.00     0.000 C 
BRANCH   2   3
ATOM      3  C   UNL     1      10.855 -24.093  22.633  1.00  0.00     0.000 C 
BRANCH   3   4
ATOM      4  C   UNL     1       9.650 -24.508  23.491  1.00  0.00     0.006 C 
BRANCH   4   5
ATOM      5  C   UNL     1       9.450 -23.585  24.699  1.00  0.00     0.053 C 
BRANCH   5   6
ATOM      6  C   UNL     1       9.859 -24.249  25.979  1.00  0.00     0.041 C 
ATOM      7  O   UNL     1      10.576 -23.635  26.811  1.00  0.00    -0.550 OA
ATOM      8  O   UNL     1       9.418 -25.534  26.267  1.00  0.00    -0.550 OA
ENDBRANCH   5   6
ENDBRANCH   4   5
ENDBRANCH   3   4
ENDBRANCH   2   3
ENDBRANCH   1   2
BRANCH   1   9
ATOM      9  C   UNL     1      12.658 -23.334  20.356  1.00  0.00     0.000 C 
BRANCH   9  10
ATOM     10  C   UNL     1      14.177 -23.106  20.269  1.00  0.00    -0.000 C 
BRANCH  10  11
ATOM     11  C   UNL     1      14.835 -22.985  21.655  1.00  0.00    -0.000 C 
BRANCH  11  12
ATOM     12  C   UNL     1      14.075 -22.034  22.597  1.00  0.00    -0.000 C 
BRANCH  12  13
ATOM     13  C   UNL     1      14.465 -22.140  24.083  1.00  0.00    -0.003 C 
ATOM     14  C   UNL     1      13.452 -22.927  24.913  1.00  0.00     0.004 C 
ENDBRANCH  12  13
ENDBRANCH  11  12
ENDBRANCH  10  11
ENDBRANCH   9  10
ENDBRANCH   1   9
TORSDOF 10
ENDMDL
MODEL 2
REMARK VINA RESULT:    -5.000      1.284      2.966
REMARK INTER + INTRA:          -8.869
REMARK INTER:                  -7.570
REMARK INTRA:                  -1.298
REMARK UNBOUND:                -0.946
REMARK SMILES CCCCCCCCCCCC(=O)[O-]
REMARK SMILES IDX 7 1 8 2 9 3 10 4 11 5 12 6 13 7 14 8 6 9 5 10 4 11 3 12 2 13
REMARK SMILES IDX 1 14
REMARK H PARENT
REMARK Flexibility Score: inf
ROOT
ATOM      1  C   UNL     1      12.041 -22.305  22.703  1.00  0.00     0.000 C 
ENDROOT
BRANCH   1   2
ATOM      2  C   UNL     1      13.017 -22.142  23.878  1.00  0.00     0.000 C 
BRANCH   2   3
ATOM      3  C   UNL     1      13.032 -23.365  24.808  1.00  0.00     0.000 C 
BRANCH   3   4
ATOM      4  C   UNL     1      12.307 -23.061  26.128  1.00  0.00     0.006 C 
BRANCH   4   5
ATOM      5  C   UNL     1      11.455 -24.242  26.609  1.00  0.00     0.053 C 
BRANCH   5   6
ATOM      6  C   UNL     1      10.081 -24.215  26.012  1.00  0.00     0.041 C 
ATOM      7  O   UNL     1       9.365 -25.250  26.022  1.00  0.00    -0.550 OA
ATOM      8  O   UNL     1       9.579 -23.037  25.475  1.00  0.00    -0.550 OA
ENDBRANCH   5   6
ENDBRANCH   4   5
ENDBRANCH   3   4
ENDBRANCH   2   3
ENDBRANCH   1   2
BRANCH   1   9
ATOM      9  C   UNL     1      11.838 -23.778  22.303  1.00  0.00     0.000 C 
BRANCH   9  10
ATOM     10  C   UNL     1      12.104 -24.029  20.809  1.00  0.00    -0.000 C 
BRANCH  10  11
ATOM     11  C   UNL     1      12.968 -22.927  20.171  1.00  0.00    -0.000 C 
BRANCH  11  12
ATOM     12  C   UNL     1      14.438 -23.348  19.993  1.00  0.00    -0.000 C 
BRANCH  12  13
ATOM     13  C   UNL     1      15.358 -23.019  21.184  1.00  0.00    -0.003 C 
ATOM     14  C   UNL     1      15.561 -24.204  22.128  1.00  0.00     0.004 C 
ENDBRANCH  12  13
ENDBRANCH  11  12
ENDBRANCH  10  11
ENDBRANCH   9  10
ENDBRANCH   1   9
TORSDOF 10
ENDMDL
MODEL 3
REMARK VINA RESULT:    -4.977      1.118      3.402
REMARK INTER + INTRA:          -8.833
REMARK INTER:                  -7.780
REMARK INTRA:                  -1.052
REMARK UNBOUND:                -0.946
REMARK SMILES CCCCCCCCCCCC(=O)[O-]
REMARK SMILES IDX 7 1 8 2 9 3 10 4 11 5 12 6 13 7 14 8 6 9 5 10 4 11 3 12 2 13
REMARK SMILES IDX 1 14
REMARK H PARENT
REMARK Flexibility Score: inf
ROOT
ATOM      1  C   UNL     1      14.488 -22.964  22.574  1.00  0.00     0.000 C 
ENDROOT
BRANCH   1   2
ATOM      2  C   UNL     1      14.208 -21.775  23.506  1.00  0.00     0.000 C 
BRANCH   2   3
ATOM      3  C   UNL     1      12.868 -21.906  24.245  1.00  0.00     0.000 C 
BRANCH   3   4
ATOM      4  C   UNL     1      12.715 -23.305  24.862  1.00  0.00     0.006 C 
BRANCH   4   5
ATOM      5  C   UNL     1      11.977 -23.271  26.206  1.00  0.00     0.053 C 
BRANCH   5   6
ATOM      6  C   UNL     1      10.529 -23.629  26.055  1.00  0.00     0.041 C 
ATOM      7  O   UNL     1      10.038 -24.577  26.721  1.00  0.00    -0.550 OA
ATOM      8  O   UNL     1       9.717 -22.893  25.202  1.00  0.00    -0.550 OA
ENDBRANCH   5   6
ENDBRANCH   4   5
ENDBRANCH   3   4
ENDBRANCH   2   3
ENDBRANCH   1   2
BRANCH   1   9
ATOM      9  C   UNL     1      14.409 -22.580  21.086  1.00  0.00     0.000 C 
BRANCH   9  10
ATOM     10  C   UNL     1      13.121 -23.080  20.411  1.00  0.00    -0.000 C 
BRANCH  10  11
ATOM     11  C   UNL     1      12.837 -24.563  20.709  1.00  0.00    -0.000 C 
BRANCH  11  12
ATOM     12  C   UNL     1      11.335 -24.867  20.853  1.00  0.00    -0.000 C 
BRANCH  12  13
ATOM     13  C   UNL     1      10.721 -24.486  22.213  1.00  0.00    -0.003 C 
ATOM     14  C   UNL     1       9.408 -25.212  22.502  1.00  0.00     0.004 C 
ENDBRANCH  12  13
ENDBRANCH  11  12
ENDBRANCH  10  11
ENDBRANCH   9  10
ENDBRANCH   1   9
TORSDOF 10
ENDMDL
MODEL 4
REMARK VINA RESULT:    -4.946      3.143      5.165
REMARK INTER + INTRA:          -8.784
REMARK INTER:                  -7.677
REMARK INTRA:                  -1.108
REMARK UNBOUND:                -0.946
REMARK SMILES CCCCCCCCCCCC(=O)[O-]
REMARK SMILES IDX 7 1 8 2 9 3 10 4 11 5 12 6 13 7 14 8 6 9 5 10 4 11 3 12 2 13
REMARK SMILES IDX 1 14
REMARK H PARENT
REMARK Flexibility Score: inf
ROOT
ATOM      1  C   UNL     1       9.112 -24.621  22.987  1.00  0.00     0.000 C 
ENDROOT
BRANCH   1   2
ATOM      2  C   UNL     1      10.137 -25.002  21.906  1.00  0.00     0.000 C 
BRANCH   2   3
ATOM      3  C   UNL     1      11.407 -24.141  21.967  1.00  0.00     0.000 C 
BRANCH   3   4
ATOM      4  C   UNL     1      12.266 -24.339  20.708  1.00  0.00     0.006 C 
BRANCH   4   5
ATOM      5  C   UNL     1      12.995 -23.055  20.293  1.00  0.00     0.053 C 
BRANCH   5   6
ATOM      6  C   UNL     1      14.480 -23.182  20.454  1.00  0.00     0.041 C 
ATOM      7  O   UNL     1      15.009 -23.045  21.588  1.00  0.00    -0.550 OA
ATOM      8  O   UNL     1      15.274 -23.486  19.356  1.00  0.00    -0.550 OA
ENDBRANCH   5   6
ENDBRANCH   4   5
ENDBRANCH   3   4
ENDBRANCH   2   3
ENDBRANCH   1   2
BRANCH   1   9
ATOM      9  C   UNL     1       9.759 -24.416  24.368  1.00  0.00     0.000 C 
BRANCH   9  10
ATOM     10  C   UNL     1       9.568 -22.989  24.907  1.00  0.00    -0.000 C 
BRANCH  10  11
ATOM     11  C   UNL     1      10.792 -22.486  25.690  1.00  0.00    -0.000 C 
BRANCH  11  12
ATOM     12  C   UNL     1      11.956 -23.494  25.694  1.00  0.00    -0.000 C 
BRANCH  12  13
ATOM     13  C   UNL     1      13.249 -22.998  25.021  1.00  0.00    -0.003 C 
ATOM     14  C   UNL     1      13.032 -21.765  24.144  1.00  0.00     0.004 C 
ENDBRANCH  12  13
ENDBRANCH  11  12
ENDBRANCH  10  11
ENDBRANCH   9  10
ENDBRANCH   1   9
TORSDOF 10
ENDMDL
MODEL 5
REMARK VINA RESULT:    -4.904      1.900      3.351
REMARK INTER + INTRA:          -8.716
REMARK INTER:                  -7.471
REMARK INTRA:                  -1.245
REMARK UNBOUND:                -0.946
REMARK SMILES CCCCCCCCCCCC(=O)[O-]
REMARK SMILES IDX 7 1 8 2 9 3 10 4 11 5 12 6 13 7 14 8 6 9 5 10 4 11 3 12 2 13
REMARK SMILES IDX 1 14
REMARK H PARENT
REMARK Flexibility Score: inf
ROOT
ATOM      1  C   UNL     1      13.948 -23.235  23.869  1.00  0.00     0.000 C 
ENDROOT
BRANCH   1   2
ATOM      2  C   UNL     1      13.113 -21.965  24.099  1.00  0.00     0.000 C 
BRANCH   2   3
ATOM      3  C   UNL     1      11.618 -22.182  23.822  1.00  0.00     0.000 C 
BRANCH   3   4
ATOM      4  C   UNL     1      11.192 -23.612  24.193  1.00  0.00     0.006 C 
BRANCH   4   5
ATOM      5  C   UNL     1       9.699 -23.705  24.531  1.00  0.00     0.053 C 
BRANCH   5   6
ATOM      6  C   UNL     1       8.908 -24.286  23.398  1.00  0.00     0.041 C 
ATOM      7  O   UNL     1       7.784 -23.808  23.099  1.00  0.00    -0.550 OA
ATOM      8  O   UNL     1       9.431 -25.334  22.652  1.00  0.00    -0.550 OA
ENDBRANCH   5   6
ENDBRANCH   4   5
ENDBRANCH   3   4
ENDBRANCH   2   3
ENDBRANCH   1   2
BRANCH   1   9
ATOM      9  C   UNL     1      15.145 -22.994  22.932  1.00  0.00     0.000 C 
BRANCH   9  10
ATOM     10  C   UNL     1      15.541 -24.251  22.140  1.00  0.00    -0.000 C 
BRANCH  10  11
ATOM     11  C   UNL     1      14.877 -24.307  20.753  1.00  0.00    -0.000 C 
BRANCH  11  12
ATOM     12  C   UNL     1      14.311 -22.947  20.306  1.00  0.00    -0.000 C 
BRANCH  12  13
ATOM     13  C   UNL     1      12.780 -22.898  20.149  1.00  0.00    -0.003 C 
ATOM     14  C   UNL     1      12.087 -24.164  20.652  1.00  0.00     0.004 C 
ENDBRANCH  12  13
ENDBRANCH  11  12
ENDBRANCH  10  11
ENDBRANCH   9  10
ENDBRANCH   1   9
TORSDOF 10
ENDMDL
MODEL 6
REMARK VINA RESULT:    -4.861      1.659      2.420
REMARK INTER + INTRA:          -8.649
REMARK INTER:                  -7.941
REMARK INTRA:                  -0.707
REMARK UNBOUND:                -0.946
REMARK SMILES CCCCCCCCCCCC(=O)[O-]
REMARK SMILES IDX 7 1 8 2 9 3 10 4 11 5 12 6 13 7 14 8 6 9 5 10 4 11 3 12 2 13
REMARK SMILES IDX 1 14
REMARK H PARENT
REMARK Flexibility Score: inf
ROOT
ATOM      1  C   UNL     1      11.273 -24.895  20.897  1.00  0.00     0.000 C 
ENDROOT
BRANCH   1   2
ATOM      2  C   UNL     1      10.261 -25.413  21.931  1.00  0.00     0.000 C 
BRANCH   2   3
ATOM      3  C   UNL     1       9.543 -24.278  22.676  1.00  0.00     0.000 C 
BRANCH   3   4
ATOM      4  C   UNL     1       9.414 -24.599  24.173  1.00  0.00     0.006 C 
BRANCH   4   5
ATOM      5  C   UNL     1      10.107 -23.551  25.054  1.00  0.00     0.053 C 
BRANCH   5   6
ATOM      6  C   UNL     1      10.514 -24.121  26.379  1.00  0.00     0.041 C 
ATOM      7  O   UNL     1      11.367 -23.529  27.089  1.00  0.00    -0.550 OA
ATOM      8  O   UNL     1       9.923 -25.290  26.844  1.00  0.00    -0.550 OA
ENDBRANCH   5   6
ENDBRANCH   4   5
ENDBRANCH   3   4
ENDBRANCH   2   3
ENDBRANCH   1   2
BRANCH   1   9
ATOM      9  C   UNL     1      12.066 -23.678  21.405  1.00  0.00     0.000 C 
BRANCH   9  10
ATOM     10  C   UNL     1      12.820 -22.949  20.281  1.00  0.00    -0.000 C 
BRANCH  10  11
ATOM     11  C   UNL     1      14.343 -22.944  20.499  1.00  0.00    -0.000 C 
BRANCH  11  12
ATOM     12  C   UNL     1      15.082 -23.937  19.582  1.00  0.00    -0.000 C 
BRANCH  12  13
ATOM     13  C   UNL     1      14.766 -25.421  19.841  1.00  0.00    -0.003 C 
ATOM     14  C   UNL     1      15.416 -25.958  21.116  1.00  0.00     0.004 C 
ENDBRANCH  12  13
ENDBRANCH  11  12
ENDBRANCH  10  11
ENDBRANCH   9  10
ENDBRANCH   1   9
TORSDOF 10
ENDMDL
MODEL 7
REMARK VINA RESULT:    -4.837      3.256      5.510
REMARK INTER + INTRA:          -8.610
REMARK INTER:                  -7.916
REMARK INTRA:                  -0.694
REMARK UNBOUND:                -0.946
REMARK SMILES CCCCCCCCCCCC(=O)[O-]
REMARK SMILES IDX 7 1 8 2 9 3 10 4 11 5 12 6 13 7 14 8 6 9 5 10 4 11 3 12 2 13
REMARK SMILES IDX 1 14
REMARK H PARENT
REMARK Flexibility Score: inf
ROOT
ATOM      1  C   UNL     1      10.325 -25.486  21.834  1.00  0.00     0.000 C 
ENDROOT
BRANCH   1   2
ATOM      2  C   UNL     1      11.212 -24.843  20.756  1.00  0.00     0.000 C 
BRANCH   2   3
ATOM      3  C   UNL     1      12.109 -23.728  21.315  1.00  0.00     0.000 C 
BRANCH   3   4
ATOM      4  C   UNL     1      12.863 -23.011  20.185  1.00  0.00     0.006 C 
BRANCH   4   5
ATOM      5  C   UNL     1      14.381 -23.015  20.405  1.00  0.00     0.053 C 
BRANCH   5   6
ATOM      6  C   UNL     1      14.905 -24.399  20.639  1.00  0.00     0.041 C 
ATOM      7  O   UNL     1      15.376 -24.718  21.762  1.00  0.00    -0.550 OA
ATOM      8  O   UNL     1      14.841 -25.347  19.626  1.00  0.00    -0.550 OA
ENDBRANCH   5   6
ENDBRANCH   4   5
ENDBRANCH   3   4
ENDBRANCH   2   3
ENDBRANCH   1   2
BRANCH   1   9
ATOM      9  C   UNL     1       8.929 -24.842  21.911  1.00  0.00     0.000 C 
BRANCH   9  10
ATOM     10  C   UNL     1       8.698 -24.082  23.228  1.00  0.00    -0.000 C 
BRANCH  10  11
ATOM     11  C   UNL     1       9.891 -24.199  24.193  1.00  0.00    -0.000 C 
BRANCH  11  12
ATOM     12  C   UNL     1       9.822 -23.189  25.353  1.00  0.00    -0.000 C 
BRANCH  12  13
ATOM     13  C   UNL     1       9.908 -23.807  26.760  1.00  0.00    -0.003 C 
ATOM     14  C   UNL     1       9.705 -25.322  26.762  1.00  0.00     0.004 C 
ENDBRANCH  12  13
ENDBRANCH  11  12
ENDBRANCH  10  11
ENDBRANCH   9  10
ENDBRANCH   1   9
TORSDOF 10
ENDMDL
MODEL 8
REMARK VINA RESULT:    -4.814      3.240      6.024
REMARK INTER + INTRA:          -8.575
REMARK INTER:                  -7.406
REMARK INTRA:                  -1.169
REMARK UNBOUND:                -0.946
REMARK SMILES CCCCCCCCCCCC(=O)[O-]
REMARK SMILES IDX 7 1 8 2 9 3 10 4 11 5 12 6 13 7 14 8 6 9 5 10 4 11 3 12 2 13
REMARK SMILES IDX 1 14
REMARK H PARENT
REMARK Flexibility Score: inf
ROOT
ATOM      1  C   UNL     1      12.034 -23.663  25.448  1.00  0.00     0.000 C 
ENDROOT
BRANCH   1   2
ATOM      2  C   UNL     1      13.220 -23.356  24.519  1.00  0.00     0.000 C 
BRANCH   2   3
ATOM      3  C   UNL     1      12.903 -22.251  23.501  1.00  0.00     0.000 C 
BRANCH   3   4
ATOM      4  C   UNL     1      14.097 -22.008  22.564  1.00  0.00     0.006 C 
BRANCH   4   5
ATOM      5  C   UNL     1      14.490 -23.269  21.784  1.00  0.00     0.053 C 
BRANCH   5   6
ATOM      6  C   UNL     1      14.269 -23.103  20.311  1.00  0.00     0.041 C 
ATOM      7  O   UNL     1      13.174 -22.658  19.880  1.00  0.00    -0.550 OA
ATOM      8  O   UNL     1      15.288 -23.407  19.418  1.00  0.00    -0.550 OA
ENDBRANCH   5   6
ENDBRANCH   4   5
ENDBRANCH   3   4
ENDBRANCH   2   3
ENDBRANCH   1   2
BRANCH   1   9
ATOM      9  C   UNL     1      11.077 -22.467  25.598  1.00  0.00     0.000 C 
BRANCH   9  10
ATOM     10  C   UNL     1       9.622 -22.824  25.252  1.00  0.00    -0.000 C 
BRANCH  10  11
ATOM     11  C   UNL     1       9.490 -24.228  24.636  1.00  0.00    -0.000 C 
BRANCH  11  12
ATOM     12  C   UNL     1       9.157 -24.193  23.134  1.00  0.00    -0.000 C 
BRANCH  12  13
ATOM     13  C   UNL     1       9.777 -25.332  22.303  1.00  0.00    -0.003 C 
ATOM     14  C   UNL     1      10.935 -24.867  21.421  1.00  0.00     0.004 C 
ENDBRANCH  12  13
ENDBRANCH  11  12
ENDBRANCH  10  11
ENDBRANCH   9  10
ENDBRANCH   1   9
TORSDOF 10
ENDMDL
MODEL 9
REMARK VINA RESULT:    -4.805      1.292      3.242
REMARK INTER + INTRA:          -8.559
REMARK INTER:                  -7.302
REMARK INTRA:                  -1.257
REMARK UNBOUND:                -0.946
REMARK SMILES CCCCCCCCCCCC(=O)[O-]
REMARK SMILES IDX 7 1 8 2 9 3 10 4 11 5 12 6 13 7 14 8 6 9 5 10 4 11 3 12 2 13
REMARK SMILES IDX 1 14
REMARK H PARENT
REMARK Flexibility Score: inf
ROOT
ATOM      1  C   UNL     1      14.590 -23.437  23.445  1.00  0.00     0.000 C 
ENDROOT
BRANCH   1   2
ATOM      2  C   UNL     1      14.146 -21.981  23.659  1.00  0.00     0.000 C 
BRANCH   2   3
ATOM      3  C   UNL     1      12.687 -21.871  24.126  1.00  0.00     0.000 C 
BRANCH   3   4
ATOM      4  C   UNL     1      12.050 -23.262  24.273  1.00  0.00     0.006 C 
BRANCH   4   5
ATOM      5  C   UNL     1      11.691 -23.586  25.729  1.00  0.00     0.053 C 
BRANCH   5   6
ATOM      6  C   UNL     1      10.211 -23.738  25.915  1.00  0.00     0.041 C 
ATOM      7  O   UNL     1       9.413 -22.995  25.287  1.00  0.00    -0.550 OA
ATOM      8  O   UNL     1       9.715 -24.725  26.757  1.00  0.00    -0.550 OA
ENDBRANCH   5   6
ENDBRANCH   4   5
ENDBRANCH   3   4
ENDBRANCH   2   3
ENDBRANCH   1   2
BRANCH   1   9
ATOM      9  C   UNL     1      15.478 -23.607  22.199  1.00  0.00     0.000 C 
BRANCH   9  10
ATOM     10  C   UNL     1      15.090 -22.651  21.059  1.00  0.00    -0.000 C 
BRANCH  10  11
ATOM     11  C   UNL     1      14.220 -23.332  19.989  1.00  0.00    -0.000 C 
BRANCH  11  12
ATOM     12  C   UNL     1      12.726 -23.355  20.358  1.00  0.00    -0.000 C 
BRANCH  12  13
ATOM     13  C   UNL     1      12.172 -24.738  20.745  1.00  0.00    -0.003 C 
ATOM     14  C   UNL     1      13.100 -25.886  20.349  1.00  0.00     0.004 C 
ENDBRANCH  12  13
ENDBRANCH  11  12
ENDBRANCH  10  11
ENDBRANCH   9  10
ENDBRANCH   1   9
TORSDOF 10
ENDMDL
