MODEL 1
REMARK VINA RESULT:    -4.938      0.000      0.000
REMARK INTER + INTRA:          -8.442
REMARK INTER:                  -7.969
REMARK INTRA:                  -0.473
REMARK UNBOUND:                -0.473
REMARK SMILES CCCCCCCCCCCCO
REMARK SMILES IDX 7 1 6 2 5 3 4 4 3 5 2 6 1 7 8 8 9 9 10 10 11 11 12 12 13 13
REMARK H PARENT 13 14
REMARK Flexibility Score: inf
ROOT
ATOM      1  C   UNL     1       5.413  21.333  21.143  1.00  0.00     0.000 C 
ENDROOT
BRANCH   1   2
ATOM      2  C   UNL     1       3.958  21.437  21.629  1.00  0.00    -0.000 C 
BRANCH   2   3
ATOM      3  C   UNL     1       3.306  20.060  21.839  1.00  0.00    -0.000 C 
BRANCH   3   4
ATOM      4  C   UNL     1       3.657  19.064  20.719  1.00  0.00    -0.000 C 
BRANCH   4   5
ATOM      5  C   UNL     1       2.412  18.440  20.069  1.00  0.00    -0.000 C 
BRANCH   5   6
ATOM      6  C   UNL     1       1.139  18.854  20.818  1.00  0.00    -0.003 C 
ATOM      7  C   UNL     1       0.257  19.750  19.952  1.00  0.00     0.004 C 
ENDBRANCH   5   6
ENDBRANCH   4   5
ENDBRANCH   3   4
ENDBRANCH   2   3
ENDBRANCH   1   2
BRANCH   1   8
ATOM      8  C   UNL     1       6.149  22.681  21.177  1.00  0.00     0.000 C 
BRANCH   8   9
ATOM      9  C   UNL     1       5.635  23.615  20.075  1.00  0.00     0.000 C 
BRANCH   9  10
ATOM     10  C   UNL     1       6.708  24.639  19.676  1.00  0.00     0.002 C 
BRANCH  10  11
ATOM     11  C   UNL     1       7.200  25.479  20.868  1.00  0.00     0.028 C 
BRANCH  11  12
ATOM     12  C   UNL     1       8.680  25.264  21.201  1.00  0.00     0.156 C 
BRANCH  12  13
ATOM     13  O   UNL     1       9.162  24.117  20.556  1.00  0.00    -0.396 OA
ATOM     14  H   UNL     1       8.633  23.358  20.914  1.00  0.00     0.210 HD
ENDBRANCH  12  13
ENDBRANCH  11  12
ENDBRANCH  10  11
ENDBRANCH   9  10
ENDBRANCH   8   9
ENDBRANCH   1   8
TORSDOF 11
ENDMDL
MODEL 2
REMARK VINA RESULT:    -4.618      3.016      7.322
REMARK INTER + INTRA:          -7.925
REMARK INTER:                  -7.535
REMARK INTRA:                  -0.390
REMARK UNBOUND:                -0.473
REMARK SMILES CCCCCCCCCCCCO
REMARK SMILES IDX 7 1 6 2 5 3 4 4 3 5 2 6 1 7 8 8 9 9 10 10 11 11 12 12 13 13
REMARK H PARENT 13 14
REMARK Flexibility Score: inf
ROOT
ATOM      1  C   UNL     1       4.176  21.441  21.736  1.00  0.00     0.000 C 
ENDROOT
BRANCH   1   2
ATOM      2  C   UNL     1       5.427  21.544  20.848  1.00  0.00    -0.000 C 
BRANCH   2   3
ATOM      3  C   UNL     1       6.280  22.784  21.171  1.00  0.00    -0.000 C 
BRANCH   3   4
ATOM      4  C   UNL     1       6.214  23.850  20.063  1.00  0.00    -0.000 C 
BRANCH   4   5
ATOM      5  C   UNL     1       7.154  25.036  20.326  1.00  0.00    -0.000 C 
BRANCH   5   6
ATOM      6  C   UNL     1       8.385  24.591  21.126  1.00  0.00    -0.003 C 
ATOM      7  C   UNL     1       8.560  25.436  22.385  1.00  0.00     0.004 C 
ENDBRANCH   5   6
ENDBRANCH   4   5
ENDBRANCH   3   4
ENDBRANCH   2   3
ENDBRANCH   1   2
BRANCH   1   8
ATOM      8  C   UNL     1       3.672  19.998  21.886  1.00  0.00     0.000 C 
BRANCH   8   9
ATOM      9  C   UNL     1       3.659  19.278  20.532  1.00  0.00     0.000 C 
BRANCH   9  10
ATOM     10  C   UNL     1       2.475  18.302  20.440  1.00  0.00     0.002 C 
BRANCH  10  11
ATOM     11  C   UNL     1       1.228  18.808  21.186  1.00  0.00     0.028 C 
BRANCH  11  12
ATOM     12  C   UNL     1       0.461  19.898  20.431  1.00  0.00     0.156 C 
BRANCH  12  13
ATOM     13  O   UNL     1      -0.333  19.327  19.427  1.00  0.00    -0.396 OA
ATOM     14  H   UNL     1      -1.256  19.301  19.788  1.00  0.00     0.210 HD
ENDBRANCH  12  13
ENDBRANCH  11  12
ENDBRANCH  10  11
ENDBRANCH   9  10
ENDBRANCH   8   9
ENDBRANCH   1   8
TORSDOF 11
ENDMDL
MODEL 3
REMARK VINA RESULT:    -4.608      2.818      7.209
REMARK INTER + INTRA:          -7.909
REMARK INTER:                  -7.438
REMARK INTRA:                  -0.471
REMARK UNBOUND:                -0.473
REMARK SMILES CCCCCCCCCCCCO
REMARK SMILES IDX 7 1 6 2 5 3 4 4 3 5 2 6 1 7 8 8 9 9 10 10 11 11 12 12 13 13
REMARK H PARENT 13 14
REMARK Flexibility Score: inf
ROOT
ATOM      1  C   UNL     1       5.238  21.133  21.005  1.00  0.00     0.000 C 
ENDROOT
BRANCH   1   2
ATOM      2  C   UNL     1       5.906  22.495  21.256  1.00  0.00    -0.000 C 
BRANCH   2   3
ATOM      3  C   UNL     1       5.663  23.492  20.109  1.00  0.00    -0.000 C 
BRANCH   3   4
ATOM      4  C   UNL     1       6.626  24.691  20.156  1.00  0.00    -0.000 C 
BRANCH   4   5
ATOM      5  C   UNL     1       7.985  24.335  20.776  1.00  0.00    -0.000 C 
BRANCH   5   6
ATOM      6  C   UNL     1       8.512  25.489  21.637  1.00  0.00    -0.003 C 
ATOM      7  C   UNL     1       8.383  25.171  23.125  1.00  0.00     0.004 C 
ENDBRANCH   5   6
ENDBRANCH   4   5
ENDBRANCH   3   4
ENDBRANCH   2   3
ENDBRANCH   1   2
BRANCH   1   8
ATOM      8  C   UNL     1       3.782  21.086  21.496  1.00  0.00     0.000 C 
BRANCH   8   9
ATOM      9  C   UNL     1       3.482  19.755  22.194  1.00  0.00     0.000 C 
BRANCH   9  10
ATOM     10  C   UNL     1       2.298  19.037  21.526  1.00  0.00     0.002 C 
BRANCH  10  11
ATOM     11  C   UNL     1       2.497  18.847  20.012  1.00  0.00     0.028 C 
BRANCH  11  12
ATOM     12  C   UNL     1       3.090  17.485  19.638  1.00  0.00     0.156 C 
BRANCH  12  13
ATOM     13  O   UNL     1       2.954  17.257  18.262  1.00  0.00    -0.396 OA
ATOM     14  H   UNL     1       2.000  17.423  18.048  1.00  0.00     0.210 HD
ENDBRANCH  12  13
ENDBRANCH  11  12
ENDBRANCH  10  11
ENDBRANCH   9  10
ENDBRANCH   8   9
ENDBRANCH   1   8
TORSDOF 11
ENDMDL
MODEL 4
REMARK VINA RESULT:    -4.465      1.332      2.092
REMARK INTER + INTRA:          -7.679
REMARK INTER:                  -7.180
REMARK INTRA:                  -0.499
REMARK UNBOUND:                -0.473
REMARK SMILES CCCCCCCCCCCCO
REMARK SMILES IDX 7 1 6 2 5 3 4 4 3 5 2 6 1 7 8 8 9 9 10 10 11 11 12 12 13 13
REMARK H PARENT 13 14
REMARK Flexibility Score: inf
ROOT
ATOM      1  C   UNL     1       4.355  20.478  20.895  1.00  0.00     0.000 C 
ENDROOT
BRANCH   1   2
ATOM      2  C   UNL     1       3.345  19.675  21.731  1.00  0.00    -0.000 C 
BRANCH   2   3
ATOM      3  C   UNL     1       2.067  19.335  20.947  1.00  0.00    -0.000 C 
BRANCH   3   4
ATOM      4  C   UNL     1       2.364  18.642  19.606  1.00  0.00    -0.000 C 
BRANCH   4   5
ATOM      5  C   UNL     1       2.818  17.185  19.780  1.00  0.00    -0.000 C 
BRANCH   5   6
ATOM      6  C   UNL     1       1.835  16.407  20.664  1.00  0.00    -0.003 C 
ATOM      7  C   UNL     1       2.571  15.445  21.593  1.00  0.00     0.004 C 
ENDBRANCH   5   6
ENDBRANCH   4   5
ENDBRANCH   3   4
ENDBRANCH   2   3
ENDBRANCH   1   2
BRANCH   1   8
ATOM      8  C   UNL     1       4.609  21.884  21.458  1.00  0.00     0.000 C 
BRANCH   8   9
ATOM      9  C   UNL     1       5.924  22.461  20.921  1.00  0.00     0.000 C 
BRANCH   9  10
ATOM     10  C   UNL     1       5.670  23.730  20.093  1.00  0.00     0.002 C 
BRANCH  10  11
ATOM     11  C   UNL     1       6.967  24.482  19.744  1.00  0.00     0.028 C 
BRANCH  11  12
ATOM     12  C   UNL     1       7.909  24.667  20.938  1.00  0.00     0.156 C 
BRANCH  12  13
ATOM     13  O   UNL     1       9.168  24.121  20.652  1.00  0.00    -0.396 OA
ATOM     14  H   UNL     1       9.041  23.536  19.862  1.00  0.00     0.210 HD
ENDBRANCH  12  13
ENDBRANCH  11  12
ENDBRANCH  10  11
ENDBRANCH   9  10
ENDBRANCH   8   9
ENDBRANCH   1   8
TORSDOF 11
ENDMDL
MODEL 5
REMARK VINA RESULT:    -4.398      2.708      7.140
REMARK INTER + INTRA:          -7.571
REMARK INTER:                  -7.055
REMARK INTRA:                  -0.517
REMARK UNBOUND:                -0.473
REMARK SMILES CCCCCCCCCCCCO
REMARK SMILES IDX 7 1 6 2 5 3 4 4 3 5 2 6 1 7 8 8 9 9 10 10 11 11 12 12 13 13
REMARK H PARENT 13 14
REMARK Flexibility Score: inf
ROOT
ATOM      1  C   UNL     1       4.071  20.245  20.872  1.00  0.00     0.000 C 
ENDROOT
BRANCH   1   2
ATOM      2  C   UNL     1       4.568  21.440  21.700  1.00  0.00    -0.000 C 
BRANCH   2   3
ATOM      3  C   UNL     1       5.783  22.136  21.062  1.00  0.00    -0.000 C 
BRANCH   3   4
ATOM      4  C   UNL     1       5.382  23.327  20.175  1.00  0.00    -0.000 C 
BRANCH   4   5
ATOM      5  C   UNL     1       6.532  24.324  19.966  1.00  0.00    -0.000 C 
BRANCH   5   6
ATOM      6  C   UNL     1       7.300  24.554  21.273  1.00  0.00    -0.003 C 
ATOM      7  C   UNL     1       8.788  24.770  21.008  1.00  0.00     0.004 C 
ENDBRANCH   5   6
ENDBRANCH   4   5
ENDBRANCH   3   4
ENDBRANCH   2   3
ENDBRANCH   1   2
BRANCH   1   8
ATOM      8  C   UNL     1       2.606  19.886  21.165  1.00  0.00     0.000 C 
BRANCH   8   9
ATOM      9  C   UNL     1       2.038  18.967  20.078  1.00  0.00     0.000 C 
BRANCH   9  10
ATOM     10  C   UNL     1       3.044  17.868  19.705  1.00  0.00     0.002 C 
BRANCH  10  11
ATOM     11  C   UNL     1       2.641  16.485  20.247  1.00  0.00     0.028 C 
BRANCH  11  12
ATOM     12  C   UNL     1       3.722  15.825  21.110  1.00  0.00     0.156 C 
BRANCH  12  13
ATOM     13  O   UNL     1       4.608  16.792  21.602  1.00  0.00    -0.396 OA
ATOM     14  H   UNL     1       5.519  16.419  21.482  1.00  0.00     0.210 HD
ENDBRANCH  12  13
ENDBRANCH  11  12
ENDBRANCH  10  11
ENDBRANCH   9  10
ENDBRANCH   8   9
ENDBRANCH   1   8
TORSDOF 11
ENDMDL
MODEL 6
REMARK VINA RESULT:    -4.271      4.063      8.108
REMARK INTER + INTRA:          -7.366
REMARK INTER:                  -6.860
REMARK INTRA:                  -0.506
REMARK UNBOUND:                -0.473
REMARK SMILES CCCCCCCCCCCCO
REMARK SMILES IDX 7 1 6 2 5 3 4 4 3 5 2 6 1 7 8 8 9 9 10 10 11 11 12 12 13 13
REMARK H PARENT 13 14
REMARK Flexibility Score: inf
ROOT
ATOM      1  C   UNL     1       2.743  18.604  19.846  1.00  0.00     0.000 C 
ENDROOT
BRANCH   1   2
ATOM      2  C   UNL     1       3.651  19.308  20.867  1.00  0.00    -0.000 C 
BRANCH   2   3
ATOM      3  C   UNL     1       3.016  20.587  21.441  1.00  0.00    -0.000 C 
BRANCH   3   4
ATOM      4  C   UNL     1       4.064  21.644  21.828  1.00  0.00    -0.000 C 
BRANCH   4   5
ATOM      5  C   UNL     1       5.428  21.396  21.166  1.00  0.00    -0.000 C 
BRANCH   5   6
ATOM      6  C   UNL     1       6.156  22.720  20.903  1.00  0.00    -0.003 C 
ATOM      7  C   UNL     1       5.339  23.626  19.984  1.00  0.00     0.004 C 
ENDBRANCH   5   6
ENDBRANCH   4   5
ENDBRANCH   3   4
ENDBRANCH   2   3
ENDBRANCH   1   2
BRANCH   1   8
ATOM      8  C   UNL     1       3.126  17.133  19.624  1.00  0.00     0.000 C 
BRANCH   8   9
ATOM      9  C   UNL     1       2.432  16.225  20.647  1.00  0.00     0.000 C 
BRANCH   9  10
ATOM     10  C   UNL     1       0.957  16.619  20.821  1.00  0.00     0.002 C 
BRANCH  10  11
ATOM     11  C   UNL     1       0.033  15.401  20.989  1.00  0.00     0.028 C 
BRANCH  11  12
ATOM     12  C   UNL     1      -1.198  15.434  20.076  1.00  0.00     0.156 C 
BRANCH  12  13
ATOM     13  O   UNL     1      -1.578  16.759  19.821  1.00  0.00    -0.396 OA
ATOM     14  H   UNL     1      -2.086  16.741  18.970  1.00  0.00     0.210 HD
ENDBRANCH  12  13
ENDBRANCH  11  12
ENDBRANCH  10  11
ENDBRANCH   9  10
ENDBRANCH   8   9
ENDBRANCH   1   8
TORSDOF 11
ENDMDL
MODEL 7
REMARK VINA RESULT:    -4.246      1.899      2.590
REMARK INTER + INTRA:          -7.325
REMARK INTER:                  -6.840
REMARK INTRA:                  -0.485
REMARK UNBOUND:                -0.473
REMARK SMILES CCCCCCCCCCCCO
REMARK SMILES IDX 7 1 6 2 5 3 4 4 3 5 2 6 1 7 8 8 9 9 10 10 11 11 12 12 13 13
REMARK H PARENT 13 14
REMARK Flexibility Score: inf
ROOT
ATOM      1  C   UNL     1       5.426  23.380  20.139  1.00  0.00     0.000 C 
ENDROOT
BRANCH   1   2
ATOM      2  C   UNL     1       5.825  22.281  21.137  1.00  0.00    -0.000 C 
BRANCH   2   3
ATOM      3  C   UNL     1       5.043  20.974  20.919  1.00  0.00    -0.000 C 
BRANCH   3   4
ATOM      4  C   UNL     1       4.097  20.651  22.089  1.00  0.00    -0.000 C 
BRANCH   4   5
ATOM      5  C   UNL     1       2.615  20.720  21.689  1.00  0.00    -0.000 C 
BRANCH   5   6
ATOM      6  C   UNL     1       2.248  19.564  20.750  1.00  0.00    -0.003 C 
ATOM      7  C   UNL     1       0.773  19.618  20.358  1.00  0.00     0.004 C 
ENDBRANCH   5   6
ENDBRANCH   4   5
ENDBRANCH   3   4
ENDBRANCH   2   3
ENDBRANCH   1   2
BRANCH   1   8
ATOM      8  C   UNL     1       6.511  24.456  19.975  1.00  0.00     0.000 C 
BRANCH   8   9
ATOM      9  C   UNL     1       7.708  24.171  20.890  1.00  0.00     0.000 C 
BRANCH   9  10
ATOM     10  C   UNL     1       8.075  25.412  21.718  1.00  0.00     0.002 C 
BRANCH  10  11
ATOM     11  C   UNL     1       7.504  26.712  21.126  1.00  0.00     0.028 C 
BRANCH  11  12
ATOM     12  C   UNL     1       7.301  27.821  22.164  1.00  0.00     0.156 C 
BRANCH  12  13
ATOM     13  O   UNL     1       6.480  28.830  21.642  1.00  0.00    -0.396 OA
ATOM     14  H   UNL     1       5.550  28.575  21.874  1.00  0.00     0.210 HD
ENDBRANCH  12  13
ENDBRANCH  11  12
ENDBRANCH  10  11
ENDBRANCH   9  10
ENDBRANCH   8   9
ENDBRANCH   1   8
TORSDOF 11
ENDMDL
MODEL 8
REMARK VINA RESULT:    -4.172      3.977      8.593
REMARK INTER + INTRA:          -7.206
REMARK INTER:                  -6.428
REMARK INTRA:                  -0.778
REMARK UNBOUND:                -0.473
REMARK SMILES CCCCCCCCCCCCO
REMARK SMILES IDX 7 1 6 2 5 3 4 4 3 5 2 6 1 7 8 8 9 9 10 10 11 11 12 12 13 13
REMARK H PARENT 13 14
REMARK Flexibility Score: inf
ROOT
ATOM      1  C   UNL     1       7.451  27.134  21.372  1.00  0.00     0.000 C 
ENDROOT
BRANCH   1   2
ATOM      2  C   UNL     1       7.236  28.644  21.562  1.00  0.00    -0.000 C 
BRANCH   2   3
ATOM      3  C   UNL     1       7.109  29.395  20.226  1.00  0.00    -0.000 C 
BRANCH   3   4
ATOM      4  C   UNL     1       8.286  30.352  19.972  1.00  0.00    -0.000 C 
BRANCH   4   5
ATOM      5  C   UNL     1       8.709  30.394  18.496  1.00  0.00    -0.000 C 
BRANCH   5   6
ATOM      6  C   UNL     1       7.596  29.848  17.593  1.00  0.00    -0.003 C 
ATOM      7  C   UNL     1       7.976  29.961  16.119  1.00  0.00     0.004 C 
ENDBRANCH   5   6
ENDBRANCH   4   5
ENDBRANCH   3   4
ENDBRANCH   2   3
ENDBRANCH   1   2
BRANCH   1   8
ATOM      8  C   UNL     1       7.605  26.736  19.896  1.00  0.00     0.000 C 
BRANCH   8   9
ATOM      9  C   UNL     1       7.801  25.222  19.753  1.00  0.00     0.000 C 
BRANCH   9  10
ATOM     10  C   UNL     1       7.854  24.542  21.130  1.00  0.00     0.002 C 
BRANCH  10  11
ATOM     11  C   UNL     1       6.838  23.395  21.266  1.00  0.00     0.028 C 
BRANCH  11  12
ATOM     12  C   UNL     1       5.800  23.358  20.139  1.00  0.00     0.156 C 
BRANCH  12  13
ATOM     13  O   UNL     1       4.622  24.000  20.542  1.00  0.00    -0.396 OA
ATOM     14  H   UNL     1       4.234  24.404  19.724  1.00  0.00     0.210 HD
ENDBRANCH  12  13
ENDBRANCH  11  12
ENDBRANCH  10  11
ENDBRANCH   9  10
ENDBRANCH   8   9
ENDBRANCH   1   8
TORSDOF 11
ENDMDL
MODEL 9
REMARK VINA RESULT:    -4.090      2.622      4.016
REMARK INTER + INTRA:          -7.074
REMARK INTER:                  -6.639
REMARK INTRA:                  -0.434
REMARK UNBOUND:                -0.473
REMARK SMILES CCCCCCCCCCCCO
REMARK SMILES IDX 7 1 6 2 5 3 4 4 3 5 2 6 1 7 8 8 9 9 10 10 11 11 12 12 13 13
REMARK H PARENT 13 14
REMARK Flexibility Score: inf
ROOT
ATOM      1  C   UNL     1       2.080  19.921  21.244  1.00  0.00     0.000 C 
ENDROOT
BRANCH   1   2
ATOM      2  C   UNL     1       2.645  18.964  20.182  1.00  0.00    -0.000 C 
BRANCH   2   3
ATOM      3  C   UNL     1       2.516  17.486  20.591  1.00  0.00    -0.000 C 
BRANCH   3   4
ATOM      4  C   UNL     1       3.858  16.879  21.038  1.00  0.00    -0.000 C 
BRANCH   4   5
ATOM      5  C   UNL     1       3.947  15.371  20.761  1.00  0.00    -0.000 C 
BRANCH   5   6
ATOM      6  C   UNL     1       4.928  14.695  21.727  1.00  0.00    -0.003 C 
ATOM      7  C   UNL     1       5.774  13.645  21.011  1.00  0.00     0.004 C 
ENDBRANCH   5   6
ENDBRANCH   4   5
ENDBRANCH   3   4
ENDBRANCH   2   3
ENDBRANCH   1   2
BRANCH   1   8
ATOM      8  C   UNL     1       3.137  20.895  21.788  1.00  0.00     0.000 C 
BRANCH   8   9
ATOM      9  C   UNL     1       4.471  20.723  21.051  1.00  0.00     0.000 C 
BRANCH   9  10
ATOM     10  C   UNL     1       5.487  21.787  21.497  1.00  0.00     0.002 C 
BRANCH  10  11
ATOM     11  C   UNL     1       5.714  22.875  20.433  1.00  0.00     0.028 C 
BRANCH  11  12
ATOM     12  C   UNL     1       6.893  23.802  20.746  1.00  0.00     0.156 C 
BRANCH  12  13
ATOM     13  O   UNL     1       6.462  25.133  20.810  1.00  0.00    -0.396 OA
ATOM     14  H   UNL     1       7.263  25.692  20.635  1.00  0.00     0.210 HD
ENDBRANCH  12  13
ENDBRANCH  11  12
ENDBRANCH  10  11
ENDBRANCH   9  10
ENDBRANCH   8   9
ENDBRANCH   1   8
TORSDOF 11
ENDMDL
