MODEL 1
REMARK VINA RESULT:    -4.227      0.000      0.000
REMARK INTER + INTRA:          -4.996
REMARK INTER:                  -4.969
REMARK INTRA:                  -0.028
REMARK UNBOUND:                -0.028
REMARK SMILES O=C([O-])CCC(=O)[O-]
REMARK SMILES IDX 4 1 2 2 1 3 3 4 5 5 6 6 7 7 8 8
REMARK H PARENT
REMARK Flexibility Score: inf
ROOT
ATOM      1  C   UNL     1      19.202  -0.022 -16.681  1.00  0.00     0.059 C 
ENDROOT
BRANCH   1   2
ATOM      2  C   UNL     1      18.807   0.457 -15.317  1.00  0.00     0.042 C 
ATOM      3  O   UNL     1      19.664   0.534 -14.398  1.00  0.00    -0.550 OA
ATOM      4  O   UNL     1      17.498   0.857 -15.073  1.00  0.00    -0.550 OA
ENDBRANCH   1   2
BRANCH   1   5
ATOM      5  C   UNL     1      19.847  -1.411 -16.624  1.00  0.00     0.059 C 
BRANCH   5   6
ATOM      6  C   UNL     1      19.722  -2.131 -17.932  1.00  0.00     0.042 C 
ATOM      7  O   UNL     1      19.431  -3.357 -17.955  1.00  0.00    -0.550 OA
ATOM      8  O   UNL     1      19.968  -1.460 -19.123  1.00  0.00    -0.550 OA
ENDBRANCH   5   6
ENDBRANCH   1   5
TORSDOF 3
ENDMDL
MODEL 2
REMARK VINA RESULT:    -4.227      0.089      4.261
REMARK INTER + INTRA:          -4.996
REMARK INTER:                  -4.967
REMARK INTRA:                  -0.029
REMARK UNBOUND:                -0.028
REMARK SMILES O=C([O-])CCC(=O)[O-]
REMARK SMILES IDX 4 1 2 2 1 3 3 4 5 5 6 6 7 7 8 8
REMARK H PARENT
REMARK Flexibility Score: inf
ROOT
ATOM      1  C   UNL     1      19.885  -1.384 -16.606  1.00  0.00     0.059 C 
ENDROOT
BRANCH   1   2
ATOM      2  C   UNL     1      19.728  -2.125 -17.899  1.00  0.00     0.042 C 
ATOM      3  O   UNL     1      19.941  -1.541 -18.994  1.00  0.00    -0.550 OA
ATOM      4  O   UNL     1      19.386  -3.471 -17.891  1.00  0.00    -0.550 OA
ENDBRANCH   1   2
BRANCH   1   5
ATOM      5  C   UNL     1      19.251   0.010 -16.675  1.00  0.00     0.059 C 
BRANCH   5   6
ATOM      6  C   UNL     1      18.852   0.504 -15.318  1.00  0.00     0.042 C 
ATOM      7  O   UNL     1      19.710   0.599 -14.401  1.00  0.00    -0.550 OA
ATOM      8  O   UNL     1      17.525   0.819 -15.054  1.00  0.00    -0.550 OA
ENDBRANCH   5   6
ENDBRANCH   1   5
TORSDOF 3
ENDMDL
MODEL 3
REMARK VINA RESULT:    -4.109      1.367      1.705
REMARK INTER + INTRA:          -4.858
REMARK INTER:                  -4.757
REMARK INTRA:                  -0.100
REMARK UNBOUND:                -0.028
REMARK SMILES O=C([O-])CCC(=O)[O-]
REMARK SMILES IDX 4 1 2 2 1 3 3 4 5 5 6 6 7 7 8 8
REMARK H PARENT
REMARK Flexibility Score: inf
ROOT
ATOM      1  C   UNL     1      19.416   0.774 -16.458  1.00  0.00     0.059 C 
ENDROOT
BRANCH   1   2
ATOM      2  C   UNL     1      18.021   1.128 -16.043  1.00  0.00     0.042 C 
ATOM      3  O   UNL     1      17.587   0.781 -14.912  1.00  0.00    -0.550 OA
ATOM      4  O   UNL     1      17.212   1.877 -16.889  1.00  0.00    -0.550 OA
ENDBRANCH   1   2
BRANCH   1   5
ATOM      5  C   UNL     1      19.422  -0.155 -17.678  1.00  0.00     0.059 C 
BRANCH   5   6
ATOM      6  C   UNL     1      19.646  -1.583 -17.284  1.00  0.00     0.042 C 
ATOM      7  O   UNL     1      20.017  -1.867 -16.114  1.00  0.00    -0.550 OA
ATOM      8  O   UNL     1      19.485  -2.597 -18.220  1.00  0.00    -0.550 OA
ENDBRANCH   5   6
ENDBRANCH   1   5
TORSDOF 3
ENDMDL
MODEL 4
REMARK VINA RESULT:    -4.075      7.568      9.126
REMARK INTER + INTRA:          -4.817
REMARK INTER:                  -4.777
REMARK INTRA:                  -0.040
REMARK UNBOUND:                -0.028
REMARK SMILES O=C([O-])CCC(=O)[O-]
REMARK SMILES IDX 4 1 2 2 1 3 3 4 5 5 6 6 7 7 8 8
REMARK H PARENT
REMARK Flexibility Score: inf
ROOT
ATOM      1  C   UNL     1      16.541   0.151 -23.784  1.00  0.00     0.059 C 
ENDROOT
BRANCH   1   2
ATOM      2  C   UNL     1      17.424  -1.044 -23.589  1.00  0.00     0.042 C 
ATOM      3  O   UNL     1      18.457  -0.960 -22.874  1.00  0.00    -0.550 OA
ATOM      4  O   UNL     1      17.083  -2.261 -24.166  1.00  0.00    -0.550 OA
ENDBRANCH   1   2
BRANCH   1   5
ATOM      5  C   UNL     1      15.840   0.117 -25.147  1.00  0.00     0.059 C 
BRANCH   5   6
ATOM      6  C   UNL     1      16.006   1.408 -25.887  1.00  0.00     0.042 C 
ATOM      7  O   UNL     1      15.181   2.345 -25.720  1.00  0.00    -0.550 OA
ATOM      8  O   UNL     1      17.049   1.563 -26.792  1.00  0.00    -0.550 OA
ENDBRANCH   5   6
ENDBRANCH   1   5
TORSDOF 3
ENDMDL
MODEL 5
REMARK VINA RESULT:    -4.057      8.071      9.066
REMARK INTER + INTRA:          -4.797
REMARK INTER:                  -4.669
REMARK INTRA:                  -0.127
REMARK UNBOUND:                -0.028
REMARK SMILES O=C([O-])CCC(=O)[O-]
REMARK SMILES IDX 4 1 2 2 1 3 3 4 5 5 6 6 7 7 8 8
REMARK H PARENT
REMARK Flexibility Score: inf
ROOT
ATOM      1  C   UNL     1      16.847   1.482 -24.265  1.00  0.00     0.059 C 
ENDROOT
BRANCH   1   2
ATOM      2  C   UNL     1      16.276   1.816 -25.609  1.00  0.00     0.042 C 
ATOM      3  O   UNL     1      15.128   2.326 -25.703  1.00  0.00    -0.550 OA
ATOM      4  O   UNL     1      17.029   1.601 -26.757  1.00  0.00    -0.550 OA
ENDBRANCH   1   2
BRANCH   1   5
ATOM      5  C   UNL     1      16.412   0.088 -23.799  1.00  0.00     0.059 C 
BRANCH   5   6
ATOM      6  C   UNL     1      17.403  -0.962 -24.200  1.00  0.00     0.042 C 
ATOM      7  O   UNL     1      17.078  -2.179 -24.182  1.00  0.00    -0.550 OA
ATOM      8  O   UNL     1      18.697  -0.601 -24.552  1.00  0.00    -0.550 OA
ENDBRANCH   5   6
ENDBRANCH   1   5
TORSDOF 3
ENDMDL
MODEL 6
REMARK VINA RESULT:    -3.972      7.985      9.419
REMARK INTER + INTRA:          -4.696
REMARK INTER:                  -4.604
REMARK INTRA:                  -0.092
REMARK UNBOUND:                -0.028
REMARK SMILES O=C([O-])CCC(=O)[O-]
REMARK SMILES IDX 4 1 2 2 1 3 3 4 5 5 6 6 7 7 8 8
REMARK H PARENT
REMARK Flexibility Score: inf
ROOT
ATOM      1  C   UNL     1      16.507   0.429 -26.256  1.00  0.00     0.059 C 
ENDROOT
BRANCH   1   2
ATOM      2  C   UNL     1      16.285   1.892 -26.016  1.00  0.00     0.042 C 
ATOM      3  O   UNL     1      15.134   2.322 -25.742  1.00  0.00    -0.550 OA
ATOM      4  O   UNL     1      17.359   2.773 -26.055  1.00  0.00    -0.550 OA
ENDBRANCH   1   2
BRANCH   1   5
ATOM      5  C   UNL     1      17.603  -0.131 -25.343  1.00  0.00     0.059 C 
BRANCH   5   6
ATOM      6  C   UNL     1      17.025  -0.912 -24.202  1.00  0.00     0.042 C 
ATOM      7  O   UNL     1      16.502  -0.313 -23.225  1.00  0.00    -0.550 OA
ATOM      8  O   UNL     1      17.102  -2.299 -24.197  1.00  0.00    -0.550 OA
ENDBRANCH   5   6
ENDBRANCH   1   5
TORSDOF 3
ENDMDL
MODEL 7
REMARK VINA RESULT:    -3.906      1.886      3.750
REMARK INTER + INTRA:          -4.619
REMARK INTER:                  -4.549
REMARK INTRA:                  -0.070
REMARK UNBOUND:                -0.028
REMARK SMILES O=C([O-])CCC(=O)[O-]
REMARK SMILES IDX 4 1 2 2 1 3 3 4 5 5 6 6 7 7 8 8
REMARK H PARENT
REMARK Flexibility Score: inf
ROOT
ATOM      1  C   UNL     1      20.043   0.002 -15.196  1.00  0.00     0.059 C 
ENDROOT
BRANCH   1   2
ATOM      2  C   UNL     1      20.637  -1.344 -15.479  1.00  0.00     0.042 C 
ATOM      3  O   UNL     1      21.660  -1.731 -14.855  1.00  0.00    -0.550 OA
ATOM      4  O   UNL     1      20.035  -2.189 -16.404  1.00  0.00    -0.550 OA
ENDBRANCH   1   2
BRANCH   1   5
ATOM      5  C   UNL     1      19.257   0.535 -16.398  1.00  0.00     0.059 C 
BRANCH   5   6
ATOM      6  C   UNL     1      17.922   1.078 -15.990  1.00  0.00     0.042 C 
ATOM      7  O   UNL     1      17.456   0.821 -14.848  1.00  0.00    -0.550 OA
ATOM      8  O   UNL     1      17.174   1.834 -16.884  1.00  0.00    -0.550 OA
ENDBRANCH   5   6
ENDBRANCH   1   5
TORSDOF 3
ENDMDL
MODEL 8
REMARK VINA RESULT:    -3.790      1.790      2.168
REMARK INTER + INTRA:          -4.483
REMARK INTER:                  -4.405
REMARK INTRA:                  -0.077
REMARK UNBOUND:                -0.028
REMARK SMILES O=C([O-])CCC(=O)[O-]
REMARK SMILES IDX 4 1 2 2 1 3 3 4 5 5 6 6 7 7 8 8
REMARK H PARENT
REMARK Flexibility Score: inf
ROOT
ATOM      1  C   UNL     1      19.492   0.131 -16.532  1.00  0.00     0.059 C 
ENDROOT
BRANCH   1   2
ATOM      2  C   UNL     1      18.903   0.596 -15.235  1.00  0.00     0.042 C 
ATOM      3  O   UNL     1      19.647   0.825 -14.245  1.00  0.00    -0.550 OA
ATOM      4  O   UNL     1      17.534   0.814 -15.133  1.00  0.00    -0.550 OA
ENDBRANCH   1   2
BRANCH   1   5
ATOM      5  C   UNL     1      20.580  -0.926 -16.309  1.00  0.00     0.059 C 
BRANCH   5   6
ATOM      6  C   UNL     1      21.828  -0.604 -17.073  1.00  0.00     0.042 C 
ATOM      7  O   UNL     1      22.097  -1.223 -18.137  1.00  0.00    -0.550 OA
ATOM      8  O   UNL     1      22.714   0.349 -16.589  1.00  0.00    -0.550 OA
ENDBRANCH   5   6
ENDBRANCH   1   5
TORSDOF 3
ENDMDL
MODEL 9
REMARK VINA RESULT:    -3.676     14.986     16.914
REMARK INTER + INTRA:          -4.349
REMARK INTER:                  -4.278
REMARK INTRA:                  -0.070
REMARK UNBOUND:                -0.028
REMARK SMILES O=C([O-])CCC(=O)[O-]
REMARK SMILES IDX 4 1 2 2 1 3 3 4 5 5 6 6 7 7 8 8
REMARK H PARENT
REMARK Flexibility Score: inf
ROOT
ATOM      1  C   UNL     1      26.895 -13.440 -26.079  1.00  0.00     0.059 C 
ENDROOT
BRANCH   1   2
ATOM      2  C   UNL     1      25.779 -14.438 -26.006  1.00  0.00     0.042 C 
ATOM      3  O   UNL     1      24.937 -14.518 -26.939  1.00  0.00    -0.550 OA
ATOM      4  O   UNL     1      25.693 -15.306 -24.924  1.00  0.00    -0.550 OA
ENDBRANCH   1   2
BRANCH   1   5
ATOM      5  C   UNL     1      26.364 -12.012 -26.237  1.00  0.00     0.059 C 
BRANCH   5   6
ATOM      6  C   UNL     1      26.402 -11.261 -24.941  1.00  0.00     0.042 C 
ATOM      7  O   UNL     1      26.769 -10.057 -24.917  1.00  0.00    -0.550 OA
ATOM      8  O   UNL     1      26.073 -11.904 -23.754  1.00  0.00    -0.550 OA
ENDBRANCH   5   6
ENDBRANCH   1   5
TORSDOF 3
ENDMDL
