MODEL 1
REMARK VINA RESULT:    -3.173      0.000      0.000
REMARK INTER + INTRA:          -3.377
REMARK INTER:                  -3.359
REMARK INTRA:                  -0.018
REMARK UNBOUND:                -0.018
REMARK SMILES O=C([O-])c1cccnc1
REMARK SMILES IDX 4 1 5 2 9 3 6 4 8 5 7 6 2 7 1 8 3 9
REMARK H PARENT
REMARK Flexibility Score: inf
ROOT
ATOM      1  C   UNL     1     -92.867 145.920 240.964  1.00  0.00     0.016 A 
ATOM      2  C   UNL     1     -93.397 147.157 240.555  1.00  0.00     0.013 A 
ATOM      3  C   UNL     1     -93.396 145.315 242.116  1.00  0.00     0.120 A 
ATOM      4  C   UNL     1     -94.422 147.756 241.289  1.00  0.00     0.021 A 
ATOM      5  N   UNL     1     -94.395 145.920 242.813  1.00  0.00    -0.264 NA
ATOM      6  C   UNL     1     -94.914 147.116 242.427  1.00  0.00     0.111 A 
ENDROOT
BRANCH   1   7
ATOM      7  C   UNL     1     -91.781 145.268 240.201  1.00  0.00     0.073 C 
ATOM      8  O   UNL     1     -90.714 144.924 240.775  1.00  0.00    -0.545 OA
ATOM      9  O   UNL     1     -91.923 145.029 238.839  1.00  0.00    -0.545 OA
ENDBRANCH   1   7
TORSDOF 1
ENDMDL
MODEL 2
REMARK VINA RESULT:    -3.111      2.062      2.713
REMARK INTER + INTRA:          -3.311
REMARK INTER:                  -3.287
REMARK INTRA:                  -0.024
REMARK UNBOUND:                -0.018
REMARK SMILES O=C([O-])c1cccnc1
REMARK SMILES IDX 4 1 5 2 9 3 6 4 8 5 7 6 2 7 1 8 3 9
REMARK H PARENT
REMARK Flexibility Score: inf
ROOT
ATOM      1  C   UNL     1     -94.699 146.984 242.343  1.00  0.00     0.016 A 
ATOM      2  C   UNL     1     -95.036 148.347 242.276  1.00  0.00     0.013 A 
ATOM      3  C   UNL     1     -95.535 146.125 243.076  1.00  0.00     0.120 A 
ATOM      4  C   UNL     1     -96.177 148.819 242.928  1.00  0.00     0.021 A 
ATOM      5  N   UNL     1     -96.640 146.610 243.701  1.00  0.00    -0.264 NA
ATOM      6  C   UNL     1     -96.976 147.926 243.643  1.00  0.00     0.111 A 
ENDROOT
BRANCH   1   7
ATOM      7  C   UNL     1     -93.495 146.464 241.660  1.00  0.00     0.073 C 
ATOM      8  O   UNL     1     -92.873 147.175 240.827  1.00  0.00    -0.545 OA
ATOM      9  O   UNL     1     -93.033 145.179 241.929  1.00  0.00    -0.545 OA
ENDBRANCH   1   7
TORSDOF 1
ENDMDL
MODEL 3
REMARK VINA RESULT:    -3.022      3.410      4.124
REMARK INTER + INTRA:          -3.217
REMARK INTER:                  -3.195
REMARK INTRA:                  -0.022
REMARK UNBOUND:                -0.018
REMARK SMILES O=C([O-])c1cccnc1
REMARK SMILES IDX 4 1 5 2 9 3 6 4 8 5 7 6 2 7 1 8 3 9
REMARK H PARENT
REMARK Flexibility Score: inf
ROOT
ATOM      1  C   UNL     1     -94.803 146.872 242.326  1.00  0.00     0.016 A 
ATOM      2  C   UNL     1     -93.997 147.450 241.329  1.00  0.00     0.013 A 
ATOM      3  C   UNL     1     -94.490 145.576 242.768  1.00  0.00     0.120 A 
ATOM      4  C   UNL     1     -92.916 146.741 240.803  1.00  0.00     0.021 A 
ATOM      5  N   UNL     1     -93.431 144.906 242.239  1.00  0.00    -0.264 NA
ATOM      6  C   UNL     1     -92.645 145.456 241.276  1.00  0.00     0.111 A 
ENDROOT
BRANCH   1   7
ATOM      7  C   UNL     1     -95.953 147.606 242.895  1.00  0.00     0.073 C 
ATOM      8  O   UNL     1     -96.961 146.984 243.325  1.00  0.00    -0.545 OA
ATOM      9  O   UNL     1     -95.938 148.995 242.963  1.00  0.00    -0.545 OA
ENDBRANCH   1   7
TORSDOF 1
ENDMDL
MODEL 4
REMARK VINA RESULT:    -2.914      3.864      4.770
REMARK INTER + INTRA:          -3.103
REMARK INTER:                  -3.086
REMARK INTRA:                  -0.017
REMARK UNBOUND:                -0.018
REMARK SMILES O=C([O-])c1cccnc1
REMARK SMILES IDX 4 1 5 2 9 3 6 4 8 5 7 6 2 7 1 8 3 9
REMARK H PARENT
REMARK Flexibility Score: inf
ROOT
ATOM      1  C   UNL     1     -95.360 147.893 241.882  1.00  0.00     0.016 A 
ATOM      2  C   UNL     1     -94.023 147.528 242.121  1.00  0.00     0.013 A 
ATOM      3  C   UNL     1     -95.827 147.884 240.557  1.00  0.00     0.120 A 
ATOM      4  C   UNL     1     -93.194 147.170 241.056  1.00  0.00     0.021 A 
ATOM      5  N   UNL     1     -94.999 147.530 239.538  1.00  0.00    -0.264 NA
ATOM      6  C   UNL     1     -93.705 147.176 239.758  1.00  0.00     0.111 A 
ENDROOT
BRANCH   1   7
ATOM      7  C   UNL     1     -96.254 148.277 242.995  1.00  0.00     0.073 C 
ATOM      8  O   UNL     1     -96.622 149.473 243.137  1.00  0.00    -0.545 OA
ATOM      9  O   UNL     1     -96.700 147.321 243.901  1.00  0.00    -0.545 OA
ENDBRANCH   1   7
TORSDOF 1
ENDMDL
MODEL 5
REMARK VINA RESULT:    -2.902      4.403      5.371
REMARK INTER + INTRA:          -3.090
REMARK INTER:                  -3.071
REMARK INTRA:                  -0.019
REMARK UNBOUND:                -0.018
REMARK SMILES O=C([O-])c1cccnc1
REMARK SMILES IDX 4 1 5 2 9 3 6 4 8 5 7 6 2 7 1 8 3 9
REMARK H PARENT
REMARK Flexibility Score: inf
ROOT
ATOM      1  C   UNL     1     -96.192 148.072 243.086  1.00  0.00     0.016 A 
ATOM      2  C   UNL     1     -95.062 148.451 242.340  1.00  0.00     0.013 A 
ATOM      3  C   UNL     1     -96.335 146.721 243.441  1.00  0.00     0.120 A 
ATOM      4  C   UNL     1     -94.114 147.496 241.970  1.00  0.00     0.021 A 
ATOM      5  N   UNL     1     -95.397 145.809 243.068  1.00  0.00    -0.264 NA
ATOM      6  C   UNL     1     -94.300 146.165 242.347  1.00  0.00     0.111 A 
ENDROOT
BRANCH   1   7
ATOM      7  C   UNL     1     -97.208 149.069 243.487  1.00  0.00     0.073 C 
ATOM      8  O   UNL     1     -97.667 149.889 242.648  1.00  0.00    -0.545 OA
ATOM      9  O   UNL     1     -97.670 149.114 244.798  1.00  0.00    -0.545 OA
ENDBRANCH   1   7
TORSDOF 1
ENDMDL
MODEL 6
REMARK VINA RESULT:    -2.886      2.454      3.176
REMARK INTER + INTRA:          -3.073
REMARK INTER:                  -3.049
REMARK INTRA:                  -0.024
REMARK UNBOUND:                -0.018
REMARK SMILES O=C([O-])c1cccnc1
REMARK SMILES IDX 4 1 5 2 9 3 6 4 8 5 7 6 2 7 1 8 3 9
REMARK H PARENT
REMARK Flexibility Score: inf
ROOT
ATOM      1  C   UNL     1     -94.973 147.831 240.997  1.00  0.00     0.016 A 
ATOM      2  C   UNL     1     -94.998 148.293 242.325  1.00  0.00     0.013 A 
ATOM      3  C   UNL     1     -96.159 147.893 240.246  1.00  0.00     0.120 A 
ATOM      4  C   UNL     1     -96.181 148.795 242.869  1.00  0.00     0.021 A 
ATOM      5  N   UNL     1     -97.298 148.388 240.800  1.00  0.00    -0.264 NA
ATOM      6  C   UNL     1     -97.334 148.836 242.083  1.00  0.00     0.111 A 
ENDROOT
BRANCH   1   7
ATOM      7  C   UNL     1     -93.731 147.294 240.401  1.00  0.00     0.073 C 
ATOM      8  O   UNL     1     -92.683 147.189 241.092  1.00  0.00    -0.545 OA
ATOM      9  O   UNL     1     -93.703 146.898 239.069  1.00  0.00    -0.545 OA
ENDBRANCH   1   7
TORSDOF 1
ENDMDL
MODEL 7
REMARK VINA RESULT:    -2.879      1.498      2.065
REMARK INTER + INTRA:          -3.066
REMARK INTER:                  -3.043
REMARK INTRA:                  -0.023
REMARK UNBOUND:                -0.018
REMARK SMILES O=C([O-])c1cccnc1
REMARK SMILES IDX 4 1 5 2 9 3 6 4 8 5 7 6 2 7 1 8 3 9
REMARK H PARENT
REMARK Flexibility Score: inf
ROOT
ATOM      1  C   UNL     1     -93.621 146.473 240.507  1.00  0.00     0.016 A 
ATOM      2  C   UNL     1     -93.509 147.167 241.725  1.00  0.00     0.013 A 
ATOM      3  C   UNL     1     -94.800 146.623 239.759  1.00  0.00     0.120 A 
ATOM      4  C   UNL     1     -94.554 147.980 242.166  1.00  0.00     0.021 A 
ATOM      5  N   UNL     1     -95.803 147.422 240.211  1.00  0.00    -0.264 NA
ATOM      6  C   UNL     1     -95.706 148.098 241.387  1.00  0.00     0.111 A 
ENDROOT
BRANCH   1   7
ATOM      7  C   UNL     1     -92.526 145.605 240.023  1.00  0.00     0.073 C 
ATOM      8  O   UNL     1     -92.494 145.224 238.823  1.00  0.00    -0.545 OA
ATOM      9  O   UNL     1     -91.516 145.197 240.889  1.00  0.00    -0.545 OA
ENDBRANCH   1   7
TORSDOF 1
ENDMDL
MODEL 8
REMARK VINA RESULT:    -2.813      3.293      4.095
REMARK INTER + INTRA:          -2.996
REMARK INTER:                  -2.977
REMARK INTRA:                  -0.019
REMARK UNBOUND:                -0.018
REMARK SMILES O=C([O-])c1cccnc1
REMARK SMILES IDX 4 1 5 2 9 3 6 4 8 5 7 6 2 7 1 8 3 9
REMARK H PARENT
REMARK Flexibility Score: inf
ROOT
ATOM      1  C   UNL     1     -94.246 147.413 239.259  1.00  0.00     0.016 A 
ATOM      2  C   UNL     1     -93.873 147.565 240.607  1.00  0.00     0.013 A 
ATOM      3  C   UNL     1     -93.684 146.354 238.527  1.00  0.00     0.120 A 
ATOM      4  C   UNL     1     -92.966 146.677 241.186  1.00  0.00     0.021 A 
ATOM      5  N   UNL     1     -92.803 145.502 239.116  1.00  0.00    -0.264 NA
ATOM      6  C   UNL     1     -92.435 145.640 240.418  1.00  0.00     0.111 A 
ENDROOT
BRANCH   1   7
ATOM      7  C   UNL     1     -95.204 148.343 238.625  1.00  0.00     0.073 C 
ATOM      8  O   UNL     1     -96.322 148.574 239.160  1.00  0.00    -0.545 OA
ATOM      9  O   UNL     1     -94.885 148.975 237.429  1.00  0.00    -0.545 OA
ENDBRANCH   1   7
TORSDOF 1
ENDMDL
