MODEL 1
REMARK VINA RESULT:    -4.829      0.000      0.000
REMARK INTER + INTRA:          -7.026
REMARK INTER:                  -6.523
REMARK INTRA:                  -0.503
REMARK UNBOUND:                -0.503
REMARK SMILES O=C[C@H](O)[C@@H](O)[C@H](O)CO
REMARK SMILES IDX 7 1 9 2 10 3 5 5 3 6 2 7 1 8 4 9 6 11 8 13
REMARK H PARENT 10 4 4 10 6 12 8 14
REMARK Flexibility Score: inf
ROOT
ATOM      1  C   UNL     1     -41.669  41.313  11.158  1.00  0.00     0.171 C 
ENDROOT
BRANCH   1   2
ATOM      2  C   UNL     1     -41.063  42.627  11.689  1.00  0.00     0.190 C 
BRANCH   2   3
ATOM      3  O   UNL     1     -41.104  42.655  13.088  1.00  0.00    -0.394 OA
ATOM      4  H   UNL     1     -41.438  43.555  13.337  1.00  0.00     0.210 HD
ENDBRANCH   2   3
ENDBRANCH   1   2
BRANCH   1   5
ATOM      5  C   UNL     1     -43.194  41.412  10.863  1.00  0.00     0.181 C 
BRANCH   5   6
ATOM      6  C   UNL     1     -43.977  40.106  11.165  1.00  0.00     0.209 C 
BRANCH   6   7
ATOM      7  C   UNL     1     -45.081  39.875  10.163  1.00  0.00     0.258 C 
ATOM      8  O   UNL     1     -44.946  40.232   9.004  1.00  0.00    -0.300 OA
ENDBRANCH   6   7
BRANCH   6   9
ATOM      9  O   UNL     1     -44.486  40.095  12.477  1.00  0.00    -0.383 OA
ATOM     10  H   UNL     1     -43.941  40.719  13.023  1.00  0.00     0.211 HD
ENDBRANCH   6   9
ENDBRANCH   5   6
BRANCH   5  11
ATOM     11  O   UNL     1     -43.761  42.503  11.553  1.00  0.00    -0.387 OA
ATOM     12  H   UNL     1     -44.255  43.057  10.895  1.00  0.00     0.211 HD
ENDBRANCH   5  11
ENDBRANCH   1   5
BRANCH   1  13
ATOM     13  O   UNL     1     -41.429  40.278  12.080  1.00  0.00    -0.388 OA
ATOM     14  H   UNL     1     -41.714  39.427  11.654  1.00  0.00     0.211 HD
ENDBRANCH   1  13
TORSDOF 8
ENDMDL
MODEL 2
REMARK VINA RESULT:    -4.805      1.319      3.909
REMARK INTER + INTRA:          -6.994
REMARK INTER:                  -6.110
REMARK INTRA:                  -0.884
REMARK UNBOUND:                -0.503
REMARK SMILES O=C[C@H](O)[C@@H](O)[C@H](O)CO
REMARK SMILES IDX 7 1 9 2 10 3 5 5 3 6 2 7 1 8 4 9 6 11 8 13
REMARK H PARENT 10 4 4 10 6 12 8 14
REMARK Flexibility Score: inf
ROOT
ATOM      1  C   UNL     1     -43.458  40.832  11.361  1.00  0.00     0.171 C 
ENDROOT
BRANCH   1   2
ATOM      2  C   UNL     1     -44.186  40.133  10.196  1.00  0.00     0.190 C 
BRANCH   2   3
ATOM      3  O   UNL     1     -44.173  40.944   9.054  1.00  0.00    -0.394 OA
ATOM      4  H   UNL     1     -44.116  40.328   8.279  1.00  0.00     0.210 HD
ENDBRANCH   2   3
ENDBRANCH   1   2
BRANCH   1   5
ATOM      5  C   UNL     1     -42.638  42.079  10.916  1.00  0.00     0.181 C 
BRANCH   5   6
ATOM      6  C   UNL     1     -42.294  43.049  12.079  1.00  0.00     0.209 C 
BRANCH   6   7
ATOM      7  C   UNL     1     -40.850  42.924  12.497  1.00  0.00     0.258 C 
ATOM      8  O   UNL     1     -40.380  41.831  12.770  1.00  0.00    -0.300 OA
ENDBRANCH   6   7
BRANCH   6   9
ATOM      9  O   UNL     1     -43.149  42.865  13.182  1.00  0.00    -0.383 OA
ATOM     10  H   UNL     1     -43.990  42.455  12.853  1.00  0.00     0.211 HD
ENDBRANCH   6   9
ENDBRANCH   5   6
BRANCH   5  11
ATOM     11  O   UNL     1     -41.470  41.685  10.235  1.00  0.00    -0.387 OA
ATOM     12  H   UNL     1     -40.803  42.415  10.323  1.00  0.00     0.211 HD
ENDBRANCH   5  11
ENDBRANCH   1   5
BRANCH   1  13
ATOM     13  O   UNL     1     -42.611  39.912  12.007  1.00  0.00    -0.388 OA
ATOM     14  H   UNL     1     -43.024  39.690  12.882  1.00  0.00     0.211 HD
ENDBRANCH   1  13
TORSDOF 8
ENDMDL
MODEL 3
REMARK VINA RESULT:    -4.723      1.334      2.183
REMARK INTER + INTRA:          -6.882
REMARK INTER:                  -6.530
REMARK INTRA:                  -0.352
REMARK UNBOUND:                -0.503
REMARK SMILES O=C[C@H](O)[C@@H](O)[C@H](O)CO
REMARK SMILES IDX 7 1 9 2 10 3 5 5 3 6 2 7 1 8 4 9 6 11 8 13
REMARK H PARENT 10 4 4 10 6 12 8 14
REMARK Flexibility Score: inf
ROOT
ATOM      1  C   UNL     1     -42.465  43.142  12.710  1.00  0.00     0.171 C 
ENDROOT
BRANCH   1   2
ATOM      2  C   UNL     1     -40.944  43.159  12.461  1.00  0.00     0.190 C 
BRANCH   2   3
ATOM      3  O   UNL     1     -40.297  42.272  13.331  1.00  0.00    -0.394 OA
ATOM      4  H   UNL     1     -40.871  42.208  14.137  1.00  0.00     0.210 HD
ENDBRANCH   2   3
ENDBRANCH   1   2
BRANCH   1   5
ATOM      5  C   UNL     1     -43.241  42.218  11.726  1.00  0.00     0.181 C 
BRANCH   5   6
ATOM      6  C   UNL     1     -42.353  41.143  11.044  1.00  0.00     0.209 C 
BRANCH   6   7
ATOM      7  C   UNL     1     -42.970  40.644   9.761  1.00  0.00     0.258 C 
ATOM      8  O   UNL     1     -44.160  40.378   9.712  1.00  0.00    -0.300 OA
ENDBRANCH   6   7
BRANCH   6   9
ATOM      9  O   UNL     1     -42.075  40.070  11.912  1.00  0.00    -0.383 OA
ATOM     10  H   UNL     1     -42.524  40.251  12.778  1.00  0.00     0.211 HD
ENDBRANCH   6   9
ENDBRANCH   5   6
BRANCH   5  11
ATOM     11  O   UNL     1     -44.339  41.619  12.373  1.00  0.00    -0.387 OA
ATOM     12  H   UNL     1     -44.565  40.785  11.884  1.00  0.00     0.211 HD
ENDBRANCH   5  11
ENDBRANCH   1   5
BRANCH   1  13
ATOM     13  O   UNL     1     -42.970  44.453  12.629  1.00  0.00    -0.388 OA
ATOM     14  H   UNL     1     -43.146  44.647  11.671  1.00  0.00     0.211 HD
ENDBRANCH   1  13
TORSDOF 8
ENDMDL
MODEL 4
REMARK VINA RESULT:    -4.656      1.217      4.005
REMARK INTER + INTRA:          -6.792
REMARK INTER:                  -6.109
REMARK INTRA:                  -0.682
REMARK UNBOUND:                -0.503
REMARK SMILES O=C[C@H](O)[C@@H](O)[C@H](O)CO
REMARK SMILES IDX 7 1 9 2 10 3 5 5 3 6 2 7 1 8 4 9 6 11 8 13
REMARK H PARENT 10 4 4 10 6 12 8 14
REMARK Flexibility Score: inf
ROOT
ATOM      1  C   UNL     1     -44.118  40.346  10.625  1.00  0.00     0.171 C 
ENDROOT
BRANCH   1   2
ATOM      2  C   UNL     1     -45.373  39.875  11.386  1.00  0.00     0.190 C 
BRANCH   2   3
ATOM      3  O   UNL     1     -45.530  40.607  12.570  1.00  0.00    -0.394 OA
ATOM      4  H   UNL     1     -45.005  40.128  13.262  1.00  0.00     0.210 HD
ENDBRANCH   2   3
ENDBRANCH   1   2
BRANCH   1   5
ATOM      5  C   UNL     1     -43.210  41.295  11.461  1.00  0.00     0.181 C 
BRANCH   5   6
ATOM      6  C   UNL     1     -41.750  41.386  10.938  1.00  0.00     0.209 C 
BRANCH   6   7
ATOM      7  C   UNL     1     -40.876  42.190  11.868  1.00  0.00     0.258 C 
ATOM      8  O   UNL     1     -41.170  43.341  12.148  1.00  0.00    -0.300 OA
ENDBRANCH   6   7
BRANCH   6   9
ATOM      9  O   UNL     1     -41.697  41.906   9.631  1.00  0.00    -0.383 OA
ATOM     10  H   UNL     1     -41.293  42.811   9.677  1.00  0.00     0.211 HD
ENDBRANCH   6   9
ENDBRANCH   5   6
BRANCH   5  11
ATOM     11  O   UNL     1     -43.786  42.577  11.552  1.00  0.00    -0.387 OA
ATOM     12  H   UNL     1     -43.942  42.774  12.512  1.00  0.00     0.211 HD
ENDBRANCH   5  11
ENDBRANCH   1   5
BRANCH   1  13
ATOM     13  O   UNL     1     -44.503  40.985   9.432  1.00  0.00    -0.388 OA
ATOM     14  H   UNL     1     -44.551  41.960   9.617  1.00  0.00     0.211 HD
ENDBRANCH   1  13
TORSDOF 8
ENDMDL
MODEL 5
REMARK VINA RESULT:    -4.626      1.404      2.044
REMARK INTER + INTRA:          -6.752
REMARK INTER:                  -6.096
REMARK INTRA:                  -0.656
REMARK UNBOUND:                -0.503
REMARK SMILES O=C[C@H](O)[C@@H](O)[C@H](O)CO
REMARK SMILES IDX 7 1 9 2 10 3 5 5 3 6 2 7 1 8 4 9 6 11 8 13
REMARK H PARENT 10 4 4 10 6 12 8 14
REMARK Flexibility Score: inf
ROOT
ATOM      1  C   UNL     1     -41.841  43.101  12.142  1.00  0.00     0.171 C 
ENDROOT
BRANCH   1   2
ATOM      2  C   UNL     1     -42.377  44.423  12.726  1.00  0.00     0.190 C 
BRANCH   2   3
ATOM      3  O   UNL     1     -43.660  44.690  12.234  1.00  0.00    -0.394 OA
ATOM      4  H   UNL     1     -44.290  44.455  12.963  1.00  0.00     0.210 HD
ENDBRANCH   2   3
ENDBRANCH   1   2
BRANCH   1   5
ATOM      5  C   UNL     1     -42.956  42.195  11.543  1.00  0.00     0.181 C 
BRANCH   5   6
ATOM      6  C   UNL     1     -42.439  40.825  11.024  1.00  0.00     0.209 C 
BRANCH   6   7
ATOM      7  C   UNL     1     -43.288  40.304   9.891  1.00  0.00     0.258 C 
ATOM      8  O   UNL     1     -44.449  40.662   9.776  1.00  0.00    -0.300 OA
ENDBRANCH   6   7
BRANCH   6   9
ATOM      9  O   UNL     1     -42.353  39.875  12.059  1.00  0.00    -0.383 OA
ATOM     10  H   UNL     1     -42.240  40.363  12.915  1.00  0.00     0.211 HD
ENDBRANCH   6   9
ENDBRANCH   5   6
BRANCH   5  11
ATOM     11  O   UNL     1     -43.998  42.013  12.474  1.00  0.00    -0.387 OA
ATOM     12  H   UNL     1     -43.839  41.155  12.947  1.00  0.00     0.211 HD
ENDBRANCH   5  11
ENDBRANCH   1   5
BRANCH   1  13
ATOM     13  O   UNL     1     -41.139  42.397  13.138  1.00  0.00    -0.388 OA
ATOM     14  H   UNL     1     -41.220  42.913  13.983  1.00  0.00     0.211 HD
ENDBRANCH   1  13
TORSDOF 8
ENDMDL
MODEL 6
REMARK VINA RESULT:    -4.294      1.529      4.090
REMARK INTER + INTRA:          -6.304
REMARK INTER:                  -6.012
REMARK INTRA:                  -0.292
REMARK UNBOUND:                -0.503
REMARK SMILES O=C[C@H](O)[C@@H](O)[C@H](O)CO
REMARK SMILES IDX 7 1 9 2 10 3 5 5 3 6 2 7 1 8 4 9 6 11 8 13
REMARK H PARENT 10 4 4 10 6 12 8 14
REMARK Flexibility Score: inf
ROOT
ATOM      1  C   UNL     1     -43.332  41.338  10.929  1.00  0.00     0.171 C 
ENDROOT
BRANCH   1   2
ATOM      2  C   UNL     1     -43.823  40.024  11.568  1.00  0.00     0.190 C 
BRANCH   2   3
ATOM      3  O   UNL     1     -44.686  40.294  12.638  1.00  0.00    -0.394 OA
ATOM      4  H   UNL     1     -44.643  39.500  13.233  1.00  0.00     0.210 HD
ENDBRANCH   2   3
ENDBRANCH   1   2
BRANCH   1   5
ATOM      5  C   UNL     1     -41.782  41.484  10.935  1.00  0.00     0.181 C 
BRANCH   5   6
ATOM      6  C   UNL     1     -41.194  41.862  12.321  1.00  0.00     0.209 C 
BRANCH   6   7
ATOM      7  C   UNL     1     -40.825  43.323  12.389  1.00  0.00     0.258 C 
ATOM      8  O   UNL     1     -41.694  44.174  12.485  1.00  0.00    -0.300 OA
ENDBRANCH   6   7
BRANCH   6   9
ATOM      9  O   UNL     1     -40.091  41.055  12.657  1.00  0.00    -0.383 OA
ATOM     10  H   UNL     1     -39.320  41.342  12.103  1.00  0.00     0.211 HD
ENDBRANCH   6   9
ENDBRANCH   5   6
BRANCH   5  11
ATOM     11  O   UNL     1     -41.173  40.315  10.438  1.00  0.00    -0.387 OA
ATOM     12  H   UNL     1     -40.953  40.467   9.482  1.00  0.00     0.211 HD
ENDBRANCH   5  11
ENDBRANCH   1   5
BRANCH   1  13
ATOM     13  O   UNL     1     -43.916  42.432  11.592  1.00  0.00    -0.388 OA
ATOM     14  H   UNL     1     -43.186  42.933  12.043  1.00  0.00     0.211 HD
ENDBRANCH   1  13
TORSDOF 8
ENDMDL
MODEL 7
REMARK VINA RESULT:    -4.204      1.712      2.547
REMARK INTER + INTRA:          -6.182
REMARK INTER:                  -6.241
REMARK INTRA:                   0.058
REMARK UNBOUND:                -0.503
REMARK SMILES O=C[C@H](O)[C@@H](O)[C@H](O)CO
REMARK SMILES IDX 7 1 9 2 10 3 5 5 3 6 2 7 1 8 4 9 6 11 8 13
REMARK H PARENT 10 4 4 10 6 12 8 14
REMARK Flexibility Score: inf
ROOT
ATOM      1  C   UNL     1     -41.296  42.893  11.864  1.00  0.00     0.171 C 
ENDROOT
BRANCH   1   2
ATOM      2  C   UNL     1     -42.788  43.163  12.140  1.00  0.00     0.190 C 
BRANCH   2   3
ATOM      3  O   UNL     1     -43.054  43.084  13.513  1.00  0.00    -0.394 OA
ATOM      4  H   UNL     1     -42.745  42.187  13.802  1.00  0.00     0.210 HD
ENDBRANCH   2   3
ENDBRANCH   1   2
BRANCH   1   5
ATOM      5  C   UNL     1     -41.058  41.828  10.752  1.00  0.00     0.181 C 
BRANCH   5   6
ATOM      6  C   UNL     1     -41.188  40.363  11.250  1.00  0.00     0.209 C 
BRANCH   6   7
ATOM      7  C   UNL     1     -42.632  39.944  11.374  1.00  0.00     0.258 C 
ATOM      8  O   UNL     1     -43.341  39.876  10.382  1.00  0.00    -0.300 OA
ENDBRANCH   6   7
BRANCH   6   9
ATOM      9  O   UNL     1     -40.507  40.163  12.465  1.00  0.00    -0.383 OA
ATOM     10  H   UNL     1     -39.537  40.091  12.265  1.00  0.00     0.211 HD
ENDBRANCH   6   9
ENDBRANCH   5   6
BRANCH   5  11
ATOM     11  O   UNL     1     -41.913  42.059   9.657  1.00  0.00    -0.387 OA
ATOM     12  H   UNL     1     -42.598  41.340   9.647  1.00  0.00     0.211 HD
ENDBRANCH   5  11
ENDBRANCH   1   5
BRANCH   1  13
ATOM     13  O   UNL     1     -40.663  42.488  13.053  1.00  0.00    -0.388 OA
ATOM     14  H   UNL     1     -40.792  43.212  13.721  1.00  0.00     0.211 HD
ENDBRANCH   1  13
TORSDOF 8
ENDMDL
MODEL 8
REMARK VINA RESULT:    -4.060      1.964      3.811
REMARK INTER + INTRA:          -5.988
REMARK INTER:                  -5.259
REMARK INTRA:                  -0.728
REMARK UNBOUND:                -0.503
REMARK SMILES O=C[C@H](O)[C@@H](O)[C@H](O)CO
REMARK SMILES IDX 7 1 9 2 10 3 5 5 3 6 2 7 1 8 4 9 6 11 8 13
REMARK H PARENT 10 4 4 10 6 12 8 14
REMARK Flexibility Score: inf
ROOT
ATOM      1  C   UNL     1     -41.718  41.676  10.645  1.00  0.00     0.171 C 
ENDROOT
BRANCH   1   2
ATOM      2  C   UNL     1     -41.501  40.255  11.199  1.00  0.00     0.190 C 
BRANCH   2   3
ATOM      3  O   UNL     1     -42.579  39.875  12.008  1.00  0.00    -0.394 OA
ATOM      4  H   UNL     1     -42.187  39.396  12.784  1.00  0.00     0.210 HD
ENDBRANCH   2   3
ENDBRANCH   1   2
BRANCH   1   5
ATOM      5  C   UNL     1     -41.619  42.784  11.735  1.00  0.00     0.181 C 
BRANCH   5   6
ATOM      6  C   UNL     1     -42.990  43.391  12.138  1.00  0.00     0.209 C 
BRANCH   6   7
ATOM      7  C   UNL     1     -42.856  44.832  12.565  1.00  0.00     0.258 C 
ATOM      8  O   UNL     1     -41.805  45.428  12.398  1.00  0.00    -0.300 OA
ENDBRANCH   6   7
BRANCH   6   9
ATOM      9  O   UNL     1     -43.621  42.632  13.141  1.00  0.00    -0.383 OA
ATOM     10  H   UNL     1     -44.136  43.253  13.718  1.00  0.00     0.211 HD
ENDBRANCH   6   9
ENDBRANCH   5   6
BRANCH   5  11
ATOM     11  O   UNL     1     -40.936  42.302  12.869  1.00  0.00    -0.387 OA
ATOM     12  H   UNL     1     -41.486  42.509  13.668  1.00  0.00     0.211 HD
ENDBRANCH   5  11
ENDBRANCH   1   5
BRANCH   1  13
ATOM     13  O   UNL     1     -42.970  41.747  10.007  1.00  0.00    -0.388 OA
ATOM     14  H   UNL     1     -43.567  41.086  10.446  1.00  0.00     0.211 HD
ENDBRANCH   1  13
TORSDOF 8
ENDMDL
MODEL 9
REMARK VINA RESULT:    -3.955      1.682      3.535
REMARK INTER + INTRA:          -5.845
REMARK INTER:                  -5.619
REMARK INTRA:                  -0.226
REMARK UNBOUND:                -0.503
REMARK SMILES O=C[C@H](O)[C@@H](O)[C@H](O)CO
REMARK SMILES IDX 7 1 9 2 10 3 5 5 3 6 2 7 1 8 4 9 6 11 8 13
REMARK H PARENT 10 4 4 10 6 12 8 14
REMARK Flexibility Score: inf
ROOT
ATOM      1  C   UNL     1     -43.505  41.611  11.865  1.00  0.00     0.171 C 
ENDROOT
BRANCH   1   2
ATOM      2  C   UNL     1     -43.481  43.086  12.311  1.00  0.00     0.190 C 
BRANCH   2   3
ATOM      3  O   UNL     1     -42.789  43.221  13.521  1.00  0.00    -0.394 OA
ATOM      4  H   UNL     1     -43.233  43.960  14.012  1.00  0.00     0.210 HD
ENDBRANCH   2   3
ENDBRANCH   1   2
BRANCH   1   5
ATOM      5  C   UNL     1     -42.849  41.378  10.472  1.00  0.00     0.181 C 
BRANCH   5   6
ATOM      6  C   UNL     1     -41.331  41.057  10.540  1.00  0.00     0.209 C 
BRANCH   6   7
ATOM      7  C   UNL     1     -40.937  40.518  11.893  1.00  0.00     0.258 C 
ATOM      8  O   UNL     1     -40.105  41.101  12.569  1.00  0.00    -0.300 OA
ENDBRANCH   6   7
BRANCH   6   9
ATOM      9  O   UNL     1     -40.546  42.176  10.203  1.00  0.00    -0.383 OA
ATOM     10  H   UNL     1     -41.024  42.990  10.510  1.00  0.00     0.211 HD
ENDBRANCH   6   9
ENDBRANCH   5   6
BRANCH   5  11
ATOM     11  O   UNL     1     -43.538  40.374   9.764  1.00  0.00    -0.387 OA
ATOM     12  H   UNL     1     -44.445  40.290  10.157  1.00  0.00     0.211 HD
ENDBRANCH   5  11
ENDBRANCH   1   5
BRANCH   1  13
ATOM     13  O   UNL     1     -44.832  41.145  11.850  1.00  0.00    -0.388 OA
ATOM     14  H   UNL     1     -45.178  41.197  12.780  1.00  0.00     0.211 HD
ENDBRANCH   1  13
TORSDOF 8
ENDMDL
