MODEL 1
REMARK VINA RESULT:    -6.365      0.000      0.000
REMARK INTER + INTRA:          -7.786
REMARK INTER:                  -7.482
REMARK INTRA:                  -0.305
REMARK UNBOUND:                -0.305
REMARK SMILES O=c1cc(-c2ccc(O)c(O)c2)oc2cc(O)cc(O)c12
REMARK SMILES IDX 4 1 3 2 2 3 1 4 21 5 19 6 18 7 16 8 15 9 14 10 13 11 5 12
REMARK SMILES IDX 6 13 7 14 8 15 12 16 10 17 9 18 11 20 20 22 17 24
REMARK H PARENT 9 19 11 21 20 23 17 25
REMARK Flexibility Score: inf
ROOT
ATOM      1  C   UNL     1      21.301  40.126   5.220  1.00  0.00     0.138 A 
ATOM      2  C   UNL     1      21.321  40.889   6.395  1.00  0.00     0.100 A 
ATOM      3  C   UNL     1      21.505  40.257   7.626  1.00  0.00     0.197 A 
ATOM      4  O   UNL     1      21.456  40.960   8.669  1.00  0.00    -0.289 OA
ATOM      5  C   UNL     1      21.701  38.856   7.676  1.00  0.00     0.107 A 
ATOM      6  C   UNL     1      21.938  38.111   8.869  1.00  0.00     0.134 A 
ATOM      7  C   UNL     1      22.001  36.713   8.807  1.00  0.00     0.093 A 
ATOM      8  C   UNL     1      21.896  36.039   7.588  1.00  0.00     0.123 A 
ATOM      9  C   UNL     1      21.719  36.762   6.411  1.00  0.00     0.094 A 
ATOM     10  C   UNL     1      21.617  38.155   6.444  1.00  0.00     0.146 A 
ATOM     11  O   UNL     1      21.433  38.805   5.299  1.00  0.00    -0.456 OA
ENDROOT
BRANCH   1  12
ATOM     12  C   UNL     1      21.111  40.747   3.885  1.00  0.00     0.021 A 
ATOM     13  C   UNL     1      21.589  42.046   3.654  1.00  0.00     0.016 A 
ATOM     14  C   UNL     1      21.417  42.653   2.409  1.00  0.00     0.051 A 
ATOM     15  C   UNL     1      20.758  41.985   1.372  1.00  0.00     0.157 A 
ATOM     16  C   UNL     1      20.435  40.078   2.848  1.00  0.00     0.062 A 
ATOM     17  C   UNL     1      20.256  40.682   1.596  1.00  0.00     0.158 A 
BRANCH  15  18
ATOM     18  O   UNL     1      20.625  42.647   0.150  1.00  0.00    -0.504 OA
ATOM     19  H   UNL     1      20.684  43.650   0.043  1.00  0.00     0.293 HD
ENDBRANCH  15  18
BRANCH  17  20
ATOM     20  O   UNL     1      19.574  39.958   0.615  1.00  0.00    -0.504 OA
ATOM     21  H   UNL     1      18.816  39.321   0.809  1.00  0.00     0.293 HD
ENDBRANCH  17  20
ENDBRANCH   1  12
BRANCH   6  22
ATOM     22  O   UNL     1      22.142  38.689  10.125  1.00  0.00    -0.507 OA
ATOM     23  H   UNL     1      22.420  38.187  10.954  1.00  0.00     0.293 HD
ENDBRANCH   6  22
BRANCH   8  24
ATOM     24  O   UNL     1      21.976  34.649   7.535  1.00  0.00    -0.508 OA
ATOM     25  H   UNL     1      22.740  34.179   7.063  1.00  0.00     0.293 HD
ENDBRANCH   8  24
TORSDOF 5
ENDMDL
MODEL 2
REMARK VINA RESULT:    -6.247      3.735      6.788
REMARK INTER + INTRA:          -7.648
REMARK INTER:                  -7.351
REMARK INTRA:                  -0.297
REMARK UNBOUND:                -0.305
REMARK SMILES O=c1cc(-c2ccc(O)c(O)c2)oc2cc(O)cc(O)c12
REMARK SMILES IDX 4 1 3 2 2 3 1 4 21 5 19 6 18 7 16 8 15 9 14 10 13 11 5 12
REMARK SMILES IDX 6 13 7 14 8 15 12 16 10 17 9 18 11 20 20 22 17 24
REMARK H PARENT 9 19 11 21 20 23 17 25
REMARK Flexibility Score: inf
ROOT
ATOM      1  C   UNL     1      18.846  40.938   6.233  1.00  0.00     0.138 A 
ATOM      2  C   UNL     1      19.578  39.752   6.373  1.00  0.00     0.100 A 
ATOM      3  C   UNL     1      20.543  39.419   5.422  1.00  0.00     0.197 A 
ATOM      4  O   UNL     1      21.140  38.317   5.540  1.00  0.00    -0.289 OA
ATOM      5  C   UNL     1      20.798  40.297   4.341  1.00  0.00     0.107 A 
ATOM      6  C   UNL     1      21.786  40.082   3.335  1.00  0.00     0.134 A 
ATOM      7  C   UNL     1      21.867  40.962   2.249  1.00  0.00     0.093 A 
ATOM      8  C   UNL     1      21.038  42.083   2.166  1.00  0.00     0.123 A 
ATOM      9  C   UNL     1      20.107  42.331   3.172  1.00  0.00     0.094 A 
ATOM     10  C   UNL     1      19.977  41.453   4.249  1.00  0.00     0.146 A 
ATOM     11  O   UNL     1      19.067  41.719   5.180  1.00  0.00    -0.456 OA
ENDROOT
BRANCH   1  12
ATOM     12  C   UNL     1      17.809  41.341   7.217  1.00  0.00     0.021 A 
ATOM     13  C   UNL     1      18.042  41.141   8.586  1.00  0.00     0.016 A 
ATOM     14  C   UNL     1      17.081  41.506   9.530  1.00  0.00     0.051 A 
ATOM     15  C   UNL     1      15.864  42.067   9.130  1.00  0.00     0.157 A 
ATOM     16  C   UNL     1      16.579  41.893   6.812  1.00  0.00     0.062 A 
ATOM     17  C   UNL     1      15.608  42.258   7.752  1.00  0.00     0.158 A 
BRANCH  15  18
ATOM     18  O   UNL     1      14.948  42.415  10.125  1.00  0.00    -0.504 OA
ATOM     19  H   UNL     1      15.195  42.907  10.972  1.00  0.00     0.293 HD
ENDBRANCH  15  18
BRANCH  17  20
ATOM     20  O   UNL     1      14.411  42.798   7.276  1.00  0.00    -0.504 OA
ATOM     21  H   UNL     1      13.537  42.768   7.782  1.00  0.00     0.293 HD
ENDBRANCH  17  20
ENDBRANCH   1  12
BRANCH   6  22
ATOM     22  O   UNL     1      22.719  39.042   3.366  1.00  0.00    -0.507 OA
ATOM     23  H   UNL     1      23.696  39.150   3.592  1.00  0.00     0.293 HD
ENDBRANCH   6  22
BRANCH   8  24
ATOM     24  O   UNL     1      21.138  42.963   1.089  1.00  0.00    -0.508 OA
ATOM     25  H   UNL     1      21.676  42.731   0.263  1.00  0.00     0.293 HD
ENDBRANCH   8  24
TORSDOF 5
ENDMDL
MODEL 3
REMARK VINA RESULT:    -6.137      4.087      6.318
REMARK INTER + INTRA:          -7.518
REMARK INTER:                  -7.223
REMARK INTRA:                  -0.294
REMARK UNBOUND:                -0.305
REMARK SMILES O=c1cc(-c2ccc(O)c(O)c2)oc2cc(O)cc(O)c12
REMARK SMILES IDX 4 1 3 2 2 3 1 4 21 5 19 6 18 7 16 8 15 9 14 10 13 11 5 12
REMARK SMILES IDX 6 13 7 14 8 15 12 16 10 17 9 18 11 20 20 22 17 24
REMARK H PARENT 9 19 11 21 20 23 17 25
REMARK Flexibility Score: inf
ROOT
ATOM      1  C   UNL     1      18.375  41.413   6.039  1.00  0.00     0.138 A 
ATOM      2  C   UNL     1      18.568  42.176   4.880  1.00  0.00     0.100 A 
ATOM      3  C   UNL     1      19.519  41.776   3.940  1.00  0.00     0.197 A 
ATOM      4  O   UNL     1      19.714  42.515   2.940  1.00  0.00    -0.289 OA
ATOM      5  C   UNL     1      20.257  40.587   4.149  1.00  0.00     0.107 A 
ATOM      6  C   UNL     1      21.222  40.059   3.240  1.00  0.00     0.134 A 
ATOM      7  C   UNL     1      21.975  38.937   3.608  1.00  0.00     0.093 A 
ATOM      8  C   UNL     1      21.754  38.288   4.824  1.00  0.00     0.123 A 
ATOM      9  C   UNL     1      20.775  38.763   5.695  1.00  0.00     0.094 A 
ATOM     10  C   UNL     1      20.033  39.901   5.372  1.00  0.00     0.146 A 
ATOM     11  O   UNL     1      19.119  40.329   6.237  1.00  0.00    -0.456 OA
ENDROOT
BRANCH   1  12
ATOM     12  C   UNL     1      17.376  41.792   7.070  1.00  0.00     0.021 A 
ATOM     13  C   UNL     1      17.460  41.228   8.353  1.00  0.00     0.016 A 
ATOM     14  C   UNL     1      16.529  41.564   9.337  1.00  0.00     0.051 A 
ATOM     15  C   UNL     1      15.490  42.459   9.063  1.00  0.00     0.157 A 
ATOM     16  C   UNL     1      16.324  42.683   6.788  1.00  0.00     0.062 A 
ATOM     17  C   UNL     1      15.383  43.022   7.770  1.00  0.00     0.158 A 
BRANCH  15  18
ATOM     18  O   UNL     1      14.596  42.757  10.094  1.00  0.00    -0.504 OA
ATOM     19  H   UNL     1      13.672  43.137   9.947  1.00  0.00     0.293 HD
ENDBRANCH  15  18
BRANCH  17  20
ATOM     20  O   UNL     1      14.365  43.911   7.417  1.00  0.00    -0.504 OA
ATOM     21  H   UNL     1      13.862  44.484   8.079  1.00  0.00     0.293 HD
ENDBRANCH  17  20
ENDBRANCH   1  12
BRANCH   6  22
ATOM     22  O   UNL     1      21.462  40.581   1.965  1.00  0.00    -0.507 OA
ATOM     23  H   UNL     1      21.158  40.157   1.102  1.00  0.00     0.293 HD
ENDBRANCH   6  22
BRANCH   8  24
ATOM     24  O   UNL     1      22.497  37.161   5.174  1.00  0.00    -0.508 OA
ATOM     25  H   UNL     1      23.408  36.981   4.771  1.00  0.00     0.293 HD
ENDBRANCH   8  24
TORSDOF 5
ENDMDL
MODEL 4
REMARK VINA RESULT:    -6.083      3.878      5.771
REMARK INTER + INTRA:          -7.455
REMARK INTER:                  -7.183
REMARK INTRA:                  -0.272
REMARK UNBOUND:                -0.305
REMARK SMILES O=c1cc(-c2ccc(O)c(O)c2)oc2cc(O)cc(O)c12
REMARK SMILES IDX 4 1 3 2 2 3 1 4 21 5 19 6 18 7 16 8 15 9 14 10 13 11 5 12
REMARK SMILES IDX 6 13 7 14 8 15 12 16 10 17 9 18 11 20 20 22 17 24
REMARK H PARENT 9 19 11 21 20 23 17 25
REMARK Flexibility Score: inf
ROOT
ATOM      1  C   UNL     1      18.751  40.994   6.604  1.00  0.00     0.138 A 
ATOM      2  C   UNL     1      18.979  41.323   5.261  1.00  0.00     0.100 A 
ATOM      3  C   UNL     1      19.841  40.537   4.495  1.00  0.00     0.197 A 
ATOM      4  O   UNL     1      20.075  40.893   3.310  1.00  0.00    -0.289 OA
ATOM      5  C   UNL     1      20.452  39.397   5.069  1.00  0.00     0.107 A 
ATOM      6  C   UNL     1      21.315  38.500   4.373  1.00  0.00     0.134 A 
ATOM      7  C   UNL     1      21.954  37.471   5.077  1.00  0.00     0.093 A 
ATOM      8  C   UNL     1      21.713  37.272   6.438  1.00  0.00     0.123 A 
ATOM      9  C   UNL     1      20.830  38.109   7.115  1.00  0.00     0.094 A 
ATOM     10  C   UNL     1      20.204  39.165   6.449  1.00  0.00     0.146 A 
ATOM     11  O   UNL     1      19.380  39.950   7.134  1.00  0.00    -0.456 OA
ENDROOT
BRANCH   1  12
ATOM     12  C   UNL     1      17.843  41.795   7.464  1.00  0.00     0.021 A 
ATOM     13  C   UNL     1      18.321  42.312   8.678  1.00  0.00     0.016 A 
ATOM     14  C   UNL     1      17.485  43.063   9.506  1.00  0.00     0.051 A 
ATOM     15  C   UNL     1      16.154  43.305   9.149  1.00  0.00     0.157 A 
ATOM     16  C   UNL     1      16.501  42.026   7.109  1.00  0.00     0.062 A 
ATOM     17  C   UNL     1      15.655  42.775   7.936  1.00  0.00     0.158 A 
BRANCH  15  18
ATOM     18  O   UNL     1      15.373  44.068  10.019  1.00  0.00    -0.504 OA
ATOM     19  H   UNL     1      14.507  44.515   9.755  1.00  0.00     0.293 HD
ENDBRANCH  15  18
BRANCH  17  20
ATOM     20  O   UNL     1      14.335  42.962   7.520  1.00  0.00    -0.504 OA
ATOM     21  H   UNL     1      13.532  42.584   8.002  1.00  0.00     0.293 HD
ENDBRANCH  17  20
ENDBRANCH   1  12
BRANCH   6  22
ATOM     22  O   UNL     1      21.558  38.558   2.997  1.00  0.00    -0.507 OA
ATOM     23  H   UNL     1      21.238  39.294   2.386  1.00  0.00     0.293 HD
ENDBRANCH   6  22
BRANCH   8  24
ATOM     24  O   UNL     1      22.342  36.235   7.127  1.00  0.00    -0.508 OA
ATOM     25  H   UNL     1      21.903  35.783   7.920  1.00  0.00     0.293 HD
ENDBRANCH   8  24
TORSDOF 5
ENDMDL
MODEL 5
REMARK VINA RESULT:    -6.020      1.506      6.739
REMARK INTER + INTRA:          -7.380
REMARK INTER:                  -7.062
REMARK INTRA:                  -0.318
REMARK UNBOUND:                -0.305
REMARK SMILES O=c1cc(-c2ccc(O)c(O)c2)oc2cc(O)cc(O)c12
REMARK SMILES IDX 4 1 3 2 2 3 1 4 21 5 19 6 18 7 16 8 15 9 14 10 13 11 5 12
REMARK SMILES IDX 6 13 7 14 8 15 12 16 10 17 9 18 11 20 20 22 17 24
REMARK H PARENT 9 19 11 21 20 23 17 25
REMARK Flexibility Score: inf
ROOT
ATOM      1  C   UNL     1      21.401  39.632   6.605  1.00  0.00     0.138 A 
ATOM      2  C   UNL     1      21.499  40.948   7.075  1.00  0.00     0.100 A 
ATOM      3  C   UNL     1      21.269  42.012   6.202  1.00  0.00     0.197 A 
ATOM      4  O   UNL     1      21.426  43.183   6.637  1.00  0.00    -0.289 OA
ATOM      5  C   UNL     1      20.906  41.755   4.859  1.00  0.00     0.107 A 
ATOM      6  C   UNL     1      20.608  42.759   3.890  1.00  0.00     0.134 A 
ATOM      7  C   UNL     1      20.375  42.387   2.560  1.00  0.00     0.093 A 
ATOM      8  C   UNL     1      20.370  41.044   2.178  1.00  0.00     0.123 A 
ATOM      9  C   UNL     1      20.607  40.052   3.127  1.00  0.00     0.094 A 
ATOM     10  C   UNL     1      20.877  40.393   4.454  1.00  0.00     0.146 A 
ATOM     11  O   UNL     1      21.112  39.418   5.325  1.00  0.00    -0.456 OA
ENDROOT
BRANCH   1  12
ATOM     12  C   UNL     1      21.634  38.464   7.491  1.00  0.00     0.021 A 
ATOM     13  C   UNL     1      21.877  38.671   8.858  1.00  0.00     0.016 A 
ATOM     14  C   UNL     1      22.105  37.590   9.710  1.00  0.00     0.051 A 
ATOM     15  C   UNL     1      22.105  36.280   9.218  1.00  0.00     0.157 A 
ATOM     16  C   UNL     1      21.647  37.148   6.992  1.00  0.00     0.062 A 
ATOM     17  C   UNL     1      21.878  36.057   7.840  1.00  0.00     0.158 A 
BRANCH  15  18
ATOM     18  O   UNL     1      22.334  35.243  10.125  1.00  0.00    -0.504 OA
ATOM     19  H   UNL     1      23.010  35.288  10.874  1.00  0.00     0.293 HD
ENDBRANCH  15  18
BRANCH  17  20
ATOM     20  O   UNL     1      21.879  34.780   7.274  1.00  0.00    -0.504 OA
ATOM     21  H   UNL     1      22.664  34.146   7.312  1.00  0.00     0.293 HD
ENDBRANCH  17  20
ENDBRANCH   1  12
BRANCH   6  22
ATOM     22  O   UNL     1      20.504  44.121   4.184  1.00  0.00    -0.507 OA
ATOM     23  H   UNL     1      21.007  44.593   4.921  1.00  0.00     0.293 HD
ENDBRANCH   6  22
BRANCH   8  24
ATOM     24  O   UNL     1      20.122  40.682   0.854  1.00  0.00    -0.508 OA
ATOM     25  H   UNL     1      19.699  39.793   0.618  1.00  0.00     0.293 HD
ENDBRANCH   8  24
TORSDOF 5
ENDMDL
MODEL 6
REMARK VINA RESULT:    -5.905      2.824      7.070
REMARK INTER + INTRA:          -7.246
REMARK INTER:                  -6.980
REMARK INTRA:                  -0.266
REMARK UNBOUND:                -0.305
REMARK SMILES O=c1cc(-c2ccc(O)c(O)c2)oc2cc(O)cc(O)c12
REMARK SMILES IDX 4 1 3 2 2 3 1 4 21 5 19 6 18 7 16 8 15 9 14 10 13 11 5 12
REMARK SMILES IDX 6 13 7 14 8 15 12 16 10 17 9 18 11 20 20 22 17 24
REMARK H PARENT 9 19 11 21 20 23 17 25
REMARK Flexibility Score: inf
ROOT
ATOM      1  C   UNL     1      20.522  39.380   6.713  1.00  0.00     0.138 A 
ATOM      2  C   UNL     1      20.978  39.722   5.432  1.00  0.00     0.100 A 
ATOM      3  C   UNL     1      20.285  40.675   4.684  1.00  0.00     0.197 A 
ATOM      4  O   UNL     1      20.681  40.915   3.514  1.00  0.00    -0.289 OA
ATOM      5  C   UNL     1      19.147  41.311   5.236  1.00  0.00     0.107 A 
ATOM      6  C   UNL     1      18.387  42.326   4.582  1.00  0.00     0.134 A 
ATOM      7  C   UNL     1      17.212  42.799   5.179  1.00  0.00     0.093 A 
ATOM      8  C   UNL     1      16.804  42.339   6.433  1.00  0.00     0.123 A 
ATOM      9  C   UNL     1      17.569  41.387   7.103  1.00  0.00     0.094 A 
ATOM     10  C   UNL     1      18.727  40.870   6.519  1.00  0.00     0.146 A 
ATOM     11  O   UNL     1      19.420  39.953   7.186  1.00  0.00    -0.456 OA
ENDROOT
BRANCH   1  12
ATOM     12  C   UNL     1      21.223  38.375   7.551  1.00  0.00     0.021 A 
ATOM     13  C   UNL     1      21.864  38.786   8.730  1.00  0.00     0.016 A 
ATOM     14  C   UNL     1      22.534  37.861   9.533  1.00  0.00     0.051 A 
ATOM     15  C   UNL     1      22.588  36.510   9.173  1.00  0.00     0.157 A 
ATOM     16  C   UNL     1      21.288  37.019   7.181  1.00  0.00     0.062 A 
ATOM     17  C   UNL     1      21.961  36.085   7.979  1.00  0.00     0.158 A 
BRANCH  15  18
ATOM     18  O   UNL     1      23.270  35.636  10.023  1.00  0.00    -0.504 OA
ATOM     19  H   UNL     1      22.928  34.722  10.284  1.00  0.00     0.293 HD
ENDBRANCH  15  18
BRANCH  17  20
ATOM     20  O   UNL     1      21.986  34.757   7.547  1.00  0.00    -0.504 OA
ATOM     21  H   UNL     1      22.577  34.416   6.802  1.00  0.00     0.293 HD
ENDBRANCH  17  20
ENDBRANCH   1  12
BRANCH   6  22
ATOM     22  O   UNL     1      18.751  42.915   3.368  1.00  0.00    -0.507 OA
ATOM     23  H   UNL     1      19.467  42.566   2.749  1.00  0.00     0.293 HD
ENDBRANCH   6  22
BRANCH   8  24
ATOM     24  O   UNL     1      15.641  42.828   7.026  1.00  0.00    -0.508 OA
ATOM     25  H   UNL     1      15.441  43.820   7.062  1.00  0.00     0.293 HD
ENDBRANCH   8  24
TORSDOF 5
ENDMDL
MODEL 7
REMARK VINA RESULT:    -5.698      1.576      3.063
REMARK INTER + INTRA:          -7.002
REMARK INTER:                  -6.708
REMARK INTRA:                  -0.294
REMARK UNBOUND:                -0.305
REMARK SMILES O=c1cc(-c2ccc(O)c(O)c2)oc2cc(O)cc(O)c12
REMARK SMILES IDX 4 1 3 2 2 3 1 4 21 5 19 6 18 7 16 8 15 9 14 10 13 11 5 12
REMARK SMILES IDX 6 13 7 14 8 15 12 16 10 17 9 18 11 20 20 22 17 24
REMARK H PARENT 9 19 11 21 20 23 17 25
REMARK Flexibility Score: inf
ROOT
ATOM      1  C   UNL     1      20.875  40.174   4.192  1.00  0.00     0.138 A 
ATOM      2  C   UNL     1      21.096  38.836   3.842  1.00  0.00     0.100 A 
ATOM      3  C   UNL     1      21.356  37.895   4.840  1.00  0.00     0.197 A 
ATOM      4  O   UNL     1      21.613  36.713   4.491  1.00  0.00    -0.289 OA
ATOM      5  C   UNL     1      21.363  38.293   6.198  1.00  0.00     0.107 A 
ATOM      6  C   UNL     1      21.576  37.415   7.302  1.00  0.00     0.134 A 
ATOM      7  C   UNL     1      21.677  37.943   8.594  1.00  0.00     0.093 A 
ATOM      8  C   UNL     1      21.512  39.310   8.829  1.00  0.00     0.123 A 
ATOM      9  C   UNL     1      21.250  40.169   7.764  1.00  0.00     0.094 A 
ATOM     10  C   UNL     1      21.179  39.677   6.459  1.00  0.00     0.146 A 
ATOM     11  O   UNL     1      20.941  40.533   5.470  1.00  0.00    -0.456 OA
ENDROOT
BRANCH   1  12
ATOM     12  C   UNL     1      20.593  41.215   3.171  1.00  0.00     0.021 A 
ATOM     13  C   UNL     1      21.349  41.246   1.989  1.00  0.00     0.016 A 
ATOM     14  C   UNL     1      21.106  42.218   1.017  1.00  0.00     0.051 A 
ATOM     15  C   UNL     1      20.113  43.185   1.206  1.00  0.00     0.157 A 
ATOM     16  C   UNL     1      19.603  42.195   3.369  1.00  0.00     0.062 A 
ATOM     17  C   UNL     1      19.355  43.176   2.400  1.00  0.00     0.158 A 
BRANCH  15  18
ATOM     18  O   UNL     1      19.917  44.125   0.192  1.00  0.00    -0.504 OA
ATOM     19  H   UNL     1      19.905  45.124   0.344  1.00  0.00     0.293 HD
ENDBRANCH  15  18
BRANCH  17  20
ATOM     20  O   UNL     1      18.358  44.118   2.666  1.00  0.00    -0.504 OA
ATOM     21  H   UNL     1      17.369  43.913   2.650  1.00  0.00     0.293 HD
ENDBRANCH  17  20
ENDBRANCH   1  12
BRANCH   6  22
ATOM     22  O   UNL     1      21.670  36.025   7.187  1.00  0.00    -0.507 OA
ATOM     23  H   UNL     1      22.471  35.528   6.826  1.00  0.00     0.293 HD
ENDBRANCH   6  22
BRANCH   8  24
ATOM     24  O   UNL     1      21.598  39.825  10.122  1.00  0.00    -0.508 OA
ATOM     25  H   UNL     1      20.874  40.420  10.505  1.00  0.00     0.293 HD
ENDBRANCH   8  24
TORSDOF 5
ENDMDL
MODEL 8
REMARK VINA RESULT:    -5.638      1.950      7.002
REMARK INTER + INTRA:          -6.932
REMARK INTER:                  -6.666
REMARK INTRA:                  -0.266
REMARK UNBOUND:                -0.305
REMARK SMILES O=c1cc(-c2ccc(O)c(O)c2)oc2cc(O)cc(O)c12
REMARK SMILES IDX 4 1 3 2 2 3 1 4 21 5 19 6 18 7 16 8 15 9 14 10 13 11 5 12
REMARK SMILES IDX 6 13 7 14 8 15 12 16 10 17 9 18 11 20 20 22 17 24
REMARK H PARENT 9 19 11 21 20 23 17 25
REMARK Flexibility Score: inf
ROOT
ATOM      1  C   UNL     1      20.706  39.615   6.227  1.00  0.00     0.138 A 
ATOM      2  C   UNL     1      19.579  40.282   6.725  1.00  0.00     0.100 A 
ATOM      3  C   UNL     1      18.999  41.310   5.979  1.00  0.00     0.197 A 
ATOM      4  O   UNL     1      18.027  41.933   6.480  1.00  0.00    -0.289 OA
ATOM      5  C   UNL     1      19.533  41.648   4.713  1.00  0.00     0.107 A 
ATOM      6  C   UNL     1      19.000  42.649   3.847  1.00  0.00     0.134 A 
ATOM      7  C   UNL     1      19.683  42.976   2.669  1.00  0.00     0.093 A 
ATOM      8  C   UNL     1      20.845  42.296   2.296  1.00  0.00     0.123 A 
ATOM      9  C   UNL     1      21.343  41.280   3.108  1.00  0.00     0.094 A 
ATOM     10  C   UNL     1      20.705  40.954   4.307  1.00  0.00     0.146 A 
ATOM     11  O   UNL     1      21.220  39.988   5.059  1.00  0.00    -0.456 OA
ENDROOT
BRANCH   1  12
ATOM     12  C   UNL     1      21.361  38.514   6.978  1.00  0.00     0.021 A 
ATOM     13  C   UNL     1      21.314  37.208   6.468  1.00  0.00     0.016 A 
ATOM     14  C   UNL     1      21.917  36.155   7.158  1.00  0.00     0.051 A 
ATOM     15  C   UNL     1      22.570  36.379   8.375  1.00  0.00     0.157 A 
ATOM     16  C   UNL     1      22.006  38.740   8.208  1.00  0.00     0.062 A 
ATOM     17  C   UNL     1      22.610  37.688   8.909  1.00  0.00     0.158 A 
BRANCH  15  18
ATOM     18  O   UNL     1      23.157  35.284   9.011  1.00  0.00    -0.504 OA
ATOM     19  H   UNL     1      23.873  35.360   9.720  1.00  0.00     0.293 HD
ENDBRANCH  15  18
BRANCH  17  20
ATOM     20  O   UNL     1      23.230  37.987  10.125  1.00  0.00    -0.504 OA
ATOM     21  H   UNL     1      22.822  38.575  10.837  1.00  0.00     0.293 HD
ENDBRANCH  17  20
ENDBRANCH   1  12
BRANCH   6  22
ATOM     22  O   UNL     1      17.802  43.328   4.083  1.00  0.00    -0.507 OA
ATOM     23  H   UNL     1      17.318  43.355   4.968  1.00  0.00     0.293 HD
ENDBRANCH   6  22
BRANCH   8  24
ATOM     24  O   UNL     1      21.508  42.618   1.113  1.00  0.00    -0.508 OA
ATOM     25  H   UNL     1      21.430  43.537   0.695  1.00  0.00     0.293 HD
ENDBRANCH   8  24
TORSDOF 5
ENDMDL
MODEL 9
REMARK VINA RESULT:    -5.384      1.919      2.839
REMARK INTER + INTRA:          -6.633
REMARK INTER:                  -6.314
REMARK INTRA:                  -0.318
REMARK UNBOUND:                -0.305
REMARK SMILES O=c1cc(-c2ccc(O)c(O)c2)oc2cc(O)cc(O)c12
REMARK SMILES IDX 4 1 3 2 2 3 1 4 21 5 19 6 18 7 16 8 15 9 14 10 13 11 5 12
REMARK SMILES IDX 6 13 7 14 8 15 12 16 10 17 9 18 11 20 20 22 17 24
REMARK H PARENT 9 19 11 21 20 23 17 25
REMARK Flexibility Score: inf
ROOT
ATOM      1  C   UNL     1      20.435  41.657   2.994  1.00  0.00     0.138 A 
ATOM      2  C   UNL     1      20.438  42.500   4.113  1.00  0.00     0.100 A 
ATOM      3  C   UNL     1      20.709  41.969   5.376  1.00  0.00     0.197 A 
ATOM      4  O   UNL     1      20.643  42.738   6.370  1.00  0.00    -0.289 OA
ATOM      5  C   UNL     1      21.012  40.594   5.511  1.00  0.00     0.107 A 
ATOM      6  C   UNL     1      21.344  39.952   6.741  1.00  0.00     0.134 A 
ATOM      7  C   UNL     1      21.510  38.561   6.770  1.00  0.00     0.093 A 
ATOM      8  C   UNL     1      21.415  37.799   5.604  1.00  0.00     0.123 A 
ATOM      9  C   UNL     1      21.144  38.424   4.389  1.00  0.00     0.094 A 
ATOM     10  C   UNL     1      20.939  39.804   4.332  1.00  0.00     0.146 A 
ATOM     11  O   UNL     1      20.669  40.359   3.155  1.00  0.00    -0.456 OA
ENDROOT
BRANCH   1  12
ATOM     12  C   UNL     1      20.154  42.169   1.629  1.00  0.00     0.021 A 
ATOM     13  C   UNL     1      19.972  43.547   1.432  1.00  0.00     0.016 A 
ATOM     14  C   UNL     1      19.701  44.051   0.159  1.00  0.00     0.051 A 
ATOM     15  C   UNL     1      19.596  43.195  -0.942  1.00  0.00     0.157 A 
ATOM     16  C   UNL     1      20.035  41.304   0.525  1.00  0.00     0.062 A 
ATOM     17  C   UNL     1      19.760  41.802  -0.756  1.00  0.00     0.158 A 
BRANCH  15  18
ATOM     18  O   UNL     1      19.329  43.765  -2.189  1.00  0.00    -0.504 OA
ATOM     19  H   UNL     1      20.036  43.957  -2.884  1.00  0.00     0.293 HD
ENDBRANCH  15  18
BRANCH  17  20
ATOM     20  O   UNL     1      19.654  40.885  -1.803  1.00  0.00    -0.504 OA
ATOM     21  H   UNL     1      19.262  41.103  -2.707  1.00  0.00     0.293 HD
ENDBRANCH  17  20
ENDBRANCH   1  12
BRANCH   6  22
ATOM     22  O   UNL     1      21.546  40.629   7.946  1.00  0.00    -0.507 OA
ATOM     23  H   UNL     1      20.833  40.799   8.639  1.00  0.00     0.293 HD
ENDBRANCH   6  22
BRANCH   8  24
ATOM     24  O   UNL     1      21.597  36.417   5.641  1.00  0.00    -0.508 OA
ATOM     25  H   UNL     1      20.812  35.778   5.623  1.00  0.00     0.293 HD
ENDBRANCH   8  24
TORSDOF 5
ENDMDL
