MODEL 1
REMARK VINA RESULT:    -3.387      0.000      0.000
REMARK INTER + INTRA:         -11.088
REMARK INTER:                  -7.347
REMARK INTRA:                  -3.742
REMARK UNBOUND:                -3.742
REMARK SMILES CCCCCCCCCCCCCCCCCCCCCC(=O)[O-]
REMARK SMILES IDX 12 1 11 2 10 3 9 4 8 5 7 6 6 7 5 8 4 9 3 10 2 11 1 12 13 13
REMARK SMILES IDX 14 14 15 15 16 16 17 17 18 18 19 19 20 20 21 21 22 22 23 23
REMARK SMILES IDX 24 24
REMARK H PARENT
REMARK Flexibility Score: inf
ROOT
ATOM      1  C   UNL     1      12.634  -3.920 -23.726  1.00  0.00     0.000 C 
ENDROOT
BRANCH   1   2
ATOM      2  C   UNL     1      13.553  -4.050 -22.494  1.00  0.00     0.000 C 
BRANCH   2   3
ATOM      3  C   UNL     1      13.601  -5.471 -21.908  1.00  0.00     0.000 C 
BRANCH   3   4
ATOM      4  C   UNL     1      13.409  -5.499 -20.386  1.00  0.00    -0.000 C 
BRANCH   4   5
ATOM      5  C   UNL     1      12.050  -6.110 -20.012  1.00  0.00    -0.000 C 
BRANCH   5   6
ATOM      6  C   UNL     1      11.304  -6.694 -21.223  1.00  0.00    -0.000 C 
BRANCH   6   7
ATOM      7  C   UNL     1       9.957  -6.020 -21.546  1.00  0.00    -0.000 C 
BRANCH   7   8
ATOM      8  C   UNL     1       9.762  -4.648 -20.865  1.00  0.00    -0.000 C 
BRANCH   8   9
ATOM      9  C   UNL     1       9.391  -3.539 -21.866  1.00  0.00    -0.000 C 
BRANCH   9  10
ATOM     10  C   UNL     1      10.097  -2.204 -21.544  1.00  0.00    -0.000 C 
BRANCH  10  11
ATOM     11  C   UNL     1      11.140  -2.317 -20.420  1.00  0.00    -0.003 C 
ATOM     12  C   UNL     1      11.034  -1.194 -19.390  1.00  0.00     0.004 C 
ENDBRANCH  10  11
ENDBRANCH   9  10
ENDBRANCH   8   9
ENDBRANCH   7   8
ENDBRANCH   6   7
ENDBRANCH   5   6
ENDBRANCH   4   5
ENDBRANCH   3   4
ENDBRANCH   2   3
ENDBRANCH   1   2
BRANCH   1  13
ATOM     13  C   UNL     1      12.611  -2.486 -24.284  1.00  0.00     0.000 C 
BRANCH  13  14
ATOM     14  C   UNL     1      11.659  -2.329 -25.481  1.00  0.00     0.000 C 
BRANCH  14  15
ATOM     15  C   UNL     1      10.438  -3.255 -25.392  1.00  0.00     0.000 C 
BRANCH  15  16
ATOM     16  C   UNL     1      10.235  -4.022 -26.708  1.00  0.00     0.000 C 
BRANCH  16  17
ATOM     17  C   UNL     1       9.625  -5.417 -26.498  1.00  0.00     0.000 C 
BRANCH  17  18
ATOM     18  C   UNL     1      10.286  -6.186 -25.340  1.00  0.00     0.000 C 
BRANCH  18  19
ATOM     19  C   UNL     1      11.585  -6.891 -25.765  1.00  0.00     0.000 C 
BRANCH  19  20
ATOM     20  C   UNL     1      12.182  -7.758 -24.647  1.00  0.00     0.006 C 
BRANCH  20  21
ATOM     21  C   UNL     1      13.278  -8.679 -25.192  1.00  0.00     0.053 C 
BRANCH  21  22
ATOM     22  C   UNL     1      12.941  -9.129 -26.579  1.00  0.00     0.041 C 
ATOM     23  O   UNL     1      12.028  -9.977 -26.765  1.00  0.00    -0.550 OA
ATOM     24  O   UNL     1      13.673  -8.657 -27.660  1.00  0.00    -0.550 OA
ENDBRANCH  21  22
ENDBRANCH  20  21
ENDBRANCH  19  20
ENDBRANCH  18  19
ENDBRANCH  17  18
ENDBRANCH  16  17
ENDBRANCH  15  16
ENDBRANCH  14  15
ENDBRANCH  13  14
ENDBRANCH   1  13
TORSDOF 20
ENDMDL
MODEL 2
REMARK VINA RESULT:    -3.353     14.500     16.878
REMARK INTER + INTRA:         -11.016
REMARK INTER:                  -7.769
REMARK INTRA:                  -3.247
REMARK UNBOUND:                -3.742
REMARK SMILES CCCCCCCCCCCCCCCCCCCCCC(=O)[O-]
REMARK SMILES IDX 12 1 11 2 10 3 9 4 8 5 7 6 6 7 5 8 4 9 3 10 2 11 1 12 13 13
REMARK SMILES IDX 14 14 15 15 16 16 17 17 18 18 19 19 20 20 21 21 22 22 23 23
REMARK SMILES IDX 24 24
REMARK H PARENT
REMARK Flexibility Score: inf
ROOT
ATOM      1  C   UNL     1       0.038  -7.617 -16.422  1.00  0.00     0.000 C 
ENDROOT
BRANCH   1   2
ATOM      2  C   UNL     1      -0.201  -6.665 -17.612  1.00  0.00     0.000 C 
BRANCH   2   3
ATOM      3  C   UNL     1      -1.051  -7.283 -18.734  1.00  0.00     0.000 C 
BRANCH   3   4
ATOM      4  C   UNL     1      -1.844  -8.514 -18.278  1.00  0.00    -0.000 C 
BRANCH   4   5
ATOM      5  C   UNL     1      -3.350  -8.210 -18.219  1.00  0.00    -0.000 C 
BRANCH   5   6
ATOM      6  C   UNL     1      -3.837  -7.878 -16.799  1.00  0.00    -0.000 C 
BRANCH   6   7
ATOM      7  C   UNL     1      -4.317  -6.427 -16.597  1.00  0.00    -0.000 C 
BRANCH   7   8
ATOM      8  C   UNL     1      -3.991  -5.489 -17.779  1.00  0.00    -0.000 C 
BRANCH   8   9
ATOM      9  C   UNL     1      -3.073  -4.322 -17.370  1.00  0.00    -0.000 C 
BRANCH   9  10
ATOM     10  C   UNL     1      -3.496  -3.692 -16.025  1.00  0.00    -0.000 C 
BRANCH  10  11
ATOM     11  C   UNL     1      -2.321  -3.453 -15.063  1.00  0.00    -0.003 C 
ATOM     12  C   UNL     1      -2.364  -4.354 -13.830  1.00  0.00     0.004 C 
ENDBRANCH  10  11
ENDBRANCH   9  10
ENDBRANCH   8   9
ENDBRANCH   7   8
ENDBRANCH   6   7
ENDBRANCH   5   6
ENDBRANCH   4   5
ENDBRANCH   3   4
ENDBRANCH   2   3
ENDBRANCH   1   2
BRANCH   1  13
ATOM     13  C   UNL     1      -0.670  -7.137 -15.143  1.00  0.00     0.000 C 
BRANCH  13  14
ATOM     14  C   UNL     1      -0.388  -8.041 -13.932  1.00  0.00     0.000 C 
BRANCH  14  15
ATOM     15  C   UNL     1       0.317  -9.348 -14.320  1.00  0.00     0.000 C 
BRANCH  15  16
ATOM     16  C   UNL     1      -0.616 -10.553 -14.121  1.00  0.00     0.000 C 
BRANCH  16  17
ATOM     17  C   UNL     1      -1.679 -10.673 -15.224  1.00  0.00     0.000 C 
BRANCH  17  18
ATOM     18  C   UNL     1      -1.948 -12.132 -15.635  1.00  0.00     0.000 C 
BRANCH  18  19
ATOM     19  C   UNL     1      -3.445 -12.480 -15.632  1.00  0.00     0.000 C 
BRANCH  19  20
ATOM     20  C   UNL     1      -4.312 -11.379 -16.261  1.00  0.00     0.006 C 
BRANCH  20  21
ATOM     21  C   UNL     1      -5.639 -11.948 -16.771  1.00  0.00     0.053 C 
BRANCH  21  22
ATOM     22  C   UNL     1      -5.392 -13.032 -17.773  1.00  0.00     0.041 C 
ATOM     23  O   UNL     1      -5.801 -14.203 -17.552  1.00  0.00    -0.550 OA
ATOM     24  O   UNL     1      -4.660 -12.765 -18.922  1.00  0.00    -0.550 OA
ENDBRANCH  21  22
ENDBRANCH  20  21
ENDBRANCH  19  20
ENDBRANCH  18  19
ENDBRANCH  17  18
ENDBRANCH  16  17
ENDBRANCH  15  16
ENDBRANCH  14  15
ENDBRANCH  13  14
ENDBRANCH   1  13
TORSDOF 20
ENDMDL
MODEL 3
REMARK VINA RESULT:    -3.345     15.505     17.436
REMARK INTER + INTRA:         -10.998
REMARK INTER:                  -8.541
REMARK INTRA:                  -2.457
REMARK UNBOUND:                -3.742
REMARK SMILES CCCCCCCCCCCCCCCCCCCCCC(=O)[O-]
REMARK SMILES IDX 12 1 11 2 10 3 9 4 8 5 7 6 6 7 5 8 4 9 3 10 2 11 1 12 13 13
REMARK SMILES IDX 14 14 15 15 16 16 17 17 18 18 19 19 20 20 21 21 22 22 23 23
REMARK SMILES IDX 24 24
REMARK H PARENT
REMARK Flexibility Score: inf
ROOT
ATOM      1  C   UNL     1      -1.994  -9.476 -16.600  1.00  0.00     0.000 C 
ENDROOT
BRANCH   1   2
ATOM      2  C   UNL     1      -1.750 -10.204 -15.261  1.00  0.00     0.000 C 
BRANCH   2   3
ATOM      3  C   UNL     1      -0.517  -9.692 -14.498  1.00  0.00     0.000 C 
BRANCH   3   4
ATOM      4  C   UNL     1      -0.503  -8.167 -14.334  1.00  0.00    -0.000 C 
BRANCH   4   5
ATOM      5  C   UNL     1       0.210  -7.757 -13.036  1.00  0.00    -0.000 C 
BRANCH   5   6
ATOM      6  C   UNL     1       0.647  -6.283 -13.034  1.00  0.00    -0.000 C 
BRANCH   6   7
ATOM      7  C   UNL     1       0.081  -5.438 -11.876  1.00  0.00    -0.000 C 
BRANCH   7   8
ATOM      8  C   UNL     1      -0.808  -4.262 -12.333  1.00  0.00    -0.000 C 
BRANCH   8   9
ATOM      9  C   UNL     1      -2.113  -4.734 -13.001  1.00  0.00    -0.000 C 
BRANCH   9  10
ATOM     10  C   UNL     1      -2.391  -3.991 -14.326  1.00  0.00    -0.000 C 
BRANCH  10  11
ATOM     11  C   UNL     1      -2.625  -4.930 -15.520  1.00  0.00    -0.003 C 
ATOM     12  C   UNL     1      -1.337  -5.301 -16.252  1.00  0.00     0.004 C 
ENDBRANCH  10  11
ENDBRANCH   9  10
ENDBRANCH   8   9
ENDBRANCH   7   8
ENDBRANCH   6   7
ENDBRANCH   5   6
ENDBRANCH   4   5
ENDBRANCH   3   4
ENDBRANCH   2   3
ENDBRANCH   1   2
BRANCH   1  13
ATOM     13  C   UNL     1      -3.284  -9.951 -17.292  1.00  0.00     0.000 C 
BRANCH  13  14
ATOM     14  C   UNL     1      -4.517  -9.859 -16.380  1.00  0.00     0.000 C 
BRANCH  14  15
ATOM     15  C   UNL     1      -5.348 -11.150 -16.372  1.00  0.00     0.000 C 
BRANCH  15  16
ATOM     16  C   UNL     1      -5.147 -11.938 -17.676  1.00  0.00     0.000 C 
BRANCH  16  17
ATOM     17  C   UNL     1      -4.618 -13.361 -17.437  1.00  0.00     0.000 C 
BRANCH  17  18
ATOM     18  C   UNL     1      -3.096 -13.471 -17.639  1.00  0.00     0.000 C 
BRANCH  18  19
ATOM     19  C   UNL     1      -2.394 -14.173 -16.465  1.00  0.00     0.000 C 
BRANCH  19  20
ATOM     20  C   UNL     1      -2.756 -13.559 -15.104  1.00  0.00     0.006 C 
BRANCH  20  21
ATOM     21  C   UNL     1      -1.631 -13.775 -14.087  1.00  0.00     0.053 C 
BRANCH  21  22
ATOM     22  C   UNL     1      -1.881 -15.014 -13.287  1.00  0.00     0.041 C 
ATOM     23  O   UNL     1      -0.974 -15.880 -13.161  1.00  0.00    -0.550 OA
ATOM     24  O   UNL     1      -3.132 -15.243 -12.730  1.00  0.00    -0.550 OA
ENDBRANCH  21  22
ENDBRANCH  20  21
ENDBRANCH  19  20
ENDBRANCH  18  19
ENDBRANCH  17  18
ENDBRANCH  16  17
ENDBRANCH  15  16
ENDBRANCH  14  15
ENDBRANCH  13  14
ENDBRANCH   1  13
TORSDOF 20
ENDMDL
MODEL 4
REMARK VINA RESULT:    -3.336     14.977     17.514
REMARK INTER + INTRA:         -10.978
REMARK INTER:                  -7.319
REMARK INTRA:                  -3.659
REMARK UNBOUND:                -3.742
REMARK SMILES CCCCCCCCCCCCCCCCCCCCCC(=O)[O-]
REMARK SMILES IDX 12 1 11 2 10 3 9 4 8 5 7 6 6 7 5 8 4 9 3 10 2 11 1 12 13 13
REMARK SMILES IDX 14 14 15 15 16 16 17 17 18 18 19 19 20 20 21 21 22 22 23 23
REMARK SMILES IDX 24 24
REMARK H PARENT
REMARK Flexibility Score: inf
ROOT
ATOM      1  C   UNL     1      -0.340  -8.171 -15.100  1.00  0.00     0.000 C 
ENDROOT
BRANCH   1   2
ATOM      2  C   UNL     1      -1.288  -9.374 -14.914  1.00  0.00     0.000 C 
BRANCH   2   3
ATOM      3  C   UNL     1      -0.625 -10.582 -14.234  1.00  0.00     0.000 C 
BRANCH   3   4
ATOM      4  C   UNL     1      -1.239 -11.922 -14.660  1.00  0.00    -0.000 C 
BRANCH   4   5
ATOM      5  C   UNL     1      -2.148 -11.748 -15.886  1.00  0.00    -0.000 C 
BRANCH   5   6
ATOM      6  C   UNL     1      -3.480 -12.504 -15.755  1.00  0.00    -0.000 C 
BRANCH   6   7
ATOM      7  C   UNL     1      -4.732 -11.691 -16.139  1.00  0.00    -0.000 C 
BRANCH   7   8
ATOM      8  C   UNL     1      -5.325 -12.064 -17.514  1.00  0.00    -0.000 C 
BRANCH   8   9
ATOM      9  C   UNL     1      -5.343 -13.585 -17.757  1.00  0.00    -0.000 C 
BRANCH   9  10
ATOM     10  C   UNL     1      -4.481 -13.990 -18.973  1.00  0.00    -0.000 C 
BRANCH  10  11
ATOM     11  C   UNL     1      -3.502 -12.894 -19.423  1.00  0.00    -0.003 C 
ATOM     12  C   UNL     1      -3.036 -13.065 -20.868  1.00  0.00     0.004 C 
ENDBRANCH  10  11
ENDBRANCH   9  10
ENDBRANCH   8   9
ENDBRANCH   7   8
ENDBRANCH   6   7
ENDBRANCH   5   6
ENDBRANCH   4   5
ENDBRANCH   3   4
ENDBRANCH   2   3
ENDBRANCH   1   2
BRANCH   1  13
ATOM     13  C   UNL     1      -0.282  -7.698 -16.563  1.00  0.00     0.000 C 
BRANCH  13  14
ATOM     14  C   UNL     1      -0.497  -8.842 -17.566  1.00  0.00     0.000 C 
BRANCH  14  15
ATOM     15  C   UNL     1      -1.485  -8.475 -18.682  1.00  0.00     0.000 C 
BRANCH  15  16
ATOM     16  C   UNL     1      -2.714  -9.397 -18.652  1.00  0.00     0.000 C 
BRANCH  16  17
ATOM     17  C   UNL     1      -4.018  -8.644 -18.346  1.00  0.00     0.000 C 
BRANCH  17  18
ATOM     18  C   UNL     1      -4.135  -8.236 -16.867  1.00  0.00     0.000 C 
BRANCH  18  19
ATOM     19  C   UNL     1      -4.681  -6.809 -16.690  1.00  0.00     0.000 C 
BRANCH  19  20
ATOM     20  C   UNL     1      -4.134  -5.830 -17.740  1.00  0.00     0.006 C 
BRANCH  20  21
ATOM     21  C   UNL     1      -2.800  -5.229 -17.289  1.00  0.00     0.053 C 
BRANCH  21  22
ATOM     22  C   UNL     1      -2.935  -4.617 -15.930  1.00  0.00     0.041 C 
ATOM     23  O   UNL     1      -2.327  -5.119 -14.947  1.00  0.00    -0.550 OA
ATOM     24  O   UNL     1      -3.777  -3.530 -15.736  1.00  0.00    -0.550 OA
ENDBRANCH  21  22
ENDBRANCH  20  21
ENDBRANCH  19  20
ENDBRANCH  18  19
ENDBRANCH  17  18
ENDBRANCH  16  17
ENDBRANCH  15  16
ENDBRANCH  14  15
ENDBRANCH  13  14
ENDBRANCH   1  13
TORSDOF 20
ENDMDL
MODEL 5
REMARK VINA RESULT:    -3.323     14.948     17.424
REMARK INTER + INTRA:         -10.950
REMARK INTER:                  -8.284
REMARK INTRA:                  -2.667
REMARK UNBOUND:                -3.742
REMARK SMILES CCCCCCCCCCCCCCCCCCCCCC(=O)[O-]
REMARK SMILES IDX 12 1 11 2 10 3 9 4 8 5 7 6 6 7 5 8 4 9 3 10 2 11 1 12 13 13
REMARK SMILES IDX 14 14 15 15 16 16 17 17 18 18 19 19 20 20 21 21 22 22 23 23
REMARK SMILES IDX 24 24
REMARK H PARENT
REMARK Flexibility Score: inf
ROOT
ATOM      1  C   UNL     1      -5.340 -11.983 -17.660  1.00  0.00     0.000 C 
ENDROOT
BRANCH   1   2
ATOM      2  C   UNL     1      -5.516 -11.057 -16.438  1.00  0.00     0.000 C 
BRANCH   2   3
ATOM      3  C   UNL     1      -4.630  -9.801 -16.483  1.00  0.00     0.000 C 
BRANCH   3   4
ATOM      4  C   UNL     1      -3.816  -9.688 -17.777  1.00  0.00    -0.000 C 
BRANCH   4   5
ATOM      5  C   UNL     1      -3.852  -8.254 -18.328  1.00  0.00    -0.000 C 
BRANCH   5   6
ATOM      6  C   UNL     1      -3.312  -7.217 -17.330  1.00  0.00    -0.000 C 
BRANCH   6   7
ATOM      7  C   UNL     1      -4.370  -6.259 -16.749  1.00  0.00    -0.000 C 
BRANCH   7   8
ATOM      8  C   UNL     1      -3.796  -4.914 -16.255  1.00  0.00    -0.000 C 
BRANCH   8   9
ATOM      9  C   UNL     1      -2.262  -4.846 -16.377  1.00  0.00    -0.000 C 
BRANCH   9  10
ATOM     10  C   UNL     1      -1.561  -5.060 -15.018  1.00  0.00    -0.000 C 
BRANCH  10  11
ATOM     11  C   UNL     1      -2.206  -4.276 -13.864  1.00  0.00    -0.003 C 
ATOM     12  C   UNL     1      -1.722  -4.729 -12.488  1.00  0.00     0.004 C 
ENDBRANCH  10  11
ENDBRANCH   9  10
ENDBRANCH   8   9
ENDBRANCH   7   8
ENDBRANCH   6   7
ENDBRANCH   5   6
ENDBRANCH   4   5
ENDBRANCH   3   4
ENDBRANCH   2   3
ENDBRANCH   1   2
BRANCH   1  13
ATOM     13  C   UNL     1      -5.058 -13.439 -17.250  1.00  0.00     0.000 C 
BRANCH  13  14
ATOM     14  C   UNL     1      -3.557 -13.763 -17.202  1.00  0.00     0.000 C 
BRANCH  14  15
ATOM     15  C   UNL     1      -2.952 -13.566 -15.805  1.00  0.00     0.000 C 
BRANCH  15  16
ATOM     16  C   UNL     1      -2.057 -12.317 -15.765  1.00  0.00     0.000 C 
BRANCH  16  17
ATOM     17  C   UNL     1      -1.200 -12.237 -14.492  1.00  0.00     0.000 C 
BRANCH  17  18
ATOM     18  C   UNL     1      -0.842 -10.792 -14.107  1.00  0.00     0.000 C 
BRANCH  18  19
ATOM     19  C   UNL     1      -1.228  -9.777 -15.195  1.00  0.00     0.000 C 
BRANCH  19  20
ATOM     20  C   UNL     1      -0.482  -8.441 -15.053  1.00  0.00     0.006 C 
BRANCH  20  21
ATOM     21  C   UNL     1      -0.065  -8.196 -13.600  1.00  0.00     0.053 C 
BRANCH  21  22
ATOM     22  C   UNL     1       1.352  -7.719 -13.536  1.00  0.00     0.041 C 
ATOM     23  O   UNL     1       2.162  -8.250 -12.731  1.00  0.00    -0.550 OA
ATOM     24  O   UNL     1       1.763  -6.651 -14.323  1.00  0.00    -0.550 OA
ENDBRANCH  21  22
ENDBRANCH  20  21
ENDBRANCH  19  20
ENDBRANCH  18  19
ENDBRANCH  17  18
ENDBRANCH  16  17
ENDBRANCH  15  16
ENDBRANCH  14  15
ENDBRANCH  13  14
ENDBRANCH   1  13
TORSDOF 20
ENDMDL
MODEL 6
REMARK VINA RESULT:    -3.313     12.763     14.898
REMARK INTER + INTRA:         -10.927
REMARK INTER:                  -7.587
REMARK INTRA:                  -3.340
REMARK UNBOUND:                -3.742
REMARK SMILES CCCCCCCCCCCCCCCCCCCCCC(=O)[O-]
REMARK SMILES IDX 12 1 11 2 10 3 9 4 8 5 7 6 6 7 5 8 4 9 3 10 2 11 1 12 13 13
REMARK SMILES IDX 14 14 15 15 16 16 17 17 18 18 19 19 20 20 21 21 22 22 23 23
REMARK SMILES IDX 24 24
REMARK H PARENT
REMARK Flexibility Score: inf
ROOT
ATOM      1  C   UNL     1      -2.284  -2.230 -24.193  1.00  0.00     0.000 C 
ENDROOT
BRANCH   1   2
ATOM      2  C   UNL     1      -3.286  -1.109 -24.542  1.00  0.00     0.000 C 
BRANCH   2   3
ATOM      3  C   UNL     1      -4.673  -1.629 -24.955  1.00  0.00     0.000 C 
BRANCH   3   4
ATOM      4  C   UNL     1      -4.961  -1.447 -26.451  1.00  0.00    -0.000 C 
BRANCH   4   5
ATOM      5  C   UNL     1      -5.073  -2.806 -27.161  1.00  0.00    -0.000 C 
BRANCH   5   6
ATOM      6  C   UNL     1      -4.938  -3.996 -26.198  1.00  0.00    -0.000 C 
BRANCH   6   7
ATOM      7  C   UNL     1      -3.856  -5.025 -26.580  1.00  0.00    -0.000 C 
BRANCH   7   8
ATOM      8  C   UNL     1      -4.211  -6.479 -26.202  1.00  0.00    -0.000 C 
BRANCH   8   9
ATOM      9  C   UNL     1      -5.075  -6.564 -24.929  1.00  0.00    -0.000 C 
BRANCH   9  10
ATOM     10  C   UNL     1      -4.380  -7.366 -23.807  1.00  0.00    -0.000 C 
BRANCH  10  11
ATOM     11  C   UNL     1      -3.988  -6.509 -22.593  1.00  0.00    -0.003 C 
ATOM     12  C   UNL     1      -4.312  -5.028 -22.775  1.00  0.00     0.004 C 
ENDBRANCH  10  11
ENDBRANCH   9  10
ENDBRANCH   8   9
ENDBRANCH   7   8
ENDBRANCH   6   7
ENDBRANCH   5   6
ENDBRANCH   4   5
ENDBRANCH   3   4
ENDBRANCH   2   3
ENDBRANCH   1   2
BRANCH   1  13
ATOM     13  C   UNL     1      -1.332  -2.541 -25.361  1.00  0.00     0.000 C 
BRANCH  13  14
ATOM     14  C   UNL     1      -1.163  -1.355 -26.323  1.00  0.00     0.000 C 
BRANCH  14  15
ATOM     15  C   UNL     1      -1.445  -1.731 -27.785  1.00  0.00     0.000 C 
BRANCH  15  16
ATOM     16  C   UNL     1      -1.229  -3.235 -28.015  1.00  0.00     0.000 C 
BRANCH  16  17
ATOM     17  C   UNL     1       0.159  -3.556 -28.591  1.00  0.00     0.000 C 
BRANCH  17  18
ATOM     18  C   UNL     1       0.527  -5.045 -28.459  1.00  0.00     0.000 C 
BRANCH  18  19
ATOM     19  C   UNL     1      -0.516  -5.843 -27.660  1.00  0.00     0.000 C 
BRANCH  19  20
ATOM     20  C   UNL     1      -0.136  -7.323 -27.500  1.00  0.00     0.006 C 
BRANCH  20  21
ATOM     21  C   UNL     1      -0.097  -8.030 -28.858  1.00  0.00     0.053 C 
BRANCH  21  22
ATOM     22  C   UNL     1      -1.118  -9.123 -28.908  1.00  0.00     0.041 C 
ATOM     23  O   UNL     1      -1.797  -9.401 -27.885  1.00  0.00    -0.550 OA
ATOM     24  O   UNL     1      -1.277  -9.874 -30.066  1.00  0.00    -0.550 OA
ENDBRANCH  21  22
ENDBRANCH  20  21
ENDBRANCH  19  20
ENDBRANCH  18  19
ENDBRANCH  17  18
ENDBRANCH  16  17
ENDBRANCH  15  16
ENDBRANCH  14  15
ENDBRANCH  13  14
ENDBRANCH   1  13
TORSDOF 20
ENDMDL
MODEL 7
REMARK VINA RESULT:    -3.305     12.881     15.502
REMARK INTER + INTRA:         -10.910
REMARK INTER:                  -7.451
REMARK INTRA:                  -3.459
REMARK UNBOUND:                -3.742
REMARK SMILES CCCCCCCCCCCCCCCCCCCCCC(=O)[O-]
REMARK SMILES IDX 12 1 11 2 10 3 9 4 8 5 7 6 6 7 5 8 4 9 3 10 2 11 1 12 13 13
REMARK SMILES IDX 14 14 15 15 16 16 17 17 18 18 19 19 20 20 21 21 22 22 23 23
REMARK SMILES IDX 24 24
REMARK H PARENT
REMARK Flexibility Score: inf
ROOT
ATOM      1  C   UNL     1      -1.874  -4.160 -27.252  1.00  0.00     0.000 C 
ENDROOT
BRANCH   1   2
ATOM      2  C   UNL     1      -1.878  -4.594 -25.771  1.00  0.00     0.000 C 
BRANCH   2   3
ATOM      3  C   UNL     1      -3.183  -5.278 -25.333  1.00  0.00     0.000 C 
BRANCH   3   4
ATOM      4  C   UNL     1      -3.943  -5.923 -26.500  1.00  0.00    -0.000 C 
BRANCH   4   5
ATOM      5  C   UNL     1      -4.378  -7.355 -26.151  1.00  0.00    -0.000 C 
BRANCH   5   6
ATOM      6  C   UNL     1      -3.191  -8.278 -25.831  1.00  0.00    -0.000 C 
BRANCH   6   7
ATOM      7  C   UNL     1      -2.318  -8.661 -27.042  1.00  0.00    -0.000 C 
BRANCH   7   8
ATOM      8  C   UNL     1      -0.880  -8.102 -26.981  1.00  0.00    -0.000 C 
BRANCH   8   9
ATOM      9  C   UNL     1      -0.388  -7.588 -28.347  1.00  0.00    -0.000 C 
BRANCH   9  10
ATOM     10  C   UNL     1       0.914  -6.767 -28.225  1.00  0.00    -0.000 C 
BRANCH  10  11
ATOM     11  C   UNL     1       1.739  -6.727 -29.522  1.00  0.00    -0.003 C 
ATOM     12  C   UNL     1       1.717  -5.359 -30.203  1.00  0.00     0.004 C 
ENDBRANCH  10  11
ENDBRANCH   9  10
ENDBRANCH   8   9
ENDBRANCH   7   8
ENDBRANCH   6   7
ENDBRANCH   5   6
ENDBRANCH   4   5
ENDBRANCH   3   4
ENDBRANCH   2   3
ENDBRANCH   1   2
BRANCH   1  13
ATOM     13  C   UNL     1      -0.536  -3.524 -27.667  1.00  0.00     0.000 C 
BRANCH  13  14
ATOM     14  C   UNL     1      -0.715  -2.182 -28.392  1.00  0.00     0.000 C 
BRANCH  14  15
ATOM     15  C   UNL     1      -2.143  -1.629 -28.271  1.00  0.00     0.000 C 
BRANCH  15  16
ATOM     16  C   UNL     1      -2.127  -0.175 -27.773  1.00  0.00     0.000 C 
BRANCH  16  17
ATOM     17  C   UNL     1      -1.017   0.091 -26.744  1.00  0.00     0.000 C 
BRANCH  17  18
ATOM     18  C   UNL     1      -1.563   0.300 -25.321  1.00  0.00     0.000 C 
BRANCH  18  19
ATOM     19  C   UNL     1      -2.070  -1.004 -24.685  1.00  0.00     0.000 C 
BRANCH  19  20
ATOM     20  C   UNL     1      -3.498  -0.879 -24.132  1.00  0.00     0.006 C 
BRANCH  20  21
ATOM     21  C   UNL     1      -4.398  -1.992 -24.678  1.00  0.00     0.053 C 
BRANCH  21  22
ATOM     22  C   UNL     1      -5.004  -1.581 -25.983  1.00  0.00     0.041 C 
ATOM     23  O   UNL     1      -5.309  -0.376 -26.187  1.00  0.00    -0.550 OA
ATOM     24  O   UNL     1      -5.288  -2.536 -26.950  1.00  0.00    -0.550 OA
ENDBRANCH  21  22
ENDBRANCH  20  21
ENDBRANCH  19  20
ENDBRANCH  18  19
ENDBRANCH  17  18
ENDBRANCH  16  17
ENDBRANCH  15  16
ENDBRANCH  14  15
ENDBRANCH  13  14
ENDBRANCH   1  13
TORSDOF 20
ENDMDL
MODEL 8
REMARK VINA RESULT:    -3.302     15.318     17.373
REMARK INTER + INTRA:         -10.904
REMARK INTER:                  -8.190
REMARK INTRA:                  -2.714
REMARK UNBOUND:                -3.742
REMARK SMILES CCCCCCCCCCCCCCCCCCCCCC(=O)[O-]
REMARK SMILES IDX 12 1 11 2 10 3 9 4 8 5 7 6 6 7 5 8 4 9 3 10 2 11 1 12 13 13
REMARK SMILES IDX 14 14 15 15 16 16 17 17 18 18 19 19 20 20 21 21 22 22 23 23
REMARK SMILES IDX 24 24
REMARK H PARENT
REMARK Flexibility Score: inf
ROOT
ATOM      1  C   UNL     1      -0.530  -9.225 -15.277  1.00  0.00     0.000 C 
ENDROOT
BRANCH   1   2
ATOM      2  C   UNL     1      -0.711 -10.387 -14.278  1.00  0.00     0.000 C 
BRANCH   2   3
ATOM      3  C   UNL     1      -1.517 -11.567 -14.845  1.00  0.00     0.000 C 
BRANCH   3   4
ATOM      4  C   UNL     1      -2.458 -11.158 -15.986  1.00  0.00    -0.000 C 
BRANCH   4   5
ATOM      5  C   UNL     1      -3.396 -12.314 -16.369  1.00  0.00    -0.000 C 
BRANCH   5   6
ATOM      6  C   UNL     1      -4.878 -11.905 -16.370  1.00  0.00    -0.000 C 
BRANCH   6   7
ATOM      7  C   UNL     1      -5.136 -10.389 -16.473  1.00  0.00    -0.000 C 
BRANCH   7   8
ATOM      8  C   UNL     1      -5.104  -9.844 -17.917  1.00  0.00    -0.000 C 
BRANCH   8   9
ATOM      9  C   UNL     1      -4.348  -8.508 -18.028  1.00  0.00    -0.000 C 
BRANCH   9  10
ATOM     10  C   UNL     1      -4.493  -7.650 -16.753  1.00  0.00    -0.000 C 
BRANCH  10  11
ATOM     11  C   UNL     1      -3.545  -6.440 -16.715  1.00  0.00    -0.003 C 
ATOM     12  C   UNL     1      -2.439  -6.513 -17.766  1.00  0.00     0.004 C 
ENDBRANCH  10  11
ENDBRANCH   9  10
ENDBRANCH   8   9
ENDBRANCH   7   8
ENDBRANCH   6   7
ENDBRANCH   5   6
ENDBRANCH   4   5
ENDBRANCH   3   4
ENDBRANCH   2   3
ENDBRANCH   1   2
BRANCH   1  13
ATOM     13  C   UNL     1      -0.858  -7.861 -14.646  1.00  0.00     0.000 C 
BRANCH  13  14
ATOM     14  C   UNL     1       0.340  -7.246 -13.904  1.00  0.00     0.000 C 
BRANCH  14  15
ATOM     15  C   UNL     1      -0.051  -6.632 -12.553  1.00  0.00     0.000 C 
BRANCH  15  16
ATOM     16  C   UNL     1      -0.200  -5.107 -12.665  1.00  0.00     0.000 C 
BRANCH  16  17
ATOM     17  C   UNL     1      -1.646  -4.631 -12.455  1.00  0.00     0.000 C 
BRANCH  17  18
ATOM     18  C   UNL     1      -2.401  -4.420 -13.779  1.00  0.00     0.000 C 
BRANCH  18  19
ATOM     19  C   UNL     1      -1.531  -3.749 -14.854  1.00  0.00     0.000 C 
BRANCH  19  20
ATOM     20  C   UNL     1      -2.130  -2.428 -15.362  1.00  0.00     0.006 C 
BRANCH  20  21
ATOM     21  C   UNL     1      -3.403  -2.679 -16.175  1.00  0.00     0.053 C 
BRANCH  21  22
ATOM     22  C   UNL     1      -3.086  -2.747 -17.636  1.00  0.00     0.041 C 
ATOM     23  O   UNL     1      -2.049  -2.190 -18.085  1.00  0.00    -0.550 OA
ATOM     24  O   UNL     1      -3.964  -3.373 -18.511  1.00  0.00    -0.550 OA
ENDBRANCH  21  22
ENDBRANCH  20  21
ENDBRANCH  19  20
ENDBRANCH  18  19
ENDBRANCH  17  18
ENDBRANCH  16  17
ENDBRANCH  15  16
ENDBRANCH  14  15
ENDBRANCH  13  14
ENDBRANCH   1  13
TORSDOF 20
ENDMDL
MODEL 9
REMARK VINA RESULT:    -3.291     12.492     14.662
REMARK INTER + INTRA:         -10.881
REMARK INTER:                  -7.415
REMARK INTRA:                  -3.466
REMARK UNBOUND:                -3.742
REMARK SMILES CCCCCCCCCCCCCCCCCCCCCC(=O)[O-]
REMARK SMILES IDX 12 1 11 2 10 3 9 4 8 5 7 6 6 7 5 8 4 9 3 10 2 11 1 12 13 13
REMARK SMILES IDX 14 14 15 15 16 16 17 17 18 18 19 19 20 20 21 21 22 22 23 23
REMARK SMILES IDX 24 24
REMARK H PARENT
REMARK Flexibility Score: inf
ROOT
ATOM      1  C   UNL     1      -0.716  -3.800 -28.039  1.00  0.00     0.000 C 
ENDROOT
BRANCH   1   2
ATOM      2  C   UNL     1      -1.130  -4.595 -26.783  1.00  0.00     0.000 C 
BRANCH   2   3
ATOM      3  C   UNL     1      -2.436  -4.098 -26.142  1.00  0.00     0.000 C 
BRANCH   3   4
ATOM      4  C   UNL     1      -3.650  -4.963 -26.504  1.00  0.00    -0.000 C 
BRANCH   4   5
ATOM      5  C   UNL     1      -4.940  -4.129 -26.511  1.00  0.00    -0.000 C 
BRANCH   5   6
ATOM      6  C   UNL     1      -4.781  -2.789 -27.248  1.00  0.00    -0.000 C 
BRANCH   6   7
ATOM      7  C   UNL     1      -5.199  -1.546 -26.437  1.00  0.00    -0.000 C 
BRANCH   7   8
ATOM      8  C   UNL     1      -4.035  -0.581 -26.124  1.00  0.00    -0.000 C 
BRANCH   8   9
ATOM      9  C   UNL     1      -4.124   0.010 -24.704  1.00  0.00    -0.000 C 
BRANCH   9  10
ATOM     10  C   UNL     1      -3.047  -0.572 -23.764  1.00  0.00    -0.000 C 
BRANCH  10  11
ATOM     11  C   UNL     1      -1.763  -1.003 -24.492  1.00  0.00    -0.003 C 
ATOM     12  C   UNL     1      -0.581  -0.074 -24.223  1.00  0.00     0.004 C 
ENDBRANCH  10  11
ENDBRANCH   9  10
ENDBRANCH   8   9
ENDBRANCH   7   8
ENDBRANCH   6   7
ENDBRANCH   5   6
ENDBRANCH   4   5
ENDBRANCH   3   4
ENDBRANCH   2   3
ENDBRANCH   1   2
BRANCH   1  13
ATOM     13  C   UNL     1      -1.282  -2.370 -28.034  1.00  0.00     0.000 C 
BRANCH  13  14
ATOM     14  C   UNL     1      -0.198  -1.302 -27.819  1.00  0.00     0.000 C 
BRANCH  14  15
ATOM     15  C   UNL     1      -0.687   0.115 -28.150  1.00  0.00     0.000 C 
BRANCH  15  16
ATOM     16  C   UNL     1      -1.981   0.069 -28.979  1.00  0.00     0.000 C 
BRANCH  16  17
ATOM     17  C   UNL     1      -1.765   0.477 -30.444  1.00  0.00     0.000 C 
BRANCH  17  18
ATOM     18  C   UNL     1      -0.540   1.390 -30.633  1.00  0.00     0.000 C 
BRANCH  18  19
ATOM     19  C   UNL     1       0.450   0.842 -31.674  1.00  0.00     0.000 C 
BRANCH  19  20
ATOM     20  C   UNL     1       0.589  -0.687 -31.615  1.00  0.00     0.006 C 
BRANCH  20  21
ATOM     21  C   UNL     1       1.960  -1.093 -31.068  1.00  0.00     0.053 C 
BRANCH  21  22
ATOM     22  C   UNL     1       2.002  -2.565 -30.801  1.00  0.00     0.041 C 
ATOM     23  O   UNL     1       2.288  -2.992 -29.652  1.00  0.00    -0.550 OA
ATOM     24  O   UNL     1       1.782  -3.466 -31.836  1.00  0.00    -0.550 OA
ENDBRANCH  21  22
ENDBRANCH  20  21
ENDBRANCH  19  20
ENDBRANCH  18  19
ENDBRANCH  17  18
ENDBRANCH  16  17
ENDBRANCH  15  16
ENDBRANCH  14  15
ENDBRANCH  13  14
ENDBRANCH   1  13
TORSDOF 20
ENDMDL
