MODEL 1
REMARK VINA RESULT:    -4.699      0.000      0.000
REMARK INTER + INTRA:          -5.353
REMARK INTER:                  -5.111
REMARK INTRA:                  -0.242
REMARK UNBOUND:                -0.242
REMARK SMILES O=C([O-])c1ccccc1O
REMARK SMILES IDX 4 1 9 2 5 3 8 4 6 5 7 6 2 7 1 8 3 9 10 10
REMARK H PARENT 10 11
REMARK Flexibility Score: inf
ROOT
ATOM      1  C   UNL     1      12.476  29.859 126.747  1.00  0.00     0.039 A 
ATOM      2  C   UNL     1      12.031  31.144 127.144  1.00  0.00     0.124 A 
ATOM      3  C   UNL     1      12.106  29.374 125.479  1.00  0.00     0.014 A 
ATOM      4  C   UNL     1      11.234  31.906 126.275  1.00  0.00     0.047 A 
ATOM      5  C   UNL     1      11.312  30.143 124.624  1.00  0.00     0.001 A 
ATOM      6  C   UNL     1      10.876  31.407 125.022  1.00  0.00     0.004 A 
ENDROOT
BRANCH   1   7
ATOM      7  C   UNL     1      13.322  29.014 127.629  1.00  0.00     0.075 C 
ATOM      8  O   UNL     1      13.129  28.977 128.874  1.00  0.00    -0.545 OA
ATOM      9  O   UNL     1      14.346  28.245 127.090  1.00  0.00    -0.545 OA
ENDBRANCH   1   7
BRANCH   2  10
ATOM     10  O   UNL     1      12.374  31.665 128.391  1.00  0.00    -0.507 OA
ATOM     11  H   UNL     1      12.589  32.648 128.517  1.00  0.00     0.293 HD
ENDBRANCH   2  10
TORSDOF 2
ENDMDL
MODEL 2
REMARK VINA RESULT:    -4.667     16.738     17.924
REMARK INTER + INTRA:          -5.318
REMARK INTER:                  -5.064
REMARK INTRA:                  -0.254
REMARK UNBOUND:                -0.242
REMARK SMILES O=C([O-])c1ccccc1O
REMARK SMILES IDX 4 1 9 2 5 3 8 4 6 5 7 6 2 7 1 8 3 9 10 10
REMARK H PARENT 10 11
REMARK Flexibility Score: inf
ROOT
ATOM      1  C   UNL     1      29.411  33.100 127.972  1.00  0.00     0.039 A 
ATOM      2  C   UNL     1      30.321  34.056 128.484  1.00  0.00     0.124 A 
ATOM      3  C   UNL     1      28.620  32.364 128.875  1.00  0.00     0.014 A 
ATOM      4  C   UNL     1      30.421  34.253 129.871  1.00  0.00     0.047 A 
ATOM      5  C   UNL     1      28.729  32.570 130.252  1.00  0.00     0.001 A 
ATOM      6  C   UNL     1      29.629  33.513 130.750  1.00  0.00     0.004 A 
ENDROOT
BRANCH   1   7
ATOM      7  C   UNL     1      29.268  32.854 126.514  1.00  0.00     0.075 C 
ATOM      8  O   UNL     1      28.131  32.747 125.982  1.00  0.00    -0.545 OA
ATOM      9  O   UNL     1      30.395  32.738 125.709  1.00  0.00    -0.545 OA
ENDBRANCH   1   7
BRANCH   2  10
ATOM     10  O   UNL     1      31.125  34.808 127.628  1.00  0.00    -0.507 OA
ATOM     11  H   UNL     1      32.105  34.974 127.826  1.00  0.00     0.293 HD
ENDBRANCH   2  10
TORSDOF 2
ENDMDL
MODEL 3
REMARK VINA RESULT:    -4.516     12.048     12.807
REMARK INTER + INTRA:          -5.154
REMARK INTER:                  -4.927
REMARK INTRA:                  -0.226
REMARK UNBOUND:                -0.242
REMARK SMILES O=C([O-])c1ccccc1O
REMARK SMILES IDX 4 1 9 2 5 3 8 4 6 5 7 6 2 7 1 8 3 9 10 10
REMARK H PARENT 10 11
REMARK Flexibility Score: inf
ROOT
ATOM      1  C   UNL     1      19.557  32.710 116.668  1.00  0.00     0.039 A 
ATOM      2  C   UNL     1      19.673  34.091 116.958  1.00  0.00     0.124 A 
ATOM      3  C   UNL     1      18.553  31.962 117.313  1.00  0.00     0.014 A 
ATOM      4  C   UNL     1      18.795  34.688 117.877  1.00  0.00     0.047 A 
ATOM      5  C   UNL     1      17.686  32.569 118.224  1.00  0.00     0.001 A 
ATOM      6  C   UNL     1      17.807  33.930 118.506  1.00  0.00     0.004 A 
ENDROOT
BRANCH   1   7
ATOM      7  C   UNL     1      20.461  32.031 115.704  1.00  0.00     0.075 C 
ATOM      8  O   UNL     1      21.643  32.431 115.530  1.00  0.00    -0.545 OA
ATOM      9  O   UNL     1      20.013  30.936 114.975  1.00  0.00    -0.545 OA
ENDBRANCH   1   7
BRANCH   2  10
ATOM     10  O   UNL     1      20.652  34.871 116.343  1.00  0.00    -0.507 OA
ATOM     11  H   UNL     1      21.571  34.993 116.753  1.00  0.00     0.293 HD
ENDBRANCH   2  10
TORSDOF 2
ENDMDL
MODEL 4
REMARK VINA RESULT:    -4.443      1.308      2.762
REMARK INTER + INTRA:          -5.074
REMARK INTER:                  -4.827
REMARK INTRA:                  -0.247
REMARK UNBOUND:                -0.242
REMARK SMILES O=C([O-])c1ccccc1O
REMARK SMILES IDX 4 1 9 2 5 3 8 4 6 5 7 6 2 7 1 8 3 9 10 10
REMARK H PARENT 10 11
REMARK Flexibility Score: inf
ROOT
ATOM      1  C   UNL     1      11.933  30.729 127.975  1.00  0.00     0.039 A 
ATOM      2  C   UNL     1      12.694  29.689 127.388  1.00  0.00     0.124 A 
ATOM      3  C   UNL     1      11.151  31.551 127.141  1.00  0.00     0.014 A 
ATOM      4  C   UNL     1      12.658  29.496 125.998  1.00  0.00     0.047 A 
ATOM      5  C   UNL     1      11.124  31.348 125.760  1.00  0.00     0.001 A 
ATOM      6  C   UNL     1      11.878  30.322 125.188  1.00  0.00     0.004 A 
ENDROOT
BRANCH   1   7
ATOM      7  C   UNL     1      11.936  30.974 129.440  1.00  0.00     0.075 C 
ATOM      8  O   UNL     1      11.920  32.146 129.903  1.00  0.00    -0.545 OA
ATOM      9  O   UNL     1      11.956  29.906 130.329  1.00  0.00    -0.545 OA
ENDBRANCH   1   7
BRANCH   2  10
ATOM     10  O   UNL     1      13.483  28.849 128.175  1.00  0.00    -0.507 OA
ATOM     11  H   UNL     1      13.898  29.168 129.042  1.00  0.00     0.293 HD
ENDBRANCH   2  10
TORSDOF 2
ENDMDL
MODEL 5
REMARK VINA RESULT:    -4.398     17.128     18.365
REMARK INTER + INTRA:          -5.025
REMARK INTER:                  -4.941
REMARK INTRA:                  -0.084
REMARK UNBOUND:                -0.242
REMARK SMILES O=C([O-])c1ccccc1O
REMARK SMILES IDX 4 1 9 2 5 3 8 4 6 5 7 6 2 7 1 8 3 9 10 10
REMARK H PARENT 10 11
REMARK Flexibility Score: inf
ROOT
ATOM      1  C   UNL     1      30.155  33.604 127.805  1.00  0.00     0.039 A 
ATOM      2  C   UNL     1      29.278  32.748 128.514  1.00  0.00     0.124 A 
ATOM      3  C   UNL     1      30.927  34.535 128.526  1.00  0.00     0.014 A 
ATOM      4  C   UNL     1      29.192  32.839 129.912  1.00  0.00     0.047 A 
ATOM      5  C   UNL     1      30.832  34.614 129.918  1.00  0.00     0.001 A 
ATOM      6  C   UNL     1      29.965  33.768 130.610  1.00  0.00     0.004 A 
ENDROOT
BRANCH   1   7
ATOM      7  C   UNL     1      30.282  33.548 126.326  1.00  0.00     0.075 C 
ATOM      8  O   UNL     1      31.125  32.790 125.774  1.00  0.00    -0.545 OA
ATOM      9  O   UNL     1      29.467  34.336 125.522  1.00  0.00    -0.545 OA
ENDBRANCH   1   7
BRANCH   2  10
ATOM     10  O   UNL     1      28.494  31.811 127.840  1.00  0.00    -0.507 OA
ATOM     11  H   UNL     1      28.279  31.907 126.855  1.00  0.00     0.293 HD
ENDBRANCH   2  10
TORSDOF 2
ENDMDL
MODEL 6
REMARK VINA RESULT:    -4.366     11.989     12.802
REMARK INTER + INTRA:          -4.991
REMARK INTER:                  -4.738
REMARK INTRA:                  -0.253
REMARK UNBOUND:                -0.242
REMARK SMILES O=C([O-])c1ccccc1O
REMARK SMILES IDX 4 1 9 2 5 3 8 4 6 5 7 6 2 7 1 8 3 9 10 10
REMARK H PARENT 10 11
REMARK Flexibility Score: inf
ROOT
ATOM      1  C   UNL     1      19.134  33.335 117.231  1.00  0.00     0.039 A 
ATOM      2  C   UNL     1      19.656  33.078 115.940  1.00  0.00     0.124 A 
ATOM      3  C   UNL     1      19.444  34.557 117.858  1.00  0.00     0.014 A 
ATOM      4  C   UNL     1      20.467  34.037 115.311  1.00  0.00     0.047 A 
ATOM      5  C   UNL     1      20.251  35.502 117.221  1.00  0.00     0.001 A 
ATOM      6  C   UNL     1      20.763  35.242 115.949  1.00  0.00     0.004 A 
ENDROOT
BRANCH   1   7
ATOM      7  C   UNL     1      18.272  32.354 117.939  1.00  0.00     0.075 C 
ATOM      8  O   UNL     1      17.172  32.702 118.446  1.00  0.00    -0.545 OA
ATOM      9  O   UNL     1      18.669  31.027 118.053  1.00  0.00    -0.545 OA
ENDBRANCH   1   7
BRANCH   2  10
ATOM     10  O   UNL     1      19.376  31.881 115.281  1.00  0.00    -0.507 OA
ATOM     11  H   UNL     1      19.873  31.607 114.442  1.00  0.00     0.293 HD
ENDBRANCH   2  10
TORSDOF 2
ENDMDL
MODEL 7
REMARK VINA RESULT:    -4.310     17.001     18.147
REMARK INTER + INTRA:          -4.929
REMARK INTER:                  -4.680
REMARK INTRA:                  -0.249
REMARK UNBOUND:                -0.242
REMARK SMILES O=C([O-])c1ccccc1O
REMARK SMILES IDX 4 1 9 2 5 3 8 4 6 5 7 6 2 7 1 8 3 9 10 10
REMARK H PARENT 10 11
REMARK Flexibility Score: inf
ROOT
ATOM      1  C   UNL     1      30.036  33.619 126.452  1.00  0.00     0.039 A 
ATOM      2  C   UNL     1      28.853  33.250 127.136  1.00  0.00     0.124 A 
ATOM      3  C   UNL     1      31.125  34.113 127.195  1.00  0.00     0.014 A 
ATOM      4  C   UNL     1      28.783  33.382 128.532  1.00  0.00     0.047 A 
ATOM      5  C   UNL     1      31.042  34.239 128.584  1.00  0.00     0.001 A 
ATOM      6  C   UNL     1      29.872  33.874 129.252  1.00  0.00     0.004 A 
ENDROOT
BRANCH   1   7
ATOM      7  C   UNL     1      30.160  33.499 124.976  1.00  0.00     0.075 C 
ATOM      8  O   UNL     1      31.120  32.872 124.454  1.00  0.00    -0.545 OA
ATOM      9  O   UNL     1      29.212  34.081 124.144  1.00  0.00    -0.545 OA
ENDBRANCH   1   7
BRANCH   2  10
ATOM     10  O   UNL     1      27.749  32.756 126.440  1.00  0.00    -0.507 OA
ATOM     11  H   UNL     1      26.805  32.866 126.791  1.00  0.00     0.293 HD
ENDBRANCH   2  10
TORSDOF 2
ENDMDL
MODEL 8
REMARK VINA RESULT:    -4.223      1.233      3.074
REMARK INTER + INTRA:          -4.835
REMARK INTER:                  -4.584
REMARK INTRA:                  -0.251
REMARK UNBOUND:                -0.242
REMARK SMILES O=C([O-])c1ccccc1O
REMARK SMILES IDX 4 1 9 2 5 3 8 4 6 5 7 6 2 7 1 8 3 9 10 10
REMARK H PARENT 10 11
REMARK Flexibility Score: inf
ROOT
ATOM      1  C   UNL     1      11.687  31.585 126.838  1.00  0.00     0.039 A 
ATOM      2  C   UNL     1      12.271  30.308 127.018  1.00  0.00     0.124 A 
ATOM      3  C   UNL     1      11.089  31.891 125.601  1.00  0.00     0.014 A 
ATOM      4  C   UNL     1      12.247  29.375 125.969  1.00  0.00     0.047 A 
ATOM      5  C   UNL     1      11.071  30.952 124.566  1.00  0.00     0.001 A 
ATOM      6  C   UNL     1      11.650  29.696 124.750  1.00  0.00     0.004 A 
ENDROOT
BRANCH   1   7
ATOM      7  C   UNL     1      11.687  32.608 127.916  1.00  0.00     0.075 C 
ATOM      8  O   UNL     1      11.350  32.311 129.093  1.00  0.00    -0.545 OA
ATOM      9  O   UNL     1      12.061  33.917 127.639  1.00  0.00    -0.545 OA
ENDBRANCH   1   7
BRANCH   2  10
ATOM     10  O   UNL     1      12.875  29.962 128.227  1.00  0.00    -0.507 OA
ATOM     11  H   UNL     1      12.576  30.367 129.107  1.00  0.00     0.293 HD
ENDBRANCH   2  10
TORSDOF 2
ENDMDL
MODEL 9
REMARK VINA RESULT:    -4.129      1.989      2.953
REMARK INTER + INTRA:          -4.733
REMARK INTER:                  -4.485
REMARK INTRA:                  -0.248
REMARK UNBOUND:                -0.242
REMARK SMILES O=C([O-])c1ccccc1O
REMARK SMILES IDX 4 1 9 2 5 3 8 4 6 5 7 6 2 7 1 8 3 9 10 10
REMARK H PARENT 10 11
REMARK Flexibility Score: inf
ROOT
ATOM      1  C   UNL     1      12.198  30.824 127.458  1.00  0.00     0.039 A 
ATOM      2  C   UNL     1      12.003  32.058 126.792  1.00  0.00     0.124 A 
ATOM      3  C   UNL     1      11.963  30.756 128.845  1.00  0.00     0.014 A 
ATOM      4  C   UNL     1      11.584  33.185 127.518  1.00  0.00     0.047 A 
ATOM      5  C   UNL     1      11.546  31.885 129.554  1.00  0.00     0.001 A 
ATOM      6  C   UNL     1      11.357  33.098 128.891  1.00  0.00     0.004 A 
ENDROOT
BRANCH   1   7
ATOM      7  C   UNL     1      12.641  29.603 126.736  1.00  0.00     0.075 C 
ATOM      8  O   UNL     1      12.024  29.191 125.718  1.00  0.00    -0.545 OA
ATOM      9  O   UNL     1      13.750  28.892 127.178  1.00  0.00    -0.545 OA
ENDBRANCH   1   7
BRANCH   2  10
ATOM     10  O   UNL     1      12.224  32.173 125.419  1.00  0.00    -0.507 OA
ATOM     11  H   UNL     1      13.151  32.083 125.020  1.00  0.00     0.293 HD
ENDBRANCH   2  10
TORSDOF 2
ENDMDL
