MODEL 1
REMARK VINA RESULT:    -5.047      0.000      0.000
REMARK INTER + INTRA:          -7.767
REMARK INTER:                  -6.227
REMARK INTRA:                  -1.541
REMARK UNBOUND:                -1.541
REMARK SMILES CC(C)=CCC[C@H](C)c1ccc(C)cc1
REMARK SMILES IDX 6 1 7 2 8 3 9 4 13 5 12 6 11 7 14 8 10 9 15 10 5 11 4 12
REMARK SMILES IDX 2 13 1 14 3 15
REMARK H PARENT
REMARK Flexibility Score: inf
ROOT
ATOM      1  C   UNL     1     160.394 160.645 182.202  1.00  0.00     0.012 C 
ENDROOT
BRANCH   1   2
ATOM      2  C   UNL     1     160.908 161.771 183.127  1.00  0.00     0.016 C 
ATOM      3  C   UNL     1     160.352 163.149 182.733  1.00  0.00     0.013 C 
BRANCH   2   4
ATOM      4  C   UNL     1     162.426 161.796 183.140  1.00  0.00    -0.045 A 
ATOM      5  C   UNL     1     166.745 161.834 183.187  1.00  0.00     0.044 C 
ATOM      6  C   UNL     1     165.246 161.824 183.140  1.00  0.00    -0.051 A 
ATOM      7  C   UNL     1     164.549 160.612 183.032  1.00  0.00     0.004 A 
ATOM      8  C   UNL     1     164.526 163.021 183.272  1.00  0.00     0.004 A 
ATOM      9  C   UNL     1     163.151 160.598 183.025  1.00  0.00     0.004 A 
ATOM     10  C   UNL     1     163.129 163.008 183.266  1.00  0.00     0.004 A 
ENDBRANCH   2   4
ENDBRANCH   1   2
BRANCH   1  11
ATOM     11  C   UNL     1     160.302 161.082 180.732  1.00  0.00     0.028 C 
BRANCH  11  12
ATOM     12  C   UNL     1     161.461 160.532 179.939  1.00  0.00    -0.028 C 
ATOM     13  C   UNL     1     162.457 161.286 179.419  1.00  0.00    -0.080 C 
ATOM     14  C   UNL     1     163.529 160.600 178.613  1.00  0.00     0.039 C 
ATOM     15  C   UNL     1     162.529 162.778 179.639  1.00  0.00     0.039 C 
ENDBRANCH  11  12
ENDBRANCH   1  11
TORSDOF 4
ENDMDL
MODEL 2
REMARK VINA RESULT:    -5.000      0.140      1.258
REMARK INTER + INTRA:          -7.710
REMARK INTER:                  -6.184
REMARK INTRA:                  -1.526
REMARK UNBOUND:                -1.541
REMARK SMILES CC(C)=CCC[C@H](C)c1ccc(C)cc1
REMARK SMILES IDX 6 1 7 2 8 3 9 4 13 5 12 6 11 7 14 8 10 9 15 10 5 11 4 12
REMARK SMILES IDX 2 13 1 14 3 15
REMARK H PARENT
REMARK Flexibility Score: inf
ROOT
ATOM      1  C   UNL     1     160.273 160.713 182.123  1.00  0.00     0.012 C 
ENDROOT
BRANCH   1   2
ATOM      2  C   UNL     1     160.775 161.798 183.102  1.00  0.00     0.016 C 
ATOM      3  C   UNL     1     160.216 163.190 182.769  1.00  0.00     0.013 C 
BRANCH   2   4
ATOM      4  C   UNL     1     162.293 161.829 183.125  1.00  0.00    -0.045 A 
ATOM      5  C   UNL     1     166.611 161.949 183.177  1.00  0.00     0.044 C 
ATOM      6  C   UNL     1     165.112 161.904 183.190  1.00  0.00    -0.051 A 
ATOM      7  C   UNL     1     164.368 163.087 183.308  1.00  0.00     0.004 A 
ATOM      8  C   UNL     1     164.440 160.685 183.014  1.00  0.00     0.004 A 
ATOM      9  C   UNL     1     162.972 163.049 183.283  1.00  0.00     0.004 A 
ATOM     10  C   UNL     1     163.044 160.646 182.988  1.00  0.00     0.004 A 
ENDBRANCH   2   4
ENDBRANCH   1   2
BRANCH   1  11
ATOM     11  C   UNL     1     160.247 161.197 180.666  1.00  0.00     0.028 C 
BRANCH  11  12
ATOM     12  C   UNL     1     161.417 160.634 179.897  1.00  0.00    -0.028 C 
ATOM     13  C   UNL     1     162.430 161.376 179.396  1.00  0.00    -0.080 C 
ATOM     14  C   UNL     1     163.511 160.679 178.613  1.00  0.00     0.039 C 
ATOM     15  C   UNL     1     162.513 162.869 179.614  1.00  0.00     0.039 C 
ENDBRANCH  11  12
ENDBRANCH   1  11
TORSDOF 4
ENDMDL
MODEL 3
REMARK VINA RESULT:    -4.558      1.504      2.660
REMARK INTER + INTRA:          -7.164
REMARK INTER:                  -5.969
REMARK INTRA:                  -1.195
REMARK UNBOUND:                -1.541
REMARK SMILES CC(C)=CCC[C@H](C)c1ccc(C)cc1
REMARK SMILES IDX 6 1 7 2 8 3 9 4 13 5 12 6 11 7 14 8 10 9 15 10 5 11 4 12
REMARK SMILES IDX 2 13 1 14 3 15
REMARK H PARENT
REMARK Flexibility Score: inf
ROOT
ATOM      1  C   UNL     1     161.171 160.975 181.243  1.00  0.00     0.012 C 
ENDROOT
BRANCH   1   2
ATOM      2  C   UNL     1     161.554 160.906 182.738  1.00  0.00     0.016 C 
ATOM      3  C   UNL     1     160.519 161.601 183.638  1.00  0.00     0.013 C 
BRANCH   2   4
ATOM      4  C   UNL     1     162.933 161.501 182.961  1.00  0.00    -0.045 A 
ATOM      5  C   UNL     1     166.845 163.223 183.583  1.00  0.00     0.044 C 
ATOM      6  C   UNL     1     165.485 162.619 183.397  1.00  0.00    -0.051 A 
ATOM      7  C   UNL     1     164.338 163.423 183.462  1.00  0.00     0.004 A 
ATOM      8  C   UNL     1     165.352 161.257 183.089  1.00  0.00     0.004 A 
ATOM      9  C   UNL     1     163.073 162.868 183.253  1.00  0.00     0.004 A 
ATOM     10  C   UNL     1     164.088 160.701 182.879  1.00  0.00     0.004 A 
ENDBRANCH   2   4
ENDBRANCH   1   2
BRANCH   1  11
ATOM     11  C   UNL     1     160.125 162.060 180.948  1.00  0.00     0.028 C 
BRANCH  11  12
ATOM     12  C   UNL     1     160.768 163.257 180.293  1.00  0.00    -0.028 C 
ATOM     13  C   UNL     1     160.676 164.524 180.759  1.00  0.00    -0.080 C 
ATOM     14  C   UNL     1     161.338 165.626 179.974  1.00  0.00     0.039 C 
ATOM     15  C   UNL     1     159.949 164.855 182.041  1.00  0.00     0.039 C 
ENDBRANCH  11  12
ENDBRANCH   1  11
TORSDOF 4
ENDMDL
MODEL 4
REMARK VINA RESULT:    -4.552      1.638      4.594
REMARK INTER + INTRA:          -7.157
REMARK INTER:                  -5.664
REMARK INTRA:                  -1.493
REMARK UNBOUND:                -1.541
REMARK SMILES CC(C)=CCC[C@H](C)c1ccc(C)cc1
REMARK SMILES IDX 6 1 7 2 8 3 9 4 13 5 12 6 11 7 14 8 10 9 15 10 5 11 4 12
REMARK SMILES IDX 2 13 1 14 3 15
REMARK H PARENT
REMARK Flexibility Score: inf
ROOT
ATOM      1  C   UNL     1     160.626 161.144 182.946  1.00  0.00     0.012 C 
ENDROOT
BRANCH   1   2
ATOM      2  C   UNL     1     161.858 160.552 182.226  1.00  0.00     0.016 C 
ATOM      3  C   UNL     1     163.178 160.941 182.910  1.00  0.00     0.013 C 
BRANCH   2   4
ATOM      4  C   UNL     1     161.873 160.975 180.768  1.00  0.00    -0.045 A 
ATOM      5  C   UNL     1     161.884 162.165 176.615  1.00  0.00     0.044 C 
ATOM      6  C   UNL     1     161.882 161.782 178.065  1.00  0.00    -0.051 A 
ATOM      7  C   UNL     1     160.671 161.641 178.759  1.00  0.00     0.004 A 
ATOM      8  C   UNL     1     163.088 161.493 178.722  1.00  0.00     0.004 A 
ATOM      9  C   UNL     1     160.667 161.248 180.100  1.00  0.00     0.004 A 
ATOM     10  C   UNL     1     163.085 161.100 180.062  1.00  0.00     0.004 A 
ENDBRANCH   2   4
ENDBRANCH   1   2
BRANCH   1  11
ATOM     11  C   UNL     1     160.924 162.496 183.614  1.00  0.00     0.028 C 
BRANCH  11  12
ATOM     12  C   UNL     1     160.339 163.628 182.808  1.00  0.00    -0.028 C 
ATOM     13  C   UNL     1     161.069 164.516 182.096  1.00  0.00    -0.080 C 
ATOM     14  C   UNL     1     160.348 165.622 181.371  1.00  0.00     0.039 C 
ATOM     15  C   UNL     1     162.574 164.417 181.996  1.00  0.00     0.039 C 
ENDBRANCH  11  12
ENDBRANCH   1  11
TORSDOF 4
ENDMDL
MODEL 5
REMARK VINA RESULT:    -4.536      1.008      4.174
REMARK INTER + INTRA:          -7.137
REMARK INTER:                  -5.697
REMARK INTRA:                  -1.441
REMARK UNBOUND:                -1.541
REMARK SMILES CC(C)=CCC[C@H](C)c1ccc(C)cc1
REMARK SMILES IDX 6 1 7 2 8 3 9 4 13 5 12 6 11 7 14 8 10 9 15 10 5 11 4 12
REMARK SMILES IDX 2 13 1 14 3 15
REMARK H PARENT
REMARK Flexibility Score: inf
ROOT
ATOM      1  C   UNL     1     160.259 162.810 182.643  1.00  0.00     0.012 C 
ENDROOT
BRANCH   1   2
ATOM      2  C   UNL     1     159.952 161.664 181.654  1.00  0.00     0.016 C 
ATOM      3  C   UNL     1     159.974 160.285 182.332  1.00  0.00     0.013 C 
BRANCH   2   4
ATOM      4  C   UNL     1     160.925 161.695 180.488  1.00  0.00    -0.045 A 
ATOM      5  C   UNL     1     163.710 161.761 177.187  1.00  0.00     0.044 C 
ATOM      6  C   UNL     1     162.722 161.727 178.314  1.00  0.00    -0.051 A 
ATOM      7  C   UNL     1     162.621 160.594 179.135  1.00  0.00     0.004 A 
ATOM      8  C   UNL     1     161.937 162.854 178.601  1.00  0.00     0.004 A 
ATOM      9  C   UNL     1     161.726 160.576 180.207  1.00  0.00     0.004 A 
ATOM     10  C   UNL     1     161.042 162.837 179.673  1.00  0.00     0.004 A 
ENDBRANCH   2   4
ENDBRANCH   1   2
BRANCH   1  11
ATOM     11  C   UNL     1     161.341 162.435 183.667  1.00  0.00     0.028 C 
BRANCH  11  12
ATOM     12  C   UNL     1     162.688 162.958 183.234  1.00  0.00    -0.028 C 
ATOM     13  C   UNL     1     163.767 162.180 182.987  1.00  0.00    -0.080 C 
ATOM     14  C   UNL     1     165.060 162.848 182.601  1.00  0.00     0.039 C 
ATOM     15  C   UNL     1     163.702 160.673 183.072  1.00  0.00     0.039 C 
ENDBRANCH  11  12
ENDBRANCH   1  11
TORSDOF 4
ENDMDL
MODEL 6
REMARK VINA RESULT:    -4.527      2.023      4.601
REMARK INTER + INTRA:          -7.126
REMARK INTER:                  -5.600
REMARK INTRA:                  -1.526
REMARK UNBOUND:                -1.541
REMARK SMILES CC(C)=CCC[C@H](C)c1ccc(C)cc1
REMARK SMILES IDX 6 1 7 2 8 3 9 4 13 5 12 6 11 7 14 8 10 9 15 10 5 11 4 12
REMARK SMILES IDX 2 13 1 14 3 15
REMARK H PARENT
REMARK Flexibility Score: inf
ROOT
ATOM      1  C   UNL     1     160.719 161.208 183.038  1.00  0.00     0.012 C 
ENDROOT
BRANCH   1   2
ATOM      2  C   UNL     1     160.031 161.570 181.702  1.00  0.00     0.016 C 
ATOM      3  C   UNL     1     160.504 160.680 180.542  1.00  0.00     0.013 C 
BRANCH   2   4
ATOM      4  C   UNL     1     160.253 163.035 181.371  1.00  0.00    -0.045 A 
ATOM      5  C   UNL     1     160.863 167.211 180.452  1.00  0.00     0.044 C 
ATOM      6  C   UNL     1     160.680 165.760 180.782  1.00  0.00    -0.051 A 
ATOM      7  C   UNL     1     160.169 165.376 182.030  1.00  0.00     0.004 A 
ATOM      8  C   UNL     1     160.955 164.776 179.820  1.00  0.00     0.004 A 
ATOM      9  C   UNL     1     159.964 164.025 182.325  1.00  0.00     0.004 A 
ATOM     10  C   UNL     1     160.750 163.426 180.113  1.00  0.00     0.004 A 
ENDBRANCH   2   4
ENDBRANCH   1   2
BRANCH   1  11
ATOM     11  C   UNL     1     162.227 160.962 182.879  1.00  0.00     0.028 C 
BRANCH  11  12
ATOM     12  C   UNL     1     163.007 162.214 183.193  1.00  0.00    -0.028 C 
ATOM     13  C   UNL     1     163.844 162.830 182.327  1.00  0.00    -0.080 C 
ATOM     14  C   UNL     1     164.589 164.052 182.796  1.00  0.00     0.039 C 
ATOM     15  C   UNL     1     164.035 162.338 180.912  1.00  0.00     0.039 C 
ENDBRANCH  11  12
ENDBRANCH   1  11
TORSDOF 4
ENDMDL
MODEL 7
REMARK VINA RESULT:    -4.502      1.479      4.327
REMARK INTER + INTRA:          -7.096
REMARK INTER:                  -5.572
REMARK INTRA:                  -1.524
REMARK UNBOUND:                -1.541
REMARK SMILES CC(C)=CCC[C@H](C)c1ccc(C)cc1
REMARK SMILES IDX 6 1 7 2 8 3 9 4 13 5 12 6 11 7 14 8 10 9 15 10 5 11 4 12
REMARK SMILES IDX 2 13 1 14 3 15
REMARK H PARENT
REMARK Flexibility Score: inf
ROOT
ATOM      1  C   UNL     1     166.931 160.253 181.763  1.00  0.00     0.012 C 
ENDROOT
BRANCH   1   2
ATOM      2  C   UNL     1     166.656 161.077 183.041  1.00  0.00     0.016 C 
ATOM      3  C   UNL     1     167.050 160.320 184.320  1.00  0.00     0.013 C 
BRANCH   2   4
ATOM      4  C   UNL     1     165.197 161.493 183.101  1.00  0.00    -0.045 A 
ATOM      5  C   UNL     1     161.055 162.704 183.288  1.00  0.00     0.044 C 
ATOM      6  C   UNL     1     162.493 162.289 183.193  1.00  0.00    -0.051 A 
ATOM      7  C   UNL     1     163.516 163.229 183.386  1.00  0.00     0.004 A 
ATOM      8  C   UNL     1     162.828 160.944 182.978  1.00  0.00     0.004 A 
ATOM      9  C   UNL     1     164.856 162.836 183.333  1.00  0.00     0.004 A 
ATOM     10  C   UNL     1     164.167 160.550 182.925  1.00  0.00     0.004 A 
ENDBRANCH   2   4
ENDBRANCH   1   2
BRANCH   1  11
ATOM     11  C   UNL     1     166.836 161.097 180.483  1.00  0.00     0.028 C 
BRANCH  11  12
ATOM     12  C   UNL     1     165.742 160.579 179.583  1.00  0.00    -0.028 C 
ATOM     13  C   UNL     1     164.636 161.280 179.244  1.00  0.00    -0.080 C 
ATOM     14  C   UNL     1     163.607 160.615 178.367  1.00  0.00     0.039 C 
ATOM     15  C   UNL     1     164.417 162.702 179.703  1.00  0.00     0.039 C 
ENDBRANCH  11  12
ENDBRANCH   1  11
TORSDOF 4
ENDMDL
MODEL 8
REMARK VINA RESULT:    -4.440      1.605      4.362
REMARK INTER + INTRA:          -7.019
REMARK INTER:                  -5.624
REMARK INTRA:                  -1.394
REMARK UNBOUND:                -1.541
REMARK SMILES CC(C)=CCC[C@H](C)c1ccc(C)cc1
REMARK SMILES IDX 6 1 7 2 8 3 9 4 13 5 12 6 11 7 14 8 10 9 15 10 5 11 4 12
REMARK SMILES IDX 2 13 1 14 3 15
REMARK H PARENT
REMARK Flexibility Score: inf
ROOT
ATOM      1  C   UNL     1     161.851 162.237 183.499  1.00  0.00     0.012 C 
ENDROOT
BRANCH   1   2
ATOM      2  C   UNL     1     160.462 161.961 182.883  1.00  0.00     0.016 C 
ATOM      3  C   UNL     1     159.876 160.616 183.341  1.00  0.00     0.013 C 
BRANCH   2   4
ATOM      4  C   UNL     1     160.534 162.018 181.367  1.00  0.00    -0.045 A 
ATOM      5  C   UNL     1     160.745 162.146 177.055  1.00  0.00     0.044 C 
ATOM      6  C   UNL     1     160.642 162.109 178.550  1.00  0.00    -0.051 A 
ATOM      7  C   UNL     1     160.312 160.916 179.209  1.00  0.00     0.004 A 
ATOM      8  C   UNL     1     160.941 163.252 179.308  1.00  0.00     0.004 A 
ATOM      9  C   UNL     1     160.251 160.872 180.604  1.00  0.00     0.004 A 
ATOM     10  C   UNL     1     160.882 163.209 180.703  1.00  0.00     0.004 A 
ENDBRANCH   2   4
ENDBRANCH   1   2
BRANCH   1  11
ATOM     11  C   UNL     1     162.867 161.126 183.192  1.00  0.00     0.028 C 
BRANCH  11  12
ATOM     12  C   UNL     1     164.199 161.715 182.799  1.00  0.00    -0.028 C 
ATOM     13  C   UNL     1     164.716 161.668 181.550  1.00  0.00    -0.080 C 
ATOM     14  C   UNL     1     166.079 162.265 181.316  1.00  0.00     0.039 C 
ATOM     15  C   UNL     1     163.962 161.053 180.394  1.00  0.00     0.039 C 
ENDBRANCH  11  12
ENDBRANCH   1  11
TORSDOF 4
ENDMDL
MODEL 9
REMARK VINA RESULT:    -4.418      1.705      2.827
REMARK INTER + INTRA:          -6.992
REMARK INTER:                  -5.478
REMARK INTRA:                  -1.514
REMARK UNBOUND:                -1.541
REMARK SMILES CC(C)=CCC[C@H](C)c1ccc(C)cc1
REMARK SMILES IDX 6 1 7 2 8 3 9 4 13 5 12 6 11 7 14 8 10 9 15 10 5 11 4 12
REMARK SMILES IDX 2 13 1 14 3 15
REMARK H PARENT
REMARK Flexibility Score: inf
ROOT
ATOM      1  C   UNL     1     160.232 162.147 181.157  1.00  0.00     0.012 C 
ENDROOT
BRANCH   1   2
ATOM      2  C   UNL     1     160.823 161.225 182.247  1.00  0.00     0.016 C 
ATOM      3  C   UNL     1     160.587 161.771 183.664  1.00  0.00     0.013 C 
BRANCH   2   4
ATOM      4  C   UNL     1     162.305 161.002 182.005  1.00  0.00    -0.045 A 
ATOM      5  C   UNL     1     166.515 160.354 181.287  1.00  0.00     0.044 C 
ATOM      6  C   UNL     1     165.059 160.609 181.539  1.00  0.00    -0.051 A 
ATOM      7  C   UNL     1     164.182 160.827 180.466  1.00  0.00     0.004 A 
ATOM      8  C   UNL     1     164.549 160.564 182.845  1.00  0.00     0.004 A 
ATOM      9  C   UNL     1     162.819 161.028 180.698  1.00  0.00     0.004 A 
ATOM     10  C   UNL     1     163.186 160.765 183.077  1.00  0.00     0.004 A 
ENDBRANCH   2   4
ENDBRANCH   1   2
BRANCH   1  11
ATOM     11  C   UNL     1     160.232 163.627 181.570  1.00  0.00     0.028 C 
BRANCH  11  12
ATOM     12  C   UNL     1     161.181 164.421 180.707  1.00  0.00    -0.028 C 
ATOM     13  C   UNL     1     162.414 164.819 181.094  1.00  0.00    -0.080 C 
ATOM     14  C   UNL     1     163.235 165.644 180.137  1.00  0.00     0.039 C 
ATOM     15  C   UNL     1     162.990 164.447 182.440  1.00  0.00     0.039 C 
ENDBRANCH  11  12
ENDBRANCH   1  11
TORSDOF 4
ENDMDL
