MODEL 1
REMARK VINA RESULT:    -4.689      0.000      0.000
REMARK INTER + INTRA:         -14.015
REMARK INTER:                 -10.171
REMARK INTRA:                  -3.845
REMARK UNBOUND:                -3.845
REMARK SMILES CCCCCCCCCCCCCCCCCCCCCC(=O)[O-]
REMARK SMILES IDX 12 1 11 2 10 3 9 4 8 5 7 6 6 7 5 8 4 9 3 10 2 11 1 12 13 13
REMARK SMILES IDX 14 14 15 15 16 16 17 17 18 18 19 19 20 20 21 21 22 22 23 23
REMARK SMILES IDX 24 24
REMARK H PARENT
REMARK Flexibility Score: inf
ROOT
ATOM      1  C   UNL     1      19.509 -33.341  22.299  1.00  0.00     0.000 C 
ENDROOT
BRANCH   1   2
ATOM      2  C   UNL     1      19.048 -32.600  21.031  1.00  0.00     0.000 C 
BRANCH   2   3
ATOM      3  C   UNL     1      18.305 -31.270  21.286  1.00  0.00     0.000 C 
BRANCH   3   4
ATOM      4  C   UNL     1      18.072 -30.921  22.772  1.00  0.00    -0.000 C 
BRANCH   4   5
ATOM      5  C   UNL     1      16.745 -30.191  23.042  1.00  0.00    -0.000 C 
BRANCH   5   6
ATOM      6  C   UNL     1      16.379 -29.191  21.925  1.00  0.00    -0.000 C 
BRANCH   6   7
ATOM      7  C   UNL     1      14.858 -29.058  21.745  1.00  0.00    -0.000 C 
BRANCH   7   8
ATOM      8  C   UNL     1      14.198 -30.425  21.501  1.00  0.00    -0.000 C 
BRANCH   8   9
ATOM      9  C   UNL     1      12.957 -30.611  22.385  1.00  0.00    -0.000 C 
BRANCH   9  10
ATOM     10  C   UNL     1      13.123 -29.958  23.773  1.00  0.00    -0.000 C 
BRANCH  10  11
ATOM     11  C   UNL     1      12.131 -28.815  24.050  1.00  0.00    -0.003 C 
ATOM     12  C   UNL     1      12.725 -27.682  24.884  1.00  0.00     0.004 C 
ENDBRANCH  10  11
ENDBRANCH   9  10
ENDBRANCH   8   9
ENDBRANCH   7   8
ENDBRANCH   6   7
ENDBRANCH   5   6
ENDBRANCH   4   5
ENDBRANCH   3   4
ENDBRANCH   2   3
ENDBRANCH   1   2
BRANCH   1  13
ATOM     13  C   UNL     1      19.437 -34.871  22.146  1.00  0.00     0.000 C 
BRANCH  13  14
ATOM     14  C   UNL     1      19.137 -35.583  23.472  1.00  0.00     0.000 C 
BRANCH  14  15
ATOM     15  C   UNL     1      19.040 -34.606  24.658  1.00  0.00     0.000 C 
BRANCH  15  16
ATOM     16  C   UNL     1      17.843 -34.930  25.567  1.00  0.00     0.000 C 
BRANCH  16  17
ATOM     17  C   UNL     1      16.512 -34.964  24.790  1.00  0.00     0.000 C 
BRANCH  17  18
ATOM     18  C   UNL     1      16.017 -33.555  24.431  1.00  0.00     0.000 C 
BRANCH  18  19
ATOM     19  C   UNL     1      15.201 -33.554  23.127  1.00  0.00     0.000 C 
BRANCH  19  20
ATOM     20  C   UNL     1      15.810 -34.451  22.041  1.00  0.00     0.006 C 
BRANCH  20  21
ATOM     21  C   UNL     1      15.603 -33.900  20.625  1.00  0.00     0.053 C 
BRANCH  21  22
ATOM     22  C   UNL     1      16.334 -34.739  19.626  1.00  0.00     0.041 C 
ATOM     23  O   UNL     1      16.981 -34.192  18.694  1.00  0.00    -0.550 OA
ATOM     24  O   UNL     1      16.251 -36.124  19.685  1.00  0.00    -0.550 OA
ENDBRANCH  21  22
ENDBRANCH  20  21
ENDBRANCH  19  20
ENDBRANCH  18  19
ENDBRANCH  17  18
ENDBRANCH  16  17
ENDBRANCH  15  16
ENDBRANCH  14  15
ENDBRANCH  13  14
ENDBRANCH   1  13
TORSDOF 20
ENDMDL
MODEL 2
REMARK VINA RESULT:    -4.670      2.360      4.594
REMARK INTER + INTRA:         -13.974
REMARK INTER:                  -9.845
REMARK INTRA:                  -4.130
REMARK UNBOUND:                -3.845
REMARK SMILES CCCCCCCCCCCCCCCCCCCCCC(=O)[O-]
REMARK SMILES IDX 12 1 11 2 10 3 9 4 8 5 7 6 6 7 5 8 4 9 3 10 2 11 1 12 13 13
REMARK SMILES IDX 14 14 15 15 16 16 17 17 18 18 19 19 20 20 21 21 22 22 23 23
REMARK SMILES IDX 24 24
REMARK H PARENT
REMARK Flexibility Score: inf
ROOT
ATOM      1  C   UNL     1      17.599 -36.790  19.856  1.00  0.00     0.000 C 
ENDROOT
BRANCH   1   2
ATOM      2  C   UNL     1      16.249 -36.051  19.834  1.00  0.00     0.000 C 
BRANCH   2   3
ATOM      3  C   UNL     1      16.326 -34.560  19.439  1.00  0.00     0.000 C 
BRANCH   3   4
ATOM      4  C   UNL     1      17.735 -34.051  19.064  1.00  0.00    -0.000 C 
BRANCH   4   5
ATOM      5  C   UNL     1      18.363 -33.119  20.113  1.00  0.00    -0.000 C 
BRANCH   5   6
ATOM      6  C   UNL     1      17.374 -32.051  20.628  1.00  0.00    -0.000 C 
BRANCH   6   7
ATOM      7  C   UNL     1      18.099 -30.855  21.269  1.00  0.00    -0.000 C 
BRANCH   7   8
ATOM      8  C   UNL     1      17.681 -30.664  22.736  1.00  0.00    -0.000 C 
BRANCH   8   9
ATOM      9  C   UNL     1      18.714 -31.275  23.694  1.00  0.00    -0.000 C 
BRANCH   9  10
ATOM     10  C   UNL     1      18.220 -31.290  25.156  1.00  0.00    -0.000 C 
BRANCH  10  11
ATOM     11  C   UNL     1      18.919 -32.336  26.043  1.00  0.00    -0.003 C 
ATOM     12  C   UNL     1      20.139 -32.974  25.384  1.00  0.00     0.004 C 
ENDBRANCH  10  11
ENDBRANCH   9  10
ENDBRANCH   8   9
ENDBRANCH   7   8
ENDBRANCH   6   7
ENDBRANCH   5   6
ENDBRANCH   4   5
ENDBRANCH   3   4
ENDBRANCH   2   3
ENDBRANCH   1   2
BRANCH   1  13
ATOM     13  C   UNL     1      18.067 -37.121  21.283  1.00  0.00     0.000 C 
BRANCH  13  14
ATOM     14  C   UNL     1      19.306 -36.317  21.700  1.00  0.00     0.000 C 
BRANCH  14  15
ATOM     15  C   UNL     1      19.013 -35.336  22.851  1.00  0.00     0.000 C 
BRANCH  15  16
ATOM     16  C   UNL     1      17.630 -35.584  23.474  1.00  0.00     0.000 C 
BRANCH  16  17
ATOM     17  C   UNL     1      16.684 -34.382  23.294  1.00  0.00     0.000 C 
BRANCH  17  18
ATOM     18  C   UNL     1      15.926 -34.044  24.587  1.00  0.00     0.000 C 
BRANCH  18  19
ATOM     19  C   UNL     1      14.560 -33.400  24.294  1.00  0.00     0.000 C 
BRANCH  19  20
ATOM     20  C   UNL     1      14.532 -32.637  22.962  1.00  0.00     0.006 C 
BRANCH  20  21
ATOM     21  C   UNL     1      14.043 -31.191  23.112  1.00  0.00     0.053 C 
BRANCH  21  22
ATOM     22  C   UNL     1      13.567 -30.662  21.797  1.00  0.00     0.041 C 
ATOM     23  O   UNL     1      14.390 -30.193  20.968  1.00  0.00    -0.550 OA
ATOM     24  O   UNL     1      12.208 -30.630  21.510  1.00  0.00    -0.550 OA
ENDBRANCH  21  22
ENDBRANCH  20  21
ENDBRANCH  19  20
ENDBRANCH  18  19
ENDBRANCH  17  18
ENDBRANCH  16  17
ENDBRANCH  15  16
ENDBRANCH  14  15
ENDBRANCH  13  14
ENDBRANCH   1  13
TORSDOF 20
ENDMDL
MODEL 3
REMARK VINA RESULT:    -4.641      4.225      6.340
REMARK INTER + INTRA:         -13.912
REMARK INTER:                 -11.460
REMARK INTRA:                  -2.451
REMARK UNBOUND:                -3.845
REMARK SMILES CCCCCCCCCCCCCCCCCCCCCC(=O)[O-]
REMARK SMILES IDX 12 1 11 2 10 3 9 4 8 5 7 6 6 7 5 8 4 9 3 10 2 11 1 12 13 13
REMARK SMILES IDX 14 14 15 15 16 16 17 17 18 18 19 19 20 20 21 21 22 22 23 23
REMARK SMILES IDX 24 24
REMARK H PARENT
REMARK Flexibility Score: inf
ROOT
ATOM      1  C   UNL     1      18.786 -33.670  21.638  1.00  0.00     0.000 C 
ENDROOT
BRANCH   1   2
ATOM      2  C   UNL     1      18.700 -32.558  20.578  1.00  0.00     0.000 C 
BRANCH   2   3
ATOM      3  C   UNL     1      17.756 -31.389  20.932  1.00  0.00     0.000 C 
BRANCH   3   4
ATOM      4  C   UNL     1      18.411 -29.991  20.933  1.00  0.00    -0.000 C 
BRANCH   4   5
ATOM      5  C   UNL     1      19.895 -29.996  21.338  1.00  0.00    -0.000 C 
BRANCH   5   6
ATOM      6  C   UNL     1      20.641 -28.724  20.881  1.00  0.00    -0.000 C 
BRANCH   6   7
ATOM      7  C   UNL     1      19.721 -27.492  20.859  1.00  0.00    -0.000 C 
BRANCH   7   8
ATOM      8  C   UNL     1      20.464 -26.243  20.360  1.00  0.00    -0.000 C 
BRANCH   8   9
ATOM      9  C   UNL     1      21.532 -25.790  21.366  1.00  0.00    -0.000 C 
BRANCH   9  10
ATOM     10  C   UNL     1      22.964 -25.965  20.820  1.00  0.00    -0.000 C 
BRANCH  10  11
ATOM     11  C   UNL     1      23.222 -25.232  19.492  1.00  0.00    -0.003 C 
ATOM     12  C   UNL     1      23.927 -23.889  19.665  1.00  0.00     0.004 C 
ENDBRANCH  10  11
ENDBRANCH   9  10
ENDBRANCH   8   9
ENDBRANCH   7   8
ENDBRANCH   6   7
ENDBRANCH   5   6
ENDBRANCH   4   5
ENDBRANCH   3   4
ENDBRANCH   2   3
ENDBRANCH   1   2
BRANCH   1  13
ATOM     13  C   UNL     1      18.649 -35.077  21.029  1.00  0.00     0.000 C 
BRANCH  13  14
ATOM     14  C   UNL     1      18.058 -35.051  19.613  1.00  0.00     0.000 C 
BRANCH  14  15
ATOM     15  C   UNL     1      16.869 -36.015  19.452  1.00  0.00     0.000 C 
BRANCH  15  16
ATOM     16  C   UNL     1      15.617 -35.505  20.184  1.00  0.00     0.000 C 
BRANCH  16  17
ATOM     17  C   UNL     1      15.219 -34.085  19.737  1.00  0.00     0.000 C 
BRANCH  17  18
ATOM     18  C   UNL     1      14.589 -33.275  20.880  1.00  0.00     0.000 C 
BRANCH  18  19
ATOM     19  C   UNL     1      15.108 -33.733  22.255  1.00  0.00     0.000 C 
BRANCH  19  20
ATOM     20  C   UNL     1      14.802 -32.729  23.374  1.00  0.00     0.006 C 
BRANCH  20  21
ATOM     21  C   UNL     1      14.687 -31.286  22.867  1.00  0.00     0.053 C 
BRANCH  21  22
ATOM     22  C   UNL     1      13.338 -30.725  23.189  1.00  0.00     0.041 C 
ATOM     23  O   UNL     1      13.148 -30.119  24.275  1.00  0.00    -0.550 OA
ATOM     24  O   UNL     1      12.274 -30.926  22.319  1.00  0.00    -0.550 OA
ENDBRANCH  21  22
ENDBRANCH  20  21
ENDBRANCH  19  20
ENDBRANCH  18  19
ENDBRANCH  17  18
ENDBRANCH  16  17
ENDBRANCH  15  16
ENDBRANCH  14  15
ENDBRANCH  13  14
ENDBRANCH   1  13
TORSDOF 20
ENDMDL
MODEL 4
REMARK VINA RESULT:    -4.628      1.976      4.077
REMARK INTER + INTRA:         -13.884
REMARK INTER:                 -10.595
REMARK INTRA:                  -3.289
REMARK UNBOUND:                -3.845
REMARK SMILES CCCCCCCCCCCCCCCCCCCCCC(=O)[O-]
REMARK SMILES IDX 12 1 11 2 10 3 9 4 8 5 7 6 6 7 5 8 4 9 3 10 2 11 1 12 13 13
REMARK SMILES IDX 14 14 15 15 16 16 17 17 18 18 19 19 20 20 21 21 22 22 23 23
REMARK SMILES IDX 24 24
REMARK H PARENT
REMARK Flexibility Score: inf
ROOT
ATOM      1  C   UNL     1      15.571 -32.795  23.883  1.00  0.00     0.000 C 
ENDROOT
BRANCH   1   2
ATOM      2  C   UNL     1      16.790 -31.892  23.624  1.00  0.00     0.000 C 
BRANCH   2   3
ATOM      3  C   UNL     1      16.470 -30.389  23.472  1.00  0.00     0.000 C 
BRANCH   3   4
ATOM      4  C   UNL     1      16.364 -29.883  22.017  1.00  0.00    -0.000 C 
BRANCH   4   5
ATOM      5  C   UNL     1      14.963 -29.377  21.632  1.00  0.00    -0.000 C 
BRANCH   5   6
ATOM      6  C   UNL     1      14.014 -30.518  21.206  1.00  0.00    -0.000 C 
BRANCH   6   7
ATOM      7  C   UNL     1      12.953 -30.816  22.278  1.00  0.00    -0.000 C 
BRANCH   7   8
ATOM      8  C   UNL     1      11.653 -30.040  22.016  1.00  0.00    -0.000 C 
BRANCH   8   9
ATOM      9  C   UNL     1      11.502 -28.860  22.987  1.00  0.00    -0.000 C 
BRANCH   9  10
ATOM     10  C   UNL     1      12.435 -28.985  24.210  1.00  0.00    -0.000 C 
BRANCH  10  11
ATOM     11  C   UNL     1      12.665 -27.661  24.959  1.00  0.00    -0.003 C 
ATOM     12  C   UNL     1      13.679 -26.745  24.278  1.00  0.00     0.004 C 
ENDBRANCH  10  11
ENDBRANCH   9  10
ENDBRANCH   8   9
ENDBRANCH   7   8
ENDBRANCH   6   7
ENDBRANCH   5   6
ENDBRANCH   4   5
ENDBRANCH   3   4
ENDBRANCH   2   3
ENDBRANCH   1   2
BRANCH   1  13
ATOM     13  C   UNL     1      15.404 -33.883  22.808  1.00  0.00     0.000 C 
BRANCH  13  14
ATOM     14  C   UNL     1      16.073 -33.506  21.478  1.00  0.00     0.000 C 
BRANCH  14  15
ATOM     15  C   UNL     1      15.273 -33.994  20.256  1.00  0.00     0.000 C 
BRANCH  15  16
ATOM     16  C   UNL     1      16.197 -34.409  19.099  1.00  0.00     0.000 C 
BRANCH  16  17
ATOM     17  C   UNL     1      17.608 -34.789  19.586  1.00  0.00     0.000 C 
BRANCH  17  18
ATOM     18  C   UNL     1      17.865 -36.300  19.490  1.00  0.00     0.000 C 
BRANCH  18  19
ATOM     19  C   UNL     1      17.644 -37.002  20.842  1.00  0.00     0.000 C 
BRANCH  19  20
ATOM     20  C   UNL     1      18.771 -36.731  21.847  1.00  0.00     0.006 C 
BRANCH  20  21
ATOM     21  C   UNL     1      18.274 -36.074  23.140  1.00  0.00     0.053 C 
BRANCH  21  22
ATOM     22  C   UNL     1      19.105 -34.876  23.471  1.00  0.00     0.041 C 
ATOM     23  O   UNL     1      19.417 -34.055  22.569  1.00  0.00    -0.550 OA
ATOM     24  O   UNL     1      19.588 -34.696  24.761  1.00  0.00    -0.550 OA
ENDBRANCH  21  22
ENDBRANCH  20  21
ENDBRANCH  19  20
ENDBRANCH  18  19
ENDBRANCH  17  18
ENDBRANCH  16  17
ENDBRANCH  15  16
ENDBRANCH  14  15
ENDBRANCH  13  14
ENDBRANCH   1  13
TORSDOF 20
ENDMDL
MODEL 5
REMARK VINA RESULT:    -4.621      3.612      5.923
REMARK INTER + INTRA:         -13.869
REMARK INTER:                 -10.975
REMARK INTRA:                  -2.894
REMARK UNBOUND:                -3.845
REMARK SMILES CCCCCCCCCCCCCCCCCCCCCC(=O)[O-]
REMARK SMILES IDX 12 1 11 2 10 3 9 4 8 5 7 6 6 7 5 8 4 9 3 10 2 11 1 12 13 13
REMARK SMILES IDX 14 14 15 15 16 16 17 17 18 18 19 19 20 20 21 21 22 22 23 23
REMARK SMILES IDX 24 24
REMARK H PARENT
REMARK Flexibility Score: inf
ROOT
ATOM      1  C   UNL     1      16.105 -34.126  23.890  1.00  0.00     0.000 C 
ENDROOT
BRANCH   1   2
ATOM      2  C   UNL     1      17.360 -34.512  23.087  1.00  0.00     0.000 C 
BRANCH   2   3
ATOM      3  C   UNL     1      17.084 -35.119  21.694  1.00  0.00     0.000 C 
BRANCH   3   4
ATOM      4  C   UNL     1      16.658 -34.107  20.608  1.00  0.00    -0.000 C 
BRANCH   4   5
ATOM      5  C   UNL     1      15.472 -34.575  19.747  1.00  0.00    -0.000 C 
BRANCH   5   6
ATOM      6  C   UNL     1      14.274 -33.604  19.806  1.00  0.00    -0.000 C 
BRANCH   6   7
ATOM      7  C   UNL     1      14.260 -32.783  21.105  1.00  0.00    -0.000 C 
BRANCH   7   8
ATOM      8  C   UNL     1      13.570 -31.424  20.905  1.00  0.00    -0.000 C 
BRANCH   8   9
ATOM      9  C   UNL     1      12.700 -31.056  22.115  1.00  0.00    -0.000 C 
BRANCH   9  10
ATOM     10  C   UNL     1      12.968 -29.620  22.614  1.00  0.00    -0.000 C 
BRANCH  10  11
ATOM     11  C   UNL     1      12.948 -29.476  24.146  1.00  0.00    -0.003 C 
ATOM     12  C   UNL     1      12.684 -28.048  24.620  1.00  0.00     0.004 C 
ENDBRANCH  10  11
ENDBRANCH   9  10
ENDBRANCH   8   9
ENDBRANCH   7   8
ENDBRANCH   6   7
ENDBRANCH   5   6
ENDBRANCH   4   5
ENDBRANCH   3   4
ENDBRANCH   2   3
ENDBRANCH   1   2
BRANCH   1  13
ATOM     13  C   UNL     1      16.039 -32.619  24.193  1.00  0.00     0.000 C 
BRANCH  13  14
ATOM     14  C   UNL     1      17.190 -31.837  23.545  1.00  0.00     0.000 C 
BRANCH  14  15
ATOM     15  C   UNL     1      16.714 -30.535  22.874  1.00  0.00     0.000 C 
BRANCH  15  16
ATOM     16  C   UNL     1      17.154 -30.457  21.403  1.00  0.00     0.000 C 
BRANCH  16  17
ATOM     17  C   UNL     1      18.601 -30.948  21.200  1.00  0.00     0.000 C 
BRANCH  17  18
ATOM     18  C   UNL     1      19.612 -29.792  21.226  1.00  0.00     0.000 C 
BRANCH  18  19
ATOM     19  C   UNL     1      18.950 -28.449  20.872  1.00  0.00     0.000 C 
BRANCH  19  20
ATOM     20  C   UNL     1      19.967 -27.330  20.615  1.00  0.00     0.006 C 
BRANCH  20  21
ATOM     21  C   UNL     1      21.401 -27.729  20.985  1.00  0.00     0.053 C 
BRANCH  21  22
ATOM     22  C   UNL     1      22.379 -26.749  20.420  1.00  0.00     0.041 C 
ATOM     23  O   UNL     1      23.613 -26.909  20.606  1.00  0.00    -0.550 OA
ATOM     24  O   UNL     1      21.926 -25.625  19.741  1.00  0.00    -0.550 OA
ENDBRANCH  21  22
ENDBRANCH  20  21
ENDBRANCH  19  20
ENDBRANCH  18  19
ENDBRANCH  17  18
ENDBRANCH  16  17
ENDBRANCH  15  16
ENDBRANCH  14  15
ENDBRANCH  13  14
ENDBRANCH   1  13
TORSDOF 20
ENDMDL
MODEL 6
REMARK VINA RESULT:    -4.619      4.081      6.861
REMARK INTER + INTRA:         -13.863
REMARK INTER:                 -10.813
REMARK INTRA:                  -3.051
REMARK UNBOUND:                -3.845
REMARK SMILES CCCCCCCCCCCCCCCCCCCCCC(=O)[O-]
REMARK SMILES IDX 12 1 11 2 10 3 9 4 8 5 7 6 6 7 5 8 4 9 3 10 2 11 1 12 13 13
REMARK SMILES IDX 14 14 15 15 16 16 17 17 18 18 19 19 20 20 21 21 22 22 23 23
REMARK SMILES IDX 24 24
REMARK H PARENT
REMARK Flexibility Score: inf
ROOT
ATOM      1  C   UNL     1      17.690 -34.393  23.634  1.00  0.00     0.000 C 
ENDROOT
BRANCH   1   2
ATOM      2  C   UNL     1      16.218 -34.383  24.085  1.00  0.00     0.000 C 
BRANCH   2   3
ATOM      3  C   UNL     1      15.630 -32.983  24.366  1.00  0.00     0.000 C 
BRANCH   3   4
ATOM      4  C   UNL     1      14.095 -32.877  24.236  1.00  0.00    -0.000 C 
BRANCH   4   5
ATOM      5  C   UNL     1      13.607 -31.537  23.660  1.00  0.00    -0.000 C 
BRANCH   5   6
ATOM      6  C   UNL     1      14.575 -30.954  22.609  1.00  0.00    -0.000 C 
BRANCH   6   7
ATOM      7  C   UNL     1      14.001 -31.039  21.185  1.00  0.00    -0.000 C 
BRANCH   7   8
ATOM      8  C   UNL     1      13.861 -32.497  20.720  1.00  0.00    -0.000 C 
BRANCH   8   9
ATOM      9  C   UNL     1      15.229 -33.190  20.637  1.00  0.00    -0.000 C 
BRANCH   9  10
ATOM     10  C   UNL     1      15.104 -34.727  20.574  1.00  0.00    -0.000 C 
BRANCH  10  11
ATOM     11  C   UNL     1      16.418 -35.447  20.225  1.00  0.00    -0.003 C 
ATOM     12  C   UNL     1      17.253 -34.716  19.175  1.00  0.00     0.004 C 
ENDBRANCH  10  11
ENDBRANCH   9  10
ENDBRANCH   8   9
ENDBRANCH   7   8
ENDBRANCH   6   7
ENDBRANCH   5   6
ENDBRANCH   4   5
ENDBRANCH   3   4
ENDBRANCH   2   3
ENDBRANCH   1   2
BRANCH   1  13
ATOM     13  C   UNL     1      18.150 -33.028  23.094  1.00  0.00     0.000 C 
BRANCH  13  14
ATOM     14  C   UNL     1      19.097 -33.157  21.894  1.00  0.00     0.000 C 
BRANCH  14  15
ATOM     15  C   UNL     1      19.273 -31.828  21.135  1.00  0.00     0.000 C 
BRANCH  15  16
ATOM     16  C   UNL     1      17.940 -31.077  20.983  1.00  0.00     0.000 C 
BRANCH  16  17
ATOM     17  C   UNL     1      18.124 -29.547  21.024  1.00  0.00     0.000 C 
BRANCH  17  18
ATOM     18  C   UNL     1      19.606 -29.145  21.058  1.00  0.00     0.000 C 
BRANCH  18  19
ATOM     19  C   UNL     1      19.787 -27.628  20.878  1.00  0.00     0.000 C 
BRANCH  19  20
ATOM     20  C   UNL     1      21.261 -27.206  20.804  1.00  0.00     0.006 C 
BRANCH  20  21
ATOM     21  C   UNL     1      21.458 -25.827  20.162  1.00  0.00     0.053 C 
BRANCH  21  22
ATOM     22  C   UNL     1      22.836 -25.707  19.595  1.00  0.00     0.041 C 
ATOM     23  O   UNL     1      23.306 -24.574  19.313  1.00  0.00    -0.550 OA
ATOM     24  O   UNL     1      23.578 -26.848  19.320  1.00  0.00    -0.550 OA
ENDBRANCH  21  22
ENDBRANCH  20  21
ENDBRANCH  19  20
ENDBRANCH  18  19
ENDBRANCH  17  18
ENDBRANCH  16  17
ENDBRANCH  15  16
ENDBRANCH  14  15
ENDBRANCH  13  14
ENDBRANCH   1  13
TORSDOF 20
ENDMDL
MODEL 7
REMARK VINA RESULT:    -4.599      2.066      5.546
REMARK INTER + INTRA:         -13.820
REMARK INTER:                 -10.209
REMARK INTRA:                  -3.611
REMARK UNBOUND:                -3.845
REMARK SMILES CCCCCCCCCCCCCCCCCCCCCC(=O)[O-]
REMARK SMILES IDX 12 1 11 2 10 3 9 4 8 5 7 6 6 7 5 8 4 9 3 10 2 11 1 12 13 13
REMARK SMILES IDX 14 14 15 15 16 16 17 17 18 18 19 19 20 20 21 21 22 22 23 23
REMARK SMILES IDX 24 24
REMARK H PARENT
REMARK Flexibility Score: inf
ROOT
ATOM      1  C   UNL     1      13.164 -31.357  22.686  1.00  0.00     0.000 C 
ENDROOT
BRANCH   1   2
ATOM      2  C   UNL     1      13.752 -30.171  23.471  1.00  0.00     0.000 C 
BRANCH   2   3
ATOM      3  C   UNL     1      15.037 -29.561  22.868  1.00  0.00     0.000 C 
BRANCH   3   4
ATOM      4  C   UNL     1      16.336 -30.341  23.162  1.00  0.00    -0.000 C 
BRANCH   4   5
ATOM      5  C   UNL     1      17.440 -30.136  22.111  1.00  0.00    -0.000 C 
BRANCH   5   6
ATOM      6  C   UNL     1      17.368 -31.165  20.963  1.00  0.00    -0.000 C 
BRANCH   6   7
ATOM      7  C   UNL     1      18.680 -31.952  20.811  1.00  0.00    -0.000 C 
BRANCH   7   8
ATOM      8  C   UNL     1      19.528 -31.888  22.091  1.00  0.00    -0.000 C 
BRANCH   8   9
ATOM      9  C   UNL     1      19.513 -33.229  22.838  1.00  0.00    -0.000 C 
BRANCH   9  10
ATOM     10  C   UNL     1      18.598 -33.198  24.080  1.00  0.00    -0.000 C 
BRANCH  10  11
ATOM     11  C   UNL     1      17.238 -33.887  23.874  1.00  0.00    -0.003 C 
ATOM     12  C   UNL     1      17.031 -35.106  24.771  1.00  0.00     0.004 C 
ENDBRANCH  10  11
ENDBRANCH   9  10
ENDBRANCH   8   9
ENDBRANCH   7   8
ENDBRANCH   6   7
ENDBRANCH   5   6
ENDBRANCH   4   5
ENDBRANCH   3   4
ENDBRANCH   2   3
ENDBRANCH   1   2
BRANCH   1  13
ATOM     13  C   UNL     1      13.358 -31.213  21.166  1.00  0.00     0.000 C 
BRANCH  13  14
ATOM     14  C   UNL     1      13.848 -32.509  20.508  1.00  0.00     0.000 C 
BRANCH  14  15
ATOM     15  C   UNL     1      14.677 -33.382  21.469  1.00  0.00     0.000 C 
BRANCH  15  16
ATOM     16  C   UNL     1      15.195 -34.655  20.779  1.00  0.00     0.000 C 
BRANCH  16  17
ATOM     17  C   UNL     1      15.995 -34.341  19.500  1.00  0.00     0.000 C 
BRANCH  17  18
ATOM     18  C   UNL     1      17.227 -35.246  19.353  1.00  0.00     0.000 C 
BRANCH  18  19
ATOM     19  C   UNL     1      16.894 -36.716  19.660  1.00  0.00     0.000 C 
BRANCH  19  20
ATOM     20  C   UNL     1      17.897 -37.369  20.620  1.00  0.00     0.006 C 
BRANCH  20  21
ATOM     21  C   UNL     1      18.535 -36.367  21.591  1.00  0.00     0.053 C 
BRANCH  21  22
ATOM     22  C   UNL     1      19.419 -37.076  22.566  1.00  0.00     0.041 C 
ATOM     23  O   UNL     1      20.663 -36.888  22.544  1.00  0.00    -0.550 OA
ATOM     24  O   UNL     1      18.878 -37.991  23.460  1.00  0.00    -0.550 OA
ENDBRANCH  21  22
ENDBRANCH  20  21
ENDBRANCH  19  20
ENDBRANCH  18  19
ENDBRANCH  17  18
ENDBRANCH  16  17
ENDBRANCH  15  16
ENDBRANCH  14  15
ENDBRANCH  13  14
ENDBRANCH   1  13
TORSDOF 20
ENDMDL
MODEL 8
REMARK VINA RESULT:    -4.594      2.068      3.677
REMARK INTER + INTRA:         -13.810
REMARK INTER:                  -9.746
REMARK INTRA:                  -4.064
REMARK UNBOUND:                -3.845
REMARK SMILES CCCCCCCCCCCCCCCCCCCCCC(=O)[O-]
REMARK SMILES IDX 12 1 11 2 10 3 9 4 8 5 7 6 6 7 5 8 4 9 3 10 2 11 1 12 13 13
REMARK SMILES IDX 14 14 15 15 16 16 17 17 18 18 19 19 20 20 21 21 22 22 23 23
REMARK SMILES IDX 24 24
REMARK H PARENT
REMARK Flexibility Score: inf
ROOT
ATOM      1  C   UNL     1      18.633 -35.811  22.154  1.00  0.00     0.000 C 
ENDROOT
BRANCH   1   2
ATOM      2  C   UNL     1      19.468 -34.729  21.445  1.00  0.00     0.000 C 
BRANCH   2   3
ATOM      3  C   UNL     1      19.044 -33.275  21.746  1.00  0.00     0.000 C 
BRANCH   3   4
ATOM      4  C   UNL     1      18.701 -32.420  20.507  1.00  0.00    -0.000 C 
BRANCH   4   5
ATOM      5  C   UNL     1      17.854 -31.175  20.822  1.00  0.00    -0.000 C 
BRANCH   5   6
ATOM      6  C   UNL     1      17.792 -30.863  22.332  1.00  0.00    -0.000 C 
BRANCH   6   7
ATOM      7  C   UNL     1      16.425 -30.294  22.748  1.00  0.00    -0.000 C 
BRANCH   7   8
ATOM      8  C   UNL     1      15.415 -30.351  21.591  1.00  0.00    -0.000 C 
BRANCH   8   9
ATOM      9  C   UNL     1      13.981 -30.123  22.090  1.00  0.00    -0.000 C 
BRANCH   9  10
ATOM     10  C   UNL     1      13.896 -30.086  23.630  1.00  0.00    -0.000 C 
BRANCH  10  11
ATOM     11  C   UNL     1      12.734 -29.236  24.173  1.00  0.00    -0.003 C 
ATOM     12  C   UNL     1      11.890 -28.588  23.077  1.00  0.00     0.004 C 
ENDBRANCH  10  11
ENDBRANCH   9  10
ENDBRANCH   8   9
ENDBRANCH   7   8
ENDBRANCH   6   7
ENDBRANCH   5   6
ENDBRANCH   4   5
ENDBRANCH   3   4
ENDBRANCH   2   3
ENDBRANCH   1   2
BRANCH   1  13
ATOM     13  C   UNL     1      18.085 -36.866  21.177  1.00  0.00     0.000 C 
BRANCH  13  14
ATOM     14  C   UNL     1      17.778 -36.283  19.791  1.00  0.00     0.000 C 
BRANCH  14  15
ATOM     15  C   UNL     1      16.278 -36.000  19.589  1.00  0.00     0.000 C 
BRANCH  15  16
ATOM     16  C   UNL     1      15.978 -34.491  19.584  1.00  0.00     0.000 C 
BRANCH  16  17
ATOM     17  C   UNL     1      14.978 -34.092  20.686  1.00  0.00     0.000 C 
BRANCH  17  18
ATOM     18  C   UNL     1      15.643 -34.008  22.067  1.00  0.00     0.000 C 
BRANCH  18  19
ATOM     19  C   UNL     1      14.631 -33.636  23.165  1.00  0.00     0.000 C 
BRANCH  19  20
ATOM     20  C   UNL     1      15.281 -33.466  24.545  1.00  0.00     0.006 C 
BRANCH  20  21
ATOM     21  C   UNL     1      16.809 -33.591  24.506  1.00  0.00     0.053 C 
BRANCH  21  22
ATOM     22  C   UNL     1      17.256 -34.785  25.288  1.00  0.00     0.041 C 
ATOM     23  O   UNL     1      16.550 -35.827  25.309  1.00  0.00    -0.550 OA
ATOM     24  O   UNL     1      18.420 -34.728  26.043  1.00  0.00    -0.550 OA
ENDBRANCH  21  22
ENDBRANCH  20  21
ENDBRANCH  19  20
ENDBRANCH  18  19
ENDBRANCH  17  18
ENDBRANCH  16  17
ENDBRANCH  15  16
ENDBRANCH  14  15
ENDBRANCH  13  14
ENDBRANCH   1  13
TORSDOF 20
ENDMDL
MODEL 9
REMARK VINA RESULT:    -4.570      3.302      5.715
REMARK INTER + INTRA:         -13.757
REMARK INTER:                 -10.799
REMARK INTRA:                  -2.959
REMARK UNBOUND:                -3.845
REMARK SMILES CCCCCCCCCCCCCCCCCCCCCC(=O)[O-]
REMARK SMILES IDX 12 1 11 2 10 3 9 4 8 5 7 6 6 7 5 8 4 9 3 10 2 11 1 12 13 13
REMARK SMILES IDX 14 14 15 15 16 16 17 17 18 18 19 19 20 20 21 21 22 22 23 23
REMARK SMILES IDX 24 24
REMARK H PARENT
REMARK Flexibility Score: inf
ROOT
ATOM      1  C   UNL     1      17.419 -36.703  19.863  1.00  0.00     0.000 C 
ENDROOT
BRANCH   1   2
ATOM      2  C   UNL     1      17.977 -37.295  21.169  1.00  0.00     0.000 C 
BRANCH   2   3
ATOM      3  C   UNL     1      19.002 -36.405  21.905  1.00  0.00     0.000 C 
BRANCH   3   4
ATOM      4  C   UNL     1      18.634 -36.044  23.361  1.00  0.00    -0.000 C 
BRANCH   4   5
ATOM      5  C   UNL     1      17.964 -34.669  23.514  1.00  0.00    -0.000 C 
BRANCH   5   6
ATOM      6  C   UNL     1      16.499 -34.770  23.991  1.00  0.00    -0.000 C 
BRANCH   6   7
ATOM      7  C   UNL     1      15.557 -33.892  23.152  1.00  0.00    -0.000 C 
BRANCH   7   8
ATOM      8  C   UNL     1      15.651 -32.413  23.562  1.00  0.00    -0.000 C 
BRANCH   8   9
ATOM      9  C   UNL     1      14.368 -31.651  23.200  1.00  0.00    -0.000 C 
BRANCH   9  10
ATOM     10  C   UNL     1      13.879 -31.972  21.772  1.00  0.00    -0.000 C 
BRANCH  10  11
ATOM     11  C   UNL     1      12.761 -31.042  21.270  1.00  0.00    -0.003 C 
ATOM     12  C   UNL     1      12.189 -30.135  22.357  1.00  0.00     0.004 C 
ENDBRANCH  10  11
ENDBRANCH   9  10
ENDBRANCH   8   9
ENDBRANCH   7   8
ENDBRANCH   6   7
ENDBRANCH   5   6
ENDBRANCH   4   5
ENDBRANCH   3   4
ENDBRANCH   2   3
ENDBRANCH   1   2
BRANCH   1  13
ATOM     13  C   UNL     1      16.182 -35.819  20.098  1.00  0.00     0.000 C 
BRANCH  13  14
ATOM     14  C   UNL     1      16.403 -34.366  19.654  1.00  0.00     0.000 C 
BRANCH  14  15
ATOM     15  C   UNL     1      17.891 -34.032  19.445  1.00  0.00     0.000 C 
BRANCH  15  16
ATOM     16  C   UNL     1      18.400 -33.018  20.482  1.00  0.00     0.000 C 
BRANCH  16  17
ATOM     17  C   UNL     1      17.572 -31.718  20.482  1.00  0.00     0.000 C 
BRANCH  17  18
ATOM     18  C   UNL     1      18.317 -30.558  21.159  1.00  0.00     0.000 C 
BRANCH  18  19
ATOM     19  C   UNL     1      19.824 -30.844  21.280  1.00  0.00     0.000 C 
BRANCH  19  20
ATOM     20  C   UNL     1      20.691 -29.605  21.018  1.00  0.00     0.006 C 
BRANCH  20  21
ATOM     21  C   UNL     1      19.865 -28.326  20.832  1.00  0.00     0.053 C 
BRANCH  21  22
ATOM     22  C   UNL     1      20.761 -27.160  20.564  1.00  0.00     0.041 C 
ATOM     23  O   UNL     1      20.280 -26.077  20.141  1.00  0.00    -0.550 OA
ATOM     24  O   UNL     1      22.135 -27.286  20.722  1.00  0.00    -0.550 OA
ENDBRANCH  21  22
ENDBRANCH  20  21
ENDBRANCH  19  20
ENDBRANCH  18  19
ENDBRANCH  17  18
ENDBRANCH  16  17
ENDBRANCH  15  16
ENDBRANCH  14  15
ENDBRANCH  13  14
ENDBRANCH   1  13
TORSDOF 20
ENDMDL
