MODEL 1
REMARK VINA RESULT:    -4.978      0.000      0.000
REMARK INTER + INTRA:         -11.014
REMARK INTER:                  -8.761
REMARK INTRA:                  -2.253
REMARK UNBOUND:                -2.253
REMARK SMILES CCCCCCCCCCCCCCC(=O)[O-]
REMARK SMILES IDX 9 1 10 2 11 3 12 4 13 5 14 6 15 7 16 8 17 9 8 10 7 11 6 12
REMARK SMILES IDX 5 13 4 14 3 15 2 16 1 17
REMARK H PARENT
REMARK Flexibility Score: inf
ROOT
ATOM      1  C   UNL     1     137.882 130.296 129.483  1.00  0.00     0.000 C 
ENDROOT
BRANCH   1   2
ATOM      2  C   UNL     1     138.690 130.994 130.597  1.00  0.00     0.000 C 
BRANCH   2   3
ATOM      3  C   UNL     1     139.688 132.060 130.111  1.00  0.00     0.000 C 
BRANCH   3   4
ATOM      4  C   UNL     1     139.627 133.353 130.937  1.00  0.00     0.000 C 
BRANCH   4   5
ATOM      5  C   UNL     1     139.838 134.584 130.046  1.00  0.00     0.006 C 
BRANCH   5   6
ATOM      6  C   UNL     1     140.099 135.835 130.889  1.00  0.00     0.053 C 
BRANCH   6   7
ATOM      7  C   UNL     1     139.054 136.872 130.622  1.00  0.00     0.041 C 
ATOM      8  O   UNL     1     139.375 137.978 130.113  1.00  0.00    -0.550 OA
ATOM      9  O   UNL     1     137.719 136.600 130.891  1.00  0.00    -0.550 OA
ENDBRANCH   6   7
ENDBRANCH   5   6
ENDBRANCH   4   5
ENDBRANCH   3   4
ENDBRANCH   2   3
ENDBRANCH   1   2
BRANCH   1  10
ATOM     10  C   UNL     1     138.118 130.835 128.060  1.00  0.00     0.000 C 
BRANCH  10  11
ATOM     11  C   UNL     1     136.941 131.675 127.536  1.00  0.00    -0.000 C 
BRANCH  11  12
ATOM     12  C   UNL     1     137.056 133.166 127.907  1.00  0.00    -0.000 C 
BRANCH  12  13
ATOM     13  C   UNL     1     135.857 133.743 128.682  1.00  0.00    -0.000 C 
BRANCH  13  14
ATOM     14  C   UNL     1     136.055 133.719 130.204  1.00  0.00    -0.000 C 
BRANCH  14  15
ATOM     15  C   UNL     1     135.336 132.520 130.834  1.00  0.00    -0.000 C 
BRANCH  15  16
ATOM     16  C   UNL     1     134.121 132.105 129.995  1.00  0.00    -0.003 C 
ATOM     17  C   UNL     1     134.046 130.589 129.846  1.00  0.00     0.004 C 
ENDBRANCH  15  16
ENDBRANCH  14  15
ENDBRANCH  13  14
ENDBRANCH  12  13
ENDBRANCH  11  12
ENDBRANCH  10  11
ENDBRANCH   1  10
TORSDOF 13
ENDMDL
MODEL 2
REMARK VINA RESULT:    -4.896      1.013      2.030
REMARK INTER + INTRA:         -10.870
REMARK INTER:                  -8.980
REMARK INTRA:                  -1.890
REMARK UNBOUND:                -2.253
REMARK SMILES CCCCCCCCCCCCCCC(=O)[O-]
REMARK SMILES IDX 9 1 10 2 11 3 12 4 13 5 14 6 15 7 16 8 17 9 8 10 7 11 6 12
REMARK SMILES IDX 5 13 4 14 3 15 2 16 1 17
REMARK H PARENT
REMARK Flexibility Score: inf
ROOT
ATOM      1  C   UNL     1     139.462 131.306 129.709  1.00  0.00     0.000 C 
ENDROOT
BRANCH   1   2
ATOM      2  C   UNL     1     138.887 132.005 130.958  1.00  0.00     0.000 C 
BRANCH   2   3
ATOM      3  C   UNL     1     138.299 133.406 130.711  1.00  0.00     0.000 C 
BRANCH   3   4
ATOM      4  C   UNL     1     138.861 134.074 129.447  1.00  0.00     0.000 C 
BRANCH   4   5
ATOM      5  C   UNL     1     140.085 134.936 129.780  1.00  0.00     0.006 C 
BRANCH   5   6
ATOM      6  C   UNL     1     139.826 135.805 131.013  1.00  0.00     0.053 C 
BRANCH   6   7
ATOM      7  C   UNL     1     138.925 136.949 130.668  1.00  0.00     0.041 C 
ATOM      8  O   UNL     1     137.713 136.927 131.008  1.00  0.00    -0.550 OA
ATOM      9  O   UNL     1     139.435 138.062 130.011  1.00  0.00    -0.550 OA
ENDBRANCH   6   7
ENDBRANCH   5   6
ENDBRANCH   4   5
ENDBRANCH   3   4
ENDBRANCH   2   3
ENDBRANCH   1   2
BRANCH   1  10
ATOM     10  C   UNL     1     138.501 130.342 128.990  1.00  0.00     0.000 C 
BRANCH  10  11
ATOM     11  C   UNL     1     137.782 130.994 127.797  1.00  0.00    -0.000 C 
BRANCH  11  12
ATOM     12  C   UNL     1     136.313 131.342 128.099  1.00  0.00    -0.000 C 
BRANCH  12  13
ATOM     13  C   UNL     1     135.762 130.771 129.419  1.00  0.00    -0.000 C 
BRANCH  13  14
ATOM     14  C   UNL     1     134.423 131.398 129.833  1.00  0.00    -0.000 C 
BRANCH  14  15
ATOM     15  C   UNL     1     134.644 132.642 130.703  1.00  0.00    -0.000 C 
BRANCH  15  16
ATOM     16  C   UNL     1     134.049 133.889 130.040  1.00  0.00    -0.003 C 
ATOM     17  C   UNL     1     135.147 134.829 129.550  1.00  0.00     0.004 C 
ENDBRANCH  15  16
ENDBRANCH  14  15
ENDBRANCH  13  14
ENDBRANCH  12  13
ENDBRANCH  11  12
ENDBRANCH  10  11
ENDBRANCH   1  10
TORSDOF 13
ENDMDL
MODEL 3
REMARK VINA RESULT:    -4.851      2.203      4.840
REMARK INTER + INTRA:         -10.790
REMARK INTER:                  -8.655
REMARK INTRA:                  -2.136
REMARK UNBOUND:                -2.253
REMARK SMILES CCCCCCCCCCCCCCC(=O)[O-]
REMARK SMILES IDX 9 1 10 2 11 3 12 4 13 5 14 6 15 7 16 8 17 9 8 10 7 11 6 12
REMARK SMILES IDX 5 13 4 14 3 15 2 16 1 17
REMARK H PARENT
REMARK Flexibility Score: inf
ROOT
ATOM      1  C   UNL     1     138.363 130.031 129.122  1.00  0.00     0.000 C 
ENDROOT
BRANCH   1   2
ATOM      2  C   UNL     1     138.170 130.805 127.802  1.00  0.00     0.000 C 
BRANCH   2   3
ATOM      3  C   UNL     1     136.790 131.465 127.627  1.00  0.00     0.000 C 
BRANCH   3   4
ATOM      4  C   UNL     1     136.861 132.999 127.615  1.00  0.00     0.000 C 
BRANCH   4   5
ATOM      5  C   UNL     1     136.030 133.596 128.758  1.00  0.00     0.006 C 
BRANCH   5   6
ATOM      6  C   UNL     1     135.380 132.495 129.598  1.00  0.00     0.053 C 
BRANCH   6   7
ATOM      7  C   UNL     1     134.483 133.090 130.637  1.00  0.00     0.041 C 
ATOM      8  O   UNL     1     134.429 132.588 131.791  1.00  0.00    -0.550 OA
ATOM      9  O   UNL     1     133.742 134.228 130.347  1.00  0.00    -0.550 OA
ENDBRANCH   6   7
ENDBRANCH   5   6
ENDBRANCH   4   5
ENDBRANCH   3   4
ENDBRANCH   2   3
ENDBRANCH   1   2
BRANCH   1  10
ATOM     10  C   UNL     1     139.253 130.724 130.169  1.00  0.00     0.000 C 
BRANCH  10  11
ATOM     11  C   UNL     1     138.450 131.586 131.159  1.00  0.00    -0.000 C 
BRANCH  11  12
ATOM     12  C   UNL     1     138.868 133.068 131.138  1.00  0.00    -0.000 C 
BRANCH  12  13
ATOM     13  C   UNL     1     139.722 133.493 129.929  1.00  0.00    -0.000 C 
BRANCH  13  14
ATOM     14  C   UNL     1     139.567 134.979 129.574  1.00  0.00    -0.000 C 
BRANCH  14  15
ATOM     15  C   UNL     1     139.823 135.866 130.799  1.00  0.00    -0.000 C 
BRANCH  15  16
ATOM     16  C   UNL     1     138.804 137.009 130.873  1.00  0.00    -0.003 C 
ATOM     17  C   UNL     1     137.376 136.480 130.783  1.00  0.00     0.004 C 
ENDBRANCH  15  16
ENDBRANCH  14  15
ENDBRANCH  13  14
ENDBRANCH  12  13
ENDBRANCH  11  12
ENDBRANCH  10  11
ENDBRANCH   1  10
TORSDOF 13
ENDMDL
MODEL 4
REMARK VINA RESULT:    -4.815      1.509      3.936
REMARK INTER + INTRA:         -10.726
REMARK INTER:                  -8.982
REMARK INTRA:                  -1.745
REMARK UNBOUND:                -2.253
REMARK SMILES CCCCCCCCCCCCCCC(=O)[O-]
REMARK SMILES IDX 9 1 10 2 11 3 12 4 13 5 14 6 15 7 16 8 17 9 8 10 7 11 6 12
REMARK SMILES IDX 5 13 4 14 3 15 2 16 1 17
REMARK H PARENT
REMARK Flexibility Score: inf
ROOT
ATOM      1  C   UNL     1     134.051 133.874 130.215  1.00  0.00     0.000 C 
ENDROOT
BRANCH   1   2
ATOM      2  C   UNL     1     135.184 134.487 129.366  1.00  0.00     0.000 C 
BRANCH   2   3
ATOM      3  C   UNL     1     136.462 134.850 130.145  1.00  0.00     0.000 C 
BRANCH   3   4
ATOM      4  C   UNL     1     137.696 134.076 129.659  1.00  0.00     0.000 C 
BRANCH   4   5
ATOM      5  C   UNL     1     138.728 135.024 129.035  1.00  0.00     0.006 C 
BRANCH   5   6
ATOM      6  C   UNL     1     140.126 134.764 129.602  1.00  0.00     0.053 C 
BRANCH   6   7
ATOM      7  C   UNL     1     140.260 135.372 130.962  1.00  0.00     0.041 C 
ATOM      8  O   UNL     1     140.936 134.792 131.852  1.00  0.00    -0.550 OA
ATOM      9  O   UNL     1     139.678 136.603 131.234  1.00  0.00    -0.550 OA
ENDBRANCH   6   7
ENDBRANCH   5   6
ENDBRANCH   4   5
ENDBRANCH   3   4
ENDBRANCH   2   3
ENDBRANCH   1   2
BRANCH   1  10
ATOM     10  C   UNL     1     134.443 132.637 131.043  1.00  0.00     0.000 C 
BRANCH  10  11
ATOM     11  C   UNL     1     133.686 131.368 130.617  1.00  0.00    -0.000 C 
BRANCH  11  12
ATOM     12  C   UNL     1     134.423 130.567 129.527  1.00  0.00    -0.000 C 
BRANCH  12  13
ATOM     13  C   UNL     1     135.939 130.824 129.437  1.00  0.00    -0.000 C 
BRANCH  13  14
ATOM     14  C   UNL     1     136.426 131.058 128.000  1.00  0.00    -0.000 C 
BRANCH  14  15
ATOM     15  C   UNL     1     137.955 130.981 127.917  1.00  0.00    -0.000 C 
BRANCH  15  16
ATOM     16  C   UNL     1     138.534 130.234 129.124  1.00  0.00    -0.003 C 
ATOM     17  C   UNL     1     139.672 131.022 129.765  1.00  0.00     0.004 C 
ENDBRANCH  15  16
ENDBRANCH  14  15
ENDBRANCH  13  14
ENDBRANCH  12  13
ENDBRANCH  11  12
ENDBRANCH  10  11
ENDBRANCH   1  10
TORSDOF 13
ENDMDL
MODEL 5
REMARK VINA RESULT:    -4.803      0.938      1.908
REMARK INTER + INTRA:         -10.707
REMARK INTER:                  -8.503
REMARK INTRA:                  -2.203
REMARK UNBOUND:                -2.253
REMARK SMILES CCCCCCCCCCCCCCC(=O)[O-]
REMARK SMILES IDX 9 1 10 2 11 3 12 4 13 5 14 6 15 7 16 8 17 9 8 10 7 11 6 12
REMARK SMILES IDX 5 13 4 14 3 15 2 16 1 17
REMARK H PARENT
REMARK Flexibility Score: inf
ROOT
ATOM      1  C   UNL     1     138.793 131.268 130.772  1.00  0.00     0.000 C 
ENDROOT
BRANCH   1   2
ATOM      2  C   UNL     1     139.712 132.327 130.130  1.00  0.00     0.000 C 
BRANCH   2   3
ATOM      3  C   UNL     1     139.643 133.727 130.767  1.00  0.00     0.000 C 
BRANCH   3   4
ATOM      4  C   UNL     1     140.061 134.843 129.799  1.00  0.00     0.000 C 
BRANCH   4   5
ATOM      5  C   UNL     1     139.598 136.214 130.308  1.00  0.00     0.006 C 
BRANCH   5   6
ATOM      6  C   UNL     1     138.131 136.171 130.745  1.00  0.00     0.053 C 
BRANCH   6   7
ATOM      7  C   UNL     1     137.461 137.476 130.454  1.00  0.00     0.041 C 
ATOM      8  O   UNL     1     138.144 138.479 130.118  1.00  0.00    -0.550 OA
ATOM      9  O   UNL     1     136.076 137.574 130.509  1.00  0.00    -0.550 OA
ENDBRANCH   6   7
ENDBRANCH   5   6
ENDBRANCH   4   5
ENDBRANCH   3   4
ENDBRANCH   2   3
ENDBRANCH   1   2
BRANCH   1  10
ATOM     10  C   UNL     1     137.892 130.494 129.793  1.00  0.00     0.000 C 
BRANCH  10  11
ATOM     11  C   UNL     1     138.129 130.888 128.324  1.00  0.00    -0.000 C 
BRANCH  11  12
ATOM     12  C   UNL     1     136.826 131.218 127.574  1.00  0.00    -0.000 C 
BRANCH  12  13
ATOM     13  C   UNL     1     136.700 132.674 127.088  1.00  0.00    -0.000 C 
BRANCH  13  14
ATOM     14  C   UNL     1     136.895 133.702 128.212  1.00  0.00    -0.000 C 
BRANCH  14  15
ATOM     15  C   UNL     1     135.594 133.914 128.996  1.00  0.00    -0.000 C 
BRANCH  15  16
ATOM     16  C   UNL     1     135.728 133.399 130.434  1.00  0.00    -0.003 C 
ATOM     17  C   UNL     1     134.612 132.416 130.773  1.00  0.00     0.004 C 
ENDBRANCH  15  16
ENDBRANCH  14  15
ENDBRANCH  13  14
ENDBRANCH  12  13
ENDBRANCH  11  12
ENDBRANCH  10  11
ENDBRANCH   1  10
TORSDOF 13
ENDMDL
MODEL 6
REMARK VINA RESULT:    -4.774      2.378      5.101
REMARK INTER + INTRA:         -10.655
REMARK INTER:                  -8.687
REMARK INTRA:                  -1.968
REMARK UNBOUND:                -2.253
REMARK SMILES CCCCCCCCCCCCCCC(=O)[O-]
REMARK SMILES IDX 9 1 10 2 11 3 12 4 13 5 14 6 15 7 16 8 17 9 8 10 7 11 6 12
REMARK SMILES IDX 5 13 4 14 3 15 2 16 1 17
REMARK H PARENT
REMARK Flexibility Score: inf
ROOT
ATOM      1  C   UNL     1     137.120 131.143 128.314  1.00  0.00     0.000 C 
ENDROOT
BRANCH   1   2
ATOM      2  C   UNL     1     136.958 132.187 127.190  1.00  0.00     0.000 C 
BRANCH   2   3
ATOM      3  C   UNL     1     136.273 133.500 127.611  1.00  0.00     0.000 C 
BRANCH   3   4
ATOM      4  C   UNL     1     136.951 134.167 128.816  1.00  0.00     0.000 C 
BRANCH   4   5
ATOM      5  C   UNL     1     135.942 134.422 129.943  1.00  0.00     0.006 C 
BRANCH   5   6
ATOM      6  C   UNL     1     134.608 133.729 129.653  1.00  0.00     0.053 C 
BRANCH   6   7
ATOM      7  C   UNL     1     134.416 132.560 130.566  1.00  0.00     0.041 C 
ATOM      8  O   UNL     1     134.540 132.700 131.811  1.00  0.00    -0.550 OA
ATOM      9  O   UNL     1     134.054 131.323 130.046  1.00  0.00    -0.550 OA
ENDBRANCH   6   7
ENDBRANCH   5   6
ENDBRANCH   4   5
ENDBRANCH   3   4
ENDBRANCH   2   3
ENDBRANCH   1   2
BRANCH   1  10
ATOM     10  C   UNL     1     138.497 130.459 128.387  1.00  0.00     0.000 C 
BRANCH  10  11
ATOM     11  C   UNL     1     139.253 130.774 129.689  1.00  0.00    -0.000 C 
BRANCH  11  12
ATOM     12  C   UNL     1     138.348 131.381 130.776  1.00  0.00    -0.000 C 
BRANCH  12  13
ATOM     13  C   UNL     1     138.885 132.664 131.436  1.00  0.00    -0.000 C 
BRANCH  13  14
ATOM     14  C   UNL     1     140.023 133.319 130.640  1.00  0.00    -0.000 C 
BRANCH  14  15
ATOM     15  C   UNL     1     140.376 134.696 131.216  1.00  0.00    -0.000 C 
BRANCH  15  16
ATOM     16  C   UNL     1     140.014 135.813 130.230  1.00  0.00    -0.003 C 
ATOM     17  C   UNL     1     139.152 136.880 130.898  1.00  0.00     0.004 C 
ENDBRANCH  15  16
ENDBRANCH  14  15
ENDBRANCH  13  14
ENDBRANCH  12  13
ENDBRANCH  11  12
ENDBRANCH  10  11
ENDBRANCH   1  10
TORSDOF 13
ENDMDL
MODEL 7
REMARK VINA RESULT:    -4.759      1.561      3.180
REMARK INTER + INTRA:         -10.629
REMARK INTER:                  -8.788
REMARK INTRA:                  -1.841
REMARK UNBOUND:                -2.253
REMARK SMILES CCCCCCCCCCCCCCC(=O)[O-]
REMARK SMILES IDX 9 1 10 2 11 3 12 4 13 5 14 6 15 7 16 8 17 9 8 10 7 11 6 12
REMARK SMILES IDX 5 13 4 14 3 15 2 16 1 17
REMARK H PARENT
REMARK Flexibility Score: inf
ROOT
ATOM      1  C   UNL     1     139.350 133.280 131.059  1.00  0.00     0.000 C 
ENDROOT
BRANCH   1   2
ATOM      2  C   UNL     1     139.620 134.036 129.742  1.00  0.00     0.000 C 
BRANCH   2   3
ATOM      3  C   UNL     1     140.141 135.475 129.909  1.00  0.00     0.000 C 
BRANCH   3   4
ATOM      4  C   UNL     1     139.442 136.234 131.046  1.00  0.00     0.000 C 
BRANCH   4   5
ATOM      5  C   UNL     1     138.010 136.618 130.652  1.00  0.00     0.006 C 
BRANCH   5   6
ATOM      6  C   UNL     1     137.928 138.094 130.254  1.00  0.00     0.053 C 
BRANCH   6   7
ATOM      7  C   UNL     1     136.506 138.561 130.271  1.00  0.00     0.041 C 
ATOM      8  O   UNL     1     136.243 139.792 130.237  1.00  0.00    -0.550 OA
ATOM      9  O   UNL     1     135.470 137.636 130.275  1.00  0.00    -0.550 OA
ENDBRANCH   6   7
ENDBRANCH   5   6
ENDBRANCH   4   5
ENDBRANCH   3   4
ENDBRANCH   2   3
ENDBRANCH   1   2
BRANCH   1  10
ATOM     10  C   UNL     1     139.145 131.761 130.919  1.00  0.00     0.000 C 
BRANCH  10  11
ATOM     11  C   UNL     1     139.574 131.225 129.542  1.00  0.00    -0.000 C 
BRANCH  11  12
ATOM     12  C   UNL     1     138.467 130.413 128.843  1.00  0.00    -0.000 C 
BRANCH  12  13
ATOM     13  C   UNL     1     137.779 131.124 127.663  1.00  0.00    -0.000 C 
BRANCH  13  14
ATOM     14  C   UNL     1     136.469 131.820 128.061  1.00  0.00    -0.000 C 
BRANCH  14  15
ATOM     15  C   UNL     1     136.595 133.343 127.937  1.00  0.00    -0.000 C 
BRANCH  15  16
ATOM     16  C   UNL     1     135.768 134.052 129.016  1.00  0.00    -0.003 C 
ATOM     17  C   UNL     1     135.775 133.264 130.322  1.00  0.00     0.004 C 
ENDBRANCH  15  16
ENDBRANCH  14  15
ENDBRANCH  13  14
ENDBRANCH  12  13
ENDBRANCH  11  12
ENDBRANCH  10  11
ENDBRANCH   1  10
TORSDOF 13
ENDMDL
MODEL 8
REMARK VINA RESULT:    -4.710      1.738      3.331
REMARK INTER + INTRA:         -10.543
REMARK INTER:                  -8.743
REMARK INTRA:                  -1.800
REMARK UNBOUND:                -2.253
REMARK SMILES CCCCCCCCCCCCCCC(=O)[O-]
REMARK SMILES IDX 9 1 10 2 11 3 12 4 13 5 14 6 15 7 16 8 17 9 8 10 7 11 6 12
REMARK SMILES IDX 5 13 4 14 3 15 2 16 1 17
REMARK H PARENT
REMARK Flexibility Score: inf
ROOT
ATOM      1  C   UNL     1     138.629 133.349 130.866  1.00  0.00     0.000 C 
ENDROOT
BRANCH   1   2
ATOM      2  C   UNL     1     139.344 134.206 129.801  1.00  0.00     0.000 C 
BRANCH   2   3
ATOM      3  C   UNL     1     140.357 135.226 130.353  1.00  0.00     0.000 C 
BRANCH   3   4
ATOM      4  C   UNL     1     139.683 136.418 131.047  1.00  0.00     0.000 C 
BRANCH   4   5
ATOM      5  C   UNL     1     138.851 137.235 130.050  1.00  0.00     0.006 C 
BRANCH   5   6
ATOM      6  C   UNL     1     137.482 137.589 130.637  1.00  0.00     0.053 C 
BRANCH   6   7
ATOM      7  C   UNL     1     137.064 138.958 130.201  1.00  0.00     0.041 C 
ATOM      8  O   UNL     1     137.924 139.864 130.047  1.00  0.00    -0.550 OA
ATOM      9  O   UNL     1     135.730 139.220 129.919  1.00  0.00    -0.550 OA
ENDBRANCH   6   7
ENDBRANCH   5   6
ENDBRANCH   4   5
ENDBRANCH   3   4
ENDBRANCH   2   3
ENDBRANCH   1   2
BRANCH   1  10
ATOM     10  C   UNL     1     137.103 133.529 130.943  1.00  0.00     0.000 C 
BRANCH  10  11
ATOM     11  C   UNL     1     136.540 134.365 129.780  1.00  0.00    -0.000 C 
BRANCH  11  12
ATOM     12  C   UNL     1     135.747 133.521 128.765  1.00  0.00    -0.000 C 
BRANCH  12  13
ATOM     13  C   UNL     1     136.321 133.506 127.336  1.00  0.00    -0.000 C 
BRANCH  13  14
ATOM     14  C   UNL     1     137.055 132.201 126.996  1.00  0.00    -0.000 C 
BRANCH  14  15
ATOM     15  C   UNL     1     137.022 131.226 128.179  1.00  0.00    -0.000 C 
BRANCH  15  16
ATOM     16  C   UNL     1     138.407 130.619 128.430  1.00  0.00    -0.003 C 
ATOM     17  C   UNL     1     138.392 129.697 129.645  1.00  0.00     0.004 C 
ENDBRANCH  15  16
ENDBRANCH  14  15
ENDBRANCH  13  14
ENDBRANCH  12  13
ENDBRANCH  11  12
ENDBRANCH  10  11
ENDBRANCH   1  10
TORSDOF 13
ENDMDL
MODEL 9
REMARK VINA RESULT:    -4.612      2.762      5.325
REMARK INTER + INTRA:         -10.370
REMARK INTER:                  -8.336
REMARK INTRA:                  -2.034
REMARK UNBOUND:                -2.253
REMARK SMILES CCCCCCCCCCCCCCC(=O)[O-]
REMARK SMILES IDX 9 1 10 2 11 3 12 4 13 5 14 6 15 7 16 8 17 9 8 10 7 11 6 12
REMARK SMILES IDX 5 13 4 14 3 15 2 16 1 17
REMARK H PARENT
REMARK Flexibility Score: inf
ROOT
ATOM      1  C   UNL     1     137.099 133.157 131.419  1.00  0.00     0.000 C 
ENDROOT
BRANCH   1   2
ATOM      2  C   UNL     1     135.652 132.628 131.331  1.00  0.00     0.000 C 
BRANCH   2   3
ATOM      3  C   UNL     1     134.732 133.398 130.366  1.00  0.00     0.000 C 
BRANCH   3   4
ATOM      4  C   UNL     1     135.504 134.341 129.432  1.00  0.00     0.000 C 
BRANCH   4   5
ATOM      5  C   UNL     1     135.668 133.721 128.039  1.00  0.00     0.006 C 
BRANCH   5   6
ATOM      6  C   UNL     1     137.055 133.093 127.877  1.00  0.00     0.053 C 
BRANCH   6   7
ATOM      7  C   UNL     1     136.942 131.611 127.709  1.00  0.00     0.041 C 
ATOM      8  O   UNL     1     137.842 130.971 127.105  1.00  0.00    -0.550 OA
ATOM      9  O   UNL     1     135.867 130.928 128.263  1.00  0.00    -0.550 OA
ENDBRANCH   6   7
ENDBRANCH   5   6
ENDBRANCH   4   5
ENDBRANCH   3   4
ENDBRANCH   2   3
ENDBRANCH   1   2
BRANCH   1  10
ATOM     10  C   UNL     1     138.198 132.080 131.374  1.00  0.00     0.000 C 
BRANCH  10  11
ATOM     11  C   UNL     1     139.492 132.575 130.706  1.00  0.00    -0.000 C 
BRANCH  11  12
ATOM     12  C   UNL     1     139.772 134.066 130.971  1.00  0.00    -0.000 C 
BRANCH  12  13
ATOM     13  C   UNL     1     140.034 134.918 129.715  1.00  0.00    -0.000 C 
BRANCH  13  14
ATOM     14  C   UNL     1     138.918 135.934 129.434  1.00  0.00    -0.000 C 
BRANCH  14  15
ATOM     15  C   UNL     1     138.623 136.785 130.675  1.00  0.00    -0.000 C 
BRANCH  15  16
ATOM     16  C   UNL     1     137.140 137.168 130.740  1.00  0.00    -0.003 C 
ATOM     17  C   UNL     1     136.932 138.633 130.370  1.00  0.00     0.004 C 
ENDBRANCH  15  16
ENDBRANCH  14  15
ENDBRANCH  13  14
ENDBRANCH  12  13
ENDBRANCH  11  12
ENDBRANCH  10  11
ENDBRANCH   1  10
TORSDOF 13
ENDMDL
