MODEL 1
REMARK VINA RESULT:    -3.736      0.000      0.000
REMARK INTER + INTRA:          -5.973
REMARK INTER:                  -5.701
REMARK INTRA:                  -0.272
REMARK UNBOUND:                -0.272
REMARK SMILES O=C([O-])CCCCCCCCC(=O)[O-]
REMARK SMILES IDX 7 1 6 2 5 3 4 4 2 5 1 6 3 7 8 8 9 9 10 10 11 11 12 12 13 13
REMARK SMILES IDX 14 14
REMARK H PARENT
REMARK Flexibility Score: inf
ROOT
ATOM      1  C   UNL     1      42.434  20.937  79.643  1.00  0.00     0.000 C 
ENDROOT
BRANCH   1   2
ATOM      2  C   UNL     1      41.262  20.035  80.061  1.00  0.00     0.000 C 
BRANCH   2   3
ATOM      3  C   UNL     1      39.986  20.247  79.217  1.00  0.00     0.006 C 
BRANCH   3   4
ATOM      4  C   UNL     1      38.761  20.651  80.053  1.00  0.00     0.053 C 
BRANCH   4   5
ATOM      5  C   UNL     1      38.081  19.459  80.653  1.00  0.00     0.041 C 
ATOM      6  O   UNL     1      38.096  18.351  80.052  1.00  0.00    -0.550 OA
ATOM      7  O   UNL     1      37.449  19.563  81.886  1.00  0.00    -0.550 OA
ENDBRANCH   4   5
ENDBRANCH   3   4
ENDBRANCH   2   3
ENDBRANCH   1   2
BRANCH   1   8
ATOM      8  C   UNL     1      43.343  20.283  78.589  1.00  0.00     0.000 C 
BRANCH   8   9
ATOM      9  C   UNL     1      44.760  20.878  78.580  1.00  0.00     0.000 C 
BRANCH   9  10
ATOM     10  C   UNL     1      45.653  20.260  77.489  1.00  0.00     0.006 C 
BRANCH  10  11
ATOM     11  C   UNL     1      46.008  18.798  77.791  1.00  0.00     0.053 C 
BRANCH  11  12
ATOM     12  C   UNL     1      45.910  17.937  76.569  1.00  0.00     0.041 C 
ATOM     13  O   UNL     1      45.995  18.453  75.424  1.00  0.00    -0.550 OA
ATOM     14  O   UNL     1      45.691  16.571  76.695  1.00  0.00    -0.550 OA
ENDBRANCH  11  12
ENDBRANCH  10  11
ENDBRANCH   9  10
ENDBRANCH   8   9
ENDBRANCH   1   8
TORSDOF 9
ENDMDL
MODEL 2
REMARK VINA RESULT:    -3.655      0.870      7.297
REMARK INTER + INTRA:          -5.850
REMARK INTER:                  -5.529
REMARK INTRA:                  -0.321
REMARK UNBOUND:                -0.272
REMARK SMILES O=C([O-])CCCCCCCCC(=O)[O-]
REMARK SMILES IDX 7 1 6 2 5 3 4 4 2 5 1 6 3 7 8 8 9 9 10 10 11 11 12 12 13 13
REMARK SMILES IDX 14 14
REMARK H PARENT
REMARK Flexibility Score: inf
ROOT
ATOM      1  C   UNL     1      43.312  21.568  78.427  1.00  0.00     0.000 C 
ENDROOT
BRANCH   1   2
ATOM      2  C   UNL     1      43.954  20.183  78.249  1.00  0.00     0.000 C 
BRANCH   2   3
ATOM      3  C   UNL     1      45.437  20.239  77.819  1.00  0.00     0.006 C 
BRANCH   3   4
ATOM      4  C   UNL     1      46.157  18.885  77.933  1.00  0.00     0.053 C 
BRANCH   4   5
ATOM      5  C   UNL     1      45.938  18.036  76.718  1.00  0.00     0.041 C 
ATOM      6  O   UNL     1      45.632  16.820  76.843  1.00  0.00    -0.550 OA
ATOM      7  O   UNL     1      46.050  18.590  75.450  1.00  0.00    -0.550 OA
ENDBRANCH   4   5
ENDBRANCH   3   4
ENDBRANCH   2   3
ENDBRANCH   1   2
BRANCH   1   8
ATOM      8  C   UNL     1      41.856  21.491  78.917  1.00  0.00     0.000 C 
BRANCH   8   9
ATOM      9  C   UNL     1      41.521  20.136  79.561  1.00  0.00     0.000 C 
BRANCH   9  10
ATOM     10  C   UNL     1      40.086  19.674  79.251  1.00  0.00     0.006 C 
BRANCH  10  11
ATOM     11  C   UNL     1      39.312  19.296  80.520  1.00  0.00     0.053 C 
BRANCH  11  12
ATOM     12  C   UNL     1      37.838  19.207  80.268  1.00  0.00     0.041 C 
ATOM     13  O   UNL     1      37.132  20.249  80.276  1.00  0.00    -0.550 OA
ATOM     14  O   UNL     1      37.240  17.970  80.060  1.00  0.00    -0.550 OA
ENDBRANCH  11  12
ENDBRANCH  10  11
ENDBRANCH   9  10
ENDBRANCH   8   9
ENDBRANCH   1   8
TORSDOF 9
ENDMDL
MODEL 3
REMARK VINA RESULT:    -3.537     16.590     18.736
REMARK INTER + INTRA:          -5.669
REMARK INTER:                  -5.388
REMARK INTRA:                  -0.281
REMARK UNBOUND:                -0.272
REMARK SMILES O=C([O-])CCCCCCCCC(=O)[O-]
REMARK SMILES IDX 7 1 6 2 5 3 4 4 2 5 1 6 3 7 8 8 9 9 10 10 11 11 12 12 13 13
REMARK SMILES IDX 14 14
REMARK H PARENT
REMARK Flexibility Score: inf
ROOT
ATOM      1  C   UNL     1      47.628  31.418  87.454  1.00  0.00     0.000 C 
ENDROOT
BRANCH   1   2
ATOM      2  C   UNL     1      48.338  32.404  86.512  1.00  0.00     0.000 C 
BRANCH   2   3
ATOM      3  C   UNL     1      48.579  33.795  87.139  1.00  0.00     0.006 C 
BRANCH   3   4
ATOM      4  C   UNL     1      49.229  34.796  86.170  1.00  0.00     0.053 C 
BRANCH   4   5
ATOM      5  C   UNL     1      50.583  35.228  86.643  1.00  0.00     0.041 C 
ATOM      6  O   UNL     1      51.619  34.827  86.048  1.00  0.00    -0.550 OA
ATOM      7  O   UNL     1      50.702  36.090  87.725  1.00  0.00    -0.550 OA
ENDBRANCH   4   5
ENDBRANCH   3   4
ENDBRANCH   2   3
ENDBRANCH   1   2
BRANCH   1   8
ATOM      8  C   UNL     1      47.308  32.032  88.827  1.00  0.00     0.000 C 
BRANCH   8   9
ATOM      9  C   UNL     1      45.979  31.522  89.407  1.00  0.00     0.000 C 
BRANCH   9  10
ATOM     10  C   UNL     1      46.012  31.403  90.941  1.00  0.00     0.006 C 
BRANCH  10  11
ATOM     11  C   UNL     1      44.619  31.568  91.564  1.00  0.00     0.053 C 
BRANCH  11  12
ATOM     12  C   UNL     1      44.106  30.278  92.127  1.00  0.00     0.041 C 
ATOM     13  O   UNL     1      42.871  30.036  92.130  1.00  0.00    -0.550 OA
ATOM     14  O   UNL     1      44.989  29.360  92.681  1.00  0.00    -0.550 OA
ENDBRANCH  11  12
ENDBRANCH  10  11
ENDBRANCH   9  10
ENDBRANCH   8   9
ENDBRANCH   1   8
TORSDOF 9
ENDMDL
MODEL 4
REMARK VINA RESULT:    -3.459      5.485      9.900
REMARK INTER + INTRA:          -5.550
REMARK INTER:                  -5.045
REMARK INTRA:                  -0.505
REMARK UNBOUND:                -0.272
REMARK SMILES O=C([O-])CCCCCCCCC(=O)[O-]
REMARK SMILES IDX 7 1 6 2 5 3 4 4 2 5 1 6 3 7 8 8 9 9 10 10 11 11 12 12 13 13
REMARK SMILES IDX 14 14
REMARK H PARENT
REMARK Flexibility Score: inf
ROOT
ATOM      1  C   UNL     1      48.456  21.322  76.106  1.00  0.00     0.000 C 
ENDROOT
BRANCH   1   2
ATOM      2  C   UNL     1      49.566  21.842  75.178  1.00  0.00     0.000 C 
BRANCH   2   3
ATOM      3  C   UNL     1      50.897  22.132  75.906  1.00  0.00     0.006 C 
BRANCH   3   4
ATOM      4  C   UNL     1      52.026  22.575  74.961  1.00  0.00     0.053 C 
BRANCH   4   5
ATOM      5  C   UNL     1      52.960  21.448  74.645  1.00  0.00     0.041 C 
ATOM      6  O   UNL     1      52.775  20.741  73.618  1.00  0.00    -0.550 OA
ATOM      7  O   UNL     1      54.048  21.191  75.470  1.00  0.00    -0.550 OA
ENDBRANCH   4   5
ENDBRANCH   3   4
ENDBRANCH   2   3
ENDBRANCH   1   2
BRANCH   1   8
ATOM      8  C   UNL     1      48.996  20.820  77.456  1.00  0.00     0.000 C 
BRANCH   8   9
ATOM      9  C   UNL     1      47.881  20.316  78.387  1.00  0.00     0.000 C 
BRANCH   9  10
ATOM     10  C   UNL     1      46.526  20.187  77.669  1.00  0.00     0.006 C 
BRANCH  10  11
ATOM     11  C   UNL     1      45.945  18.772  77.780  1.00  0.00     0.053 C 
BRANCH  11  12
ATOM     12  C   UNL     1      45.959  18.060  76.462  1.00  0.00     0.041 C 
ATOM     13  O   UNL     1      46.002  18.717  75.389  1.00  0.00    -0.550 OA
ATOM     14  O   UNL     1      45.889  16.673  76.418  1.00  0.00    -0.550 OA
ENDBRANCH  11  12
ENDBRANCH  10  11
ENDBRANCH   9  10
ENDBRANCH   8   9
ENDBRANCH   1   8
TORSDOF 9
ENDMDL
MODEL 5
REMARK VINA RESULT:    -3.404      1.881      6.816
REMARK INTER + INTRA:          -5.467
REMARK INTER:                  -4.781
REMARK INTRA:                  -0.687
REMARK UNBOUND:                -0.272
REMARK SMILES O=C([O-])CCCCCCCCC(=O)[O-]
REMARK SMILES IDX 7 1 6 2 5 3 4 4 2 5 1 6 3 7 8 8 9 9 10 10 11 11 12 12 13 13
REMARK SMILES IDX 14 14
REMARK H PARENT
REMARK Flexibility Score: inf
ROOT
ATOM      1  C   UNL     1      44.222  21.346  77.837  1.00  0.00     0.000 C 
ENDROOT
BRANCH   1   2
ATOM      2  C   UNL     1      44.428  19.877  78.241  1.00  0.00     0.000 C 
BRANCH   2   3
ATOM      3  C   UNL     1      45.898  19.409  78.143  1.00  0.00     0.006 C 
BRANCH   3   4
ATOM      4  C   UNL     1      46.577  19.803  76.822  1.00  0.00     0.053 C 
BRANCH   4   5
ATOM      5  C   UNL     1      46.179  18.894  75.700  1.00  0.00     0.041 C 
ATOM      6  O   UNL     1      46.020  19.354  74.538  1.00  0.00    -0.550 OA
ATOM      7  O   UNL     1      46.004  17.535  75.931  1.00  0.00    -0.550 OA
ENDBRANCH   4   5
ENDBRANCH   3   4
ENDBRANCH   2   3
ENDBRANCH   1   2
BRANCH   1   8
ATOM      8  C   UNL     1      43.330  21.503  76.594  1.00  0.00     0.000 C 
BRANCH   8   9
ATOM      9  C   UNL     1      42.027  22.261  76.894  1.00  0.00     0.000 C 
BRANCH   9  10
ATOM     10  C   UNL     1      40.847  21.315  77.178  1.00  0.00     0.006 C 
BRANCH  10  11
ATOM     11  C   UNL     1      40.279  21.508  78.590  1.00  0.00     0.053 C 
BRANCH  11  12
ATOM     12  C   UNL     1      40.481  20.292  79.442  1.00  0.00     0.041 C 
ATOM     13  O   UNL     1      41.490  20.204  80.189  1.00  0.00    -0.550 OA
ATOM     14  O   UNL     1      39.574  19.242  79.383  1.00  0.00    -0.550 OA
ENDBRANCH  11  12
ENDBRANCH  10  11
ENDBRANCH   9  10
ENDBRANCH   8   9
ENDBRANCH   1   8
TORSDOF 9
ENDMDL
MODEL 6
REMARK VINA RESULT:    -3.386     17.892     19.128
REMARK INTER + INTRA:          -5.438
REMARK INTER:                  -4.753
REMARK INTRA:                  -0.685
REMARK UNBOUND:                -0.272
REMARK SMILES O=C([O-])CCCCCCCCC(=O)[O-]
REMARK SMILES IDX 7 1 6 2 5 3 4 4 2 5 1 6 3 7 8 8 9 9 10 10 11 11 12 12 13 13
REMARK SMILES IDX 14 14
REMARK H PARENT
REMARK Flexibility Score: inf
ROOT
ATOM      1  C   UNL     1      47.786  31.550  89.958  1.00  0.00     0.000 C 
ENDROOT
BRANCH   1   2
ATOM      2  C   UNL     1      48.252  30.203  90.533  1.00  0.00     0.000 C 
BRANCH   2   3
ATOM      3  C   UNL     1      49.765  30.152  90.843  1.00  0.00     0.006 C 
BRANCH   3   4
ATOM      4  C   UNL     1      50.469  31.507  90.667  1.00  0.00     0.053 C 
BRANCH   4   5
ATOM      5  C   UNL     1      51.287  31.867  91.869  1.00  0.00     0.041 C 
ATOM      6  O   UNL     1      52.534  31.684  91.865  1.00  0.00    -0.550 OA
ATOM      7  O   UNL     1      50.678  32.427  92.985  1.00  0.00    -0.550 OA
ENDBRANCH   4   5
ENDBRANCH   3   4
ENDBRANCH   2   3
ENDBRANCH   1   2
BRANCH   1   8
ATOM      8  C   UNL     1      47.117  31.410  88.581  1.00  0.00     0.000 C 
BRANCH   8   9
ATOM      9  C   UNL     1      47.997  31.945  87.440  1.00  0.00     0.000 C 
BRANCH   9  10
ATOM     10  C   UNL     1      48.316  33.443  87.593  1.00  0.00     0.006 C 
BRANCH  10  11
ATOM     11  C   UNL     1      49.814  33.734  87.437  1.00  0.00     0.053 C 
BRANCH  11  12
ATOM     12  C   UNL     1      50.099  35.205  87.445  1.00  0.00     0.041 C 
ATOM     13  O   UNL     1      49.151  36.033  87.414  1.00  0.00    -0.550 OA
ATOM     14  O   UNL     1      51.411  35.660  87.451  1.00  0.00    -0.550 OA
ENDBRANCH  11  12
ENDBRANCH  10  11
ENDBRANCH   9  10
ENDBRANCH   8   9
ENDBRANCH   1   8
TORSDOF 9
ENDMDL
MODEL 7
REMARK VINA RESULT:    -3.366      4.854      6.267
REMARK INTER + INTRA:          -5.409
REMARK INTER:                  -4.460
REMARK INTRA:                  -0.949
REMARK UNBOUND:                -0.272
REMARK SMILES O=C([O-])CCCCCCCCC(=O)[O-]
REMARK SMILES IDX 7 1 6 2 5 3 4 4 2 5 1 6 3 7 8 8 9 9 10 10 11 11 12 12 13 13
REMARK SMILES IDX 14 14
REMARK H PARENT
REMARK Flexibility Score: inf
ROOT
ATOM      1  C   UNL     1      46.733  21.071  79.077  1.00  0.00     0.000 C 
ENDROOT
BRANCH   1   2
ATOM      2  C   UNL     1      45.265  20.964  78.633  1.00  0.00     0.000 C 
BRANCH   2   3
ATOM      3  C   UNL     1      44.875  19.560  78.118  1.00  0.00     0.006 C 
BRANCH   3   4
ATOM      4  C   UNL     1      46.086  18.652  77.846  1.00  0.00     0.053 C 
BRANCH   4   5
ATOM      5  C   UNL     1      45.926  17.881  76.572  1.00  0.00     0.041 C 
ATOM      6  O   UNL     1      46.014  18.468  75.460  1.00  0.00    -0.550 OA
ATOM      7  O   UNL     1      45.704  16.510  76.609  1.00  0.00    -0.550 OA
ENDBRANCH   4   5
ENDBRANCH   3   4
ENDBRANCH   2   3
ENDBRANCH   1   2
BRANCH   1   8
ATOM      8  C   UNL     1      47.541  22.066  78.228  1.00  0.00     0.000 C 
BRANCH   8   9
ATOM      9  C   UNL     1      48.656  21.384  77.419  1.00  0.00     0.000 C 
BRANCH   9  10
ATOM     10  C   UNL     1      48.229  21.070  75.974  1.00  0.00     0.006 C 
BRANCH  10  11
ATOM     11  C   UNL     1      47.043  21.930  75.522  1.00  0.00     0.053 C 
BRANCH  11  12
ATOM     12  C   UNL     1      46.925  21.974  74.029  1.00  0.00     0.041 C 
ATOM     13  O   UNL     1      47.132  20.935  73.348  1.00  0.00    -0.550 OA
ATOM     14  O   UNL     1      46.621  23.168  73.388  1.00  0.00    -0.550 OA
ENDBRANCH  11  12
ENDBRANCH  10  11
ENDBRANCH   9  10
ENDBRANCH   8   9
ENDBRANCH   1   8
TORSDOF 9
ENDMDL
MODEL 8
REMARK VINA RESULT:    -3.353      1.690      2.130
REMARK INTER + INTRA:          -5.389
REMARK INTER:                  -4.987
REMARK INTRA:                  -0.401
REMARK UNBOUND:                -0.272
REMARK SMILES O=C([O-])CCCCCCCCC(=O)[O-]
REMARK SMILES IDX 7 1 6 2 5 3 4 4 2 5 1 6 3 7 8 8 9 9 10 10 11 11 12 12 13 13
REMARK SMILES IDX 14 14
REMARK H PARENT
REMARK Flexibility Score: inf
ROOT
ATOM      1  C   UNL     1      42.316  21.344  79.978  1.00  0.00     0.000 C 
ENDROOT
BRANCH   1   2
ATOM      2  C   UNL     1      41.500  20.043  79.919  1.00  0.00     0.000 C 
BRANCH   2   3
ATOM      3  C   UNL     1      40.153  20.189  79.176  1.00  0.00     0.006 C 
BRANCH   3   4
ATOM      4  C   UNL     1      38.984  20.559  80.103  1.00  0.00     0.053 C 
BRANCH   4   5
ATOM      5  C   UNL     1      38.228  19.347  80.555  1.00  0.00     0.041 C 
ATOM      6  O   UNL     1      37.495  19.403  81.578  1.00  0.00    -0.550 OA
ATOM      7  O   UNL     1      38.315  18.163  79.835  1.00  0.00    -0.550 OA
ENDBRANCH   4   5
ENDBRANCH   3   4
ENDBRANCH   2   3
ENDBRANCH   1   2
BRANCH   1   8
ATOM      8  C   UNL     1      43.673  21.229  79.265  1.00  0.00     0.000 C 
BRANCH   8   9
ATOM      9  C   UNL     1      43.731  20.041  78.291  1.00  0.00     0.000 C 
BRANCH   9  10
ATOM     10  C   UNL     1      45.165  19.531  78.067  1.00  0.00     0.006 C 
BRANCH  10  11
ATOM     11  C   UNL     1      46.213  20.447  78.712  1.00  0.00     0.053 C 
BRANCH  11  12
ATOM     12  C   UNL     1      47.578  20.222  78.138  1.00  0.00     0.041 C 
ATOM     13  O   UNL     1      47.753  20.253  76.892  1.00  0.00    -0.550 OA
ATOM     14  O   UNL     1      48.649  19.943  78.978  1.00  0.00    -0.550 OA
ENDBRANCH  11  12
ENDBRANCH  10  11
ENDBRANCH   9  10
ENDBRANCH   8   9
ENDBRANCH   1   8
TORSDOF 9
ENDMDL
MODEL 9
REMARK VINA RESULT:    -3.322      1.763      7.705
REMARK INTER + INTRA:          -5.342
REMARK INTER:                  -4.985
REMARK INTRA:                  -0.356
REMARK UNBOUND:                -0.272
REMARK SMILES O=C([O-])CCCCCCCCC(=O)[O-]
REMARK SMILES IDX 7 1 6 2 5 3 4 4 2 5 1 6 3 7 8 8 9 9 10 10 11 11 12 12 13 13
REMARK SMILES IDX 14 14
REMARK H PARENT
REMARK Flexibility Score: inf
ROOT
ATOM      1  C   UNL     1      45.081  20.760  78.765  1.00  0.00     0.000 C 
ENDROOT
BRANCH   1   2
ATOM      2  C   UNL     1      44.974  19.424  78.011  1.00  0.00     0.000 C 
BRANCH   2   3
ATOM      3  C   UNL     1      46.271  19.023  77.274  1.00  0.00     0.006 C 
BRANCH   3   4
ATOM      4  C   UNL     1      46.221  19.291  75.761  1.00  0.00     0.053 C 
BRANCH   4   5
ATOM      5  C   UNL     1      47.196  20.353  75.353  1.00  0.00     0.041 C 
ATOM      6  O   UNL     1      48.087  20.737  76.157  1.00  0.00    -0.550 OA
ATOM      7  O   UNL     1      47.137  20.902  74.079  1.00  0.00    -0.550 OA
ENDBRANCH   4   5
ENDBRANCH   3   4
ENDBRANCH   2   3
ENDBRANCH   1   2
BRANCH   1   8
ATOM      8  C   UNL     1      43.716  21.291  79.231  1.00  0.00     0.000 C 
BRANCH   8   9
ATOM      9  C   UNL     1      42.554  20.364  78.838  1.00  0.00     0.000 C 
BRANCH   9  10
ATOM     10  C   UNL     1      41.441  20.331  79.901  1.00  0.00     0.006 C 
BRANCH  10  11
ATOM     11  C   UNL     1      40.060  20.622  79.300  1.00  0.00     0.053 C 
BRANCH  11  12
ATOM     12  C   UNL     1      38.961  20.000  80.106  1.00  0.00     0.041 C 
ATOM     13  O   UNL     1      38.290  20.702  80.908  1.00  0.00    -0.550 OA
ATOM     14  O   UNL     1      38.701  18.640  79.997  1.00  0.00    -0.550 OA
ENDBRANCH  11  12
ENDBRANCH  10  11
ENDBRANCH   9  10
ENDBRANCH   8   9
ENDBRANCH   1   8
TORSDOF 9
ENDMDL
