MODEL 1
REMARK VINA RESULT:     1.482      0.000      0.000
REMARK INTER + INTRA:           1.818
REMARK INTER:                   2.607
REMARK INTRA:                  -0.789
REMARK UNBOUND:                -0.789
REMARK SMILES CCCCCCCCCCCCCCC(=O)[O-]
REMARK SMILES IDX 9 1 10 2 11 3 12 4 13 5 14 6 15 7 16 8 17 9 8 10 7 11 6 12
REMARK SMILES IDX 5 13 4 14 3 15 2 16 1 17
REMARK H PARENT
REMARK Flexibility Score: inf
ROOT
ATOM      1  C   UNL     1     104.244 104.780 106.810  1.00  0.00     0.000 C 
ENDROOT
BRANCH   1   2
ATOM      2  C   UNL     1     104.573 105.770 107.934  1.00  0.00     0.000 C 
BRANCH   2   3
ATOM      3  C   UNL     1     104.602 105.069 109.297  1.00  0.00     0.000 C 
BRANCH   3   4
ATOM      4  C   UNL     1     104.537 106.089 110.442  1.00  0.00     0.000 C 
BRANCH   4   5
ATOM      5  C   UNL     1     104.140 105.454 111.788  1.00  0.00     0.006 C 
BRANCH   5   6
ATOM      6  C   UNL     1     104.615 104.002 111.965  1.00  0.00     0.053 C 
BRANCH   6   7
ATOM      7  C   UNL     1     103.470 103.038 112.004  1.00  0.00     0.041 C 
ATOM      8  O   UNL     1     102.284 103.463 112.013  1.00  0.00    -0.550 OA
ATOM      9  O   UNL     1     103.712 101.672 112.064  1.00  0.00    -0.550 OA
ENDBRANCH   6   7
ENDBRANCH   5   6
ENDBRANCH   4   5
ENDBRANCH   3   4
ENDBRANCH   2   3
ENDBRANCH   1   2
BRANCH   1  10
ATOM     10  C   UNL     1     103.651 103.482 107.378  1.00  0.00     0.000 C 
BRANCH  10  11
ATOM     11  C   UNL     1     103.418 102.412 106.298  1.00  0.00    -0.000 C 
BRANCH  11  12
ATOM     12  C   UNL     1     103.314 103.012 104.886  1.00  0.00    -0.000 C 
BRANCH  12  13
ATOM     13  C   UNL     1     103.343 101.938 103.785  1.00  0.00    -0.000 C 
BRANCH  13  14
ATOM     14  C   UNL     1     103.735 102.511 102.412  1.00  0.00    -0.000 C 
BRANCH  14  15
ATOM     15  C   UNL     1     103.405 104.006 102.281  1.00  0.00    -0.000 C 
BRANCH  15  16
ATOM     16  C   UNL     1     104.661 104.889 102.233  1.00  0.00    -0.003 C 
ATOM     17  C   UNL     1     104.336 106.327 102.630  1.00  0.00     0.004 C 
ENDBRANCH  15  16
ENDBRANCH  14  15
ENDBRANCH  13  14
ENDBRANCH  12  13
ENDBRANCH  11  12
ENDBRANCH  10  11
ENDBRANCH   1  10
TORSDOF 13
ENDMDL
MODEL 2
REMARK VINA RESULT:     1.482      3.248      5.649
REMARK INTER + INTRA:           1.819
REMARK INTER:                   2.500
REMARK INTRA:                  -0.682
REMARK UNBOUND:                -0.789
REMARK SMILES CCCCCCCCCCCCCCC(=O)[O-]
REMARK SMILES IDX 9 1 10 2 11 3 12 4 13 5 14 6 15 7 16 8 17 9 8 10 7 11 6 12
REMARK SMILES IDX 5 13 4 14 3 15 2 16 1 17
REMARK H PARENT
REMARK Flexibility Score: inf
ROOT
ATOM      1  C   UNL     1     103.764 103.288 102.126  1.00  0.00     0.000 C 
ENDROOT
BRANCH   1   2
ATOM      2  C   UNL     1     103.318 102.389 103.285  1.00  0.00     0.000 C 
BRANCH   2   3
ATOM      3  C   UNL     1     103.376 103.140 104.620  1.00  0.00     0.000 C 
BRANCH   3   4
ATOM      4  C   UNL     1     103.413 102.161 105.801  1.00  0.00     0.000 C 
BRANCH   4   5
ATOM      5  C   UNL     1     103.822 102.835 107.124  1.00  0.00     0.006 C 
BRANCH   5   6
ATOM      6  C   UNL     1     103.342 104.289 107.267  1.00  0.00     0.053 C 
BRANCH   6   7
ATOM      7  C   UNL     1     104.482 105.259 107.262  1.00  0.00     0.041 C 
ATOM      8  O   UNL     1     105.668 104.843 107.183  1.00  0.00    -0.550 OA
ATOM      9  O   UNL     1     104.237 106.621 107.376  1.00  0.00    -0.550 OA
ENDBRANCH   6   7
ENDBRANCH   5   6
ENDBRANCH   4   5
ENDBRANCH   3   4
ENDBRANCH   2   3
ENDBRANCH   1   2
BRANCH   1  10
ATOM     10  C   UNL     1     104.367 104.601 102.648  1.00  0.00     0.000 C 
BRANCH  10  11
ATOM     11  C   UNL     1     104.364 105.718 101.593  1.00  0.00    -0.000 C 
BRANCH  11  12
ATOM     12  C   UNL     1     104.662 105.195 100.177  1.00  0.00    -0.000 C 
BRANCH  12  13
ATOM     13  C   UNL     1     104.546 106.292  99.105  1.00  0.00    -0.000 C 
BRANCH  13  14
ATOM     14  C   UNL     1     104.297 105.720  97.699  1.00  0.00    -0.000 C 
BRANCH  14  15
ATOM     15  C   UNL     1     104.582 104.211  97.618  1.00  0.00    -0.000 C 
BRANCH  15  16
ATOM     16  C   UNL     1     103.307 103.360  97.715  1.00  0.00    -0.003 C 
ATOM     17  C   UNL     1     103.642 101.871  97.758  1.00  0.00     0.004 C 
ENDBRANCH  15  16
ENDBRANCH  14  15
ENDBRANCH  13  14
ENDBRANCH  12  13
ENDBRANCH  11  12
ENDBRANCH  10  11
ENDBRANCH   1  10
TORSDOF 13
ENDMDL
MODEL 3
REMARK VINA RESULT:     1.530      3.066      4.691
REMARK INTER + INTRA:           1.904
REMARK INTER:                   2.692
REMARK INTRA:                  -0.788
REMARK UNBOUND:                -0.789
REMARK SMILES CCCCCCCCCCCCCCC(=O)[O-]
REMARK SMILES IDX 9 1 10 2 11 3 12 4 13 5 14 6 15 7 16 8 17 9 8 10 7 11 6 12
REMARK SMILES IDX 5 13 4 14 3 15 2 16 1 17
REMARK H PARENT
REMARK Flexibility Score: inf
ROOT
ATOM      1  C   UNL     1     104.383 104.877 102.160  1.00  0.00     0.000 C 
ENDROOT
BRANCH   1   2
ATOM      2  C   UNL     1     104.619 105.860 103.313  1.00  0.00     0.000 C 
BRANCH   2   3
ATOM      3  C   UNL     1     104.622 105.135 104.664  1.00  0.00     0.000 C 
BRANCH   3   4
ATOM      4  C   UNL     1     104.469 106.131 105.822  1.00  0.00     0.000 C 
BRANCH   4   5
ATOM      5  C   UNL     1     104.208 105.440 107.174  1.00  0.00     0.006 C 
BRANCH   5   6
ATOM      6  C   UNL     1     104.655 103.969 107.228  1.00  0.00     0.053 C 
BRANCH   6   7
ATOM      7  C   UNL     1     103.489 103.030 107.269  1.00  0.00     0.041 C 
ATOM      8  O   UNL     1     102.313 103.479 107.233  1.00  0.00    -0.550 OA
ATOM      9  O   UNL     1     103.701 101.662 107.378  1.00  0.00    -0.550 OA
ENDBRANCH   6   7
ENDBRANCH   5   6
ENDBRANCH   4   5
ENDBRANCH   3   4
ENDBRANCH   2   3
ENDBRANCH   1   2
BRANCH   1  10
ATOM     10  C   UNL     1     103.580 103.656 102.634  1.00  0.00     0.000 C 
BRANCH  10  11
ATOM     11  C   UNL     1     103.588 102.505 101.614  1.00  0.00    -0.000 C 
BRANCH  11  12
ATOM     12  C   UNL     1     103.316 102.987 100.178  1.00  0.00    -0.000 C 
BRANCH  12  13
ATOM     13  C   UNL     1     103.437 101.856  99.143  1.00  0.00    -0.000 C 
BRANCH  13  14
ATOM     14  C   UNL     1     103.704 102.382  97.722  1.00  0.00    -0.000 C 
BRANCH  14  15
ATOM     15  C   UNL     1     103.384 103.879  97.578  1.00  0.00    -0.000 C 
BRANCH  15  16
ATOM     16  C   UNL     1     104.644 104.740  97.401  1.00  0.00    -0.003 C 
ATOM     17  C   UNL     1     104.447 106.131  97.997  1.00  0.00     0.004 C 
ENDBRANCH  15  16
ENDBRANCH  14  15
ENDBRANCH  13  14
ENDBRANCH  12  13
ENDBRANCH  11  12
ENDBRANCH  10  11
ENDBRANCH   1  10
TORSDOF 13
ENDMDL
MODEL 4
REMARK VINA RESULT:     1.542      5.406      9.183
REMARK INTER + INTRA:           1.925
REMARK INTER:                   2.525
REMARK INTRA:                  -0.600
REMARK UNBOUND:                -0.789
REMARK SMILES CCCCCCCCCCCCCCC(=O)[O-]
REMARK SMILES IDX 9 1 10 2 11 3 12 4 13 5 14 6 15 7 16 8 17 9 8 10 7 11 6 12
REMARK SMILES IDX 5 13 4 14 3 15 2 16 1 17
REMARK H PARENT
REMARK Flexibility Score: inf
ROOT
ATOM      1  C   UNL     1     104.313 104.679 102.667  1.00  0.00     0.000 C 
ENDROOT
BRANCH   1   2
ATOM      2  C   UNL     1     104.571 105.664 101.521  1.00  0.00     0.000 C 
BRANCH   2   3
ATOM      3  C   UNL     1     104.369 104.992 100.159  1.00  0.00     0.000 C 
BRANCH   3   4
ATOM      4  C   UNL     1     104.620 105.982  99.013  1.00  0.00     0.000 C 
BRANCH   4   5
ATOM      5  C   UNL     1     104.191 105.431  97.641  1.00  0.00     0.006 C 
BRANCH   5   6
ATOM      6  C   UNL     1     104.629 103.980  97.378  1.00  0.00     0.053 C 
BRANCH   6   7
ATOM      7  C   UNL     1     103.525 103.005  97.646  1.00  0.00     0.041 C 
ATOM      8  O   UNL     1     102.338 103.409  97.770  1.00  0.00    -0.550 OA
ATOM      9  O   UNL     1     103.810 101.653  97.789  1.00  0.00    -0.550 OA
ENDBRANCH   6   7
ENDBRANCH   5   6
ENDBRANCH   4   5
ENDBRANCH   3   4
ENDBRANCH   2   3
ENDBRANCH   1   2
BRANCH   1  10
ATOM     10  C   UNL     1     103.720 103.364 102.139  1.00  0.00     0.000 C 
BRANCH  10  11
ATOM     11  C   UNL     1     103.351 102.383 103.264  1.00  0.00    -0.000 C 
BRANCH  11  12
ATOM     12  C   UNL     1     103.312 103.057 104.646  1.00  0.00    -0.000 C 
BRANCH  12  13
ATOM     13  C   UNL     1     103.424 102.045 105.799  1.00  0.00    -0.000 C 
BRANCH  13  14
ATOM     14  C   UNL     1     103.736 102.719 107.147  1.00  0.00    -0.000 C 
BRANCH  14  15
ATOM     15  C   UNL     1     103.473 104.234 107.123  1.00  0.00    -0.000 C 
BRANCH  15  16
ATOM     16  C   UNL     1     104.760 105.060 107.262  1.00  0.00    -0.003 C 
ATOM     17  C   UNL     1     104.444 106.545 107.425  1.00  0.00     0.004 C 
ENDBRANCH  15  16
ENDBRANCH  14  15
ENDBRANCH  13  14
ENDBRANCH  12  13
ENDBRANCH  11  12
ENDBRANCH  10  11
ENDBRANCH   1  10
TORSDOF 13
ENDMDL
MODEL 5
REMARK VINA RESULT:     1.569      5.585      9.694
REMARK INTER + INTRA:           1.972
REMARK INTER:                   2.608
REMARK INTRA:                  -0.636
REMARK UNBOUND:                -0.789
REMARK SMILES CCCCCCCCCCCCCCC(=O)[O-]
REMARK SMILES IDX 9 1 10 2 11 3 12 4 13 5 14 6 15 7 16 8 17 9 8 10 7 11 6 12
REMARK SMILES IDX 5 13 4 14 3 15 2 16 1 17
REMARK H PARENT
REMARK Flexibility Score: inf
ROOT
ATOM      1  C   UNL     1     103.647 103.595 102.659  1.00  0.00     0.000 C 
ENDROOT
BRANCH   1   2
ATOM      2  C   UNL     1     103.501 102.601 101.500  1.00  0.00     0.000 C 
BRANCH   2   3
ATOM      3  C   UNL     1     103.395 103.332 100.157  1.00  0.00     0.000 C 
BRANCH   3   4
ATOM      4  C   UNL     1     103.343 102.335  98.990  1.00  0.00     0.000 C 
BRANCH   4   5
ATOM      5  C   UNL     1     103.942 102.904  97.691  1.00  0.00     0.006 C 
BRANCH   5   6
ATOM      6  C   UNL     1     103.487 104.335  97.358  1.00  0.00     0.053 C 
BRANCH   6   7
ATOM      7  C   UNL     1     104.550 105.345  97.657  1.00  0.00     0.041 C 
ATOM      8  O   UNL     1     105.760 104.999  97.699  1.00  0.00    -0.550 OA
ATOM      9  O   UNL     1     104.202 106.663  97.922  1.00  0.00    -0.550 OA
ENDBRANCH   6   7
ENDBRANCH   5   6
ENDBRANCH   4   5
ENDBRANCH   3   4
ENDBRANCH   2   3
ENDBRANCH   1   2
BRANCH   1  10
ATOM     10  C   UNL     1     104.476 104.817 102.235  1.00  0.00     0.000 C 
BRANCH  10  11
ATOM     11  C   UNL     1     104.502 105.919 103.307  1.00  0.00    -0.000 C 
BRANCH  11  12
ATOM     12  C   UNL     1     104.796 105.368 104.713  1.00  0.00    -0.000 C 
BRANCH  12  13
ATOM     13  C   UNL     1     104.454 106.375 105.825  1.00  0.00    -0.000 C 
BRANCH  13  14
ATOM     14  C   UNL     1     104.390 105.720 107.215  1.00  0.00    -0.000 C 
BRANCH  14  15
ATOM     15  C   UNL     1     104.613 104.199 107.161  1.00  0.00    -0.000 C 
BRANCH  15  16
ATOM     16  C   UNL     1     103.303 103.404 107.262  1.00  0.00    -0.003 C 
ATOM     17  C   UNL     1     103.574 101.902 107.301  1.00  0.00     0.004 C 
ENDBRANCH  15  16
ENDBRANCH  14  15
ENDBRANCH  13  14
ENDBRANCH  12  13
ENDBRANCH  11  12
ENDBRANCH  10  11
ENDBRANCH   1  10
TORSDOF 13
ENDMDL
MODEL 6
REMARK VINA RESULT:     1.610      3.445      7.504
REMARK INTER + INTRA:           2.045
REMARK INTER:                   2.643
REMARK INTRA:                  -0.598
REMARK UNBOUND:                -0.789
REMARK SMILES CCCCCCCCCCCCCCC(=O)[O-]
REMARK SMILES IDX 9 1 10 2 11 3 12 4 13 5 14 6 15 7 16 8 17 9 8 10 7 11 6 12
REMARK SMILES IDX 5 13 4 14 3 15 2 16 1 17
REMARK H PARENT
REMARK Flexibility Score: inf
ROOT
ATOM      1  C   UNL     1     104.287 104.732 107.484  1.00  0.00     0.000 C 
ENDROOT
BRANCH   1   2
ATOM      2  C   UNL     1     104.653 105.667 106.326  1.00  0.00     0.000 C 
BRANCH   2   3
ATOM      3  C   UNL     1     104.361 105.010 104.972  1.00  0.00     0.000 C 
BRANCH   3   4
ATOM      4  C   UNL     1     104.628 105.986 103.817  1.00  0.00     0.000 C 
BRANCH   4   5
ATOM      5  C   UNL     1     104.272 105.395 102.440  1.00  0.00     0.006 C 
BRANCH   5   6
ATOM      6  C   UNL     1     104.677 103.923 102.261  1.00  0.00     0.053 C 
BRANCH   6   7
ATOM      7  C   UNL     1     103.516 102.995 102.445  1.00  0.00     0.041 C 
ATOM      8  O   UNL     1     102.342 103.449 102.484  1.00  0.00    -0.550 OA
ATOM      9  O   UNL     1     103.733 101.633 102.606  1.00  0.00    -0.550 OA
ENDBRANCH   6   7
ENDBRANCH   5   6
ENDBRANCH   4   5
ENDBRANCH   3   4
ENDBRANCH   2   3
ENDBRANCH   1   2
BRANCH   1  10
ATOM     10  C   UNL     1     103.619 103.450 106.965  1.00  0.00     0.000 C 
BRANCH  10  11
ATOM     11  C   UNL     1     103.450 102.382 108.059  1.00  0.00    -0.000 C 
BRANCH  11  12
ATOM     12  C   UNL     1     103.262 102.994 109.457  1.00  0.00    -0.000 C 
BRANCH  12  13
ATOM     13  C   UNL     1     103.308 101.937 110.575  1.00  0.00    -0.000 C 
BRANCH  13  14
ATOM     14  C   UNL     1     103.680 102.539 111.941  1.00  0.00    -0.000 C 
BRANCH  14  15
ATOM     15  C   UNL     1     103.422 104.053 112.008  1.00  0.00    -0.000 C 
BRANCH  15  16
ATOM     16  C   UNL     1     104.718 104.877 111.996  1.00  0.00    -0.003 C 
ATOM     17  C   UNL     1     104.417 106.374 111.975  1.00  0.00     0.004 C 
ENDBRANCH  15  16
ENDBRANCH  14  15
ENDBRANCH  13  14
ENDBRANCH  12  13
ENDBRANCH  11  12
ENDBRANCH  10  11
ENDBRANCH   1  10
TORSDOF 13
ENDMDL
MODEL 7
REMARK VINA RESULT:     1.643      1.682      3.036
REMARK INTER + INTRA:           2.102
REMARK INTER:                   2.936
REMARK INTRA:                  -0.834
REMARK UNBOUND:                -0.789
REMARK SMILES CCCCCCCCCCCCCCC(=O)[O-]
REMARK SMILES IDX 9 1 10 2 11 3 12 4 13 5 14 6 15 7 16 8 17 9 8 10 7 11 6 12
REMARK SMILES IDX 5 13 4 14 3 15 2 16 1 17
REMARK H PARENT
REMARK Flexibility Score: inf
ROOT
ATOM      1  C   UNL     1     103.659 103.502 106.753  1.00  0.00     0.000 C 
ENDROOT
BRANCH   1   2
ATOM      2  C   UNL     1     103.427 102.492 107.883  1.00  0.00     0.000 C 
BRANCH   2   3
ATOM      3  C   UNL     1     103.223 103.203 109.226  1.00  0.00     0.000 C 
BRANCH   3   4
ATOM      4  C   UNL     1     103.519 102.259 110.399  1.00  0.00     0.000 C 
BRANCH   4   5
ATOM      5  C   UNL     1     103.612 102.994 111.750  1.00  0.00     0.006 C 
BRANCH   5   6
ATOM      6  C   UNL     1     103.286 104.495 111.675  1.00  0.00     0.053 C 
BRANCH   6   7
ATOM      7  C   UNL     1     104.482 105.344 111.976  1.00  0.00     0.041 C 
ATOM      8  O   UNL     1     104.343 106.573 112.213  1.00  0.00    -0.550 OA
ATOM      9  O   UNL     1     105.752 104.784 111.964  1.00  0.00    -0.550 OA
ENDBRANCH   6   7
ENDBRANCH   5   6
ENDBRANCH   4   5
ENDBRANCH   3   4
ENDBRANCH   2   3
ENDBRANCH   1   2
BRANCH   1  10
ATOM     10  C   UNL     1     104.343 104.772 107.282  1.00  0.00     0.000 C 
BRANCH  10  11
ATOM     11  C   UNL     1     104.567 105.827 106.187  1.00  0.00    -0.000 C 
BRANCH  11  12
ATOM     12  C   UNL     1     104.720 105.205 104.789  1.00  0.00    -0.000 C 
BRANCH  12  13
ATOM     13  C   UNL     1     104.609 106.247 103.663  1.00  0.00    -0.000 C 
BRANCH  13  14
ATOM     14  C   UNL     1     104.304 105.610 102.296  1.00  0.00    -0.000 C 
BRANCH  14  15
ATOM     15  C   UNL     1     104.582 104.098 102.276  1.00  0.00    -0.000 C 
BRANCH  15  16
ATOM     16  C   UNL     1     103.296 103.258 102.316  1.00  0.00    -0.003 C 
ATOM     17  C   UNL     1     103.600 101.807 102.680  1.00  0.00     0.004 C 
ENDBRANCH  15  16
ENDBRANCH  14  15
ENDBRANCH  13  14
ENDBRANCH  12  13
ENDBRANCH  11  12
ENDBRANCH  10  11
ENDBRANCH   1  10
TORSDOF 13
ENDMDL
MODEL 8
REMARK VINA RESULT:     1.654      3.531      8.146
REMARK INTER + INTRA:           2.121
REMARK INTER:                   2.752
REMARK INTRA:                  -0.630
REMARK UNBOUND:                -0.789
REMARK SMILES CCCCCCCCCCCCCCC(=O)[O-]
REMARK SMILES IDX 9 1 10 2 11 3 12 4 13 5 14 6 15 7 16 8 17 9 8 10 7 11 6 12
REMARK SMILES IDX 5 13 4 14 3 15 2 16 1 17
REMARK H PARENT
REMARK Flexibility Score: inf
ROOT
ATOM      1  C   UNL     1     103.579 103.701 107.502  1.00  0.00     0.000 C 
ENDROOT
BRANCH   1   2
ATOM      2  C   UNL     1     103.381 102.673 106.382  1.00  0.00     0.000 C 
BRANCH   2   3
ATOM      3  C   UNL     1     103.687 103.286 105.010  1.00  0.00     0.000 C 
BRANCH   3   4
ATOM      4  C   UNL     1     103.395 102.285 103.883  1.00  0.00     0.000 C 
BRANCH   4   5
ATOM      5  C   UNL     1     103.798 102.815 102.494  1.00  0.00     0.006 C 
BRANCH   5   6
ATOM      6  C   UNL     1     103.307 104.241 102.195  1.00  0.00     0.053 C 
BRANCH   6   7
ATOM      7  C   UNL     1     104.395 105.255 102.366  1.00  0.00     0.041 C 
ATOM      8  O   UNL     1     105.584 104.885 102.553  1.00  0.00    -0.550 OA
ATOM      9  O   UNL     1     104.090 106.610 102.350  1.00  0.00    -0.550 OA
ENDBRANCH   6   7
ENDBRANCH   5   6
ENDBRANCH   4   5
ENDBRANCH   3   4
ENDBRANCH   2   3
ENDBRANCH   1   2
BRANCH   1  10
ATOM     10  C   UNL     1     104.328 104.939 106.986  1.00  0.00     0.000 C 
BRANCH  10  11
ATOM     11  C   UNL     1     104.597 105.975 108.091  1.00  0.00    -0.000 C 
BRANCH  11  12
ATOM     12  C   UNL     1     104.773 105.329 109.476  1.00  0.00    -0.000 C 
BRANCH  12  13
ATOM     13  C   UNL     1     104.645 106.347 110.622  1.00  0.00    -0.000 C 
BRANCH  13  14
ATOM     14  C   UNL     1     104.318 105.680 111.970  1.00  0.00    -0.000 C 
BRANCH  14  15
ATOM     15  C   UNL     1     104.577 104.165 111.955  1.00  0.00    -0.000 C 
BRANCH  15  16
ATOM     16  C   UNL     1     103.281 103.342 111.998  1.00  0.00    -0.003 C 
ATOM     17  C   UNL     1     103.579 101.845 111.967  1.00  0.00     0.004 C 
ENDBRANCH  15  16
ENDBRANCH  14  15
ENDBRANCH  13  14
ENDBRANCH  12  13
ENDBRANCH  11  12
ENDBRANCH  10  11
ENDBRANCH   1  10
TORSDOF 13
ENDMDL
MODEL 9
REMARK VINA RESULT:     1.695      3.297      6.247
REMARK INTER + INTRA:           2.194
REMARK INTER:                   3.039
REMARK INTRA:                  -0.845
REMARK UNBOUND:                -0.789
REMARK SMILES CCCCCCCCCCCCCCC(=O)[O-]
REMARK SMILES IDX 9 1 10 2 11 3 12 4 13 5 14 6 15 7 16 8 17 9 8 10 7 11 6 12
REMARK SMILES IDX 5 13 4 14 3 15 2 16 1 17
REMARK H PARENT
REMARK Flexibility Score: inf
ROOT
ATOM      1  C   UNL     1     104.743 104.773 102.339  1.00  0.00     0.000 C 
ENDROOT
BRANCH   1   2
ATOM      2  C   UNL     1     103.429 103.989 102.425  1.00  0.00     0.000 C 
BRANCH   2   3
ATOM      3  C   UNL     1     103.638 102.518 102.045  1.00  0.00     0.000 C 
BRANCH   3   4
ATOM      4  C   UNL     1     103.421 101.600 103.256  1.00  0.00     0.000 C 
BRANCH   4   5
ATOM      5  C   UNL     1     103.308 102.376 104.581  1.00  0.00     0.006 C 
BRANCH   5   6
ATOM      6  C   UNL     1     103.259 101.485 105.833  1.00  0.00     0.053 C 
BRANCH   6   7
ATOM      7  C   UNL     1     103.509 102.264 107.087  1.00  0.00     0.041 C 
ATOM      8  O   UNL     1     103.476 101.691 108.208  1.00  0.00    -0.550 OA
ATOM      9  O   UNL     1     103.748 103.631 107.020  1.00  0.00    -0.550 OA
ENDBRANCH   6   7
ENDBRANCH   5   6
ENDBRANCH   4   5
ENDBRANCH   3   4
ENDBRANCH   2   3
ENDBRANCH   1   2
BRANCH   1  10
ATOM     10  C   UNL     1     104.487 106.286 102.419  1.00  0.00     0.000 C 
BRANCH  10  11
ATOM     11  C   UNL     1     104.508 106.967 101.041  1.00  0.00    -0.000 C 
BRANCH  11  12
ATOM     12  C   UNL     1     104.733 105.969  99.892  1.00  0.00    -0.000 C 
BRANCH  12  13
ATOM     13  C   UNL     1     104.560 106.615  98.507  1.00  0.00    -0.000 C 
BRANCH  13  14
ATOM     14  C   UNL     1     104.311 105.577  97.399  1.00  0.00    -0.000 C 
BRANCH  14  15
ATOM     15  C   UNL     1     104.554 104.136  97.876  1.00  0.00    -0.000 C 
BRANCH  15  16
ATOM     16  C   UNL     1     103.302 103.254  97.763  1.00  0.00    -0.003 C 
ATOM     17  C   UNL     1     103.668 101.773  97.802  1.00  0.00     0.004 C 
ENDBRANCH  15  16
ENDBRANCH  14  15
ENDBRANCH  13  14
ENDBRANCH  12  13
ENDBRANCH  11  12
ENDBRANCH  10  11
ENDBRANCH   1  10
TORSDOF 13
ENDMDL
