MODEL 1
REMARK VINA RESULT:    -3.417      0.000      0.000
REMARK INTER + INTRA:          -4.058
REMARK INTER:                  -4.017
REMARK INTRA:                  -0.041
REMARK UNBOUND:                -0.041
REMARK SMILES O=C([O-])CCC(=O)[O-]
REMARK SMILES IDX 4 1 2 2 1 3 3 4 5 5 6 6 7 7 8 8
REMARK H PARENT
REMARK Flexibility Score: inf
ROOT
ATOM      1  C   UNL     1      -5.389   1.884  -0.639  1.00  0.00     0.059 C 
ENDROOT
BRANCH   1   2
ATOM      2  C   UNL     1      -5.267   2.867   0.481  1.00  0.00     0.042 C 
ATOM      3  O   UNL     1      -5.007   4.075   0.237  1.00  0.00    -0.550 OA
ATOM      4  O   UNL     1      -5.391   2.443   1.798  1.00  0.00    -0.550 OA
ENDBRANCH   1   2
BRANCH   1   5
ATOM      5  C   UNL     1      -6.095   2.522  -1.837  1.00  0.00     0.059 C 
BRANCH   5   6
ATOM      6  C   UNL     1      -5.856   1.718  -3.075  1.00  0.00     0.042 C 
ATOM      7  O   UNL     1      -4.683   1.417  -3.419  1.00  0.00    -0.550 OA
ATOM      8  O   UNL     1      -6.926   1.342  -3.878  1.00  0.00    -0.550 OA
ENDBRANCH   5   6
ENDBRANCH   1   5
TORSDOF 3
ENDMDL
MODEL 2
REMARK VINA RESULT:    -3.403     12.201     12.681
REMARK INTER + INTRA:          -4.041
REMARK INTER:                  -3.954
REMARK INTRA:                  -0.087
REMARK UNBOUND:                -0.041
REMARK SMILES O=C([O-])CCC(=O)[O-]
REMARK SMILES IDX 4 1 2 2 1 3 3 4 5 5 6 6 7 7 8 8
REMARK H PARENT
REMARK Flexibility Score: inf
ROOT
ATOM      1  C   UNL     1       5.392   8.417  -3.366  1.00  0.00     0.059 C 
ENDROOT
BRANCH   1   2
ATOM      2  C   UNL     1       5.588   6.977  -3.011  1.00  0.00     0.042 C 
ATOM      3  O   UNL     1       4.683   6.346  -2.403  1.00  0.00    -0.550 OA
ATOM      4  O   UNL     1       6.787   6.344  -3.310  1.00  0.00    -0.550 OA
ENDBRANCH   1   2
BRANCH   1   5
ATOM      5  C   UNL     1       4.142   8.590  -4.232  1.00  0.00     0.059 C 
BRANCH   5   6
ATOM      6  C   UNL     1       4.522   8.949  -5.634  1.00  0.00     0.042 C 
ATOM      7  O   UNL     1       3.701   9.544  -6.379  1.00  0.00    -0.550 OA
ATOM      8  O   UNL     1       5.766   8.583  -6.133  1.00  0.00    -0.550 OA
ENDBRANCH   5   6
ENDBRANCH   1   5
TORSDOF 3
ENDMDL
MODEL 3
REMARK VINA RESULT:    -3.373     12.166     12.657
REMARK INTER + INTRA:          -4.006
REMARK INTER:                  -3.897
REMARK INTRA:                  -0.109
REMARK UNBOUND:                -0.041
REMARK SMILES O=C([O-])CCC(=O)[O-]
REMARK SMILES IDX 4 1 2 2 1 3 3 4 5 5 6 6 7 7 8 8
REMARK H PARENT
REMARK Flexibility Score: inf
ROOT
ATOM      1  C   UNL     1       6.021   8.498  -3.317  1.00  0.00     0.059 C 
ENDROOT
BRANCH   1   2
ATOM      2  C   UNL     1       6.034   7.027  -3.045  1.00  0.00     0.042 C 
ATOM      3  O   UNL     1       7.062   6.346  -3.298  1.00  0.00    -0.550 OA
ATOM      4  O   UNL     1       4.895   6.400  -2.558  1.00  0.00    -0.550 OA
ENDBRANCH   1   2
BRANCH   1   5
ATOM      5  C   UNL     1       5.645   8.769  -4.775  1.00  0.00     0.059 C 
BRANCH   5   6
ATOM      6  C   UNL     1       4.162   8.908  -4.915  1.00  0.00     0.042 C 
ATOM      7  O   UNL     1       3.628   8.874  -6.055  1.00  0.00    -0.550 OA
ATOM      8  O   UNL     1       3.374   9.126  -3.792  1.00  0.00    -0.550 OA
ENDBRANCH   5   6
ENDBRANCH   1   5
TORSDOF 3
ENDMDL
MODEL 4
REMARK VINA RESULT:    -3.365     12.336     13.113
REMARK INTER + INTRA:          -3.996
REMARK INTER:                  -3.915
REMARK INTRA:                  -0.082
REMARK UNBOUND:                -0.041
REMARK SMILES O=C([O-])CCC(=O)[O-]
REMARK SMILES IDX 4 1 2 2 1 3 3 4 5 5 6 6 7 7 8 8
REMARK H PARENT
REMARK Flexibility Score: inf
ROOT
ATOM      1  C   UNL     1       4.311   8.663  -4.259  1.00  0.00     0.059 C 
ENDROOT
BRANCH   1   2
ATOM      2  C   UNL     1       4.567   8.970  -5.700  1.00  0.00     0.042 C 
ATOM      3  O   UNL     1       3.687   9.550  -6.390  1.00  0.00    -0.550 OA
ATOM      4  O   UNL     1       5.758   8.574  -6.295  1.00  0.00    -0.550 OA
ENDBRANCH   1   2
BRANCH   1   5
ATOM      5  C   UNL     1       5.630   8.447  -3.515  1.00  0.00     0.059 C 
BRANCH   5   6
ATOM      6  C   UNL     1       5.773   7.015  -3.107  1.00  0.00     0.042 C 
ATOM      7  O   UNL     1       4.813   6.414  -2.557  1.00  0.00    -0.550 OA
ATOM      8  O   UNL     1       6.983   6.357  -3.289  1.00  0.00    -0.550 OA
ENDBRANCH   5   6
ENDBRANCH   1   5
TORSDOF 3
ENDMDL
MODEL 5
REMARK VINA RESULT:    -3.353      1.000      4.002
REMARK INTER + INTRA:          -3.982
REMARK INTER:                  -3.899
REMARK INTRA:                  -0.083
REMARK UNBOUND:                -0.041
REMARK SMILES O=C([O-])CCC(=O)[O-]
REMARK SMILES IDX 4 1 2 2 1 3 3 4 5 5 6 6 7 7 8 8
REMARK H PARENT
REMARK Flexibility Score: inf
ROOT
ATOM      1  C   UNL     1      -6.595   2.607  -1.623  1.00  0.00     0.059 C 
ENDROOT
BRANCH   1   2
ATOM      2  C   UNL     1      -6.142   1.891  -2.856  1.00  0.00     0.042 C 
ATOM      3  O   UNL     1      -6.987   1.478  -3.694  1.00  0.00    -0.550 OA
ATOM      4  O   UNL     1      -4.792   1.636  -3.058  1.00  0.00    -0.550 OA
ENDBRANCH   1   2
BRANCH   1   5
ATOM      5  C   UNL     1      -5.391   3.027  -0.777  1.00  0.00     0.059 C 
BRANCH   5   6
ATOM      6  C   UNL     1      -5.209   2.090   0.376  1.00  0.00     0.042 C 
ATOM      7  O   UNL     1      -4.816   0.911   0.178  1.00  0.00    -0.550 OA
ATOM      8  O   UNL     1      -5.522   2.504   1.665  1.00  0.00    -0.550 OA
ENDBRANCH   5   6
ENDBRANCH   1   5
TORSDOF 3
ENDMDL
MODEL 6
REMARK VINA RESULT:    -3.325     12.612     13.414
REMARK INTER + INTRA:          -3.950
REMARK INTER:                  -3.832
REMARK INTRA:                  -0.118
REMARK UNBOUND:                -0.041
REMARK SMILES O=C([O-])CCC(=O)[O-]
REMARK SMILES IDX 4 1 2 2 1 3 3 4 5 5 6 6 7 7 8 8
REMARK H PARENT
REMARK Flexibility Score: inf
ROOT
ATOM      1  C   UNL     1       4.996   7.377  -2.937  1.00  0.00     0.059 C 
ENDROOT
BRANCH   1   2
ATOM      2  C   UNL     1       4.484   8.193  -4.081  1.00  0.00     0.042 C 
ATOM      3  O   UNL     1       3.303   8.630  -4.069  1.00  0.00    -0.550 OA
ATOM      4  O   UNL     1       5.294   8.431  -5.184  1.00  0.00    -0.550 OA
ENDBRANCH   1   2
BRANCH   1   5
ATOM      5  C   UNL     1       6.227   8.039  -2.316  1.00  0.00     0.059 C 
BRANCH   5   6
ATOM      6  C   UNL     1       7.456   7.237  -2.609  1.00  0.00     0.042 C 
ATOM      7  O   UNL     1       7.381   6.197  -3.314  1.00  0.00    -0.550 OA
ATOM      8  O   UNL     1       8.678   7.611  -2.061  1.00  0.00    -0.550 OA
ENDBRANCH   5   6
ENDBRANCH   1   5
TORSDOF 3
ENDMDL
MODEL 7
REMARK VINA RESULT:    -2.923     12.784     14.193
REMARK INTER + INTRA:          -3.478
REMARK INTER:                  -3.339
REMARK INTRA:                  -0.138
REMARK UNBOUND:                -0.041
REMARK SMILES O=C([O-])CCC(=O)[O-]
REMARK SMILES IDX 4 1 2 2 1 3 3 4 5 5 6 6 7 7 8 8
REMARK H PARENT
REMARK Flexibility Score: inf
ROOT
ATOM      1  C   UNL     1      -3.688  -8.466   7.990  1.00  0.00     0.059 C 
ENDROOT
BRANCH   1   2
ATOM      2  C   UNL     1      -4.178  -7.922   6.685  1.00  0.00     0.042 C 
ATOM      3  O   UNL     1      -3.423  -7.206   5.974  1.00  0.00    -0.550 OA
ATOM      4  O   UNL     1      -5.483  -8.163   6.276  1.00  0.00    -0.550 OA
ENDBRANCH   1   2
BRANCH   1   5
ATOM      5  C   UNL     1      -3.764  -7.395   9.079  1.00  0.00     0.059 C 
BRANCH   5   6
ATOM      6  C   UNL     1      -5.165  -7.263   9.586  1.00  0.00     0.042 C 
ATOM      7  O   UNL     1      -5.793  -8.279   9.984  1.00  0.00    -0.550 OA
ATOM      8  O   UNL     1      -5.796  -6.025   9.573  1.00  0.00    -0.550 OA
ENDBRANCH   5   6
ENDBRANCH   1   5
TORSDOF 3
ENDMDL
MODEL 8
REMARK VINA RESULT:    -2.867     12.779     13.876
REMARK INTER + INTRA:          -3.411
REMARK INTER:                  -3.293
REMARK INTRA:                  -0.118
REMARK UNBOUND:                -0.041
REMARK SMILES O=C([O-])CCC(=O)[O-]
REMARK SMILES IDX 4 1 2 2 1 3 3 4 5 5 6 6 7 7 8 8
REMARK H PARENT
REMARK Flexibility Score: inf
ROOT
ATOM      1  C   UNL     1      -3.625  -7.523   9.062  1.00  0.00     0.059 C 
ENDROOT
BRANCH   1   2
ATOM      2  C   UNL     1      -5.022  -7.445   9.591  1.00  0.00     0.042 C 
ATOM      3  O   UNL     1      -5.581  -8.473  10.057  1.00  0.00    -0.550 OA
ATOM      4  O   UNL     1      -5.725  -6.249   9.527  1.00  0.00    -0.550 OA
ENDBRANCH   1   2
BRANCH   1   5
ATOM      5  C   UNL     1      -3.544  -8.531   7.914  1.00  0.00     0.059 C 
BRANCH   5   6
ATOM      6  C   UNL     1      -4.128  -7.950   6.665  1.00  0.00     0.042 C 
ATOM      7  O   UNL     1      -3.427  -7.217   5.919  1.00  0.00    -0.550 OA
ATOM      8  O   UNL     1      -5.462  -8.177   6.350  1.00  0.00    -0.550 OA
ENDBRANCH   5   6
ENDBRANCH   1   5
TORSDOF 3
ENDMDL
MODEL 9
REMARK VINA RESULT:    -2.708     13.002     14.639
REMARK INTER + INTRA:          -3.224
REMARK INTER:                  -3.086
REMARK INTRA:                  -0.138
REMARK UNBOUND:                -0.041
REMARK SMILES O=C([O-])CCC(=O)[O-]
REMARK SMILES IDX 4 1 2 2 1 3 3 4 5 5 6 6 7 7 8 8
REMARK H PARENT
REMARK Flexibility Score: inf
ROOT
ATOM      1  C   UNL     1      -2.948  -8.908   7.523  1.00  0.00     0.059 C 
ENDROOT
BRANCH   1   2
ATOM      2  C   UNL     1      -3.834  -7.950   6.792  1.00  0.00     0.042 C 
ATOM      3  O   UNL     1      -3.361  -7.215   5.886  1.00  0.00    -0.550 OA
ATOM      4  O   UNL     1      -5.172  -7.832   7.144  1.00  0.00    -0.550 OA
ENDBRANCH   1   2
BRANCH   1   5
ATOM      5  C   UNL     1      -3.189  -8.817   9.031  1.00  0.00     0.059 C 
BRANCH   5   6
ATOM      6  C   UNL     1      -2.372  -7.714   9.626  1.00  0.00     0.042 C 
ATOM      7  O   UNL     1      -2.927  -6.656  10.021  1.00  0.00    -0.550 OA
ATOM      8  O   UNL     1      -0.989  -7.835   9.699  1.00  0.00    -0.550 OA
ENDBRANCH   5   6
ENDBRANCH   1   5
TORSDOF 3
ENDMDL
