MODEL 1
REMARK VINA RESULT:    -5.120      0.000      0.000
REMARK INTER + INTRA:          -5.631
REMARK INTER:                  -5.569
REMARK INTRA:                  -0.062
REMARK UNBOUND:                -0.062
REMARK SMILES COc1cc2ccc(=O)oc2cc1O
REMARK SMILES IDX 3 1 13 2 12 3 11 4 5 5 4 6 6 7 7 8 8 9 9 10 10 11 2 12 1 13
REMARK SMILES IDX 14 14
REMARK H PARENT 14 15
REMARK Flexibility Score: inf
ROOT
ATOM      1  C   UNL     1       7.928  -6.602  -6.978  1.00  0.00     0.161 A 
ATOM      2  C   UNL     1       7.578  -5.239  -6.904  1.00  0.00     0.161 A 
ATOM      3  C   UNL     1       7.519  -4.462  -8.066  1.00  0.00     0.098 A 
ATOM      4  C   UNL     1       7.804  -5.028  -9.310  1.00  0.00     0.142 A 
ATOM      5  C   UNL     1       8.155  -6.391  -9.396  1.00  0.00     0.022 A 
ATOM      6  C   UNL     1       8.216  -7.173  -8.235  1.00  0.00     0.062 A 
ATOM      7  C   UNL     1       8.436  -6.929 -10.656  1.00  0.00     0.019 A 
ATOM      8  C   UNL     1       8.361  -6.110 -11.782  1.00  0.00     0.094 A 
ATOM      9  C   UNL     1       8.007  -4.767 -11.621  1.00  0.00     0.336 A 
ATOM     10  O   UNL     1       7.935  -4.011 -12.625  1.00  0.00    -0.246 OA
ATOM     11  O   UNL     1       7.746  -4.280 -10.410  1.00  0.00    -0.423 OA
ENDROOT
BRANCH   1  12
ATOM     12  O   UNL     1       7.977  -7.353  -5.792  1.00  0.00    -0.493 OA
ATOM     13  C   UNL     1       7.060  -8.388  -5.453  1.00  0.00     0.278 C 
ENDBRANCH   1  12
BRANCH   2  14
ATOM     14  O   UNL     1       7.287  -4.638  -5.679  1.00  0.00    -0.504 OA
ATOM     15  H   UNL     1       6.338  -4.534  -5.340  1.00  0.00     0.293 HD
ENDBRANCH   2  14
TORSDOF 2
ENDMDL
MODEL 2
REMARK VINA RESULT:    -5.079     15.817     18.583
REMARK INTER + INTRA:          -5.587
REMARK INTER:                  -5.522
REMARK INTRA:                  -0.065
REMARK UNBOUND:                -0.062
REMARK SMILES COc1cc2ccc(=O)oc2cc1O
REMARK SMILES IDX 3 1 13 2 12 3 11 4 5 5 4 6 6 7 7 8 8 9 9 10 10 11 2 12 1 13
REMARK SMILES IDX 14 14
REMARK H PARENT 14 15
REMARK Flexibility Score: inf
ROOT
ATOM      1  C   UNL     1      21.824   0.258 -21.361  1.00  0.00     0.161 A 
ATOM      2  C   UNL     1      21.116  -0.877 -21.804  1.00  0.00     0.161 A 
ATOM      3  C   UNL     1      20.297  -1.588 -20.918  1.00  0.00     0.098 A 
ATOM      4  C   UNL     1      20.174  -1.180 -19.588  1.00  0.00     0.142 A 
ATOM      5  C   UNL     1      20.878  -0.046 -19.135  1.00  0.00     0.022 A 
ATOM      6  C   UNL     1      21.699   0.669 -20.018  1.00  0.00     0.062 A 
ATOM      7  C   UNL     1      20.734   0.337 -17.797  1.00  0.00     0.019 A 
ATOM      8  C   UNL     1      19.906  -0.406 -16.958  1.00  0.00     0.094 A 
ATOM      9  C   UNL     1      19.238  -1.520 -17.477  1.00  0.00     0.336 A 
ATOM     10  O   UNL     1      18.486  -2.205 -16.735  1.00  0.00    -0.246 OA
ATOM     11  O   UNL     1      19.394  -1.863 -18.753  1.00  0.00    -0.423 OA
ENDROOT
BRANCH   1  12
ATOM     12  O   UNL     1      22.635   0.948 -22.276  1.00  0.00    -0.493 OA
ATOM     13  C   UNL     1      22.285   2.180 -22.897  1.00  0.00     0.278 C 
ENDBRANCH   1  12
BRANCH   2  14
ATOM     14  O   UNL     1      21.214  -1.314 -23.125  1.00  0.00    -0.504 OA
ATOM     15  H   UNL     1      20.628  -0.943 -23.862  1.00  0.00     0.293 HD
ENDBRANCH   2  14
TORSDOF 2
ENDMDL
MODEL 3
REMARK VINA RESULT:    -5.060      2.735      3.211
REMARK INTER + INTRA:          -5.565
REMARK INTER:                  -5.543
REMARK INTRA:                  -0.022
REMARK UNBOUND:                -0.062
REMARK SMILES COc1cc2ccc(=O)oc2cc1O
REMARK SMILES IDX 3 1 13 2 12 3 11 4 5 5 4 6 6 7 7 8 8 9 9 10 10 11 2 12 1 13
REMARK SMILES IDX 14 14
REMARK H PARENT 14 15
REMARK Flexibility Score: inf
ROOT
ATOM      1  C   UNL     1       8.570  -5.535  -5.798  1.00  0.00     0.161 A 
ATOM      2  C   UNL     1       9.876  -5.182  -6.196  1.00  0.00     0.161 A 
ATOM      3  C   UNL     1      10.438  -5.747  -7.347  1.00  0.00     0.098 A 
ATOM      4  C   UNL     1       9.714  -6.664  -8.111  1.00  0.00     0.142 A 
ATOM      5  C   UNL     1       8.407  -7.023  -7.721  1.00  0.00     0.022 A 
ATOM      6  C   UNL     1       7.840  -6.461  -6.570  1.00  0.00     0.062 A 
ATOM      7  C   UNL     1       7.707  -7.945  -8.506  1.00  0.00     0.019 A 
ATOM      8  C   UNL     1       8.315  -8.477  -9.643  1.00  0.00     0.094 A 
ATOM      9  C   UNL     1       9.614  -8.074  -9.968  1.00  0.00     0.336 A 
ATOM     10  O   UNL     1      10.180  -8.543 -10.990  1.00  0.00    -0.246 OA
ATOM     11  O   UNL     1      10.258  -7.197  -9.203  1.00  0.00    -0.423 OA
ENDROOT
BRANCH   1  12
ATOM     12  O   UNL     1       8.037  -4.948  -4.639  1.00  0.00    -0.493 OA
ATOM     13  C   UNL     1       8.270  -5.419  -3.315  1.00  0.00     0.278 C 
ENDBRANCH   1  12
BRANCH   2  14
ATOM     14  O   UNL     1      10.630  -4.270  -5.459  1.00  0.00    -0.504 OA
ATOM     15  H   UNL     1      10.446  -3.274  -5.480  1.00  0.00     0.293 HD
ENDBRANCH   2  14
TORSDOF 2
ENDMDL
MODEL 4
REMARK VINA RESULT:    -5.058     15.678     17.710
REMARK INTER + INTRA:          -5.563
REMARK INTER:                  -5.555
REMARK INTRA:                  -0.008
REMARK UNBOUND:                -0.062
REMARK SMILES COc1cc2ccc(=O)oc2cc1O
REMARK SMILES IDX 3 1 13 2 12 3 11 4 5 5 4 6 6 7 7 8 8 9 9 10 10 11 2 12 1 13
REMARK SMILES IDX 14 14
REMARK H PARENT 14 15
REMARK Flexibility Score: inf
ROOT
ATOM      1  C   UNL     1      19.789  -1.092 -17.997  1.00  0.00     0.161 A 
ATOM      2  C   UNL     1      20.808  -0.167 -17.693  1.00  0.00     0.161 A 
ATOM      3  C   UNL     1      21.633   0.332 -18.707  1.00  0.00     0.098 A 
ATOM      4  C   UNL     1      21.456  -0.079 -20.030  1.00  0.00     0.142 A 
ATOM      5  C   UNL     1      20.439  -1.004 -20.345  1.00  0.00     0.022 A 
ATOM      6  C   UNL     1      19.611  -1.507 -19.333  1.00  0.00     0.062 A 
ATOM      7  C   UNL     1      20.287  -1.398 -21.679  1.00  0.00     0.019 A 
ATOM      8  C   UNL     1      21.135  -0.869 -22.650  1.00  0.00     0.094 A 
ATOM      9  C   UNL     1      22.122   0.044 -22.263  1.00  0.00     0.336 A 
ATOM     10  O   UNL     1      22.899   0.533 -23.125  1.00  0.00    -0.246 OA
ATOM     11  O   UNL     1      22.246   0.401 -20.987  1.00  0.00    -0.423 OA
ENDROOT
BRANCH   1  12
ATOM     12  O   UNL     1      18.980  -1.572 -16.955  1.00  0.00    -0.493 OA
ATOM     13  C   UNL     1      17.862  -0.875 -16.414  1.00  0.00     0.278 C 
ENDBRANCH   1  12
BRANCH   2  14
ATOM     14  O   UNL     1      21.016   0.268 -16.384  1.00  0.00    -0.504 OA
ATOM     15  H   UNL     1      21.934   0.512 -16.034  1.00  0.00     0.293 HD
ENDBRANCH   2  14
TORSDOF 2
ENDMDL
MODEL 5
REMARK VINA RESULT:    -4.969      1.208      4.811
REMARK INTER + INTRA:          -5.467
REMARK INTER:                  -5.422
REMARK INTRA:                  -0.046
REMARK UNBOUND:                -0.062
REMARK SMILES COc1cc2ccc(=O)oc2cc1O
REMARK SMILES IDX 3 1 13 2 12 3 11 4 5 5 4 6 6 7 7 8 8 9 9 10 10 11 2 12 1 13
REMARK SMILES IDX 14 14
REMARK H PARENT 14 15
REMARK Flexibility Score: inf
ROOT
ATOM      1  C   UNL     1       7.651  -4.612  -9.833  1.00  0.00     0.161 A 
ATOM      2  C   UNL     1       6.840  -4.100  -8.800  1.00  0.00     0.161 A 
ATOM      3  C   UNL     1       6.714  -4.797  -7.593  1.00  0.00     0.098 A 
ATOM      4  C   UNL     1       7.389  -6.004  -7.399  1.00  0.00     0.142 A 
ATOM      5  C   UNL     1       8.203  -6.524  -8.427  1.00  0.00     0.022 A 
ATOM      6  C   UNL     1       8.332  -5.831  -9.637  1.00  0.00     0.062 A 
ATOM      7  C   UNL     1       8.865  -7.736  -8.203  1.00  0.00     0.019 A 
ATOM      8  C   UNL     1       8.705  -8.389  -6.982  1.00  0.00     0.094 A 
ATOM      9  C   UNL     1       7.882  -7.813  -6.009  1.00  0.00     0.336 A 
ATOM     10  O   UNL     1       7.724  -8.387  -4.899  1.00  0.00    -0.246 OA
ATOM     11  O   UNL     1       7.262  -6.660  -6.248  1.00  0.00    -0.423 OA
ENDROOT
BRANCH   1  12
ATOM     12  O   UNL     1       7.755  -3.887 -11.032  1.00  0.00    -0.493 OA
ATOM     13  C   UNL     1       7.981  -4.469 -12.311  1.00  0.00     0.278 C 
ENDBRANCH   1  12
BRANCH   2  14
ATOM     14  O   UNL     1       6.151  -2.898  -8.956  1.00  0.00    -0.504 OA
ATOM     15  H   UNL     1       5.907  -2.529  -9.867  1.00  0.00     0.293 HD
ENDBRANCH   2  14
TORSDOF 2
ENDMDL
MODEL 6
REMARK VINA RESULT:    -4.949      1.483      2.522
REMARK INTER + INTRA:          -5.445
REMARK INTER:                  -5.399
REMARK INTRA:                  -0.047
REMARK UNBOUND:                -0.062
REMARK SMILES COc1cc2ccc(=O)oc2cc1O
REMARK SMILES IDX 3 1 13 2 12 3 11 4 5 5 4 6 6 7 7 8 8 9 9 10 10 11 2 12 1 13
REMARK SMILES IDX 14 14
REMARK H PARENT 14 15
REMARK Flexibility Score: inf
ROOT
ATOM      1  C   UNL     1       8.102  -6.418  -6.689  1.00  0.00     0.161 A 
ATOM      2  C   UNL     1       8.428  -7.709  -7.152  1.00  0.00     0.161 A 
ATOM      3  C   UNL     1       8.583  -7.948  -8.522  1.00  0.00     0.098 A 
ATOM      4  C   UNL     1       8.417  -6.913  -9.444  1.00  0.00     0.142 A 
ATOM      5  C   UNL     1       8.091  -5.617  -8.991  1.00  0.00     0.022 A 
ATOM      6  C   UNL     1       7.935  -5.373  -7.621  1.00  0.00     0.062 A 
ATOM      7  C   UNL     1       7.931  -4.601  -9.940  1.00  0.00     0.019 A 
ATOM      8  C   UNL     1       8.098  -4.895 -11.292  1.00  0.00     0.094 A 
ATOM      9  C   UNL     1       8.421  -6.203 -11.667  1.00  0.00     0.336 A 
ATOM     10  O   UNL     1       8.574  -6.488 -12.884  1.00  0.00    -0.246 OA
ATOM     11  O   UNL     1       8.566  -7.151 -10.745  1.00  0.00    -0.423 OA
ENDROOT
BRANCH   1  12
ATOM     12  O   UNL     1       7.954  -6.213  -5.308  1.00  0.00    -0.493 OA
ATOM     13  C   UNL     1       8.317  -5.017  -4.626  1.00  0.00     0.278 C 
ENDBRANCH   1  12
BRANCH   2  14
ATOM     14  O   UNL     1       8.601  -8.768  -6.261  1.00  0.00    -0.504 OA
ATOM     15  H   UNL     1       8.823  -8.623  -5.284  1.00  0.00     0.293 HD
ENDBRANCH   2  14
TORSDOF 2
ENDMDL
MODEL 7
REMARK VINA RESULT:    -4.885      2.242      2.768
REMARK INTER + INTRA:          -5.376
REMARK INTER:                  -5.332
REMARK INTRA:                  -0.043
REMARK UNBOUND:                -0.062
REMARK SMILES COc1cc2ccc(=O)oc2cc1O
REMARK SMILES IDX 3 1 13 2 12 3 11 4 5 5 4 6 6 7 7 8 8 9 9 10 10 11 2 12 1 13
REMARK SMILES IDX 14 14
REMARK H PARENT 14 15
REMARK Flexibility Score: inf
ROOT
ATOM      1  C   UNL     1       8.106  -5.262  -6.798  1.00  0.00     0.161 A 
ATOM      2  C   UNL     1       7.402  -4.860  -7.950  1.00  0.00     0.161 A 
ATOM      3  C   UNL     1       7.895  -5.174  -9.223  1.00  0.00     0.098 A 
ATOM      4  C   UNL     1       9.087  -5.887  -9.363  1.00  0.00     0.142 A 
ATOM      5  C   UNL     1       9.800  -6.293  -8.215  1.00  0.00     0.022 A 
ATOM      6  C   UNL     1       9.310  -5.981  -6.940  1.00  0.00     0.062 A 
ATOM      7  C   UNL     1      10.991  -7.005  -8.389  1.00  0.00     0.019 A 
ATOM      8  C   UNL     1      11.436  -7.291  -9.678  1.00  0.00     0.094 A 
ATOM      9  C   UNL     1      10.677  -6.856 -10.770  1.00  0.00     0.336 A 
ATOM     10  O   UNL     1      11.063  -7.104 -11.942  1.00  0.00    -0.246 OA
ATOM     11  O   UNL     1       9.548  -6.180 -10.577  1.00  0.00    -0.423 OA
ENDROOT
BRANCH   1  12
ATOM     12  O   UNL     1       7.583  -4.931  -5.537  1.00  0.00    -0.493 OA
ATOM     13  C   UNL     1       8.260  -5.140  -4.302  1.00  0.00     0.278 C 
ENDBRANCH   1  12
BRANCH   2  14
ATOM     14  O   UNL     1       6.207  -4.147  -7.850  1.00  0.00    -0.504 OA
ATOM     15  H   UNL     1       5.303  -4.601  -7.880  1.00  0.00     0.293 HD
ENDBRANCH   2  14
TORSDOF 2
ENDMDL
MODEL 8
REMARK VINA RESULT:    -4.884      3.130      3.694
REMARK INTER + INTRA:          -5.375
REMARK INTER:                  -5.330
REMARK INTRA:                  -0.045
REMARK UNBOUND:                -0.062
REMARK SMILES COc1cc2ccc(=O)oc2cc1O
REMARK SMILES IDX 3 1 13 2 12 3 11 4 5 5 4 6 6 7 7 8 8 9 9 10 10 11 2 12 1 13
REMARK SMILES IDX 14 14
REMARK H PARENT 14 15
REMARK Flexibility Score: inf
ROOT
ATOM      1  C   UNL     1       8.916  -5.672  -8.335  1.00  0.00     0.161 A 
ATOM      2  C   UNL     1      10.243  -5.614  -7.865  1.00  0.00     0.161 A 
ATOM      3  C   UNL     1      11.289  -6.124  -8.643  1.00  0.00     0.098 A 
ATOM      4  C   UNL     1      11.029  -6.695  -9.891  1.00  0.00     0.142 A 
ATOM      5  C   UNL     1       9.704  -6.757 -10.370  1.00  0.00     0.022 A 
ATOM      6  C   UNL     1       8.654  -6.248  -9.595  1.00  0.00     0.062 A 
ATOM      7  C   UNL     1       9.475  -7.335 -11.623  1.00  0.00     0.019 A 
ATOM      8  C   UNL     1      10.553  -7.827 -12.357  1.00  0.00     0.094 A 
ATOM      9  C   UNL     1      11.841  -7.731 -11.818  1.00  0.00     0.336 A 
ATOM     10  O   UNL     1      12.828  -8.170 -12.465  1.00  0.00    -0.246 OA
ATOM     11  O   UNL     1      12.030  -7.178 -10.623  1.00  0.00    -0.423 OA
ENDROOT
BRANCH   1  12
ATOM     12  O   UNL     1       7.891  -5.151  -7.529  1.00  0.00    -0.493 OA
ATOM     13  C   UNL     1       6.645  -4.666  -8.019  1.00  0.00     0.278 C 
ENDBRANCH   1  12
BRANCH   2  14
ATOM     14  O   UNL     1      10.542  -5.052  -6.624  1.00  0.00    -0.504 OA
ATOM     15  H   UNL     1      11.377  -5.297  -6.107  1.00  0.00     0.293 HD
ENDBRANCH   2  14
TORSDOF 2
ENDMDL
MODEL 9
REMARK VINA RESULT:    -4.854      1.330      5.511
REMARK INTER + INTRA:          -5.342
REMARK INTER:                  -5.298
REMARK INTRA:                  -0.043
REMARK UNBOUND:                -0.062
REMARK SMILES COc1cc2ccc(=O)oc2cc1O
REMARK SMILES IDX 3 1 13 2 12 3 11 4 5 5 4 6 6 7 7 8 8 9 9 10 10 11 2 12 1 13
REMARK SMILES IDX 14 14
REMARK H PARENT 14 15
REMARK Flexibility Score: inf
ROOT
ATOM      1  C   UNL     1       8.072  -5.156 -11.822  1.00  0.00     0.161 A 
ATOM      2  C   UNL     1       8.338  -6.540 -11.826  1.00  0.00     0.161 A 
ATOM      3  C   UNL     1       8.386  -7.252 -10.622  1.00  0.00     0.098 A 
ATOM      4  C   UNL     1       8.172  -6.600  -9.406  1.00  0.00     0.142 A 
ATOM      5  C   UNL     1       7.905  -5.215  -9.392  1.00  0.00     0.022 A 
ATOM      6  C   UNL     1       7.856  -4.498 -10.595  1.00  0.00     0.062 A 
ATOM      7  C   UNL     1       7.695  -4.590  -8.158  1.00  0.00     0.019 A 
ATOM      8  C   UNL     1       7.753  -5.346  -6.988  1.00  0.00     0.094 A 
ATOM      9  C   UNL     1       8.023  -6.716  -7.080  1.00  0.00     0.336 A 
ATOM     10  O   UNL     1       8.081  -7.416  -6.035  1.00  0.00    -0.246 OA
ATOM     11  O   UNL     1       8.220  -7.285  -8.266  1.00  0.00    -0.423 OA
ENDROOT
BRANCH   1  12
ATOM     12  O   UNL     1       8.031  -4.473 -13.049  1.00  0.00    -0.493 OA
ATOM     13  C   UNL     1       7.708  -3.094 -13.194  1.00  0.00     0.278 C 
ENDBRANCH   1  12
BRANCH   2  14
ATOM     14  O   UNL     1       8.558  -7.226 -13.020  1.00  0.00    -0.504 OA
ATOM     15  H   UNL     1       8.528  -8.237 -13.077  1.00  0.00     0.293 HD
ENDBRANCH   2  14
TORSDOF 2
ENDMDL
