MODEL 1
REMARK VINA RESULT:    -4.587      0.000      0.000
REMARK INTER + INTRA:          -6.478
REMARK INTER:                  -6.196
REMARK INTRA:                  -0.283
REMARK UNBOUND:                -0.283
REMARK SMILES CCCCCCCC(=O)[O-]
REMARK SMILES IDX 5 1 6 2 7 3 8 4 9 5 10 6 4 7 3 8 2 9 1 10
REMARK H PARENT
REMARK Flexibility Score: inf
ROOT
ATOM      1  C   UNL     1       1.491  22.531 -19.142  1.00  0.00     0.000 C 
ENDROOT
BRANCH   1   2
ATOM      2  C   UNL     1       1.712  22.924 -17.673  1.00  0.00     0.006 C 
BRANCH   2   3
ATOM      3  C   UNL     1       1.943  21.709 -16.766  1.00  0.00     0.053 C 
BRANCH   3   4
ATOM      4  C   UNL     1       3.106  21.950 -15.856  1.00  0.00     0.041 C 
ATOM      5  O   UNL     1       4.283  21.826 -16.285  1.00  0.00    -0.550 OA
ATOM      6  O   UNL     1       2.890  22.358 -14.545  1.00  0.00    -0.550 OA
ENDBRANCH   3   4
ENDBRANCH   2   3
ENDBRANCH   1   2
BRANCH   1   7
ATOM      7  C   UNL     1       2.379  21.352 -19.580  1.00  0.00     0.000 C 
BRANCH   7   8
ATOM      8  C   UNL     1       1.562  20.157 -20.095  1.00  0.00    -0.000 C 
BRANCH   8   9
ATOM      9  C   UNL     1       2.445  19.055 -20.697  1.00  0.00    -0.003 C 
ATOM     10  C   UNL     1       3.791  19.615 -21.149  1.00  0.00     0.004 C 
ENDBRANCH   8   9
ENDBRANCH   7   8
ENDBRANCH   1   7
TORSDOF 6
ENDMDL
MODEL 2
REMARK VINA RESULT:    -4.480      2.873      4.823
REMARK INTER + INTRA:          -6.334
REMARK INTER:                  -5.973
REMARK INTRA:                  -0.361
REMARK UNBOUND:                -0.283
REMARK SMILES CCCCCCCC(=O)[O-]
REMARK SMILES IDX 5 1 6 2 7 3 8 4 9 5 10 6 4 7 3 8 2 9 1 10
REMARK H PARENT
REMARK Flexibility Score: inf
ROOT
ATOM      1  C   UNL     1       0.950  22.173 -18.512  1.00  0.00     0.000 C 
ENDROOT
BRANCH   1   2
ATOM      2  C   UNL     1       1.920  21.603 -19.558  1.00  0.00     0.006 C 
BRANCH   2   3
ATOM      3  C   UNL     1       1.668  20.118 -19.849  1.00  0.00     0.053 C 
BRANCH   3   4
ATOM      4  C   UNL     1       2.633  19.616 -20.877  1.00  0.00     0.041 C 
ATOM      5  O   UNL     1       3.579  20.348 -21.269  1.00  0.00    -0.550 OA
ATOM      6  O   UNL     1       2.515  18.321 -21.367  1.00  0.00    -0.550 OA
ENDBRANCH   3   4
ENDBRANCH   2   3
ENDBRANCH   1   2
BRANCH   1   7
ATOM      7  C   UNL     1       1.678  22.830 -17.326  1.00  0.00     0.000 C 
BRANCH   7   8
ATOM      8  C   UNL     1       3.204  22.668 -17.406  1.00  0.00    -0.000 C 
BRANCH   8   9
ATOM      9  C   UNL     1       3.789  21.978 -16.166  1.00  0.00    -0.003 C 
ATOM     10  C   UNL     1       2.691  21.337 -15.324  1.00  0.00     0.004 C 
ENDBRANCH   8   9
ENDBRANCH   7   8
ENDBRANCH   1   7
TORSDOF 6
ENDMDL
MODEL 3
REMARK VINA RESULT:    -4.296      8.915     10.229
REMARK INTER + INTRA:          -6.086
REMARK INTER:                  -5.798
REMARK INTRA:                  -0.288
REMARK UNBOUND:                -0.283
REMARK SMILES CCCCCCCC(=O)[O-]
REMARK SMILES IDX 5 1 6 2 7 3 8 4 9 5 10 6 4 7 3 8 2 9 1 10
REMARK H PARENT
REMARK Flexibility Score: inf
ROOT
ATOM      1  C   UNL     1       8.909  25.878 -12.578  1.00  0.00     0.000 C 
ENDROOT
BRANCH   1   2
ATOM      2  C   UNL     1       9.087  24.433 -12.087  1.00  0.00     0.006 C 
BRANCH   2   3
ATOM      3  C   UNL     1       8.984  24.312 -10.561  1.00  0.00     0.053 C 
BRANCH   3   4
ATOM      4  C   UNL     1       7.776  23.515 -10.180  1.00  0.00     0.041 C 
ATOM      5  O   UNL     1       6.763  23.503 -10.928  1.00  0.00    -0.550 OA
ATOM      6  O   UNL     1       7.786  22.747  -9.022  1.00  0.00    -0.550 OA
ENDBRANCH   3   4
ENDBRANCH   2   3
ENDBRANCH   1   2
BRANCH   1   7
ATOM      7  C   UNL     1       7.478  26.165 -13.066  1.00  0.00     0.000 C 
BRANCH   7   8
ATOM      8  C   UNL     1       7.154  27.666 -13.095  1.00  0.00    -0.000 C 
BRANCH   8   9
ATOM      9  C   UNL     1       8.411  28.538 -13.227  1.00  0.00    -0.003 C 
ATOM     10  C   UNL     1       8.133  29.973 -12.789  1.00  0.00     0.004 C 
ENDBRANCH   8   9
ENDBRANCH   7   8
ENDBRANCH   1   7
TORSDOF 6
ENDMDL
MODEL 4
REMARK VINA RESULT:    -4.146     12.801     14.597
REMARK INTER + INTRA:          -5.883
REMARK INTER:                  -5.286
REMARK INTRA:                  -0.597
REMARK UNBOUND:                -0.283
REMARK SMILES CCCCCCCC(=O)[O-]
REMARK SMILES IDX 5 1 6 2 7 3 8 4 9 5 10 6 4 7 3 8 2 9 1 10
REMARK H PARENT
REMARK Flexibility Score: inf
ROOT
ATOM      1  C   UNL     1      -4.867  31.527 -16.993  1.00  0.00     0.000 C 
ENDROOT
BRANCH   1   2
ATOM      2  C   UNL     1      -4.270  31.393 -18.403  1.00  0.00     0.006 C 
BRANCH   2   3
ATOM      3  C   UNL     1      -4.491  32.647 -19.258  1.00  0.00     0.053 C 
BRANCH   3   4
ATOM      4  C   UNL     1      -3.859  33.839 -18.611  1.00  0.00     0.041 C 
ATOM      5  O   UNL     1      -4.574  34.790 -18.198  1.00  0.00    -0.550 OA
ATOM      6  O   UNL     1      -2.483  33.879 -18.421  1.00  0.00    -0.550 OA
ENDBRANCH   3   4
ENDBRANCH   2   3
ENDBRANCH   1   2
BRANCH   1   7
ATOM      7  C   UNL     1      -6.405  31.591 -17.005  1.00  0.00     0.000 C 
BRANCH   7   8
ATOM      8  C   UNL     1      -6.957  32.680 -16.073  1.00  0.00    -0.000 C 
BRANCH   8   9
ATOM      9  C   UNL     1      -7.977  33.591 -16.770  1.00  0.00    -0.003 C 
ATOM     10  C   UNL     1      -7.987  33.352 -18.277  1.00  0.00     0.004 C 
ENDBRANCH   8   9
ENDBRANCH   7   8
ENDBRANCH   1   7
TORSDOF 6
ENDMDL
MODEL 5
REMARK VINA RESULT:    -4.127     12.401     14.105
REMARK INTER + INTRA:          -5.857
REMARK INTER:                  -5.505
REMARK INTRA:                  -0.352
REMARK UNBOUND:                -0.283
REMARK SMILES CCCCCCCC(=O)[O-]
REMARK SMILES IDX 5 1 6 2 7 3 8 4 9 5 10 6 4 7 3 8 2 9 1 10
REMARK H PARENT
REMARK Flexibility Score: inf
ROOT
ATOM      1  C   UNL     1      -6.068  31.731 -18.403  1.00  0.00     0.000 C 
ENDROOT
BRANCH   1   2
ATOM      2  C   UNL     1      -4.663  31.395 -18.926  1.00  0.00     0.006 C 
BRANCH   2   3
ATOM      3  C   UNL     1      -3.778  32.639 -19.080  1.00  0.00     0.053 C 
BRANCH   3   4
ATOM      4  C   UNL     1      -2.523  32.489 -18.279  1.00  0.00     0.041 C 
ATOM      5  O   UNL     1      -1.399  32.592 -18.836  1.00  0.00    -0.550 OA
ATOM      6  O   UNL     1      -2.596  32.284 -16.906  1.00  0.00    -0.550 OA
ENDBRANCH   3   4
ENDBRANCH   2   3
ENDBRANCH   1   2
BRANCH   1   7
ATOM      7  C   UNL     1      -6.151  31.698 -16.866  1.00  0.00     0.000 C 
BRANCH   7   8
ATOM      8  C   UNL     1      -7.319  32.533 -16.320  1.00  0.00    -0.000 C 
BRANCH   8   9
ATOM      9  C   UNL     1      -8.069  33.291 -17.424  1.00  0.00    -0.003 C 
ATOM     10  C   UNL     1      -7.853  34.796 -17.303  1.00  0.00     0.004 C 
ENDBRANCH   8   9
ENDBRANCH   7   8
ENDBRANCH   1   7
TORSDOF 6
ENDMDL
MODEL 6
REMARK VINA RESULT:    -4.088      8.558     10.160
REMARK INTER + INTRA:          -5.804
REMARK INTER:                  -5.344
REMARK INTRA:                  -0.460
REMARK UNBOUND:                -0.283
REMARK SMILES CCCCCCCC(=O)[O-]
REMARK SMILES IDX 5 1 6 2 7 3 8 4 9 5 10 6 4 7 3 8 2 9 1 10
REMARK H PARENT
REMARK Flexibility Score: inf
ROOT
ATOM      1  C   UNL     1      10.281  26.155 -12.093  1.00  0.00     0.000 C 
ENDROOT
BRANCH   1   2
ATOM      2  C   UNL     1       9.545  24.861 -11.713  1.00  0.00     0.006 C 
BRANCH   2   3
ATOM      3  C   UNL     1       8.420  24.512 -12.695  1.00  0.00     0.053 C 
BRANCH   3   4
ATOM      4  C   UNL     1       7.144  24.253 -11.957  1.00  0.00     0.041 C 
ATOM      5  O   UNL     1       7.170  23.764 -10.798  1.00  0.00    -0.550 OA
ATOM      6  O   UNL     1       5.927  24.598 -12.532  1.00  0.00    -0.550 OA
ENDBRANCH   3   4
ENDBRANCH   2   3
ENDBRANCH   1   2
BRANCH   1   7
ATOM      7  C   UNL     1       9.619  26.887 -13.274  1.00  0.00     0.000 C 
BRANCH   7   8
ATOM      8  C   UNL     1       9.477  28.397 -13.028  1.00  0.00    -0.000 C 
BRANCH   8   9
ATOM      9  C   UNL     1       8.013  28.835 -12.879  1.00  0.00    -0.003 C 
ATOM     10  C   UNL     1       7.066  27.790 -13.461  1.00  0.00     0.004 C 
ENDBRANCH   8   9
ENDBRANCH   7   8
ENDBRANCH   1   7
TORSDOF 6
ENDMDL
MODEL 7
REMARK VINA RESULT:    -4.070      8.750      9.996
REMARK INTER + INTRA:          -5.780
REMARK INTER:                  -5.519
REMARK INTRA:                  -0.261
REMARK UNBOUND:                -0.283
REMARK SMILES CCCCCCCC(=O)[O-]
REMARK SMILES IDX 5 1 6 2 7 3 8 4 9 5 10 6 4 7 3 8 2 9 1 10
REMARK H PARENT
REMARK Flexibility Score: inf
ROOT
ATOM      1  C   UNL     1       7.141  25.103 -12.750  1.00  0.00     0.000 C 
ENDROOT
BRANCH   1   2
ATOM      2  C   UNL     1       6.668  26.517 -13.123  1.00  0.00     0.006 C 
BRANCH   2   3
ATOM      3  C   UNL     1       7.804  27.548 -13.084  1.00  0.00     0.053 C 
BRANCH   3   4
ATOM      4  C   UNL     1       7.359  28.839 -13.696  1.00  0.00     0.041 C 
ATOM      5  O   UNL     1       7.775  29.935 -13.237  1.00  0.00    -0.550 OA
ATOM      6  O   UNL     1       6.521  28.830 -14.805  1.00  0.00    -0.550 OA
ENDBRANCH   3   4
ENDBRANCH   2   3
ENDBRANCH   1   2
BRANCH   1   7
ATOM      7  C   UNL     1       8.640  25.052 -12.407  1.00  0.00     0.000 C 
BRANCH   7   8
ATOM      8  C   UNL     1       8.913  24.391 -11.047  1.00  0.00    -0.000 C 
BRANCH   8   9
ATOM      9  C   UNL     1       8.158  23.066 -10.874  1.00  0.00    -0.003 C 
ATOM     10  C   UNL     1       7.745  22.855  -9.420  1.00  0.00     0.004 C 
ENDBRANCH   8   9
ENDBRANCH   7   8
ENDBRANCH   1   7
TORSDOF 6
ENDMDL
MODEL 8
REMARK VINA RESULT:    -4.067     12.839     14.044
REMARK INTER + INTRA:          -5.776
REMARK INTER:                  -5.528
REMARK INTRA:                  -0.248
REMARK UNBOUND:                -0.283
REMARK SMILES CCCCCCCC(=O)[O-]
REMARK SMILES IDX 5 1 6 2 7 3 8 4 9 5 10 6 4 7 3 8 2 9 1 10
REMARK H PARENT
REMARK Flexibility Score: inf
ROOT
ATOM      1  C   UNL     1      -5.854  31.717 -19.048  1.00  0.00     0.000 C 
ENDROOT
BRANCH   1   2
ATOM      2  C   UNL     1      -6.433  32.710 -18.029  1.00  0.00     0.006 C 
BRANCH   2   3
ATOM      3  C   UNL     1      -6.549  32.111 -16.622  1.00  0.00     0.053 C 
BRANCH   3   4
ATOM      4  C   UNL     1      -7.778  32.622 -15.936  1.00  0.00     0.041 C 
ATOM      5  O   UNL     1      -8.591  33.356 -16.557  1.00  0.00    -0.550 OA
ATOM      6  O   UNL     1      -8.049  32.247 -14.626  1.00  0.00    -0.550 OA
ENDBRANCH   3   4
ENDBRANCH   2   3
ENDBRANCH   1   2
BRANCH   1   7
ATOM      7  C   UNL     1      -4.357  31.439 -18.818  1.00  0.00     0.000 C 
BRANCH   7   8
ATOM      8  C   UNL     1      -3.528  32.728 -18.707  1.00  0.00    -0.000 C 
BRANCH   8   9
ATOM      9  C   UNL     1      -2.289  32.556 -17.818  1.00  0.00    -0.003 C 
ATOM     10  C   UNL     1      -1.012  32.537 -18.652  1.00  0.00     0.004 C 
ENDBRANCH   8   9
ENDBRANCH   7   8
ENDBRANCH   1   7
TORSDOF 6
ENDMDL
MODEL 9
REMARK VINA RESULT:    -4.064      9.090     10.090
REMARK INTER + INTRA:          -5.772
REMARK INTER:                  -5.392
REMARK INTRA:                  -0.380
REMARK UNBOUND:                -0.283
REMARK SMILES CCCCCCCC(=O)[O-]
REMARK SMILES IDX 5 1 6 2 7 3 8 4 9 5 10 6 4 7 3 8 2 9 1 10
REMARK H PARENT
REMARK Flexibility Score: inf
ROOT
ATOM      1  C   UNL     1      10.325  25.963 -12.294  1.00  0.00     0.000 C 
ENDROOT
BRANCH   1   2
ATOM      2  C   UNL     1       9.363  26.369 -13.421  1.00  0.00     0.006 C 
BRANCH   2   3
ATOM      3  C   UNL     1       8.566  27.637 -13.088  1.00  0.00     0.053 C 
BRANCH   3   4
ATOM      4  C   UNL     1       7.134  27.474 -13.491  1.00  0.00     0.041 C 
ATOM      5  O   UNL     1       6.562  28.364 -14.174  1.00  0.00    -0.550 OA
ATOM      6  O   UNL     1       6.444  26.315 -13.154  1.00  0.00    -0.550 OA
ENDBRANCH   3   4
ENDBRANCH   2   3
ENDBRANCH   1   2
BRANCH   1   7
ATOM      7  C   UNL     1       9.660  25.051 -11.248  1.00  0.00     0.000 C 
BRANCH   7   8
ATOM      8  C   UNL     1       8.794  23.954 -11.888  1.00  0.00    -0.000 C 
BRANCH   8   9
ATOM      9  C   UNL     1       7.497  23.698 -11.108  1.00  0.00    -0.003 C 
ATOM     10  C   UNL     1       7.780  22.981  -9.791  1.00  0.00     0.004 C 
ENDBRANCH   8   9
ENDBRANCH   7   8
ENDBRANCH   1   7
TORSDOF 6
ENDMDL
