MODEL 1
REMARK VINA RESULT:    -3.973      0.000      0.000
REMARK INTER + INTRA:          -4.797
REMARK INTER:                  -4.786
REMARK INTRA:                  -0.011
REMARK UNBOUND:                -0.011
REMARK SMILES OCC(O)CO
REMARK SMILES IDX 3 1 5 2 6 3 2 5 1 6 4 8
REMARK H PARENT 6 4 1 7 4 9
REMARK Flexibility Score: inf
ROOT
ATOM      1  C   UNL     1      60.321  29.256  11.540  1.00  0.00     0.165 C 
ENDROOT
BRANCH   1   2
ATOM      2  C   UNL     1      61.739  28.851  11.099  1.00  0.00     0.190 C 
BRANCH   2   3
ATOM      3  O   UNL     1      61.677  27.936  10.037  1.00  0.00    -0.394 OA
ATOM      4  H   UNL     1      62.584  27.900   9.637  1.00  0.00     0.210 HD
ENDBRANCH   2   3
ENDBRANCH   1   2
BRANCH   1   5
ATOM      5  C   UNL     1      59.923  28.580  12.865  1.00  0.00     0.190 C 
BRANCH   5   6
ATOM      6  O   UNL     1      58.755  27.820  12.709  1.00  0.00    -0.394 OA
ATOM      7  H   UNL     1      58.782  27.112  13.405  1.00  0.00     0.210 HD
ENDBRANCH   5   6
ENDBRANCH   1   5
BRANCH   1   8
ATOM      8  O   UNL     1      60.217  30.653  11.658  1.00  0.00    -0.388 OA
ATOM      9  H   UNL     1      60.561  30.905  12.555  1.00  0.00     0.211 HD
ENDBRANCH   1   8
TORSDOF 5
ENDMDL
MODEL 2
REMARK VINA RESULT:    -3.843     14.609     15.806
REMARK INTER + INTRA:          -4.640
REMARK INTER:                  -4.628
REMARK INTRA:                  -0.012
REMARK UNBOUND:                -0.011
REMARK SMILES OCC(O)CO
REMARK SMILES IDX 3 1 5 2 6 3 2 5 1 6 4 8
REMARK H PARENT 6 4 1 7 4 9
REMARK Flexibility Score: inf
ROOT
ATOM      1  C   UNL     1      61.494  27.373  27.250  1.00  0.00     0.165 C 
ENDROOT
BRANCH   1   2
ATOM      2  C   UNL     1      61.757  28.805  27.749  1.00  0.00     0.190 C 
BRANCH   2   3
ATOM      3  O   UNL     1      60.948  29.091  28.860  1.00  0.00    -0.394 OA
ATOM      4  H   UNL     1      60.252  28.384  28.896  1.00  0.00     0.210 HD
ENDBRANCH   2   3
ENDBRANCH   1   2
BRANCH   1   5
ATOM      5  C   UNL     1      60.684  27.367  25.940  1.00  0.00     0.190 C 
BRANCH   5   6
ATOM      6  O   UNL     1      59.471  26.682  26.104  1.00  0.00    -0.394 OA
ATOM      7  H   UNL     1      59.323  26.163  25.270  1.00  0.00     0.210 HD
ENDBRANCH   5   6
ENDBRANCH   1   5
BRANCH   1   8
ATOM      8  O   UNL     1      62.703  26.678  27.076  1.00  0.00    -0.388 OA
ATOM      9  H   UNL     1      63.016  26.390  27.974  1.00  0.00     0.211 HD
ENDBRANCH   1   8
TORSDOF 5
ENDMDL
MODEL 3
REMARK VINA RESULT:    -3.834      0.922      2.930
REMARK INTER + INTRA:          -4.629
REMARK INTER:                  -4.619
REMARK INTRA:                  -0.010
REMARK UNBOUND:                -0.011
REMARK SMILES OCC(O)CO
REMARK SMILES IDX 3 1 5 2 6 3 2 5 1 6 4 8
REMARK H PARENT 6 4 1 7 4 9
REMARK Flexibility Score: inf
ROOT
ATOM      1  C   UNL     1      60.321  29.245  11.628  1.00  0.00     0.165 C 
ENDROOT
BRANCH   1   2
ATOM      2  C   UNL     1      59.877  28.579  12.943  1.00  0.00     0.190 C 
BRANCH   2   3
ATOM      3  O   UNL     1      58.721  27.813  12.735  1.00  0.00    -0.394 OA
ATOM      4  H   UNL     1      58.973  26.866  12.891  1.00  0.00     0.210 HD
ENDBRANCH   2   3
ENDBRANCH   1   2
BRANCH   1   5
ATOM      5  C   UNL     1      61.048  30.579  11.882  1.00  0.00     0.190 C 
BRANCH   5   6
ATOM      6  O   UNL     1      60.195  31.503  12.503  1.00  0.00    -0.394 OA
ATOM      7  H   UNL     1      59.457  30.979  12.911  1.00  0.00     0.210 HD
ENDBRANCH   5   6
ENDBRANCH   1   5
BRANCH   1   8
ATOM      8  O   UNL     1      61.143  28.379  10.885  1.00  0.00    -0.388 OA
ATOM      9  H   UNL     1      62.022  28.826  10.769  1.00  0.00     0.211 HD
ENDBRANCH   1   8
TORSDOF 5
ENDMDL
MODEL 4
REMARK VINA RESULT:    -3.793      2.221      3.011
REMARK INTER + INTRA:          -4.580
REMARK INTER:                  -4.368
REMARK INTRA:                  -0.213
REMARK UNBOUND:                -0.011
REMARK SMILES OCC(O)CO
REMARK SMILES IDX 3 1 5 2 6 3 2 5 1 6 4 8
REMARK H PARENT 6 4 1 7 4 9
REMARK Flexibility Score: inf
ROOT
ATOM      1  C   UNL     1      60.677  29.576  10.190  1.00  0.00     0.165 C 
ENDROOT
BRANCH   1   2
ATOM      2  C   UNL     1      59.904  29.365   8.875  1.00  0.00     0.190 C 
BRANCH   2   3
ATOM      3  O   UNL     1      59.209  28.147   8.908  1.00  0.00    -0.394 OA
ATOM      4  H   UNL     1      59.585  27.584   8.181  1.00  0.00     0.210 HD
ENDBRANCH   2   3
ENDBRANCH   1   2
BRANCH   1   5
ATOM      5  C   UNL     1      61.940  28.698  10.254  1.00  0.00     0.190 C 
BRANCH   5   6
ATOM      6  O   UNL     1      61.993  27.816   9.165  1.00  0.00    -0.394 OA
ATOM      7  H   UNL     1      62.220  28.362   8.368  1.00  0.00     0.210 HD
ENDBRANCH   5   6
ENDBRANCH   1   5
BRANCH   1   8
ATOM      8  O   UNL     1      61.018  30.930  10.354  1.00  0.00    -0.388 OA
ATOM      9  H   UNL     1      60.174  31.439  10.473  1.00  0.00     0.211 HD
ENDBRANCH   1   8
TORSDOF 5
ENDMDL
MODEL 5
REMARK VINA RESULT:    -3.786     14.476     15.301
REMARK INTER + INTRA:          -4.572
REMARK INTER:                  -4.566
REMARK INTRA:                  -0.005
REMARK UNBOUND:                -0.011
REMARK SMILES OCC(O)CO
REMARK SMILES IDX 3 1 5 2 6 3 2 5 1 6 4 8
REMARK H PARENT 6 4 1 7 4 9
REMARK Flexibility Score: inf
ROOT
ATOM      1  C   UNL     1      61.406  27.469  27.013  1.00  0.00     0.165 C 
ENDROOT
BRANCH   1   2
ATOM      2  C   UNL     1      60.520  27.385  25.756  1.00  0.00     0.190 C 
BRANCH   2   3
ATOM      3  O   UNL     1      59.356  26.650  26.029  1.00  0.00    -0.394 OA
ATOM      4  H   UNL     1      58.839  26.609  25.183  1.00  0.00     0.210 HD
ENDBRANCH   2   3
ENDBRANCH   1   2
BRANCH   1   5
ATOM      5  C   UNL     1      62.897  27.594  26.650  1.00  0.00     0.190 C 
BRANCH   5   6
ATOM      6  O   UNL     1      63.474  26.330  26.457  1.00  0.00    -0.394 OA
ATOM      7  H   UNL     1      62.766  25.752  26.069  1.00  0.00     0.210 HD
ENDBRANCH   5   6
ENDBRANCH   1   5
BRANCH   1   8
ATOM      8  O   UNL     1      61.013  28.546  27.826  1.00  0.00    -0.388 OA
ATOM      9  H   UNL     1      61.838  28.969  28.183  1.00  0.00     0.211 HD
ENDBRANCH   1   8
TORSDOF 5
ENDMDL
MODEL 6
REMARK VINA RESULT:    -3.711      3.550      4.557
REMARK INTER + INTRA:          -4.481
REMARK INTER:                  -4.294
REMARK INTRA:                  -0.187
REMARK UNBOUND:                -0.011
REMARK SMILES OCC(O)CO
REMARK SMILES IDX 3 1 5 2 6 3 2 5 1 6 4 8
REMARK H PARENT 6 4 1 7 4 9
REMARK Flexibility Score: inf
ROOT
ATOM      1  C   UNL     1      61.065  31.142  13.727  1.00  0.00     0.165 C 
ENDROOT
BRANCH   1   2
ATOM      2  C   UNL     1      60.390  32.399  14.306  1.00  0.00     0.190 C 
BRANCH   2   3
ATOM      3  O   UNL     1      59.132  32.077  14.835  1.00  0.00    -0.394 OA
ATOM      4  H   UNL     1      59.214  31.175  15.241  1.00  0.00     0.210 HD
ENDBRANCH   2   3
ENDBRANCH   1   2
BRANCH   1   5
ATOM      5  C   UNL     1      62.109  30.559  14.698  1.00  0.00     0.190 C 
BRANCH   5   6
ATOM      6  O   UNL     1      61.756  30.821  16.030  1.00  0.00    -0.394 OA
ATOM      7  H   UNL     1      62.273  30.186  16.591  1.00  0.00     0.210 HD
ENDBRANCH   5   6
ENDBRANCH   1   5
BRANCH   1   8
ATOM      8  O   UNL     1      60.106  30.167  13.403  1.00  0.00    -0.388 OA
ATOM      9  H   UNL     1      60.487  29.598  12.684  1.00  0.00     0.211 HD
ENDBRANCH   1   8
TORSDOF 5
ENDMDL
MODEL 7
REMARK VINA RESULT:    -3.706      1.075      2.119
REMARK INTER + INTRA:          -4.476
REMARK INTER:                  -4.451
REMARK INTRA:                  -0.025
REMARK UNBOUND:                -0.011
REMARK SMILES OCC(O)CO
REMARK SMILES IDX 3 1 5 2 6 3 2 5 1 6 4 8
REMARK H PARENT 6 4 1 7 4 9
REMARK Flexibility Score: inf
ROOT
ATOM      1  C   UNL     1      60.715  28.930  11.807  1.00  0.00     0.165 C 
ENDROOT
BRANCH   1   2
ATOM      2  C   UNL     1      61.195  30.393  11.831  1.00  0.00     0.190 C 
BRANCH   2   3
ATOM      3  O   UNL     1      60.178  31.231  12.312  1.00  0.00    -0.394 OA
ATOM      4  H   UNL     1      59.362  30.672  12.399  1.00  0.00     0.210 HD
ENDBRANCH   2   3
ENDBRANCH   1   2
BRANCH   1   5
ATOM      5  C   UNL     1      59.850  28.595  13.036  1.00  0.00     0.190 C 
BRANCH   5   6
ATOM      6  O   UNL     1      58.732  27.831  12.668  1.00  0.00    -0.394 OA
ATOM      7  H   UNL     1      58.006  28.067  13.304  1.00  0.00     0.210 HD
ENDBRANCH   5   6
ENDBRANCH   1   5
BRANCH   1   8
ATOM      8  O   UNL     1      60.004  28.660  10.625  1.00  0.00    -0.388 OA
ATOM      9  H   UNL     1      60.353  29.266   9.920  1.00  0.00     0.211 HD
ENDBRANCH   1   8
TORSDOF 5
ENDMDL
MODEL 8
REMARK VINA RESULT:    -3.698      1.789      1.996
REMARK INTER + INTRA:          -4.465
REMARK INTER:                  -4.242
REMARK INTRA:                  -0.224
REMARK UNBOUND:                -0.011
REMARK SMILES OCC(O)CO
REMARK SMILES IDX 3 1 5 2 6 3 2 5 1 6 4 8
REMARK H PARENT 6 4 1 7 4 9
REMARK Flexibility Score: inf
ROOT
ATOM      1  C   UNL     1      60.856  29.917   9.647  1.00  0.00     0.165 C 
ENDROOT
BRANCH   1   2
ATOM      2  C   UNL     1      62.054  29.065   9.188  1.00  0.00     0.190 C 
BRANCH   2   3
ATOM      3  O   UNL     1      61.826  27.710   9.471  1.00  0.00    -0.394 OA
ATOM      4  H   UNL     1      62.657  27.360   9.885  1.00  0.00     0.210 HD
ENDBRANCH   2   3
ENDBRANCH   1   2
BRANCH   1   5
ATOM      5  C   UNL     1      60.654  29.838  11.172  1.00  0.00     0.190 C 
BRANCH   5   6
ATOM      6  O   UNL     1      59.974  28.664  11.527  1.00  0.00    -0.394 OA
ATOM      7  H   UNL     1      60.669  27.987  11.740  1.00  0.00     0.210 HD
ENDBRANCH   5   6
ENDBRANCH   1   5
BRANCH   1   8
ATOM      8  O   UNL     1      61.016  31.255   9.247  1.00  0.00    -0.388 OA
ATOM      9  H   UNL     1      61.831  31.304   8.682  1.00  0.00     0.211 HD
ENDBRANCH   1   8
TORSDOF 5
ENDMDL
MODEL 9
REMARK VINA RESULT:    -3.694      1.657      2.918
REMARK INTER + INTRA:          -4.460
REMARK INTER:                  -4.243
REMARK INTRA:                  -0.217
REMARK UNBOUND:                -0.011
REMARK SMILES OCC(O)CO
REMARK SMILES IDX 3 1 5 2 6 3 2 5 1 6 4 8
REMARK H PARENT 6 4 1 7 4 9
REMARK Flexibility Score: inf
ROOT
ATOM      1  C   UNL     1      61.496  29.275  10.126  1.00  0.00     0.165 C 
ENDROOT
BRANCH   1   2
ATOM      2  C   UNL     1      60.634  29.951   9.044  1.00  0.00     0.190 C 
BRANCH   2   3
ATOM      3  O   UNL     1      60.930  31.320   8.970  1.00  0.00    -0.394 OA
ATOM      4  H   UNL     1      61.759  31.463   9.496  1.00  0.00     0.210 HD
ENDBRANCH   2   3
ENDBRANCH   1   2
BRANCH   1   5
ATOM      5  C   UNL     1      60.880  29.438  11.528  1.00  0.00     0.190 C 
BRANCH   5   6
ATOM      6  O   UNL     1      60.233  30.677  11.650  1.00  0.00    -0.394 OA
ATOM      7  H   UNL     1      60.414  31.175  10.811  1.00  0.00     0.210 HD
ENDBRANCH   5   6
ENDBRANCH   1   5
BRANCH   1   8
ATOM      8  O   UNL     1      61.682  27.913   9.833  1.00  0.00    -0.388 OA
ATOM      9  H   UNL     1      60.787  27.482   9.829  1.00  0.00     0.211 HD
ENDBRANCH   1   8
TORSDOF 5
ENDMDL
