MODEL 1
REMARK VINA RESULT:    -5.165      0.000      0.000
REMARK INTER + INTRA:         -17.395
REMARK INTER:                 -13.620
REMARK INTRA:                  -3.775
REMARK UNBOUND:                -3.775
REMARK SMILES CCCCCCCCCCCCCCCCCCCCCCCCCCCCCC(=O)[O-]
REMARK SMILES IDX 16 1 17 2 18 3 19 4 20 5 21 6 22 7 23 8 24 9 25 10 26 11
REMARK SMILES IDX 27 12 28 13 29 14 30 15 31 16 32 17 15 18 14 19 13 20 12 21
REMARK SMILES IDX 11 22 10 23 9 24 8 25 7 26 6 27 5 28 4 29 3 30 2 31 1 32
REMARK H PARENT
REMARK Flexibility Score: inf
ROOT
ATOM      1  C   UNL     1     -21.485 -26.986  39.522  1.00  0.00     0.000 C 
ENDROOT
BRANCH   1   2
ATOM      2  C   UNL     1     -22.084 -27.998  38.532  1.00  0.00     0.000 C 
BRANCH   2   3
ATOM      3  C   UNL     1     -23.051 -28.986  39.206  1.00  0.00     0.000 C 
BRANCH   3   4
ATOM      4  C   UNL     1     -22.854 -29.042  40.731  1.00  0.00     0.000 C 
BRANCH   4   5
ATOM      5  C   UNL     1     -24.182 -29.026  41.503  1.00  0.00     0.000 C 
BRANCH   5   6
ATOM      6  C   UNL     1     -25.399 -28.803  40.585  1.00  0.00     0.000 C 
BRANCH   6   7
ATOM      7  C   UNL     1     -26.033 -27.416  40.766  1.00  0.00     0.000 C 
BRANCH   7   8
ATOM      8  C   UNL     1     -25.414 -26.630  41.934  1.00  0.00     0.000 C 
BRANCH   8   9
ATOM      9  C   UNL     1     -24.853 -25.264  41.498  1.00  0.00     0.000 C 
BRANCH   9  10
ATOM     10  C   UNL     1     -23.323 -25.120  41.631  1.00  0.00     0.000 C 
BRANCH  10  11
ATOM     11  C   UNL     1     -22.770 -23.715  41.325  1.00  0.00     0.000 C 
BRANCH  11  12
ATOM     12  C   UNL     1     -23.698 -22.865  40.432  1.00  0.00     0.000 C 
BRANCH  12  13
ATOM     13  C   UNL     1     -22.924 -21.839  39.589  1.00  0.00     0.006 C 
BRANCH  13  14
ATOM     14  C   UNL     1     -22.222 -22.519  38.410  1.00  0.00     0.053 C 
BRANCH  14  15
ATOM     15  C   UNL     1     -21.051 -21.711  37.954  1.00  0.00     0.041 C 
ATOM     16  O   UNL     1     -19.913 -21.904  38.456  1.00  0.00    -0.550 OA
ATOM     17  O   UNL     1     -21.209 -20.757  36.955  1.00  0.00    -0.550 OA
ENDBRANCH  14  15
ENDBRANCH  13  14
ENDBRANCH  12  13
ENDBRANCH  11  12
ENDBRANCH  10  11
ENDBRANCH   9  10
ENDBRANCH   8   9
ENDBRANCH   7   8
ENDBRANCH   6   7
ENDBRANCH   5   6
ENDBRANCH   4   5
ENDBRANCH   3   4
ENDBRANCH   2   3
ENDBRANCH   1   2
BRANCH   1  18
ATOM     18  C   UNL     1     -20.648 -25.893  38.830  1.00  0.00     0.000 C 
BRANCH  18  19
ATOM     19  C   UNL     1     -19.661 -25.141  39.742  1.00  0.00     0.000 C 
BRANCH  19  20
ATOM     20  C   UNL     1     -18.208 -25.211  39.249  1.00  0.00     0.000 C 
BRANCH  20  21
ATOM     21  C   UNL     1     -17.853 -26.564  38.612  1.00  0.00     0.000 C 
BRANCH  21  22
ATOM     22  C   UNL     1     -16.951 -26.451  37.364  1.00  0.00     0.000 C 
BRANCH  22  23
ATOM     23  C   UNL     1     -16.559 -27.830  36.805  1.00  0.00     0.000 C 
BRANCH  23  24
ATOM     24  C   UNL     1     -15.432 -27.741  35.763  1.00  0.00    -0.000 C 
BRANCH  24  25
ATOM     25  C   UNL     1     -14.867 -26.315  35.640  1.00  0.00    -0.000 C 
BRANCH  25  26
ATOM     26  C   UNL     1     -15.054 -25.722  34.235  1.00  0.00    -0.000 C 
BRANCH  26  27
ATOM     27  C   UNL     1     -15.120 -24.184  34.247  1.00  0.00    -0.000 C 
BRANCH  27  28
ATOM     28  C   UNL     1     -16.568 -23.649  34.320  1.00  0.00    -0.000 C 
BRANCH  28  29
ATOM     29  C   UNL     1     -16.664 -22.126  34.526  1.00  0.00    -0.000 C 
BRANCH  29  30
ATOM     30  C   UNL     1     -16.928 -21.678  35.973  1.00  0.00    -0.000 C 
BRANCH  30  31
ATOM     31  C   UNL     1     -16.695 -22.799  36.999  1.00  0.00    -0.003 C 
ATOM     32  C   UNL     1     -16.055 -22.253  38.272  1.00  0.00     0.004 C 
ENDBRANCH  30  31
ENDBRANCH  29  30
ENDBRANCH  28  29
ENDBRANCH  27  28
ENDBRANCH  26  27
ENDBRANCH  25  26
ENDBRANCH  24  25
ENDBRANCH  23  24
ENDBRANCH  22  23
ENDBRANCH  21  22
ENDBRANCH  20  21
ENDBRANCH  19  20
ENDBRANCH  18  19
ENDBRANCH   1  18
TORSDOF 28
ENDMDL
MODEL 2
REMARK VINA RESULT:    -5.141      1.750      3.106
REMARK INTER + INTRA:         -17.331
REMARK INTER:                 -14.046
REMARK INTRA:                  -3.285
REMARK UNBOUND:                -3.775
REMARK SMILES CCCCCCCCCCCCCCCCCCCCCCCCCCCCCC(=O)[O-]
REMARK SMILES IDX 16 1 17 2 18 3 19 4 20 5 21 6 22 7 23 8 24 9 25 10 26 11
REMARK SMILES IDX 27 12 28 13 29 14 30 15 31 16 32 17 15 18 14 19 13 20 12 21
REMARK SMILES IDX 11 22 10 23 9 24 8 25 7 26 6 27 5 28 4 29 3 30 2 31 1 32
REMARK H PARENT
REMARK Flexibility Score: inf
ROOT
ATOM      1  C   UNL     1     -19.639 -25.326  39.612  1.00  0.00     0.000 C 
ENDROOT
BRANCH   1   2
ATOM      2  C   UNL     1     -20.714 -26.053  38.789  1.00  0.00     0.000 C 
BRANCH   2   3
ATOM      3  C   UNL     1     -21.516 -27.066  39.625  1.00  0.00     0.000 C 
BRANCH   3   4
ATOM      4  C   UNL     1     -22.245 -28.097  38.746  1.00  0.00     0.000 C 
BRANCH   4   5
ATOM      5  C   UNL     1     -23.052 -29.113  39.568  1.00  0.00     0.000 C 
BRANCH   5   6
ATOM      6  C   UNL     1     -24.475 -29.326  39.017  1.00  0.00     0.000 C 
BRANCH   6   7
ATOM      7  C   UNL     1     -25.560 -29.142  40.089  1.00  0.00     0.000 C 
BRANCH   7   8
ATOM      8  C   UNL     1     -25.643 -27.695  40.604  1.00  0.00     0.000 C 
BRANCH   8   9
ATOM      9  C   UNL     1     -24.840 -27.481  41.901  1.00  0.00     0.000 C 
BRANCH   9  10
ATOM     10  C   UNL     1     -24.815 -26.028  42.415  1.00  0.00     0.000 C 
BRANCH  10  11
ATOM     11  C   UNL     1     -24.234 -24.996  41.430  1.00  0.00     0.000 C 
BRANCH  11  12
ATOM     12  C   UNL     1     -22.779 -24.588  41.747  1.00  0.00     0.000 C 
BRANCH  12  13
ATOM     13  C   UNL     1     -22.329 -23.353  40.953  1.00  0.00     0.006 C 
BRANCH  13  14
ATOM     14  C   UNL     1     -23.469 -22.816  40.084  1.00  0.00     0.053 C 
BRANCH  14  15
ATOM     15  C   UNL     1     -22.931 -22.115  38.878  1.00  0.00     0.041 C 
ATOM     16  O   UNL     1     -22.317 -22.762  37.990  1.00  0.00    -0.550 OA
ATOM     17  O   UNL     1     -23.127 -20.748  38.721  1.00  0.00    -0.550 OA
ENDBRANCH  14  15
ENDBRANCH  13  14
ENDBRANCH  12  13
ENDBRANCH  11  12
ENDBRANCH  10  11
ENDBRANCH   9  10
ENDBRANCH   8   9
ENDBRANCH   7   8
ENDBRANCH   6   7
ENDBRANCH   5   6
ENDBRANCH   4   5
ENDBRANCH   3   4
ENDBRANCH   2   3
ENDBRANCH   1   2
BRANCH   1  18
ATOM     18  C   UNL     1     -18.207 -25.761  39.247  1.00  0.00     0.000 C 
BRANCH  18  19
ATOM     19  C   UNL     1     -18.087 -26.648  37.994  1.00  0.00     0.000 C 
BRANCH  19  20
ATOM     20  C   UNL     1     -16.688 -27.259  37.816  1.00  0.00     0.000 C 
BRANCH  20  21
ATOM     21  C   UNL     1     -16.681 -28.485  36.889  1.00  0.00     0.000 C 
BRANCH  21  22
ATOM     22  C   UNL     1     -15.886 -29.686  37.445  1.00  0.00     0.000 C 
BRANCH  22  23
ATOM     23  C   UNL     1     -15.804 -30.844  36.436  1.00  0.00     0.000 C 
BRANCH  23  24
ATOM     24  C   UNL     1     -14.354 -31.261  36.139  1.00  0.00    -0.000 C 
BRANCH  24  25
ATOM     25  C   UNL     1     -14.115 -31.500  34.637  1.00  0.00    -0.000 C 
BRANCH  25  26
ATOM     26  C   UNL     1     -13.397 -30.325  33.957  1.00  0.00    -0.000 C 
BRANCH  26  27
ATOM     27  C   UNL     1     -14.341 -29.141  33.672  1.00  0.00    -0.000 C 
BRANCH  27  28
ATOM     28  C   UNL     1     -13.906 -27.845  34.392  1.00  0.00    -0.000 C 
BRANCH  28  29
ATOM     29  C   UNL     1     -14.974 -26.735  34.382  1.00  0.00    -0.000 C 
BRANCH  29  30
ATOM     30  C   UNL     1     -14.728 -25.584  35.372  1.00  0.00    -0.000 C 
BRANCH  30  31
ATOM     31  C   UNL     1     -15.718 -24.421  35.194  1.00  0.00    -0.003 C 
ATOM     32  C   UNL     1     -16.080 -23.799  36.539  1.00  0.00     0.004 C 
ENDBRANCH  30  31
ENDBRANCH  29  30
ENDBRANCH  28  29
ENDBRANCH  27  28
ENDBRANCH  26  27
ENDBRANCH  25  26
ENDBRANCH  24  25
ENDBRANCH  23  24
ENDBRANCH  22  23
ENDBRANCH  21  22
ENDBRANCH  20  21
ENDBRANCH  19  20
ENDBRANCH  18  19
ENDBRANCH   1  18
TORSDOF 28
ENDMDL
MODEL 3
REMARK VINA RESULT:    -5.058      1.125      2.259
REMARK INTER + INTRA:         -17.112
REMARK INTER:                 -13.096
REMARK INTRA:                  -4.017
REMARK UNBOUND:                -3.775
REMARK SMILES CCCCCCCCCCCCCCCCCCCCCCCCCCCCCC(=O)[O-]
REMARK SMILES IDX 16 1 17 2 18 3 19 4 20 5 21 6 22 7 23 8 24 9 25 10 26 11
REMARK SMILES IDX 27 12 28 13 29 14 30 15 31 16 32 17 15 18 14 19 13 20 12 21
REMARK SMILES IDX 11 22 10 23 9 24 8 25 7 26 6 27 5 28 4 29 3 30 2 31 1 32
REMARK H PARENT
REMARK Flexibility Score: inf
ROOT
ATOM      1  C   UNL     1     -19.667 -25.156  39.248  1.00  0.00     0.000 C 
ENDROOT
BRANCH   1   2
ATOM      2  C   UNL     1     -20.711 -26.261  39.478  1.00  0.00     0.000 C 
BRANCH   2   3
ATOM      3  C   UNL     1     -21.117 -26.973  38.177  1.00  0.00     0.000 C 
BRANCH   3   4
ATOM      4  C   UNL     1     -22.128 -28.106  38.425  1.00  0.00     0.000 C 
BRANCH   4   5
ATOM      5  C   UNL     1     -22.616 -28.158  39.880  1.00  0.00     0.000 C 
BRANCH   5   6
ATOM      6  C   UNL     1     -23.444 -29.421  40.183  1.00  0.00     0.000 C 
BRANCH   6   7
ATOM      7  C   UNL     1     -24.718 -29.117  40.986  1.00  0.00     0.000 C 
BRANCH   7   8
ATOM      8  C   UNL     1     -25.628 -28.093  40.287  1.00  0.00     0.000 C 
BRANCH   8   9
ATOM      9  C   UNL     1     -26.243 -27.079  41.270  1.00  0.00     0.000 C 
BRANCH   9  10
ATOM     10  C   UNL     1     -25.479 -25.745  41.385  1.00  0.00     0.000 C 
BRANCH  10  11
ATOM     11  C   UNL     1     -24.168 -25.810  42.192  1.00  0.00     0.000 C 
BRANCH  11  12
ATOM     12  C   UNL     1     -23.118 -24.767  41.753  1.00  0.00     0.000 C 
BRANCH  12  13
ATOM     13  C   UNL     1     -23.651 -23.818  40.668  1.00  0.00     0.006 C 
BRANCH  13  14
ATOM     14  C   UNL     1     -22.856 -22.510  40.649  1.00  0.00     0.053 C 
BRANCH  14  15
ATOM     15  C   UNL     1     -22.652 -22.035  39.247  1.00  0.00     0.041 C 
ATOM     16  O   UNL     1     -22.510 -22.864  38.310  1.00  0.00    -0.550 OA
ATOM     17  O   UNL     1     -22.641 -20.673  38.966  1.00  0.00    -0.550 OA
ENDBRANCH  14  15
ENDBRANCH  13  14
ENDBRANCH  12  13
ENDBRANCH  11  12
ENDBRANCH  10  11
ENDBRANCH   9  10
ENDBRANCH   8   9
ENDBRANCH   7   8
ENDBRANCH   6   7
ENDBRANCH   5   6
ENDBRANCH   4   5
ENDBRANCH   3   4
ENDBRANCH   2   3
ENDBRANCH   1   2
BRANCH   1  18
ATOM     18  C   UNL     1     -18.220 -25.651  39.434  1.00  0.00     0.000 C 
BRANCH  18  19
ATOM     19  C   UNL     1     -17.376 -25.722  38.148  1.00  0.00     0.000 C 
BRANCH  19  20
ATOM     20  C   UNL     1     -17.633 -26.994  37.325  1.00  0.00     0.000 C 
BRANCH  20  21
ATOM     21  C   UNL     1     -16.558 -28.072  37.534  1.00  0.00     0.000 C 
BRANCH  21  22
ATOM     22  C   UNL     1     -15.813 -28.473  36.242  1.00  0.00     0.000 C 
BRANCH  22  23
ATOM     23  C   UNL     1     -15.926 -27.397  35.149  1.00  0.00     0.000 C 
BRANCH  23  24
ATOM     24  C   UNL     1     -14.600 -26.654  34.919  1.00  0.00    -0.000 C 
BRANCH  24  25
ATOM     25  C   UNL     1     -14.805 -25.137  34.762  1.00  0.00    -0.000 C 
BRANCH  25  26
ATOM     26  C   UNL     1     -16.287 -24.735  34.768  1.00  0.00    -0.000 C 
BRANCH  26  27
ATOM     27  C   UNL     1     -16.506 -23.281  34.310  1.00  0.00    -0.000 C 
BRANCH  27  28
ATOM     28  C   UNL     1     -15.766 -22.256  35.199  1.00  0.00    -0.000 C 
BRANCH  28  29
ATOM     29  C   UNL     1     -16.027 -22.431  36.706  1.00  0.00    -0.000 C 
BRANCH  29  30
ATOM     30  C   UNL     1     -17.447 -22.064  37.170  1.00  0.00    -0.000 C 
BRANCH  30  31
ATOM     31  C   UNL     1     -17.576 -21.992  38.700  1.00  0.00    -0.003 C 
ATOM     32  C   UNL     1     -16.287 -22.439  39.381  1.00  0.00     0.004 C 
ENDBRANCH  30  31
ENDBRANCH  29  30
ENDBRANCH  28  29
ENDBRANCH  27  28
ENDBRANCH  26  27
ENDBRANCH  25  26
ENDBRANCH  24  25
ENDBRANCH  23  24
ENDBRANCH  22  23
ENDBRANCH  21  22
ENDBRANCH  20  21
ENDBRANCH  19  20
ENDBRANCH  18  19
ENDBRANCH   1  18
TORSDOF 28
ENDMDL
MODEL 4
REMARK VINA RESULT:    -5.023      0.917      2.941
REMARK INTER + INTRA:         -17.021
REMARK INTER:                 -13.294
REMARK INTRA:                  -3.727
REMARK UNBOUND:                -3.775
REMARK SMILES CCCCCCCCCCCCCCCCCCCCCCCCCCCCCC(=O)[O-]
REMARK SMILES IDX 16 1 17 2 18 3 19 4 20 5 21 6 22 7 23 8 24 9 25 10 26 11
REMARK SMILES IDX 27 12 28 13 29 14 30 15 31 16 32 17 15 18 14 19 13 20 12 21
REMARK SMILES IDX 11 22 10 23 9 24 8 25 7 26 6 27 5 28 4 29 3 30 2 31 1 32
REMARK H PARENT
REMARK Flexibility Score: inf
ROOT
ATOM      1  C   UNL     1     -20.738 -26.964  38.202  1.00  0.00     0.000 C 
ENDROOT
BRANCH   1   2
ATOM      2  C   UNL     1     -21.879 -27.989  38.314  1.00  0.00     0.000 C 
BRANCH   2   3
ATOM      3  C   UNL     1     -22.522 -28.009  39.711  1.00  0.00     0.000 C 
BRANCH   3   4
ATOM      4  C   UNL     1     -23.178 -29.364  40.029  1.00  0.00     0.000 C 
BRANCH   4   5
ATOM      5  C   UNL     1     -24.351 -29.239  41.014  1.00  0.00     0.000 C 
BRANCH   5   6
ATOM      6  C   UNL     1     -25.672 -28.858  40.318  1.00  0.00     0.000 C 
BRANCH   6   7
ATOM      7  C   UNL     1     -26.203 -27.487  40.763  1.00  0.00     0.000 C 
BRANCH   7   8
ATOM      8  C   UNL     1     -25.334 -26.841  41.855  1.00  0.00     0.000 C 
BRANCH   8   9
ATOM      9  C   UNL     1     -24.893 -25.410  41.492  1.00  0.00     0.000 C 
BRANCH   9  10
ATOM     10  C   UNL     1     -23.393 -25.123  41.703  1.00  0.00     0.000 C 
BRANCH  10  11
ATOM     11  C   UNL     1     -22.819 -23.981  40.841  1.00  0.00     0.000 C 
BRANCH  11  12
ATOM     12  C   UNL     1     -23.813 -22.824  40.605  1.00  0.00     0.000 C 
BRANCH  12  13
ATOM     13  C   UNL     1     -23.594 -22.128  39.253  1.00  0.00     0.006 C 
BRANCH  13  14
ATOM     14  C   UNL     1     -22.296 -22.605  38.597  1.00  0.00     0.053 C 
BRANCH  14  15
ATOM     15  C   UNL     1     -21.370 -21.457  38.359  1.00  0.00     0.041 C 
ATOM     16  O   UNL     1     -21.197 -21.013  37.194  1.00  0.00    -0.550 OA
ATOM     17  O   UNL     1     -20.711 -20.860  39.427  1.00  0.00    -0.550 OA
ENDBRANCH  14  15
ENDBRANCH  13  14
ENDBRANCH  12  13
ENDBRANCH  11  12
ENDBRANCH  10  11
ENDBRANCH   9  10
ENDBRANCH   8   9
ENDBRANCH   7   8
ENDBRANCH   6   7
ENDBRANCH   5   6
ENDBRANCH   4   5
ENDBRANCH   3   4
ENDBRANCH   2   3
ENDBRANCH   1   2
BRANCH   1  18
ATOM     18  C   UNL     1     -20.387 -26.307  39.551  1.00  0.00     0.000 C 
BRANCH  18  19
ATOM     19  C   UNL     1     -19.471 -25.072  39.465  1.00  0.00     0.000 C 
BRANCH  19  20
ATOM     20  C   UNL     1     -18.075 -25.391  38.906  1.00  0.00     0.000 C 
BRANCH  20  21
ATOM     21  C   UNL     1     -17.120 -24.188  38.953  1.00  0.00     0.000 C 
BRANCH  21  22
ATOM     22  C   UNL     1     -17.832 -22.820  38.895  1.00  0.00     0.000 C 
BRANCH  22  23
ATOM     23  C   UNL     1     -16.905 -21.704  38.383  1.00  0.00     0.000 C 
BRANCH  23  24
ATOM     24  C   UNL     1     -17.656 -20.655  37.547  1.00  0.00    -0.000 C 
BRANCH  24  25
ATOM     25  C   UNL     1     -17.689 -21.020  36.052  1.00  0.00    -0.000 C 
BRANCH  25  26
ATOM     26  C   UNL     1     -16.549 -21.966  35.647  1.00  0.00    -0.000 C 
BRANCH  26  27
ATOM     27  C   UNL     1     -16.670 -22.446  34.189  1.00  0.00    -0.000 C 
BRANCH  27  28
ATOM     28  C   UNL     1     -16.656 -23.987  34.064  1.00  0.00    -0.000 C 
BRANCH  28  29
ATOM     29  C   UNL     1     -15.339 -24.640  34.521  1.00  0.00    -0.000 C 
BRANCH  29  30
ATOM     30  C   UNL     1     -15.418 -25.412  35.848  1.00  0.00    -0.000 C 
BRANCH  30  31
ATOM     31  C   UNL     1     -16.487 -26.517  35.834  1.00  0.00    -0.003 C 
ATOM     32  C   UNL     1     -15.844 -27.900  35.784  1.00  0.00     0.004 C 
ENDBRANCH  30  31
ENDBRANCH  29  30
ENDBRANCH  28  29
ENDBRANCH  27  28
ENDBRANCH  26  27
ENDBRANCH  25  26
ENDBRANCH  24  25
ENDBRANCH  23  24
ENDBRANCH  22  23
ENDBRANCH  21  22
ENDBRANCH  20  21
ENDBRANCH  19  20
ENDBRANCH  18  19
ENDBRANCH   1  18
TORSDOF 28
ENDMDL
MODEL 5
REMARK VINA RESULT:    -5.006      4.760      8.881
REMARK INTER + INTRA:         -16.975
REMARK INTER:                 -13.096
REMARK INTRA:                  -3.879
REMARK UNBOUND:                -3.775
REMARK SMILES CCCCCCCCCCCCCCCCCCCCCCCCCCCCCC(=O)[O-]
REMARK SMILES IDX 16 1 17 2 18 3 19 4 20 5 21 6 22 7 23 8 24 9 25 10 26 11
REMARK SMILES IDX 27 12 28 13 29 14 30 15 31 16 32 17 15 18 14 19 13 20 12 21
REMARK SMILES IDX 11 22 10 23 9 24 8 25 7 26 6 27 5 28 4 29 3 30 2 31 1 32
REMARK H PARENT
REMARK Flexibility Score: inf
ROOT
ATOM      1  C   UNL     1     -21.885 -27.956  38.377  1.00  0.00     0.000 C 
ENDROOT
BRANCH   1   2
ATOM      2  C   UNL     1     -22.550 -27.838  39.759  1.00  0.00     0.000 C 
BRANCH   2   3
ATOM      3  C   UNL     1     -22.719 -29.200  40.454  1.00  0.00     0.000 C 
BRANCH   3   4
ATOM      4  C   UNL     1     -24.188 -29.496  40.802  1.00  0.00     0.000 C 
BRANCH   4   5
ATOM      5  C   UNL     1     -25.176 -28.745  39.897  1.00  0.00     0.000 C 
BRANCH   5   6
ATOM      6  C   UNL     1     -26.101 -27.797  40.685  1.00  0.00     0.000 C 
BRANCH   6   7
ATOM      7  C   UNL     1     -25.401 -27.151  41.890  1.00  0.00     0.000 C 
BRANCH   7   8
ATOM      8  C   UNL     1     -25.068 -25.668  41.656  1.00  0.00     0.000 C 
BRANCH   8   9
ATOM      9  C   UNL     1     -26.296 -24.752  41.820  1.00  0.00     0.000 C 
BRANCH   9  10
ATOM     10  C   UNL     1     -27.378 -25.285  42.780  1.00  0.00     0.000 C 
BRANCH  10  11
ATOM     11  C   UNL     1     -28.821 -25.213  42.243  1.00  0.00     0.000 C 
BRANCH  11  12
ATOM     12  C   UNL     1     -29.827 -26.054  43.057  1.00  0.00     0.000 C 
BRANCH  12  13
ATOM     13  C   UNL     1     -30.884 -26.728  42.168  1.00  0.00     0.006 C 
BRANCH  13  14
ATOM     14  C   UNL     1     -32.293 -26.269  42.552  1.00  0.00     0.053 C 
BRANCH  14  15
ATOM     15  C   UNL     1     -32.439 -24.793  42.364  1.00  0.00     0.041 C 
ATOM     16  O   UNL     1     -32.790 -24.064  43.328  1.00  0.00    -0.550 OA
ATOM     17  O   UNL     1     -32.167 -24.217  41.129  1.00  0.00    -0.550 OA
ENDBRANCH  14  15
ENDBRANCH  13  14
ENDBRANCH  12  13
ENDBRANCH  11  12
ENDBRANCH  10  11
ENDBRANCH   9  10
ENDBRANCH   8   9
ENDBRANCH   7   8
ENDBRANCH   6   7
ENDBRANCH   5   6
ENDBRANCH   4   5
ENDBRANCH   3   4
ENDBRANCH   2   3
ENDBRANCH   1   2
BRANCH   1  18
ATOM     18  C   UNL     1     -20.890 -26.816  38.091  1.00  0.00     0.000 C 
BRANCH  18  19
ATOM     19  C   UNL     1     -20.003 -26.400  39.279  1.00  0.00     0.000 C 
BRANCH  19  20
ATOM     20  C   UNL     1     -20.103 -24.904  39.616  1.00  0.00     0.000 C 
BRANCH  20  21
ATOM     21  C   UNL     1     -21.554 -24.418  39.768  1.00  0.00     0.000 C 
BRANCH  21  22
ATOM     22  C   UNL     1     -21.889 -23.877  41.174  1.00  0.00     0.000 C 
BRANCH  22  23
ATOM     23  C   UNL     1     -22.974 -22.787  41.133  1.00  0.00     0.000 C 
BRANCH  23  24
ATOM     24  C   UNL     1     -22.752 -21.782  39.991  1.00  0.00    -0.000 C 
BRANCH  24  25
ATOM     25  C   UNL     1     -24.053 -21.473  39.229  1.00  0.00    -0.000 C 
BRANCH  25  26
ATOM     26  C   UNL     1     -25.309 -21.687  40.087  1.00  0.00    -0.000 C 
BRANCH  26  27
ATOM     27  C   UNL     1     -25.754 -20.404  40.812  1.00  0.00    -0.000 C 
BRANCH  27  28
ATOM     28  C   UNL     1     -27.285 -20.331  41.011  1.00  0.00    -0.000 C 
BRANCH  28  29
ATOM     29  C   UNL     1     -27.884 -21.563  41.715  1.00  0.00    -0.000 C 
BRANCH  29  30
ATOM     30  C   UNL     1     -29.421 -21.626  41.727  1.00  0.00    -0.000 C 
BRANCH  30  31
ATOM     31  C   UNL     1     -29.998 -21.878  43.128  1.00  0.00    -0.003 C 
ATOM     32  C   UNL     1     -28.894 -21.896  44.181  1.00  0.00     0.004 C 
ENDBRANCH  30  31
ENDBRANCH  29  30
ENDBRANCH  28  29
ENDBRANCH  27  28
ENDBRANCH  26  27
ENDBRANCH  25  26
ENDBRANCH  24  25
ENDBRANCH  23  24
ENDBRANCH  22  23
ENDBRANCH  21  22
ENDBRANCH  20  21
ENDBRANCH  19  20
ENDBRANCH  18  19
ENDBRANCH   1  18
TORSDOF 28
ENDMDL
MODEL 6
REMARK VINA RESULT:    -4.995      2.154      3.891
REMARK INTER + INTRA:         -16.945
REMARK INTER:                 -13.736
REMARK INTRA:                  -3.209
REMARK UNBOUND:                -3.775
REMARK SMILES CCCCCCCCCCCCCCCCCCCCCCCCCCCCCC(=O)[O-]
REMARK SMILES IDX 16 1 17 2 18 3 19 4 20 5 21 6 22 7 23 8 24 9 25 10 26 11
REMARK SMILES IDX 27 12 28 13 29 14 30 15 31 16 32 17 15 18 14 19 13 20 12 21
REMARK SMILES IDX 11 22 10 23 9 24 8 25 7 26 6 27 5 28 4 29 3 30 2 31 1 32
REMARK H PARENT
REMARK Flexibility Score: inf
ROOT
ATOM      1  C   UNL     1     -21.016 -26.997  38.101  1.00  0.00     0.000 C 
ENDROOT
BRANCH   1   2
ATOM      2  C   UNL     1     -22.039 -28.121  38.334  1.00  0.00     0.000 C 
BRANCH   2   3
ATOM      3  C   UNL     1     -22.718 -28.027  39.711  1.00  0.00     0.000 C 
BRANCH   3   4
ATOM      4  C   UNL     1     -22.955 -29.413  40.337  1.00  0.00     0.000 C 
BRANCH   4   5
ATOM      5  C   UNL     1     -24.407 -29.618  40.793  1.00  0.00     0.000 C 
BRANCH   5   6
ATOM      6  C   UNL     1     -25.388 -28.655  40.098  1.00  0.00     0.000 C 
BRANCH   6   7
ATOM      7  C   UNL     1     -26.348 -27.972  41.085  1.00  0.00     0.000 C 
BRANCH   7   8
ATOM      8  C   UNL     1     -26.177 -26.444  41.115  1.00  0.00     0.000 C 
BRANCH   8   9
ATOM      9  C   UNL     1     -25.376 -25.961  42.339  1.00  0.00     0.000 C 
BRANCH   9  10
ATOM     10  C   UNL     1     -23.869 -25.756  42.087  1.00  0.00     0.000 C 
BRANCH  10  11
ATOM     11  C   UNL     1     -23.517 -24.594  41.138  1.00  0.00     0.000 C 
BRANCH  11  12
ATOM     12  C   UNL     1     -22.228 -23.842  41.531  1.00  0.00     0.000 C 
BRANCH  12  13
ATOM     13  C   UNL     1     -22.278 -22.353  41.156  1.00  0.00     0.006 C 
BRANCH  13  14
ATOM     14  C   UNL     1     -23.724 -21.884  40.977  1.00  0.00     0.053 C 
BRANCH  14  15
ATOM     15  C   UNL     1     -23.771 -20.426  40.651  1.00  0.00     0.041 C 
ATOM     16  O   UNL     1     -23.939 -19.577  41.565  1.00  0.00    -0.550 OA
ATOM     17  O   UNL     1     -23.607 -19.999  39.338  1.00  0.00    -0.550 OA
ENDBRANCH  14  15
ENDBRANCH  13  14
ENDBRANCH  12  13
ENDBRANCH  11  12
ENDBRANCH  10  11
ENDBRANCH   9  10
ENDBRANCH   8   9
ENDBRANCH   7   8
ENDBRANCH   6   7
ENDBRANCH   5   6
ENDBRANCH   4   5
ENDBRANCH   3   4
ENDBRANCH   2   3
ENDBRANCH   1   2
BRANCH   1  18
ATOM     18  C   UNL     1     -20.531 -26.347  39.410  1.00  0.00     0.000 C 
BRANCH  18  19
ATOM     19  C   UNL     1     -19.539 -25.181  39.240  1.00  0.00     0.000 C 
BRANCH  19  20
ATOM     20  C   UNL     1     -18.069 -25.613  39.363  1.00  0.00     0.000 C 
BRANCH  20  21
ATOM     21  C   UNL     1     -17.403 -25.874  38.003  1.00  0.00     0.000 C 
BRANCH  21  22
ATOM     22  C   UNL     1     -17.107 -27.364  37.727  1.00  0.00     0.000 C 
BRANCH  22  23
ATOM     23  C   UNL     1     -16.285 -27.564  36.442  1.00  0.00     0.000 C 
BRANCH  23  24
ATOM     24  C   UNL     1     -16.291 -26.317  35.543  1.00  0.00    -0.000 C 
BRANCH  24  25
ATOM     25  C   UNL     1     -15.269 -26.424  34.397  1.00  0.00    -0.000 C 
BRANCH  25  26
ATOM     26  C   UNL     1     -13.818 -26.278  34.880  1.00  0.00    -0.000 C 
BRANCH  26  27
ATOM     27  C   UNL     1     -13.047 -27.610  34.846  1.00  0.00    -0.000 C 
BRANCH  27  28
ATOM     28  C   UNL     1     -13.681 -28.642  33.886  1.00  0.00    -0.000 C 
BRANCH  28  29
ATOM     29  C   UNL     1     -13.727 -30.075  34.449  1.00  0.00    -0.000 C 
BRANCH  29  30
ATOM     30  C   UNL     1     -13.124 -30.245  35.854  1.00  0.00    -0.000 C 
BRANCH  30  31
ATOM     31  C   UNL     1     -14.060 -30.986  36.821  1.00  0.00    -0.003 C 
ATOM     32  C   UNL     1     -14.775 -32.136  36.118  1.00  0.00     0.004 C 
ENDBRANCH  30  31
ENDBRANCH  29  30
ENDBRANCH  28  29
ENDBRANCH  27  28
ENDBRANCH  26  27
ENDBRANCH  25  26
ENDBRANCH  24  25
ENDBRANCH  23  24
ENDBRANCH  22  23
ENDBRANCH  21  22
ENDBRANCH  20  21
ENDBRANCH  19  20
ENDBRANCH  18  19
ENDBRANCH   1  18
TORSDOF 28
ENDMDL
MODEL 7
REMARK VINA RESULT:    -4.991      4.813      8.608
REMARK INTER + INTRA:         -16.936
REMARK INTER:                 -12.643
REMARK INTRA:                  -4.293
REMARK UNBOUND:                -3.775
REMARK SMILES CCCCCCCCCCCCCCCCCCCCCCCCCCCCCC(=O)[O-]
REMARK SMILES IDX 16 1 17 2 18 3 19 4 20 5 21 6 22 7 23 8 24 9 25 10 26 11
REMARK SMILES IDX 27 12 28 13 29 14 30 15 31 16 32 17 15 18 14 19 13 20 12 21
REMARK SMILES IDX 11 22 10 23 9 24 8 25 7 26 6 27 5 28 4 29 3 30 2 31 1 32
REMARK H PARENT
REMARK Flexibility Score: inf
ROOT
ATOM      1  C   UNL     1     -21.865 -24.581  40.981  1.00  0.00     0.000 C 
ENDROOT
BRANCH   1   2
ATOM      2  C   UNL     1     -21.061 -24.954  39.724  1.00  0.00     0.000 C 
BRANCH   2   3
ATOM      3  C   UNL     1     -20.776 -26.463  39.630  1.00  0.00     0.000 C 
BRANCH   3   4
ATOM      4  C   UNL     1     -21.090 -27.028  38.234  1.00  0.00     0.000 C 
BRANCH   4   5
ATOM      5  C   UNL     1     -22.137 -28.150  38.269  1.00  0.00     0.000 C 
BRANCH   5   6
ATOM      6  C   UNL     1     -22.625 -28.462  39.696  1.00  0.00     0.000 C 
BRANCH   6   7
ATOM      7  C   UNL     1     -24.121 -28.807  39.750  1.00  0.00     0.000 C 
BRANCH   7   8
ATOM      8  C   UNL     1     -24.789 -28.338  41.053  1.00  0.00     0.000 C 
BRANCH   8   9
ATOM      9  C   UNL     1     -24.298 -26.950  41.506  1.00  0.00     0.000 C 
BRANCH   9  10
ATOM     10  C   UNL     1     -25.367 -25.840  41.463  1.00  0.00     0.000 C 
BRANCH  10  11
ATOM     11  C   UNL     1     -26.822 -26.327  41.603  1.00  0.00     0.000 C 
BRANCH  11  12
ATOM     12  C   UNL     1     -27.551 -25.755  42.838  1.00  0.00     0.000 C 
BRANCH  12  13
ATOM     13  C   UNL     1     -28.930 -25.174  42.489  1.00  0.00     0.006 C 
BRANCH  13  14
ATOM     14  C   UNL     1     -30.049 -26.118  42.934  1.00  0.00     0.053 C 
BRANCH  14  15
ATOM     15  C   UNL     1     -30.971 -26.422  41.798  1.00  0.00     0.041 C 
ATOM     16  O   UNL     1     -30.731 -25.967  40.648  1.00  0.00    -0.550 OA
ATOM     17  O   UNL     1     -32.086 -27.227  41.999  1.00  0.00    -0.550 OA
ENDBRANCH  14  15
ENDBRANCH  13  14
ENDBRANCH  12  13
ENDBRANCH  11  12
ENDBRANCH  10  11
ENDBRANCH   9  10
ENDBRANCH   8   9
ENDBRANCH   7   8
ENDBRANCH   6   7
ENDBRANCH   5   6
ENDBRANCH   4   5
ENDBRANCH   3   4
ENDBRANCH   2   3
ENDBRANCH   1   2
BRANCH   1  18
ATOM     18  C   UNL     1     -22.082 -23.063  41.124  1.00  0.00     0.000 C 
BRANCH  18  19
ATOM     19  C   UNL     1     -23.466 -22.550  40.685  1.00  0.00     0.000 C 
BRANCH  19  20
ATOM     20  C   UNL     1     -23.516 -22.133  39.206  1.00  0.00     0.000 C 
BRANCH  20  21
ATOM     21  C   UNL     1     -22.183 -21.562  38.698  1.00  0.00     0.000 C 
BRANCH  21  22
ATOM     22  C   UNL     1     -22.201 -20.034  38.474  1.00  0.00     0.000 C 
BRANCH  22  23
ATOM     23  C   UNL     1     -21.092 -19.319  39.265  1.00  0.00     0.000 C 
BRANCH  23  24
ATOM     24  C   UNL     1     -21.298 -19.419  40.785  1.00  0.00    -0.000 C 
BRANCH  24  25
ATOM     25  C   UNL     1     -22.445 -18.518  41.275  1.00  0.00    -0.000 C 
BRANCH  25  26
ATOM     26  C   UNL     1     -23.324 -19.200  42.335  1.00  0.00    -0.000 C 
BRANCH  26  27
ATOM     27  C   UNL     1     -24.827 -18.988  42.081  1.00  0.00    -0.000 C 
BRANCH  27  28
ATOM     28  C   UNL     1     -25.214 -19.176  40.596  1.00  0.00    -0.000 C 
BRANCH  28  29
ATOM     29  C   UNL     1     -26.639 -19.721  40.385  1.00  0.00    -0.000 C 
BRANCH  29  30
ATOM     30  C   UNL     1     -26.753 -21.254  40.349  1.00  0.00    -0.000 C 
BRANCH  30  31
ATOM     31  C   UNL     1     -27.551 -21.823  41.533  1.00  0.00    -0.003 C 
ATOM     32  C   UNL     1     -28.208 -20.706  42.338  1.00  0.00     0.004 C 
ENDBRANCH  30  31
ENDBRANCH  29  30
ENDBRANCH  28  29
ENDBRANCH  27  28
ENDBRANCH  26  27
ENDBRANCH  25  26
ENDBRANCH  24  25
ENDBRANCH  23  24
ENDBRANCH  22  23
ENDBRANCH  21  22
ENDBRANCH  20  21
ENDBRANCH  19  20
ENDBRANCH  18  19
ENDBRANCH   1  18
TORSDOF 28
ENDMDL
MODEL 8
REMARK VINA RESULT:    -4.983      5.030     10.432
REMARK INTER + INTRA:         -16.914
REMARK INTER:                 -13.093
REMARK INTRA:                  -3.821
REMARK UNBOUND:                -3.775
REMARK SMILES CCCCCCCCCCCCCCCCCCCCCCCCCCCCCC(=O)[O-]
REMARK SMILES IDX 16 1 17 2 18 3 19 4 20 5 21 6 22 7 23 8 24 9 25 10 26 11
REMARK SMILES IDX 27 12 28 13 29 14 30 15 31 16 32 17 15 18 14 19 13 20 12 21
REMARK SMILES IDX 11 22 10 23 9 24 8 25 7 26 6 27 5 28 4 29 3 30 2 31 1 32
REMARK H PARENT
REMARK Flexibility Score: inf
ROOT
ATOM      1  C   UNL     1     -20.971 -25.133  40.195  1.00  0.00     0.000 C 
ENDROOT
BRANCH   1   2
ATOM      2  C   UNL     1     -21.236 -26.636  40.012  1.00  0.00     0.000 C 
BRANCH   2   3
ATOM      3  C   UNL     1     -21.212 -27.066  38.536  1.00  0.00     0.000 C 
BRANCH   3   4
ATOM      4  C   UNL     1     -22.194 -28.216  38.249  1.00  0.00     0.000 C 
BRANCH   4   5
ATOM      5  C   UNL     1     -22.857 -28.762  39.523  1.00  0.00     0.000 C 
BRANCH   5   6
ATOM      6  C   UNL     1     -24.373 -28.977  39.357  1.00  0.00     0.000 C 
BRANCH   6   7
ATOM      7  C   UNL     1     -25.193 -28.312  40.473  1.00  0.00     0.000 C 
BRANCH   7   8
ATOM      8  C   UNL     1     -24.348 -27.989  41.716  1.00  0.00     0.000 C 
BRANCH   8   9
ATOM      9  C   UNL     1     -24.787 -26.686  42.410  1.00  0.00     0.000 C 
BRANCH   9  10
ATOM     10  C   UNL     1     -25.213 -25.555  41.453  1.00  0.00     0.000 C 
BRANCH  10  11
ATOM     11  C   UNL     1     -26.603 -24.952  41.731  1.00  0.00     0.000 C 
BRANCH  11  12
ATOM     12  C   UNL     1     -27.199 -25.372  43.091  1.00  0.00     0.000 C 
BRANCH  12  13
ATOM     13  C   UNL     1     -28.698 -25.698  43.001  1.00  0.00     0.006 C 
BRANCH  13  14
ATOM     14  C   UNL     1     -29.071 -26.168  41.593  1.00  0.00     0.053 C 
BRANCH  14  15
ATOM     15  C   UNL     1     -30.555 -26.193  41.417  1.00  0.00     0.041 C 
ATOM     16  O   UNL     1     -31.274 -26.867  42.199  1.00  0.00    -0.550 OA
ATOM     17  O   UNL     1     -31.150 -25.452  40.402  1.00  0.00    -0.550 OA
ENDBRANCH  14  15
ENDBRANCH  13  14
ENDBRANCH  12  13
ENDBRANCH  11  12
ENDBRANCH  10  11
ENDBRANCH   9  10
ENDBRANCH   8   9
ENDBRANCH   7   8
ENDBRANCH   6   7
ENDBRANCH   5   6
ENDBRANCH   4   5
ENDBRANCH   3   4
ENDBRANCH   2   3
ENDBRANCH   1   2
BRANCH   1  18
ATOM     18  C   UNL     1     -22.010 -24.446  41.101  1.00  0.00     0.000 C 
BRANCH  18  19
ATOM     19  C   UNL     1     -21.984 -22.906  41.086  1.00  0.00     0.000 C 
BRANCH  19  20
ATOM     20  C   UNL     1     -23.384 -22.277  41.020  1.00  0.00     0.000 C 
BRANCH  20  21
ATOM     21  C   UNL     1     -23.672 -21.589  39.676  1.00  0.00     0.000 C 
BRANCH  21  22
ATOM     22  C   UNL     1     -25.029 -20.854  39.626  1.00  0.00     0.000 C 
BRANCH  22  23
ATOM     23  C   UNL     1     -26.172 -21.707  40.202  1.00  0.00     0.000 C 
BRANCH  23  24
ATOM     24  C   UNL     1     -27.125 -20.888  41.088  1.00  0.00    -0.000 C 
BRANCH  24  25
ATOM     25  C   UNL     1     -28.184 -21.771  41.771  1.00  0.00    -0.000 C 
BRANCH  25  26
ATOM     26  C   UNL     1     -29.221 -20.954  42.556  1.00  0.00    -0.000 C 
BRANCH  26  27
ATOM     27  C   UNL     1     -28.710 -20.529  43.945  1.00  0.00    -0.000 C 
BRANCH  27  28
ATOM     28  C   UNL     1     -28.800 -21.665  44.988  1.00  0.00    -0.000 C 
BRANCH  28  29
ATOM     29  C   UNL     1     -29.910 -21.466  46.037  1.00  0.00    -0.000 C 
BRANCH  29  30
ATOM     30  C   UNL     1     -31.013 -22.537  46.034  1.00  0.00    -0.000 C 
BRANCH  30  31
ATOM     31  C   UNL     1     -31.421 -22.970  44.617  1.00  0.00    -0.003 C 
ATOM     32  C   UNL     1     -31.963 -24.397  44.614  1.00  0.00     0.004 C 
ENDBRANCH  30  31
ENDBRANCH  29  30
ENDBRANCH  28  29
ENDBRANCH  27  28
ENDBRANCH  26  27
ENDBRANCH  25  26
ENDBRANCH  24  25
ENDBRANCH  23  24
ENDBRANCH  22  23
ENDBRANCH  21  22
ENDBRANCH  20  21
ENDBRANCH  19  20
ENDBRANCH  18  19
ENDBRANCH   1  18
TORSDOF 28
ENDMDL
MODEL 9
REMARK VINA RESULT:    -4.978      1.526      8.559
REMARK INTER + INTRA:         -16.901
REMARK INTER:                 -13.340
REMARK INTRA:                  -3.561
REMARK UNBOUND:                -3.775
REMARK SMILES CCCCCCCCCCCCCCCCCCCCCCCCCCCCCC(=O)[O-]
REMARK SMILES IDX 16 1 17 2 18 3 19 4 20 5 21 6 22 7 23 8 24 9 25 10 26 11
REMARK SMILES IDX 27 12 28 13 29 14 30 15 31 16 32 17 15 18 14 19 13 20 12 21
REMARK SMILES IDX 11 22 10 23 9 24 8 25 7 26 6 27 5 28 4 29 3 30 2 31 1 32
REMARK H PARENT
REMARK Flexibility Score: inf
ROOT
ATOM      1  C   UNL     1     -21.369 -27.102  39.437  1.00  0.00     0.000 C 
ENDROOT
BRANCH   1   2
ATOM      2  C   UNL     1     -20.408 -26.170  38.680  1.00  0.00     0.000 C 
BRANCH   2   3
ATOM      3  C   UNL     1     -19.181 -25.776  39.519  1.00  0.00     0.000 C 
BRANCH   3   4
ATOM      4  C   UNL     1     -17.876 -25.847  38.707  1.00  0.00     0.000 C 
BRANCH   4   5
ATOM      5  C   UNL     1     -17.895 -26.957  37.646  1.00  0.00     0.000 C 
BRANCH   5   6
ATOM      6  C   UNL     1     -16.512 -27.601  37.435  1.00  0.00     0.000 C 
BRANCH   6   7
ATOM      7  C   UNL     1     -16.264 -28.010  35.975  1.00  0.00     0.000 C 
BRANCH   7   8
ATOM      8  C   UNL     1     -14.820 -27.738  35.522  1.00  0.00     0.000 C 
BRANCH   8   9
ATOM      9  C   UNL     1     -14.751 -27.004  34.169  1.00  0.00     0.000 C 
BRANCH   9  10
ATOM     10  C   UNL     1     -14.440 -25.498  34.265  1.00  0.00     0.000 C 
BRANCH  10  11
ATOM     11  C   UNL     1     -15.655 -24.597  34.560  1.00  0.00     0.000 C 
BRANCH  11  12
ATOM     12  C   UNL     1     -15.795 -24.213  36.048  1.00  0.00     0.000 C 
BRANCH  12  13
ATOM     13  C   UNL     1     -14.938 -22.994  36.424  1.00  0.00     0.006 C 
BRANCH  13  14
ATOM     14  C   UNL     1     -15.757 -21.973  37.216  1.00  0.00     0.053 C 
BRANCH  14  15
ATOM     15  C   UNL     1     -15.578 -22.174  38.686  1.00  0.00     0.041 C 
ATOM     16  O   UNL     1     -14.459 -21.961  39.223  1.00  0.00    -0.550 OA
ATOM     17  O   UNL     1     -16.652 -22.577  39.471  1.00  0.00    -0.550 OA
ENDBRANCH  14  15
ENDBRANCH  13  14
ENDBRANCH  12  13
ENDBRANCH  11  12
ENDBRANCH  10  11
ENDBRANCH   9  10
ENDBRANCH   8   9
ENDBRANCH   7   8
ENDBRANCH   6   7
ENDBRANCH   5   6
ENDBRANCH   4   5
ENDBRANCH   3   4
ENDBRANCH   2   3
ENDBRANCH   1   2
BRANCH   1  18
ATOM     18  C   UNL     1     -22.156 -28.040  38.503  1.00  0.00     0.000 C 
BRANCH  18  19
ATOM     19  C   UNL     1     -23.154 -28.982  39.201  1.00  0.00     0.000 C 
BRANCH  19  20
ATOM     20  C   UNL     1     -22.921 -29.096  40.716  1.00  0.00     0.000 C 
BRANCH  20  21
ATOM     21  C   UNL     1     -24.189 -28.824  41.541  1.00  0.00     0.000 C 
BRANCH  21  22
ATOM     22  C   UNL     1     -25.406 -28.391  40.696  1.00  0.00     0.000 C 
BRANCH  22  23
ATOM     23  C   UNL     1     -26.016 -27.069  41.191  1.00  0.00     0.000 C 
BRANCH  23  24
ATOM     24  C   UNL     1     -25.077 -26.310  42.143  1.00  0.00    -0.000 C 
BRANCH  24  25
ATOM     25  C   UNL     1     -24.509 -25.032  41.501  1.00  0.00    -0.000 C 
BRANCH  25  26
ATOM     26  C   UNL     1     -22.978 -25.060  41.377  1.00  0.00    -0.000 C 
BRANCH  26  27
ATOM     27  C   UNL     1     -22.353 -23.656  41.475  1.00  0.00    -0.000 C 
BRANCH  27  28
ATOM     28  C   UNL     1     -21.773 -23.166  40.129  1.00  0.00    -0.000 C 
BRANCH  28  29
ATOM     29  C   UNL     1     -22.815 -22.520  39.197  1.00  0.00    -0.000 C 
BRANCH  29  30
ATOM     30  C   UNL     1     -23.592 -21.340  39.803  1.00  0.00    -0.000 C 
BRANCH  30  31
ATOM     31  C   UNL     1     -25.088 -21.367  39.453  1.00  0.00    -0.003 C 
ATOM     32  C   UNL     1     -25.915 -21.903  40.619  1.00  0.00     0.004 C 
ENDBRANCH  30  31
ENDBRANCH  29  30
ENDBRANCH  28  29
ENDBRANCH  27  28
ENDBRANCH  26  27
ENDBRANCH  25  26
ENDBRANCH  24  25
ENDBRANCH  23  24
ENDBRANCH  22  23
ENDBRANCH  21  22
ENDBRANCH  20  21
ENDBRANCH  19  20
ENDBRANCH  18  19
ENDBRANCH   1  18
TORSDOF 28
ENDMDL
