MODEL 1
REMARK VINA RESULT:    -6.163      0.000      0.000
REMARK INTER + INTRA:          -6.788
REMARK INTER:                  -6.523
REMARK INTRA:                  -0.265
REMARK UNBOUND:                -0.265
REMARK SMILES O=c1cc(-c2ccccc2)oc2ccccc12
REMARK SMILES IDX 4 1 3 2 2 3 1 4 17 5 16 6 15 7 14 8 13 9 12 10 11 11 5 12
REMARK SMILES IDX 8 13 7 14 9 15 6 16 10 17
REMARK H PARENT
REMARK Flexibility Score: inf
ROOT
ATOM      1  C   UNL     1     -36.229 -12.497  -8.237  1.00  0.00     0.138 A 
ATOM      2  C   UNL     1     -35.314 -12.219  -9.274  1.00  0.00     0.100 A 
ATOM      3  C   UNL     1     -34.758 -10.942  -9.376  1.00  0.00     0.193 A 
ATOM      4  O   UNL     1     -33.940 -10.693 -10.303  1.00  0.00    -0.289 OA
ATOM      5  C   UNL     1     -35.116  -9.956  -8.446  1.00  0.00     0.065 A 
ATOM      6  C   UNL     1     -34.592  -8.651  -8.492  1.00  0.00     0.016 A 
ATOM      7  C   UNL     1     -34.984  -7.705  -7.539  1.00  0.00     0.001 A 
ATOM      8  C   UNL     1     -35.896  -8.053  -6.538  1.00  0.00     0.004 A 
ATOM      9  C   UNL     1     -36.421  -9.347  -6.485  1.00  0.00     0.048 A 
ATOM     10  C   UNL     1     -36.036 -10.301  -7.433  1.00  0.00     0.138 A 
ATOM     11  O   UNL     1     -36.541 -11.529  -7.374  1.00  0.00    -0.456 OA
ENDROOT
BRANCH   1  12
ATOM     12  C   UNL     1     -36.871 -13.836  -8.056  1.00  0.00     0.017 A 
ATOM     13  C   UNL     1     -38.143 -16.323  -7.648  1.00  0.00     0.000 A 
ATOM     14  C   UNL     1     -38.568 -15.198  -6.943  1.00  0.00     0.001 A 
ATOM     15  C   UNL     1     -37.088 -16.219  -8.555  1.00  0.00     0.001 A 
ATOM     16  C   UNL     1     -37.940 -13.964  -7.143  1.00  0.00     0.012 A 
ATOM     17  C   UNL     1     -36.454 -14.989  -8.761  1.00  0.00     0.012 A 
ENDBRANCH   1  12
TORSDOF 1
ENDMDL
MODEL 2
REMARK VINA RESULT:    -6.064      1.716      6.140
REMARK INTER + INTRA:          -6.683
REMARK INTER:                  -6.423
REMARK INTRA:                  -0.260
REMARK UNBOUND:                -0.265
REMARK SMILES O=c1cc(-c2ccccc2)oc2ccccc12
REMARK SMILES IDX 4 1 3 2 2 3 1 4 17 5 16 6 15 7 14 8 13 9 12 10 11 11 5 12
REMARK SMILES IDX 8 13 7 14 9 15 6 16 10 17
REMARK H PARENT
REMARK Flexibility Score: inf
ROOT
ATOM      1  C   UNL     1     -36.434 -13.041  -8.090  1.00  0.00     0.138 A 
ATOM      2  C   UNL     1     -35.664 -13.892  -8.910  1.00  0.00     0.100 A 
ATOM      3  C   UNL     1     -36.015 -15.238  -9.026  1.00  0.00     0.193 A 
ATOM      4  O   UNL     1     -35.327 -15.999  -9.760  1.00  0.00    -0.289 OA
ATOM      5  C   UNL     1     -37.128 -15.725  -8.327  1.00  0.00     0.065 A 
ATOM      6  C   UNL     1     -37.537 -17.069  -8.401  1.00  0.00     0.016 A 
ATOM      7  C   UNL     1     -38.655 -17.502  -7.682  1.00  0.00     0.001 A 
ATOM      8  C   UNL     1     -39.372 -16.601  -6.889  1.00  0.00     0.004 A 
ATOM      9  C   UNL     1     -38.974 -15.264  -6.809  1.00  0.00     0.048 A 
ATOM     10  C   UNL     1     -37.856 -14.820  -7.525  1.00  0.00     0.138 A 
ATOM     11  O   UNL     1     -37.485 -13.546  -7.442  1.00  0.00    -0.456 OA
ENDROOT
BRANCH   1  12
ATOM     12  C   UNL     1     -36.126 -11.588  -7.909  1.00  0.00     0.017 A 
ATOM     13  C   UNL     1     -35.452  -8.865  -7.595  1.00  0.00     0.000 A 
ATOM     14  C   UNL     1     -34.488  -9.778  -8.020  1.00  0.00     0.001 A 
ATOM     15  C   UNL     1     -36.750  -9.298  -7.326  1.00  0.00     0.001 A 
ATOM     16  C   UNL     1     -34.818 -11.128  -8.177  1.00  0.00     0.012 A 
ATOM     17  C   UNL     1     -37.089 -10.647  -7.480  1.00  0.00     0.012 A 
ENDBRANCH   1  12
TORSDOF 1
ENDMDL
MODEL 3
REMARK VINA RESULT:    -6.056      1.952      6.096
REMARK INTER + INTRA:          -6.675
REMARK INTER:                  -6.411
REMARK INTRA:                  -0.264
REMARK UNBOUND:                -0.265
REMARK SMILES O=c1cc(-c2ccccc2)oc2ccccc12
REMARK SMILES IDX 4 1 3 2 2 3 1 4 17 5 16 6 15 7 14 8 13 9 12 10 11 11 5 12
REMARK SMILES IDX 8 13 7 14 9 15 6 16 10 17
REMARK H PARENT
REMARK Flexibility Score: inf
ROOT
ATOM      1  C   UNL     1     -35.785 -10.608  -8.259  1.00  0.00     0.138 A 
ATOM      2  C   UNL     1     -36.756 -11.546  -7.851  1.00  0.00     0.100 A 
ATOM      3  C   UNL     1     -36.990 -12.678  -8.634  1.00  0.00     0.193 A 
ATOM      4  O   UNL     1     -37.858 -13.518  -8.269  1.00  0.00    -0.289 OA
ATOM      5  C   UNL     1     -36.258 -12.867  -9.814  1.00  0.00     0.065 A 
ATOM      6  C   UNL     1     -36.444 -13.984 -10.647  1.00  0.00     0.016 A 
ATOM      7  C   UNL     1     -35.686 -14.123 -11.814  1.00  0.00     0.001 A 
ATOM      8  C   UNL     1     -34.740 -13.152 -12.156  1.00  0.00     0.004 A 
ATOM      9  C   UNL     1     -34.548 -12.038 -11.334  1.00  0.00     0.048 A 
ATOM     10  C   UNL     1     -35.301 -11.890 -10.165  1.00  0.00     0.138 A 
ATOM     11  O   UNL     1     -35.111 -10.826  -9.389  1.00  0.00    -0.456 OA
ENDROOT
BRANCH   1  12
ATOM     12  C   UNL     1     -35.473  -9.369  -7.481  1.00  0.00     0.017 A 
ATOM     13  C   UNL     1     -34.803  -7.019  -6.068  1.00  0.00     0.000 A 
ATOM     14  C   UNL     1     -33.999  -7.454  -7.120  1.00  0.00     0.001 A 
ATOM     15  C   UNL     1     -35.939  -7.747  -5.713  1.00  0.00     0.001 A 
ATOM     16  C   UNL     1     -34.328  -8.617  -7.823  1.00  0.00     0.012 A 
ATOM     17  C   UNL     1     -36.275  -8.912  -6.410  1.00  0.00     0.012 A 
ENDBRANCH   1  12
TORSDOF 1
ENDMDL
MODEL 4
REMARK VINA RESULT:    -5.949      1.336      5.855
REMARK INTER + INTRA:          -6.561
REMARK INTER:                  -6.295
REMARK INTRA:                  -0.266
REMARK UNBOUND:                -0.265
REMARK SMILES O=c1cc(-c2ccccc2)oc2ccccc12
REMARK SMILES IDX 4 1 3 2 2 3 1 4 17 5 16 6 15 7 14 8 13 9 12 10 11 11 5 12
REMARK SMILES IDX 8 13 7 14 9 15 6 16 10 17
REMARK H PARENT
REMARK Flexibility Score: inf
ROOT
ATOM      1  C   UNL     1     -36.078 -12.371  -8.204  1.00  0.00     0.138 A 
ATOM      2  C   UNL     1     -35.405 -13.149  -9.170  1.00  0.00     0.100 A 
ATOM      3  C   UNL     1     -35.742 -14.495  -9.325  1.00  0.00     0.193 A 
ATOM      4  O   UNL     1     -35.141 -15.191 -10.188  1.00  0.00    -0.289 OA
ATOM      5  C   UNL     1     -36.744 -15.054  -8.520  1.00  0.00     0.065 A 
ATOM      6  C   UNL     1     -37.132 -16.402  -8.625  1.00  0.00     0.016 A 
ATOM      7  C   UNL     1     -38.138 -16.909  -7.797  1.00  0.00     0.001 A 
ATOM      8  C   UNL     1     -38.762 -16.078  -6.861  1.00  0.00     0.004 A 
ATOM      9  C   UNL     1     -38.383 -14.737  -6.749  1.00  0.00     0.048 A 
ATOM     10  C   UNL     1     -37.378 -14.220  -7.574  1.00  0.00     0.138 A 
ATOM     11  O   UNL     1     -37.025 -12.944  -7.459  1.00  0.00    -0.456 OA
ENDROOT
BRANCH   1  12
ATOM     12  C   UNL     1     -35.778 -10.924  -7.973  1.00  0.00     0.017 A 
ATOM     13  C   UNL     1     -35.288  -8.189  -7.471  1.00  0.00     0.000 A 
ATOM     14  C   UNL     1     -36.317  -8.849  -6.800  1.00  0.00     0.001 A 
ATOM     15  C   UNL     1     -34.501  -8.883  -8.391  1.00  0.00     0.001 A 
ATOM     16  C   UNL     1     -36.562 -10.203  -7.046  1.00  0.00     0.012 A 
ATOM     17  C   UNL     1     -34.739 -10.238  -8.643  1.00  0.00     0.012 A 
ENDBRANCH   1  12
TORSDOF 1
ENDMDL
MODEL 5
REMARK VINA RESULT:    -5.946      1.466      2.366
REMARK INTER + INTRA:          -6.559
REMARK INTER:                  -6.301
REMARK INTRA:                  -0.258
REMARK UNBOUND:                -0.265
REMARK SMILES O=c1cc(-c2ccccc2)oc2ccccc12
REMARK SMILES IDX 4 1 3 2 2 3 1 4 17 5 16 6 15 7 14 8 13 9 12 10 11 11 5 12
REMARK SMILES IDX 8 13 7 14 9 15 6 16 10 17
REMARK H PARENT
REMARK Flexibility Score: inf
ROOT
ATOM      1  C   UNL     1     -36.591 -12.993  -7.837  1.00  0.00     0.138 A 
ATOM      2  C   UNL     1     -37.317 -11.801  -7.631  1.00  0.00     0.100 A 
ATOM      3  C   UNL     1     -36.656 -10.573  -7.693  1.00  0.00     0.193 A 
ATOM      4  O   UNL     1     -37.305  -9.507  -7.509  1.00  0.00    -0.289 OA
ATOM      5  C   UNL     1     -35.281 -10.541  -7.961  1.00  0.00     0.065 A 
ATOM      6  C   UNL     1     -34.555  -9.339  -8.039  1.00  0.00     0.016 A 
ATOM      7  C   UNL     1     -33.183  -9.364  -8.309  1.00  0.00     0.001 A 
ATOM      8  C   UNL     1     -32.528 -10.584  -8.504  1.00  0.00     0.004 A 
ATOM      9  C   UNL     1     -33.241 -11.784  -8.428  1.00  0.00     0.048 A 
ATOM     10  C   UNL     1     -34.614 -11.769  -8.159  1.00  0.00     0.138 A 
ATOM     11  O   UNL     1     -35.283 -12.916  -8.089  1.00  0.00    -0.456 OA
ENDROOT
BRANCH   1  12
ATOM     12  C   UNL     1     -37.221 -14.349  -7.787  1.00  0.00     0.017 A 
ATOM     13  C   UNL     1     -38.478 -16.871  -7.629  1.00  0.00     0.000 A 
ATOM     14  C   UNL     1     -38.999 -15.786  -6.925  1.00  0.00     0.001 A 
ATOM     15  C   UNL     1     -37.335 -16.708  -8.410  1.00  0.00     0.001 A 
ATOM     16  C   UNL     1     -38.380 -14.535  -7.001  1.00  0.00     0.012 A 
ATOM     17  C   UNL     1     -36.708 -15.460  -8.492  1.00  0.00     0.012 A 
ENDBRANCH   1  12
TORSDOF 1
ENDMDL
MODEL 6
REMARK VINA RESULT:    -5.849      1.516      2.950
REMARK INTER + INTRA:          -6.455
REMARK INTER:                  -6.193
REMARK INTRA:                  -0.262
REMARK UNBOUND:                -0.265
REMARK SMILES O=c1cc(-c2ccccc2)oc2ccccc12
REMARK SMILES IDX 4 1 3 2 2 3 1 4 17 5 16 6 15 7 14 8 13 9 12 10 11 11 5 12
REMARK SMILES IDX 8 13 7 14 9 15 6 16 10 17
REMARK H PARENT
REMARK Flexibility Score: inf
ROOT
ATOM      1  C   UNL     1     -35.989 -11.095  -7.889  1.00  0.00     0.138 A 
ATOM      2  C   UNL     1     -36.384 -10.146  -6.923  1.00  0.00     0.100 A 
ATOM      3  C   UNL     1     -35.837  -8.861  -6.956  1.00  0.00     0.193 A 
ATOM      4  O   UNL     1     -36.191  -8.013  -6.093  1.00  0.00    -0.289 OA
ATOM      5  C   UNL     1     -34.903  -8.533  -7.949  1.00  0.00     0.065 A 
ATOM      6  C   UNL     1     -34.315  -7.259  -8.039  1.00  0.00     0.016 A 
ATOM      7  C   UNL     1     -33.388  -6.985  -9.050  1.00  0.00     0.001 A 
ATOM      8  C   UNL     1     -33.044  -7.975  -9.974  1.00  0.00     0.004 A 
ATOM      9  C   UNL     1     -33.623  -9.245  -9.892  1.00  0.00     0.048 A 
ATOM     10  C   UNL     1     -34.551  -9.529  -8.885  1.00  0.00     0.138 A 
ATOM     11  O   UNL     1     -35.097 -10.740  -8.815  1.00  0.00    -0.456 OA
ENDROOT
BRANCH   1  12
ATOM     12  C   UNL     1     -36.524 -12.491  -7.924  1.00  0.00     0.017 A 
ATOM     13  C   UNL     1     -37.458 -15.152  -8.049  1.00  0.00     0.000 A 
ATOM     14  C   UNL     1     -36.282 -14.794  -8.705  1.00  0.00     0.001 A 
ATOM     15  C   UNL     1     -38.174 -14.194  -7.331  1.00  0.00     0.001 A 
ATOM     16  C   UNL     1     -35.816 -13.477  -8.645  1.00  0.00     0.012 A 
ATOM     17  C   UNL     1     -37.715 -12.874  -7.266  1.00  0.00     0.012 A 
ENDBRANCH   1  12
TORSDOF 1
ENDMDL
MODEL 7
REMARK VINA RESULT:    -5.798      1.784      2.518
REMARK INTER + INTRA:          -6.401
REMARK INTER:                  -6.152
REMARK INTRA:                  -0.249
REMARK UNBOUND:                -0.265
REMARK SMILES O=c1cc(-c2ccccc2)oc2ccccc12
REMARK SMILES IDX 4 1 3 2 2 3 1 4 17 5 16 6 15 7 14 8 13 9 12 10 11 11 5 12
REMARK SMILES IDX 8 13 7 14 9 15 6 16 10 17
REMARK H PARENT
REMARK Flexibility Score: inf
ROOT
ATOM      1  C   UNL     1     -35.129 -11.201  -9.470  1.00  0.00     0.138 A 
ATOM      2  C   UNL     1     -34.046 -10.436  -9.952  1.00  0.00     0.100 A 
ATOM      3  C   UNL     1     -33.710  -9.240  -9.315  1.00  0.00     0.193 A 
ATOM      4  O   UNL     1     -32.742  -8.557  -9.746  1.00  0.00    -0.289 OA
ATOM      5  C   UNL     1     -34.453  -8.816  -8.204  1.00  0.00     0.065 A 
ATOM      6  C   UNL     1     -34.168  -7.623  -7.517  1.00  0.00     0.016 A 
ATOM      7  C   UNL     1     -34.942  -7.247  -6.414  1.00  0.00     0.001 A 
ATOM      8  C   UNL     1     -36.001  -8.055  -5.991  1.00  0.00     0.004 A 
ATOM      9  C   UNL     1     -36.293  -9.243  -6.669  1.00  0.00     0.048 A 
ATOM     10  C   UNL     1     -35.524  -9.628  -7.773  1.00  0.00     0.138 A 
ATOM     11  O   UNL     1     -35.809 -10.760  -8.410  1.00  0.00    -0.456 OA
ENDROOT
BRANCH   1  12
ATOM     12  C   UNL     1     -35.556 -12.492 -10.094  1.00  0.00     0.017 A 
ATOM     13  C   UNL     1     -36.375 -14.965 -11.180  1.00  0.00     0.000 A 
ATOM     14  C   UNL     1     -36.359 -14.780  -9.799  1.00  0.00     0.001 A 
ATOM     15  C   UNL     1     -35.986 -13.925 -12.025  1.00  0.00     0.001 A 
ATOM     16  C   UNL     1     -35.954 -13.557  -9.257  1.00  0.00     0.012 A 
ATOM     17  C   UNL     1     -35.579 -12.698 -11.492  1.00  0.00     0.012 A 
ENDBRANCH   1  12
TORSDOF 1
ENDMDL
MODEL 8
REMARK VINA RESULT:    -5.766      2.133      3.422
REMARK INTER + INTRA:          -6.368
REMARK INTER:                  -6.138
REMARK INTRA:                  -0.229
REMARK UNBOUND:                -0.265
REMARK SMILES O=c1cc(-c2ccccc2)oc2ccccc12
REMARK SMILES IDX 4 1 3 2 2 3 1 4 17 5 16 6 15 7 14 8 13 9 12 10 11 11 5 12
REMARK SMILES IDX 8 13 7 14 9 15 6 16 10 17
REMARK H PARENT
REMARK Flexibility Score: inf
ROOT
ATOM      1  C   UNL     1     -36.314 -12.533  -9.768  1.00  0.00     0.138 A 
ATOM      2  C   UNL     1     -37.161 -12.535  -8.640  1.00  0.00     0.100 A 
ATOM      3  C   UNL     1     -37.051 -11.512  -7.695  1.00  0.00     0.193 A 
ATOM      4  O   UNL     1     -37.809 -11.514  -6.687  1.00  0.00    -0.289 OA
ATOM      5  C   UNL     1     -36.102 -10.498  -7.881  1.00  0.00     0.065 A 
ATOM      6  C   UNL     1     -35.941  -9.440  -6.970  1.00  0.00     0.016 A 
ATOM      7  C   UNL     1     -34.977  -8.454  -7.204  1.00  0.00     0.001 A 
ATOM      8  C   UNL     1     -34.172  -8.516  -8.345  1.00  0.00     0.004 A 
ATOM      9  C   UNL     1     -34.325  -9.564  -9.257  1.00  0.00     0.048 A 
ATOM     10  C   UNL     1     -35.286 -10.556  -9.032  1.00  0.00     0.138 A 
ATOM     11  O   UNL     1     -35.424 -11.549  -9.905  1.00  0.00    -0.456 OA
ENDROOT
BRANCH   1  12
ATOM     12  C   UNL     1     -36.365 -13.590 -10.825  1.00  0.00     0.017 A 
ATOM     13  C   UNL     1     -36.428 -15.651 -12.753  1.00  0.00     0.000 A 
ATOM     14  C   UNL     1     -36.034 -15.930 -11.446  1.00  0.00     0.001 A 
ATOM     15  C   UNL     1     -36.791 -14.351 -13.108  1.00  0.00     0.001 A 
ATOM     16  C   UNL     1     -36.002 -14.912 -10.488  1.00  0.00     0.012 A 
ATOM     17  C   UNL     1     -36.761 -13.326 -12.156  1.00  0.00     0.012 A 
ENDBRANCH   1  12
TORSDOF 1
ENDMDL
MODEL 9
REMARK VINA RESULT:    -5.634      1.660      6.434
REMARK INTER + INTRA:          -6.228
REMARK INTER:                  -5.962
REMARK INTRA:                  -0.266
REMARK UNBOUND:                -0.265
REMARK SMILES O=c1cc(-c2ccccc2)oc2ccccc12
REMARK SMILES IDX 4 1 3 2 2 3 1 4 17 5 16 6 15 7 14 8 13 9 12 10 11 11 5 12
REMARK SMILES IDX 8 13 7 14 9 15 6 16 10 17
REMARK H PARENT
REMARK Flexibility Score: inf
ROOT
ATOM      1  C   UNL     1     -36.749 -13.051  -7.833  1.00  0.00     0.138 A 
ATOM      2  C   UNL     1     -37.889 -13.491  -7.129  1.00  0.00     0.100 A 
ATOM      3  C   UNL     1     -38.228 -14.846  -7.147  1.00  0.00     0.193 A 
ATOM      4  O   UNL     1     -39.247 -15.240  -6.516  1.00  0.00    -0.289 OA
ATOM      5  C   UNL     1     -37.431 -15.749  -7.863  1.00  0.00     0.065 A 
ATOM      6  C   UNL     1     -37.716 -17.125  -7.922  1.00  0.00     0.016 A 
ATOM      7  C   UNL     1     -36.886 -17.982  -8.652  1.00  0.00     0.001 A 
ATOM      8  C   UNL     1     -35.772 -17.474  -9.326  1.00  0.00     0.004 A 
ATOM      9  C   UNL     1     -35.481 -16.108  -9.274  1.00  0.00     0.048 A 
ATOM     10  C   UNL     1     -36.304 -15.242  -8.546  1.00  0.00     0.138 A 
ATOM     11  O   UNL     1     -36.019 -13.944  -8.502  1.00  0.00    -0.456 OA
ENDROOT
BRANCH   1  12
ATOM     12  C   UNL     1     -36.317 -11.619  -7.867  1.00  0.00     0.017 A 
ATOM     13  C   UNL     1     -35.578  -8.895  -7.871  1.00  0.00     0.000 A 
ATOM     14  C   UNL     1     -36.692  -9.315  -7.147  1.00  0.00     0.001 A 
ATOM     15  C   UNL     1     -34.828  -9.823  -8.594  1.00  0.00     0.001 A 
ATOM     16  C   UNL     1     -37.061 -10.663  -7.142  1.00  0.00     0.012 A 
ATOM     17  C   UNL     1     -35.190 -11.175  -8.595  1.00  0.00     0.012 A 
ENDBRANCH   1  12
TORSDOF 1
ENDMDL
