MODEL 1
REMARK VINA RESULT:    -5.201      0.000      0.000
REMARK INTER + INTRA:         -10.364
REMARK INTER:                  -9.154
REMARK INTRA:                  -1.210
REMARK UNBOUND:                -1.210
REMARK SMILES CCCCCCCCCCCCCCC(=O)[O-]
REMARK SMILES IDX 9 1 10 2 11 3 12 4 13 5 14 6 15 7 16 8 17 9 8 10 7 11 6 12
REMARK SMILES IDX 5 13 4 14 3 15 2 16 1 17
REMARK H PARENT
REMARK Flexibility Score: inf
ROOT
ATOM      1  C   UNL     1      22.242  59.399  37.409  1.00  0.00     0.000 C 
ENDROOT
BRANCH   1   2
ATOM      2  C   UNL     1      22.898  60.494  38.268  1.00  0.00     0.000 C 
BRANCH   2   3
ATOM      3  C   UNL     1      22.536  60.387  39.757  1.00  0.00     0.000 C 
BRANCH   3   4
ATOM      4  C   UNL     1      22.479  58.923  40.206  1.00  0.00     0.000 C 
BRANCH   4   5
ATOM      5  C   UNL     1      21.179  58.630  40.969  1.00  0.00     0.006 C 
BRANCH   5   6
ATOM      6  C   UNL     1      20.045  58.185  40.037  1.00  0.00     0.053 C 
BRANCH   6   7
ATOM      7  C   UNL     1      20.105  56.716  39.749  1.00  0.00     0.041 C 
ATOM      8  O   UNL     1      19.622  55.890  40.567  1.00  0.00    -0.550 OA
ATOM      9  O   UNL     1      20.722  56.258  38.592  1.00  0.00    -0.550 OA
ENDBRANCH   6   7
ENDBRANCH   5   6
ENDBRANCH   4   5
ENDBRANCH   3   4
ENDBRANCH   2   3
ENDBRANCH   1   2
BRANCH   1  10
ATOM     10  C   UNL     1      22.865  59.195  36.014  1.00  0.00     0.000 C 
BRANCH  10  11
ATOM     11  C   UNL     1      22.257  58.005  35.254  1.00  0.00    -0.000 C 
BRANCH  11  12
ATOM     12  C   UNL     1      21.203  58.431  34.215  1.00  0.00    -0.000 C 
BRANCH  12  13
ATOM     13  C   UNL     1      21.061  57.494  33.001  1.00  0.00    -0.000 C 
BRANCH  13  14
ATOM     14  C   UNL     1      22.308  56.631  32.759  1.00  0.00    -0.000 C 
BRANCH  14  15
ATOM     15  C   UNL     1      23.244  57.294  31.737  1.00  0.00    -0.000 C 
BRANCH  15  16
ATOM     16  C   UNL     1      24.614  57.647  32.333  1.00  0.00    -0.003 C 
ATOM     17  C   UNL     1      24.722  59.117  32.737  1.00  0.00     0.004 C 
ENDBRANCH  15  16
ENDBRANCH  14  15
ENDBRANCH  13  14
ENDBRANCH  12  13
ENDBRANCH  11  12
ENDBRANCH  10  11
ENDBRANCH   1  10
TORSDOF 13
ENDMDL
MODEL 2
REMARK VINA RESULT:    -5.147     12.142     15.062
REMARK INTER + INTRA:         -10.268
REMARK INTER:                  -8.561
REMARK INTRA:                  -1.706
REMARK UNBOUND:                -1.210
REMARK SMILES CCCCCCCCCCCCCCC(=O)[O-]
REMARK SMILES IDX 9 1 10 2 11 3 12 4 13 5 14 6 15 7 16 8 17 9 8 10 7 11 6 12
REMARK SMILES IDX 5 13 4 14 3 15 2 16 1 17
REMARK H PARENT
REMARK Flexibility Score: inf
ROOT
ATOM      1  C   UNL     1      33.235  56.618  26.232  1.00  0.00     0.000 C 
ENDROOT
BRANCH   1   2
ATOM      2  C   UNL     1      34.741  56.888  26.065  1.00  0.00     0.000 C 
BRANCH   2   3
ATOM      3  C   UNL     1      35.550  56.589  27.337  1.00  0.00     0.000 C 
BRANCH   3   4
ATOM      4  C   UNL     1      35.499  57.770  28.312  1.00  0.00     0.000 C 
BRANCH   4   5
ATOM      5  C   UNL     1      35.914  57.337  29.726  1.00  0.00     0.006 C 
BRANCH   5   6
ATOM      6  C   UNL     1      35.223  58.168  30.815  1.00  0.00     0.053 C 
BRANCH   6   7
ATOM      7  C   UNL     1      35.529  57.654  32.187  1.00  0.00     0.041 C 
ATOM      8  O   UNL     1      35.408  58.407  33.188  1.00  0.00    -0.550 OA
ATOM      9  O   UNL     1      35.979  56.350  32.357  1.00  0.00    -0.550 OA
ENDBRANCH   6   7
ENDBRANCH   5   6
ENDBRANCH   4   5
ENDBRANCH   3   4
ENDBRANCH   2   3
ENDBRANCH   1   2
BRANCH   1  10
ATOM     10  C   UNL     1      32.810  55.145  26.084  1.00  0.00     0.000 C 
BRANCH  10  11
ATOM     11  C   UNL     1      31.949  54.649  27.257  1.00  0.00    -0.000 C 
BRANCH  11  12
ATOM     12  C   UNL     1      32.555  53.428  27.973  1.00  0.00    -0.000 C 
BRANCH  12  13
ATOM     13  C   UNL     1      33.394  53.749  29.224  1.00  0.00    -0.000 C 
BRANCH  13  14
ATOM     14  C   UNL     1      33.014  55.088  29.875  1.00  0.00    -0.000 C 
BRANCH  14  15
ATOM     15  C   UNL     1      32.934  54.952  31.403  1.00  0.00    -0.000 C 
BRANCH  15  16
ATOM     16  C   UNL     1      32.271  56.165  32.071  1.00  0.00    -0.003 C 
ATOM     17  C   UNL     1      32.540  56.233  33.573  1.00  0.00     0.004 C 
ENDBRANCH  15  16
ENDBRANCH  14  15
ENDBRANCH  13  14
ENDBRANCH  12  13
ENDBRANCH  11  12
ENDBRANCH  10  11
ENDBRANCH   1  10
TORSDOF 13
ENDMDL
MODEL 3
REMARK VINA RESULT:    -5.088      2.559      6.651
REMARK INTER + INTRA:         -10.164
REMARK INTER:                  -8.811
REMARK INTRA:                  -1.353
REMARK UNBOUND:                -1.210
REMARK SMILES CCCCCCCCCCCCCCC(=O)[O-]
REMARK SMILES IDX 9 1 10 2 11 3 12 4 13 5 14 6 15 7 16 8 17 9 8 10 7 11 6 12
REMARK SMILES IDX 5 13 4 14 3 15 2 16 1 17
REMARK H PARENT
REMARK Flexibility Score: inf
ROOT
ATOM      1  C   UNL     1      22.873  58.046  35.400  1.00  0.00     0.000 C 
ENDROOT
BRANCH   1   2
ATOM      2  C   UNL     1      23.996  58.897  34.779  1.00  0.00     0.000 C 
BRANCH   2   3
ATOM      3  C   UNL     1      23.837  59.088  33.263  1.00  0.00     0.000 C 
BRANCH   3   4
ATOM      4  C   UNL     1      24.710  58.095  32.488  1.00  0.00     0.000 C 
BRANCH   4   5
ATOM      5  C   UNL     1      23.988  56.753  32.302  1.00  0.00     0.006 C 
BRANCH   5   6
ATOM      6  C   UNL     1      22.565  56.930  31.755  1.00  0.00     0.053 C 
BRANCH   6   7
ATOM      7  C   UNL     1      21.534  56.387  32.696  1.00  0.00     0.041 C 
ATOM      8  O   UNL     1      21.670  55.238  33.190  1.00  0.00    -0.550 OA
ATOM      9  O   UNL     1      20.407  57.140  33.003  1.00  0.00    -0.550 OA
ENDBRANCH   6   7
ENDBRANCH   5   6
ENDBRANCH   4   5
ENDBRANCH   3   4
ENDBRANCH   2   3
ENDBRANCH   1   2
BRANCH   1  10
ATOM     10  C   UNL     1      21.943  58.795  36.373  1.00  0.00     0.000 C 
BRANCH  10  11
ATOM     11  C   UNL     1      22.707  59.660  37.388  1.00  0.00    -0.000 C 
BRANCH  11  12
ATOM     12  C   UNL     1      21.847  60.066  38.600  1.00  0.00    -0.000 C 
BRANCH  12  13
ATOM     13  C   UNL     1      20.397  59.548  38.580  1.00  0.00    -0.000 C 
BRANCH  13  14
ATOM     14  C   UNL     1      20.068  58.636  39.772  1.00  0.00    -0.000 C 
BRANCH  14  15
ATOM     15  C   UNL     1      20.205  57.156  39.383  1.00  0.00    -0.000 C 
BRANCH  15  16
ATOM     16  C   UNL     1      21.484  56.515  39.940  1.00  0.00    -0.003 C 
ATOM     17  C   UNL     1      22.468  56.110  38.843  1.00  0.00     0.004 C 
ENDBRANCH  15  16
ENDBRANCH  14  15
ENDBRANCH  13  14
ENDBRANCH  12  13
ENDBRANCH  11  12
ENDBRANCH  10  11
ENDBRANCH   1  10
TORSDOF 13
ENDMDL
MODEL 4
REMARK VINA RESULT:    -5.083     11.891     14.789
REMARK INTER + INTRA:         -10.156
REMARK INTER:                  -8.805
REMARK INTRA:                  -1.351
REMARK UNBOUND:                -1.210
REMARK SMILES CCCCCCCCCCCCCCC(=O)[O-]
REMARK SMILES IDX 9 1 10 2 11 3 12 4 13 5 14 6 15 7 16 8 17 9 8 10 7 11 6 12
REMARK SMILES IDX 5 13 4 14 3 15 2 16 1 17
REMARK H PARENT
REMARK Flexibility Score: inf
ROOT
ATOM      1  C   UNL     1      35.640  58.108  30.233  1.00  0.00     0.000 C 
ENDROOT
BRANCH   1   2
ATOM      2  C   UNL     1      35.779  57.134  29.049  1.00  0.00     0.000 C 
BRANCH   2   3
ATOM      3  C   UNL     1      35.666  57.828  27.683  1.00  0.00     0.000 C 
BRANCH   3   4
ATOM      4  C   UNL     1      34.970  56.921  26.661  1.00  0.00     0.000 C 
BRANCH   4   5
ATOM      5  C   UNL     1      33.901  56.049  27.335  1.00  0.00     0.006 C 
BRANCH   5   6
ATOM      6  C   UNL     1      32.533  56.176  26.652  1.00  0.00     0.053 C 
BRANCH   6   7
ATOM      7  C   UNL     1      31.491  55.345  27.335  1.00  0.00     0.041 C 
ATOM      8  O   UNL     1      30.337  55.810  27.530  1.00  0.00    -0.550 OA
ATOM      9  O   UNL     1      31.803  54.067  27.783  1.00  0.00    -0.550 OA
ENDBRANCH   6   7
ENDBRANCH   5   6
ENDBRANCH   4   5
ENDBRANCH   3   4
ENDBRANCH   2   3
ENDBRANCH   1   2
BRANCH   1  10
ATOM     10  C   UNL     1      34.673  57.658  31.345  1.00  0.00     0.000 C 
BRANCH  10  11
ATOM     11  C   UNL     1      34.212  56.200  31.185  1.00  0.00    -0.000 C 
BRANCH  11  12
ATOM     12  C   UNL     1      32.729  55.996  31.546  1.00  0.00    -0.000 C 
BRANCH  12  13
ATOM     13  C   UNL     1      32.293  56.593  32.898  1.00  0.00    -0.000 C 
BRANCH  13  14
ATOM     14  C   UNL     1      32.433  55.604  34.065  1.00  0.00    -0.000 C 
BRANCH  14  15
ATOM     15  C   UNL     1      33.699  55.896  34.883  1.00  0.00    -0.000 C 
BRANCH  15  16
ATOM     16  C   UNL     1      34.077  57.385  34.877  1.00  0.00    -0.003 C 
ATOM     17  C   UNL     1      35.587  57.612  34.919  1.00  0.00     0.004 C 
ENDBRANCH  15  16
ENDBRANCH  14  15
ENDBRANCH  13  14
ENDBRANCH  12  13
ENDBRANCH  11  12
ENDBRANCH  10  11
ENDBRANCH   1  10
TORSDOF 13
ENDMDL
MODEL 5
REMARK VINA RESULT:    -5.082     11.884     15.164
REMARK INTER + INTRA:         -10.154
REMARK INTER:                  -8.742
REMARK INTRA:                  -1.412
REMARK UNBOUND:                -1.210
REMARK SMILES CCCCCCCCCCCCCCC(=O)[O-]
REMARK SMILES IDX 9 1 10 2 11 3 12 4 13 5 14 6 15 7 16 8 17 9 8 10 7 11 6 12
REMARK SMILES IDX 5 13 4 14 3 15 2 16 1 17
REMARK H PARENT
REMARK Flexibility Score: inf
ROOT
ATOM      1  C   UNL     1      35.641  57.793  28.098  1.00  0.00     0.000 C 
ENDROOT
BRANCH   1   2
ATOM      2  C   UNL     1      35.529  56.705  27.016  1.00  0.00     0.000 C 
BRANCH   2   3
ATOM      3  C   UNL     1      34.480  57.030  25.941  1.00  0.00     0.000 C 
BRANCH   3   4
ATOM      4  C   UNL     1      33.361  55.983  25.930  1.00  0.00     0.000 C 
BRANCH   4   5
ATOM      5  C   UNL     1      32.747  55.816  27.328  1.00  0.00     0.006 C 
BRANCH   5   6
ATOM      6  C   UNL     1      31.881  54.555  27.436  1.00  0.00     0.053 C 
BRANCH   6   7
ATOM      7  C   UNL     1      32.589  53.453  28.163  1.00  0.00     0.041 C 
ATOM      8  O   UNL     1      33.831  53.516  28.354  1.00  0.00    -0.550 OA
ATOM      9  O   UNL     1      31.880  52.341  28.602  1.00  0.00    -0.550 OA
ENDBRANCH   6   7
ENDBRANCH   5   6
ENDBRANCH   4   5
ENDBRANCH   3   4
ENDBRANCH   2   3
ENDBRANCH   1   2
BRANCH   1  10
ATOM     10  C   UNL     1      36.067  57.294  29.492  1.00  0.00     0.000 C 
BRANCH  10  11
ATOM     11  C   UNL     1      35.492  58.146  30.635  1.00  0.00    -0.000 C 
BRANCH  11  12
ATOM     12  C   UNL     1      34.379  57.426  31.420  1.00  0.00    -0.000 C 
BRANCH  12  13
ATOM     13  C   UNL     1      33.943  56.066  30.844  1.00  0.00    -0.000 C 
BRANCH  13  14
ATOM     14  C   UNL     1      32.601  55.576  31.409  1.00  0.00    -0.000 C 
BRANCH  14  15
ATOM     15  C   UNL     1      32.732  54.156  31.979  1.00  0.00    -0.000 C 
BRANCH  15  16
ATOM     16  C   UNL     1      32.580  54.116  33.507  1.00  0.00    -0.003 C 
ATOM     17  C   UNL     1      32.054  55.430  34.083  1.00  0.00     0.004 C 
ENDBRANCH  15  16
ENDBRANCH  14  15
ENDBRANCH  13  14
ENDBRANCH  12  13
ENDBRANCH  11  12
ENDBRANCH  10  11
ENDBRANCH   1  10
TORSDOF 13
ENDMDL
MODEL 6
REMARK VINA RESULT:    -5.017     11.687     14.090
REMARK INTER + INTRA:         -10.040
REMARK INTER:                  -8.377
REMARK INTRA:                  -1.662
REMARK UNBOUND:                -1.210
REMARK SMILES CCCCCCCCCCCCCCC(=O)[O-]
REMARK SMILES IDX 9 1 10 2 11 3 12 4 13 5 14 6 15 7 16 8 17 9 8 10 7 11 6 12
REMARK SMILES IDX 5 13 4 14 3 15 2 16 1 17
REMARK H PARENT
REMARK Flexibility Score: inf
ROOT
ATOM      1  C   UNL     1      32.642  53.940  27.829  1.00  0.00     0.000 C 
ENDROOT
BRANCH   1   2
ATOM      2  C   UNL     1      33.404  53.603  29.123  1.00  0.00     0.000 C 
BRANCH   2   3
ATOM      3  C   UNL     1      32.552  52.829  30.139  1.00  0.00     0.000 C 
BRANCH   3   4
ATOM      4  C   UNL     1      32.756  53.373  31.558  1.00  0.00     0.000 C 
BRANCH   4   5
ATOM      5  C   UNL     1      33.354  54.787  31.524  1.00  0.00     0.006 C 
BRANCH   5   6
ATOM      6  C   UNL     1      32.374  55.845  32.049  1.00  0.00     0.053 C 
BRANCH   6   7
ATOM      7  C   UNL     1      32.614  56.158  33.494  1.00  0.00     0.041 C 
ATOM      8  O   UNL     1      33.461  57.029  33.822  1.00  0.00    -0.550 OA
ATOM      9  O   UNL     1      31.923  55.465  34.480  1.00  0.00    -0.550 OA
ENDBRANCH   6   7
ENDBRANCH   5   6
ENDBRANCH   4   5
ENDBRANCH   3   4
ENDBRANCH   2   3
ENDBRANCH   1   2
BRANCH   1  10
ATOM     10  C   UNL     1      31.866  55.270  27.849  1.00  0.00     0.000 C 
BRANCH  10  11
ATOM     11  C   UNL     1      32.112  56.127  26.597  1.00  0.00    -0.000 C 
BRANCH  11  12
ATOM     12  C   UNL     1      33.540  55.976  26.037  1.00  0.00    -0.000 C 
BRANCH  12  13
ATOM     13  C   UNL     1      34.515  57.109  26.410  1.00  0.00    -0.000 C 
BRANCH  13  14
ATOM     14  C   UNL     1      35.631  56.652  27.361  1.00  0.00    -0.000 C 
BRANCH  14  15
ATOM     15  C   UNL     1      35.832  57.666  28.497  1.00  0.00    -0.000 C 
BRANCH  15  16
ATOM     16  C   UNL     1      34.898  57.410  29.690  1.00  0.00    -0.003 C 
ATOM     17  C   UNL     1      35.246  58.267  30.907  1.00  0.00     0.004 C 
ENDBRANCH  15  16
ENDBRANCH  14  15
ENDBRANCH  13  14
ENDBRANCH  12  13
ENDBRANCH  11  12
ENDBRANCH  10  11
ENDBRANCH   1  10
TORSDOF 13
ENDMDL
MODEL 7
REMARK VINA RESULT:    -5.014     11.551     13.778
REMARK INTER + INTRA:         -10.033
REMARK INTER:                  -8.462
REMARK INTRA:                  -1.572
REMARK UNBOUND:                -1.210
REMARK SMILES CCCCCCCCCCCCCCC(=O)[O-]
REMARK SMILES IDX 9 1 10 2 11 3 12 4 13 5 14 6 15 7 16 8 17 9 8 10 7 11 6 12
REMARK SMILES IDX 5 13 4 14 3 15 2 16 1 17
REMARK H PARENT
REMARK Flexibility Score: inf
ROOT
ATOM      1  C   UNL     1      35.207  57.096  29.114  1.00  0.00     0.000 C 
ENDROOT
BRANCH   1   2
ATOM      2  C   UNL     1      35.284  57.956  30.388  1.00  0.00     0.000 C 
BRANCH   2   3
ATOM      3  C   UNL     1      34.678  57.264  31.618  1.00  0.00     0.000 C 
BRANCH   3   4
ATOM      4  C   UNL     1      34.138  55.875  31.258  1.00  0.00     0.000 C 
BRANCH   4   5
ATOM      5  C   UNL     1      32.633  55.776  31.548  1.00  0.00     0.006 C 
BRANCH   5   6
ATOM      6  C   UNL     1      32.279  56.270  32.957  1.00  0.00     0.053 C 
BRANCH   6   7
ATOM      7  C   UNL     1      32.272  55.152  33.954  1.00  0.00     0.041 C 
ATOM      8  O   UNL     1      31.885  54.004  33.615  1.00  0.00    -0.550 OA
ATOM      9  O   UNL     1      32.665  55.387  35.265  1.00  0.00    -0.550 OA
ENDBRANCH   6   7
ENDBRANCH   5   6
ENDBRANCH   4   5
ENDBRANCH   3   4
ENDBRANCH   2   3
ENDBRANCH   1   2
BRANCH   1  10
ATOM     10  C   UNL     1      35.746  57.764  27.835  1.00  0.00     0.000 C 
BRANCH  10  11
ATOM     11  C   UNL     1      34.811  57.589  26.627  1.00  0.00    -0.000 C 
BRANCH  11  12
ATOM     12  C   UNL     1      34.110  56.218  26.604  1.00  0.00    -0.000 C 
BRANCH  12  13
ATOM     13  C   UNL     1      32.574  56.263  26.719  1.00  0.00    -0.000 C 
BRANCH  13  14
ATOM     14  C   UNL     1      31.997  55.095  27.533  1.00  0.00    -0.000 C 
BRANCH  14  15
ATOM     15  C   UNL     1      33.119  54.187  28.059  1.00  0.00    -0.000 C 
BRANCH  15  16
ATOM     16  C   UNL     1      32.585  52.880  28.664  1.00  0.00    -0.003 C 
ATOM     17  C   UNL     1      33.381  52.429  29.889  1.00  0.00     0.004 C 
ENDBRANCH  15  16
ENDBRANCH  14  15
ENDBRANCH  13  14
ENDBRANCH  12  13
ENDBRANCH  11  12
ENDBRANCH  10  11
ENDBRANCH   1  10
TORSDOF 13
ENDMDL
MODEL 8
REMARK VINA RESULT:    -4.911     12.205     14.929
REMARK INTER + INTRA:          -9.853
REMARK INTER:                  -8.581
REMARK INTRA:                  -1.273
REMARK UNBOUND:                -1.210
REMARK SMILES CCCCCCCCCCCCCCC(=O)[O-]
REMARK SMILES IDX 9 1 10 2 11 3 12 4 13 5 14 6 15 7 16 8 17 9 8 10 7 11 6 12
REMARK SMILES IDX 5 13 4 14 3 15 2 16 1 17
REMARK H PARENT
REMARK Flexibility Score: inf
ROOT
ATOM      1  C   UNL     1      35.261  57.278  30.104  1.00  0.00     0.000 C 
ENDROOT
BRANCH   1   2
ATOM      2  C   UNL     1      36.164  57.768  28.958  1.00  0.00     0.000 C 
BRANCH   2   3
ATOM      3  C   UNL     1      35.559  57.524  27.568  1.00  0.00     0.000 C 
BRANCH   3   4
ATOM      4  C   UNL     1      34.610  56.319  27.585  1.00  0.00     0.000 C 
BRANCH   4   5
ATOM      5  C   UNL     1      33.469  56.502  26.574  1.00  0.00     0.006 C 
BRANCH   5   6
ATOM      6  C   UNL     1      32.846  55.164  26.153  1.00  0.00     0.053 C 
BRANCH   6   7
ATOM      7  C   UNL     1      31.447  55.016  26.665  1.00  0.00     0.041 C 
ATOM      8  O   UNL     1      30.959  55.882  27.436  1.00  0.00    -0.550 OA
ATOM      9  O   UNL     1      30.692  53.903  26.315  1.00  0.00    -0.550 OA
ENDBRANCH   6   7
ENDBRANCH   5   6
ENDBRANCH   4   5
ENDBRANCH   3   4
ENDBRANCH   2   3
ENDBRANCH   1   2
BRANCH   1  10
ATOM     10  C   UNL     1      35.258  58.163  31.365  1.00  0.00     0.000 C 
BRANCH  10  11
ATOM     11  C   UNL     1      35.279  57.349  32.668  1.00  0.00    -0.000 C 
BRANCH  11  12
ATOM     12  C   UNL     1      33.895  57.250  33.338  1.00  0.00    -0.000 C 
BRANCH  12  13
ATOM     13  C   UNL     1      33.546  55.870  33.926  1.00  0.00    -0.000 C 
BRANCH  13  14
ATOM     14  C   UNL     1      32.287  55.250  33.302  1.00  0.00    -0.000 C 
BRANCH  14  15
ATOM     15  C   UNL     1      32.659  54.168  32.277  1.00  0.00    -0.000 C 
BRANCH  15  16
ATOM     16  C   UNL     1      33.022  54.754  30.905  1.00  0.00    -0.003 C 
ATOM     17  C   UNL     1      33.014  53.704  29.794  1.00  0.00     0.004 C 
ENDBRANCH  15  16
ENDBRANCH  14  15
ENDBRANCH  13  14
ENDBRANCH  12  13
ENDBRANCH  11  12
ENDBRANCH  10  11
ENDBRANCH   1  10
TORSDOF 13
ENDMDL
MODEL 9
REMARK VINA RESULT:    -4.900     12.805     15.145
REMARK INTER + INTRA:          -9.834
REMARK INTER:                  -8.262
REMARK INTRA:                  -1.572
REMARK UNBOUND:                -1.210
REMARK SMILES CCCCCCCCCCCCCCC(=O)[O-]
REMARK SMILES IDX 9 1 10 2 11 3 12 4 13 5 14 6 15 7 16 8 17 9 8 10 7 11 6 12
REMARK SMILES IDX 5 13 4 14 3 15 2 16 1 17
REMARK H PARENT
REMARK Flexibility Score: inf
ROOT
ATOM      1  C   UNL     1      35.782  58.107  29.785  1.00  0.00     0.000 C 
ENDROOT
BRANCH   1   2
ATOM      2  C   UNL     1      36.059  57.870  28.290  1.00  0.00     0.000 C 
BRANCH   2   3
ATOM      3  C   UNL     1      35.380  56.605  27.745  1.00  0.00     0.000 C 
BRANCH   3   4
ATOM      4  C   UNL     1      34.385  56.950  26.631  1.00  0.00     0.000 C 
BRANCH   4   5
ATOM      5  C   UNL     1      33.257  55.911  26.557  1.00  0.00     0.006 C 
BRANCH   5   6
ATOM      6  C   UNL     1      32.938  55.301  27.929  1.00  0.00     0.053 C 
BRANCH   6   7
ATOM      7  C   UNL     1      32.704  53.824  27.841  1.00  0.00     0.041 C 
ATOM      8  O   UNL     1      31.663  53.380  27.290  1.00  0.00    -0.550 OA
ATOM      9  O   UNL     1      33.620  52.940  28.396  1.00  0.00    -0.550 OA
ENDBRANCH   6   7
ENDBRANCH   5   6
ENDBRANCH   4   5
ENDBRANCH   3   4
ENDBRANCH   2   3
ENDBRANCH   1   2
BRANCH   1  10
ATOM     10  C   UNL     1      35.061  56.955  30.511  1.00  0.00     0.000 C 
BRANCH  10  11
ATOM     11  C   UNL     1      34.725  57.286  31.974  1.00  0.00    -0.000 C 
BRANCH  11  12
ATOM     12  C   UNL     1      33.245  57.037  32.321  1.00  0.00    -0.000 C 
BRANCH  12  13
ATOM     13  C   UNL     1      32.586  55.858  31.581  1.00  0.00    -0.000 C 
BRANCH  13  14
ATOM     14  C   UNL     1      32.608  54.552  32.391  1.00  0.00    -0.000 C 
BRANCH  14  15
ATOM     15  C   UNL     1      33.691  53.599  31.863  1.00  0.00    -0.000 C 
BRANCH  15  16
ATOM     16  C   UNL     1      34.632  53.103  32.971  1.00  0.00    -0.003 C 
ATOM     17  C   UNL     1      34.892  54.161  34.043  1.00  0.00     0.004 C 
ENDBRANCH  15  16
ENDBRANCH  14  15
ENDBRANCH  13  14
ENDBRANCH  12  13
ENDBRANCH  11  12
ENDBRANCH  10  11
ENDBRANCH   1  10
TORSDOF 13
ENDMDL
