MODEL 1
REMARK VINA RESULT:    -4.605      0.000      0.000
REMARK INTER + INTRA:          -4.970
REMARK INTER:                  -4.874
REMARK INTRA:                  -0.096
REMARK UNBOUND:                -0.096
REMARK SMILES C=C(C)[C@H]1CC=C(C)C(=O)C1
REMARK SMILES IDX 8 1 7 2 6 3 5 4 4 5 11 6 9 7 10 8 2 9 1 10 3 11
REMARK H PARENT
REMARK Flexibility Score: inf
ROOT
ATOM      1  C   UNL     1      19.117  13.464  53.125  1.00  0.00     0.048 C 
ATOM      2  C   UNL     1      18.261  12.521  52.324  1.00  0.00    -0.012 C 
ATOM      3  C   UNL     1      18.037  11.272  52.767  1.00  0.00    -0.019 C 
ATOM      4  C   UNL     1      17.255  10.267  51.962  1.00  0.00     0.036 C 
ATOM      5  C   UNL     1      16.193  10.959  51.088  1.00  0.00     0.025 C 
ATOM      6  C   UNL     1      16.846  12.035  50.201  1.00  0.00     0.089 C 
ATOM      7  C   UNL     1      17.687  12.967  51.030  1.00  0.00     0.158 C 
ATOM      8  O   UNL     1      17.938  14.121  50.592  1.00  0.00    -0.295 OA
ENDROOT
BRANCH   5   9
ATOM      9  C   UNL     1      15.413   9.951  50.255  1.00  0.00    -0.077 C 
ATOM     10  C   UNL     1      16.052   9.172  49.368  1.00  0.00     0.008 C 
ATOM     11  C   UNL     1      13.919   9.800  50.401  1.00  0.00     0.039 C 
ENDBRANCH   5   9
TORSDOF 1
ENDMDL
MODEL 2
REMARK VINA RESULT:    -4.521     17.350     18.729
REMARK INTER + INTRA:          -4.882
REMARK INTER:                  -4.785
REMARK INTRA:                  -0.096
REMARK UNBOUND:                -0.096
REMARK SMILES C=C(C)[C@H]1CC=C(C)C(=O)C1
REMARK SMILES IDX 8 1 7 2 6 3 5 4 4 5 11 6 9 7 10 8 2 9 1 10 3 11
REMARK H PARENT
REMARK Flexibility Score: inf
ROOT
ATOM      1  C   UNL     1      19.125  21.594  33.286  1.00  0.00     0.048 C 
ATOM      2  C   UNL     1      18.331  21.910  34.524  1.00  0.00    -0.012 C 
ATOM      3  C   UNL     1      17.598  23.035  34.586  1.00  0.00    -0.019 C 
ATOM      4  C   UNL     1      16.851  23.436  35.831  1.00  0.00     0.036 C 
ATOM      5  C   UNL     1      16.404  22.200  36.633  1.00  0.00     0.025 C 
ATOM      6  C   UNL     1      17.611  21.295  36.942  1.00  0.00     0.089 C 
ATOM      7  C   UNL     1      18.380  20.989  35.686  1.00  0.00     0.158 C 
ATOM      8  O   UNL     1      19.105  19.959  35.646  1.00  0.00    -0.295 OA
ENDROOT
BRANCH   5   9
ATOM      9  C   UNL     1      15.667  22.596  37.905  1.00  0.00    -0.077 C 
ATOM     10  C   UNL     1      15.292  21.656  38.787  1.00  0.00     0.008 C 
ATOM     11  C   UNL     1      15.343  24.038  38.209  1.00  0.00     0.039 C 
ENDBRANCH   5   9
TORSDOF 1
ENDMDL
MODEL 3
REMARK VINA RESULT:    -4.471      1.447      2.085
REMARK INTER + INTRA:          -4.829
REMARK INTER:                  -4.742
REMARK INTRA:                  -0.087
REMARK UNBOUND:                -0.096
REMARK SMILES C=C(C)[C@H]1CC=C(C)C(=O)C1
REMARK SMILES IDX 8 1 7 2 6 3 5 4 4 5 11 6 9 7 10 8 2 9 1 10 3 11
REMARK H PARENT
REMARK Flexibility Score: inf
ROOT
ATOM      1  C   UNL     1      19.118  13.541  51.994  1.00  0.00     0.048 C 
ATOM      2  C   UNL     1      18.088  12.576  51.473  1.00  0.00    -0.012 C 
ATOM      3  C   UNL     1      17.304  12.921  50.437  1.00  0.00    -0.019 C 
ATOM      4  C   UNL     1      16.206  12.022  49.932  1.00  0.00     0.036 C 
ATOM      5  C   UNL     1      16.556  10.539  50.151  1.00  0.00     0.025 C 
ATOM      6  C   UNL     1      16.887  10.279  51.633  1.00  0.00     0.089 C 
ATOM      7  C   UNL     1      17.925  11.252  52.123  1.00  0.00     0.158 C 
ATOM      8  O   UNL     1      18.627  10.948  53.124  1.00  0.00    -0.295 OA
ENDROOT
BRANCH   5   9
ATOM      9  C   UNL     1      15.441   9.624  49.663  1.00  0.00    -0.077 C 
ATOM     10  C   UNL     1      15.668   8.762  48.659  1.00  0.00     0.008 C 
ATOM     11  C   UNL     1      14.067   9.658  50.285  1.00  0.00     0.039 C 
ENDBRANCH   5   9
TORSDOF 1
ENDMDL
MODEL 4
REMARK VINA RESULT:    -4.450     17.559     18.877
REMARK INTER + INTRA:          -4.807
REMARK INTER:                  -4.708
REMARK INTRA:                  -0.099
REMARK UNBOUND:                -0.096
REMARK SMILES C=C(C)[C@H]1CC=C(C)C(=O)C1
REMARK SMILES IDX 8 1 7 2 6 3 5 4 4 5 11 6 9 7 10 8 2 9 1 10 3 11
REMARK H PARENT
REMARK Flexibility Score: inf
ROOT
ATOM      1  C   UNL     1      15.394  21.347  38.890  1.00  0.00     0.048 C 
ATOM      2  C   UNL     1      16.258  21.691  37.708  1.00  0.00    -0.012 C 
ATOM      3  C   UNL     1      17.291  20.898  37.374  1.00  0.00    -0.019 C 
ATOM      4  C   UNL     1      18.232  21.243  36.250  1.00  0.00     0.036 C 
ATOM      5  C   UNL     1      17.515  22.049  35.151  1.00  0.00     0.025 C 
ATOM      6  C   UNL     1      16.844  23.297  35.753  1.00  0.00     0.089 C 
ATOM      7  C   UNL     1      15.981  22.921  36.927  1.00  0.00     0.158 C 
ATOM      8  O   UNL     1      15.042  23.690  37.269  1.00  0.00    -0.295 OA
ENDROOT
BRANCH   5   9
ATOM      9  C   UNL     1      18.465  22.419  34.021  1.00  0.00    -0.077 C 
ATOM     10  C   UNL     1      18.735  23.710  33.764  1.00  0.00     0.008 C 
ATOM     11  C   UNL     1      19.124  21.363  33.169  1.00  0.00     0.039 C 
ENDBRANCH   5   9
TORSDOF 1
ENDMDL
MODEL 5
REMARK VINA RESULT:    -4.401      1.581      4.300
REMARK INTER + INTRA:          -4.755
REMARK INTER:                  -4.659
REMARK INTRA:                  -0.096
REMARK UNBOUND:                -0.096
REMARK SMILES C=C(C)[C@H]1CC=C(C)C(=O)C1
REMARK SMILES IDX 8 1 7 2 6 3 5 4 4 5 11 6 9 7 10 8 2 9 1 10 3 11
REMARK H PARENT
REMARK Flexibility Score: inf
ROOT
ATOM      1  C   UNL     1      14.488   9.737  48.460  1.00  0.00     0.048 C 
ATOM      2  C   UNL     1      15.379  10.465  49.429  1.00  0.00    -0.012 C 
ATOM      3  C   UNL     1      15.719   9.890  50.596  1.00  0.00    -0.019 C 
ATOM      4  C   UNL     1      16.541  10.611  51.632  1.00  0.00     0.036 C 
ATOM      5  C   UNL     1      17.509  11.613  50.976  1.00  0.00     0.025 C 
ATOM      6  C   UNL     1      16.737  12.585  50.064  1.00  0.00     0.089 C 
ATOM      7  C   UNL     1      15.862  11.829  49.102  1.00  0.00     0.158 C 
ATOM      8  O   UNL     1      15.505  12.386  48.030  1.00  0.00    -0.295 OA
ENDROOT
BRANCH   5   9
ATOM      9  C   UNL     1      18.329  12.361  52.017  1.00  0.00    -0.077 C 
ATOM     10  C   UNL     1      18.750  11.728  53.125  1.00  0.00     0.008 C 
ATOM     11  C   UNL     1      18.691  13.814  51.838  1.00  0.00     0.039 C 
ENDBRANCH   5   9
TORSDOF 1
ENDMDL
MODEL 6
REMARK VINA RESULT:    -4.315     16.842     18.209
REMARK INTER + INTRA:          -4.664
REMARK INTER:                  -4.566
REMARK INTRA:                  -0.098
REMARK UNBOUND:                -0.096
REMARK SMILES C=C(C)[C@H]1CC=C(C)C(=O)C1
REMARK SMILES IDX 8 1 7 2 6 3 5 4 4 5 11 6 9 7 10 8 2 9 1 10 3 11
REMARK H PARENT
REMARK Flexibility Score: inf
ROOT
ATOM      1  C   UNL     1      14.464  23.283  38.841  1.00  0.00     0.048 C 
ATOM      2  C   UNL     1      15.431  22.715  37.839  1.00  0.00    -0.012 C 
ATOM      3  C   UNL     1      15.421  23.153  36.568  1.00  0.00    -0.019 C 
ATOM      4  C   UNL     1      16.314  22.558  35.511  1.00  0.00     0.036 C 
ATOM      5  C   UNL     1      17.631  22.043  36.120  1.00  0.00     0.025 C 
ATOM      6  C   UNL     1      17.342  21.054  37.264  1.00  0.00     0.089 C 
ATOM      7  C   UNL     1      16.380  21.652  38.253  1.00  0.00     0.158 C 
ATOM      8  O   UNL     1      16.357  21.208  39.432  1.00  0.00    -0.295 OA
ENDROOT
BRANCH   5   9
ATOM      9  C   UNL     1      18.531  21.421  35.061  1.00  0.00    -0.077 C 
ATOM     10  C   UNL     1      19.108  20.229  35.283  1.00  0.00     0.008 C 
ATOM     11  C   UNL     1      18.795  22.115  33.748  1.00  0.00     0.039 C 
ENDBRANCH   5   9
TORSDOF 1
ENDMDL
MODEL 7
REMARK VINA RESULT:    -4.295     17.116     18.446
REMARK INTER + INTRA:          -4.643
REMARK INTER:                  -4.547
REMARK INTRA:                  -0.096
REMARK UNBOUND:                -0.096
REMARK SMILES C=C(C)[C@H]1CC=C(C)C(=O)C1
REMARK SMILES IDX 8 1 7 2 6 3 5 4 4 5 11 6 9 7 10 8 2 9 1 10 3 11
REMARK H PARENT
REMARK Flexibility Score: inf
ROOT
ATOM      1  C   UNL     1      19.075  20.903  34.404  1.00  0.00     0.048 C 
ATOM      2  C   UNL     1      18.123  21.450  35.432  1.00  0.00    -0.012 C 
ATOM      3  C   UNL     1      17.851  20.744  36.543  1.00  0.00    -0.019 C 
ATOM      4  C   UNL     1      16.844  21.212  37.561  1.00  0.00     0.036 C 
ATOM      5  C   UNL     1      16.777  22.749  37.611  1.00  0.00     0.025 C 
ATOM      6  C   UNL     1      16.495  23.319  36.208  1.00  0.00     0.089 C 
ATOM      7  C   UNL     1      17.467  22.761  35.204  1.00  0.00     0.158 C 
ATOM      8  O   UNL     1      17.685  23.401  34.140  1.00  0.00    -0.295 OA
ENDROOT
BRANCH   5   9
ATOM      9  C   UNL     1      15.746  23.230  38.623  1.00  0.00    -0.077 C 
ATOM     10  C   UNL     1      15.526  22.528  39.746  1.00  0.00     0.008 C 
ATOM     11  C   UNL     1      14.953  24.494  38.397  1.00  0.00     0.039 C 
ENDBRANCH   5   9
TORSDOF 1
ENDMDL
MODEL 8
REMARK VINA RESULT:    -4.219     16.514     17.830
REMARK INTER + INTRA:          -4.562
REMARK INTER:                  -4.475
REMARK INTRA:                  -0.087
REMARK UNBOUND:                -0.096
REMARK SMILES C=C(C)[C@H]1CC=C(C)C(=O)C1
REMARK SMILES IDX 8 1 7 2 6 3 5 4 4 5 11 6 9 7 10 8 2 9 1 10 3 11
REMARK H PARENT
REMARK Flexibility Score: inf
ROOT
ATOM      1  C   UNL     1      19.124  21.608  33.118  1.00  0.00     0.048 C 
ATOM      2  C   UNL     1      18.725  21.147  34.493  1.00  0.00    -0.012 C 
ATOM      3  C   UNL     1      19.120  19.943  34.942  1.00  0.00    -0.019 C 
ATOM      4  C   UNL     1      18.680  19.405  36.278  1.00  0.00     0.036 C 
ATOM      5  C   UNL     1      18.442  20.544  37.286  1.00  0.00     0.025 C 
ATOM      6  C   UNL     1      17.445  21.568  36.712  1.00  0.00     0.089 C 
ATOM      7  C   UNL     1      17.874  22.016  35.342  1.00  0.00     0.158 C 
ATOM      8  O   UNL     1      17.464  23.124  34.903  1.00  0.00    -0.295 OA
ENDROOT
BRANCH   5   9
ATOM      9  C   UNL     1      17.976  20.009  38.633  1.00  0.00    -0.077 C 
ATOM     10  C   UNL     1      18.867  19.777  39.610  1.00  0.00     0.008 C 
ATOM     11  C   UNL     1      16.519  19.729  38.906  1.00  0.00     0.039 C 
ENDBRANCH   5   9
TORSDOF 1
ENDMDL
MODEL 9
REMARK VINA RESULT:    -4.009      2.041      4.598
REMARK INTER + INTRA:          -4.340
REMARK INTER:                  -4.242
REMARK INTRA:                  -0.098
REMARK UNBOUND:                -0.096
REMARK SMILES C=C(C)[C@H]1CC=C(C)C(=O)C1
REMARK SMILES IDX 8 1 7 2 6 3 5 4 4 5 11 6 9 7 10 8 2 9 1 10 3 11
REMARK H PARENT
REMARK Flexibility Score: inf
ROOT
ATOM      1  C   UNL     1      15.030  10.842  47.773  1.00  0.00     0.048 C 
ATOM      2  C   UNL     1      15.936  11.131  48.939  1.00  0.00    -0.012 C 
ATOM      3  C   UNL     1      16.987  11.956  48.788  1.00  0.00    -0.019 C 
ATOM      4  C   UNL     1      17.967  12.212  49.903  1.00  0.00     0.036 C 
ATOM      5  C   UNL     1      17.286  12.103  51.279  1.00  0.00     0.025 C 
ATOM      6  C   UNL     1      16.583  10.741  51.423  1.00  0.00     0.089 C 
ATOM      7  C   UNL     1      15.679  10.483  50.249  1.00  0.00     0.158 C 
ATOM      8  O   UNL     1      14.722   9.673  50.377  1.00  0.00    -0.295 OA
ENDROOT
BRANCH   5   9
ATOM      9  C   UNL     1      18.276  12.340  52.412  1.00  0.00    -0.077 C 
ATOM     10  C   UNL     1      18.744  11.303  53.125  1.00  0.00     0.008 C 
ATOM     11  C   UNL     1      18.754  13.728  52.760  1.00  0.00     0.039 C 
ENDBRANCH   5   9
TORSDOF 1
ENDMDL
