MODEL 1
REMARK VINA RESULT:    -5.040      0.000      0.000
REMARK INTER + INTRA:          -9.943
REMARK INTER:                  -8.871
REMARK INTRA:                  -1.072
REMARK UNBOUND:                -1.072
REMARK SMILES CCCCCCCCCCCCCCC(=O)[O-]
REMARK SMILES IDX 9 1 10 2 11 3 12 4 13 5 14 6 15 7 16 8 17 9 8 10 7 11 6 12
REMARK SMILES IDX 5 13 4 14 3 15 2 16 1 17
REMARK H PARENT
REMARK Flexibility Score: inf
ROOT
ATOM      1  C   UNL     1       7.204  56.614  21.262  1.00  0.00     0.000 C 
ENDROOT
BRANCH   1   2
ATOM      2  C   UNL     1       6.057  57.298  20.499  1.00  0.00     0.000 C 
BRANCH   2   3
ATOM      3  C   UNL     1       4.763  57.374  21.327  1.00  0.00     0.000 C 
BRANCH   3   4
ATOM      4  C   UNL     1       3.844  58.534  20.899  1.00  0.00     0.000 C 
BRANCH   4   5
ATOM      5  C   UNL     1       3.295  59.391  22.054  1.00  0.00     0.006 C 
BRANCH   5   6
ATOM      6  C   UNL     1       1.881  59.922  21.785  1.00  0.00     0.053 C 
BRANCH   6   7
ATOM      7  C   UNL     1       0.901  59.299  22.727  1.00  0.00     0.041 C 
ATOM      8  O   UNL     1       0.441  58.149  22.494  1.00  0.00    -0.550 OA
ATOM      9  O   UNL     1       0.457  60.006  23.837  1.00  0.00    -0.550 OA
ENDBRANCH   6   7
ENDBRANCH   5   6
ENDBRANCH   4   5
ENDBRANCH   3   4
ENDBRANCH   2   3
ENDBRANCH   1   2
BRANCH   1  10
ATOM     10  C   UNL     1       6.892  55.146  21.601  1.00  0.00     0.000 C 
BRANCH  10  11
ATOM     11  C   UNL     1       7.891  54.169  20.961  1.00  0.00    -0.000 C 
BRANCH  11  12
ATOM     12  C   UNL     1       9.348  54.652  21.073  1.00  0.00    -0.000 C 
BRANCH  12  13
ATOM     13  C   UNL     1      10.312  53.527  21.483  1.00  0.00    -0.000 C 
BRANCH  13  14
ATOM     14  C   UNL     1      10.681  53.582  22.976  1.00  0.00    -0.000 C 
BRANCH  14  15
ATOM     15  C   UNL     1      10.281  54.913  23.634  1.00  0.00    -0.000 C 
BRANCH  15  16
ATOM     16  C   UNL     1       9.460  54.713  24.916  1.00  0.00    -0.003 C 
ATOM     17  C   UNL     1       8.245  53.827  24.658  1.00  0.00     0.004 C 
ENDBRANCH  15  16
ENDBRANCH  14  15
ENDBRANCH  13  14
ENDBRANCH  12  13
ENDBRANCH  11  12
ENDBRANCH  10  11
ENDBRANCH   1  10
TORSDOF 13
ENDMDL
MODEL 2
REMARK VINA RESULT:    -4.923      2.891      3.482
REMARK INTER + INTRA:          -9.737
REMARK INTER:                  -9.079
REMARK INTRA:                  -0.659
REMARK UNBOUND:                -1.072
REMARK SMILES CCCCCCCCCCCCCCC(=O)[O-]
REMARK SMILES IDX 9 1 10 2 11 3 12 4 13 5 14 6 15 7 16 8 17 9 8 10 7 11 6 12
REMARK SMILES IDX 5 13 4 14 3 15 2 16 1 17
REMARK H PARENT
REMARK Flexibility Score: inf
ROOT
ATOM      1  C   UNL     1       5.041  57.098  21.623  1.00  0.00     0.000 C 
ENDROOT
BRANCH   1   2
ATOM      2  C   UNL     1       4.369  58.158  20.735  1.00  0.00     0.000 C 
BRANCH   2   3
ATOM      3  C   UNL     1       3.218  58.883  21.455  1.00  0.00     0.000 C 
BRANCH   3   4
ATOM      4  C   UNL     1       2.207  59.517  20.481  1.00  0.00     0.000 C 
BRANCH   4   5
ATOM      5  C   UNL     1       2.693  59.642  19.025  1.00  0.00     0.006 C 
BRANCH   5   6
ATOM      6  C   UNL     1       1.757  60.489  18.153  1.00  0.00     0.053 C 
BRANCH   6   7
ATOM      7  C   UNL     1       1.803  60.024  16.733  1.00  0.00     0.041 C 
ATOM      8  O   UNL     1       0.933  59.222  16.299  1.00  0.00    -0.550 OA
ATOM      9  O   UNL     1       2.835  60.435  15.899  1.00  0.00    -0.550 OA
ENDBRANCH   6   7
ENDBRANCH   5   6
ENDBRANCH   4   5
ENDBRANCH   3   4
ENDBRANCH   2   3
ENDBRANCH   1   2
BRANCH   1  10
ATOM     10  C   UNL     1       6.300  56.497  20.972  1.00  0.00     0.000 C 
BRANCH  10  11
ATOM     11  C   UNL     1       6.842  55.285  21.747  1.00  0.00    -0.000 C 
BRANCH  11  12
ATOM     12  C   UNL     1       7.758  54.394  20.888  1.00  0.00    -0.000 C 
BRANCH  12  13
ATOM     13  C   UNL     1       9.245  54.743  21.057  1.00  0.00    -0.000 C 
BRANCH  13  14
ATOM     14  C   UNL     1      10.078  53.548  21.556  1.00  0.00    -0.000 C 
BRANCH  14  15
ATOM     15  C   UNL     1      10.732  53.814  22.921  1.00  0.00    -0.000 C 
BRANCH  15  16
ATOM     16  C   UNL     1      10.142  55.043  23.628  1.00  0.00    -0.003 C 
ATOM     17  C   UNL     1       9.517  54.659  24.966  1.00  0.00     0.004 C 
ENDBRANCH  15  16
ENDBRANCH  14  15
ENDBRANCH  13  14
ENDBRANCH  12  13
ENDBRANCH  11  12
ENDBRANCH  10  11
ENDBRANCH   1  10
TORSDOF 13
ENDMDL
MODEL 3
REMARK VINA RESULT:    -4.827      3.832      8.183
REMARK INTER + INTRA:          -9.568
REMARK INTER:                  -8.795
REMARK INTRA:                  -0.773
REMARK UNBOUND:                -1.072
REMARK SMILES CCCCCCCCCCCCCCC(=O)[O-]
REMARK SMILES IDX 9 1 10 2 11 3 12 4 13 5 14 6 15 7 16 8 17 9 8 10 7 11 6 12
REMARK SMILES IDX 5 13 4 14 3 15 2 16 1 17
REMARK H PARENT
REMARK Flexibility Score: inf
ROOT
ATOM      1  C   UNL     1       7.967  56.226  20.512  1.00  0.00     0.000 C 
ENDROOT
BRANCH   1   2
ATOM      2  C   UNL     1       8.439  54.847  20.022  1.00  0.00     0.000 C 
BRANCH   2   3
ATOM      3  C   UNL     1       8.652  53.854  21.177  1.00  0.00     0.000 C 
BRANCH   3   4
ATOM      4  C   UNL     1      10.087  53.298  21.233  1.00  0.00     0.000 C 
BRANCH   4   5
ATOM      5  C   UNL     1      10.844  53.577  22.544  1.00  0.00     0.006 C 
BRANCH   5   6
ATOM      6  C   UNL     1      10.386  54.867  23.236  1.00  0.00     0.053 C 
BRANCH   6   7
ATOM      7  C   UNL     1      10.325  54.671  24.718  1.00  0.00     0.041 C 
ATOM      8  O   UNL     1      11.387  54.598  25.392  1.00  0.00    -0.550 OA
ATOM      9  O   UNL     1       9.097  54.520  25.350  1.00  0.00    -0.550 OA
ENDBRANCH   6   7
ENDBRANCH   5   6
ENDBRANCH   4   5
ENDBRANCH   3   4
ENDBRANCH   2   3
ENDBRANCH   1   2
BRANCH   1  10
ATOM     10  C   UNL     1       6.916  56.125  21.632  1.00  0.00     0.000 C 
BRANCH  10  11
ATOM     11  C   UNL     1       5.488  56.387  21.125  1.00  0.00    -0.000 C 
BRANCH  11  12
ATOM     12  C   UNL     1       4.959  57.774  21.536  1.00  0.00    -0.000 C 
BRANCH  12  13
ATOM     13  C   UNL     1       3.641  58.133  20.831  1.00  0.00    -0.000 C 
BRANCH  13  14
ATOM     14  C   UNL     1       3.607  59.597  20.357  1.00  0.00    -0.000 C 
BRANCH  14  15
ATOM     15  C   UNL     1       3.067  60.553  21.432  1.00  0.00    -0.000 C 
BRANCH  15  16
ATOM     16  C   UNL     1       2.182  59.840  22.464  1.00  0.00    -0.003 C 
ATOM     17  C   UNL     1       0.739  60.332  22.383  1.00  0.00     0.004 C 
ENDBRANCH  15  16
ENDBRANCH  14  15
ENDBRANCH  13  14
ENDBRANCH  12  13
ENDBRANCH  11  12
ENDBRANCH  10  11
ENDBRANCH   1  10
TORSDOF 13
ENDMDL
MODEL 4
REMARK VINA RESULT:    -4.812      2.207      2.592
REMARK INTER + INTRA:          -9.541
REMARK INTER:                  -8.749
REMARK INTRA:                  -0.792
REMARK UNBOUND:                -1.072
REMARK SMILES CCCCCCCCCCCCCCC(=O)[O-]
REMARK SMILES IDX 9 1 10 2 11 3 12 4 13 5 14 6 15 7 16 8 17 9 8 10 7 11 6 12
REMARK SMILES IDX 5 13 4 14 3 15 2 16 1 17
REMARK H PARENT
REMARK Flexibility Score: inf
ROOT
ATOM      1  C   UNL     1       6.016  56.584  20.700  1.00  0.00     0.000 C 
ENDROOT
BRANCH   1   2
ATOM      2  C   UNL     1       5.041  57.312  21.641  1.00  0.00     0.000 C 
BRANCH   2   3
ATOM      3  C   UNL     1       4.075  58.240  20.884  1.00  0.00     0.000 C 
BRANCH   3   4
ATOM      4  C   UNL     1       3.414  59.291  21.795  1.00  0.00     0.000 C 
BRANCH   4   5
ATOM      5  C   UNL     1       2.583  60.359  21.064  1.00  0.00     0.006 C 
BRANCH   5   6
ATOM      6  C   UNL     1       3.174  60.749  19.703  1.00  0.00     0.053 C 
BRANCH   6   7
ATOM      7  C   UNL     1       2.125  60.683  18.639  1.00  0.00     0.041 C 
ATOM      8  O   UNL     1       2.078  59.697  17.855  1.00  0.00    -0.550 OA
ATOM      9  O   UNL     1       1.229  61.732  18.479  1.00  0.00    -0.550 OA
ENDBRANCH   6   7
ENDBRANCH   5   6
ENDBRANCH   4   5
ENDBRANCH   3   4
ENDBRANCH   2   3
ENDBRANCH   1   2
BRANCH   1  10
ATOM     10  C   UNL     1       7.446  56.524  21.266  1.00  0.00     0.000 C 
BRANCH  10  11
ATOM     11  C   UNL     1       8.399  55.714  20.372  1.00  0.00    -0.000 C 
BRANCH  11  12
ATOM     12  C   UNL     1       8.443  54.223  20.752  1.00  0.00    -0.000 C 
BRANCH  12  13
ATOM     13  C   UNL     1       9.846  53.767  21.185  1.00  0.00    -0.000 C 
BRANCH  13  14
ATOM     14  C   UNL     1       9.859  53.165  22.602  1.00  0.00    -0.000 C 
BRANCH  14  15
ATOM     15  C   UNL     1       8.758  53.750  23.501  1.00  0.00    -0.000 C 
BRANCH  15  16
ATOM     16  C   UNL     1       9.321  54.618  24.635  1.00  0.00    -0.003 C 
ATOM     17  C   UNL     1      10.844  54.687  24.569  1.00  0.00     0.004 C 
ENDBRANCH  15  16
ENDBRANCH  14  15
ENDBRANCH  13  14
ENDBRANCH  12  13
ENDBRANCH  11  12
ENDBRANCH  10  11
ENDBRANCH   1  10
TORSDOF 13
ENDMDL
MODEL 5
REMARK VINA RESULT:    -4.754      3.733      5.460
REMARK INTER + INTRA:          -9.439
REMARK INTER:                  -8.678
REMARK INTRA:                  -0.762
REMARK UNBOUND:                -1.072
REMARK SMILES CCCCCCCCCCCCCCC(=O)[O-]
REMARK SMILES IDX 9 1 10 2 11 3 12 4 13 5 14 6 15 7 16 8 17 9 8 10 7 11 6 12
REMARK SMILES IDX 5 13 4 14 3 15 2 16 1 17
REMARK H PARENT
REMARK Flexibility Score: inf
ROOT
ATOM      1  C   UNL     1       3.077  58.812  20.924  1.00  0.00     0.000 C 
ENDROOT
BRANCH   1   2
ATOM      2  C   UNL     1       3.136  60.348  20.868  1.00  0.00     0.000 C 
BRANCH   2   3
ATOM      3  C   UNL     1       3.098  60.886  19.427  1.00  0.00     0.000 C 
BRANCH   3   4
ATOM      4  C   UNL     1       2.171  60.070  18.506  1.00  0.00     0.000 C 
BRANCH   4   5
ATOM      5  C   UNL     1       2.444  60.227  16.999  1.00  0.00     0.006 C 
BRANCH   5   6
ATOM      6  C   UNL     1       1.274  59.756  16.127  1.00  0.00     0.053 C 
BRANCH   6   7
ATOM      7  C   UNL     1       0.088  60.645  16.319  1.00  0.00     0.041 C 
ATOM      8  O   UNL     1      -1.066  60.150  16.429  1.00  0.00    -0.550 OA
ATOM      9  O   UNL     1       0.247  62.025  16.328  1.00  0.00    -0.550 OA
ENDBRANCH   6   7
ENDBRANCH   5   6
ENDBRANCH   4   5
ENDBRANCH   3   4
ENDBRANCH   2   3
ENDBRANCH   1   2
BRANCH   1  10
ATOM     10  C   UNL     1       4.410  58.157  20.521  1.00  0.00     0.000 C 
BRANCH  10  11
ATOM     11  C   UNL     1       4.998  57.283  21.641  1.00  0.00    -0.000 C 
BRANCH  11  12
ATOM     12  C   UNL     1       5.893  56.152  21.103  1.00  0.00    -0.000 C 
BRANCH  12  13
ATOM     13  C   UNL     1       7.345  56.605  20.884  1.00  0.00    -0.000 C 
BRANCH  13  14
ATOM     14  C   UNL     1       7.941  56.062  19.573  1.00  0.00    -0.000 C 
BRANCH  14  15
ATOM     15  C   UNL     1       7.739  54.546  19.417  1.00  0.00    -0.000 C 
BRANCH  15  16
ATOM     16  C   UNL     1       7.129  54.170  18.059  1.00  0.00    -0.003 C 
ATOM     17  C   UNL     1       7.138  55.360  17.104  1.00  0.00     0.004 C 
ENDBRANCH  15  16
ENDBRANCH  14  15
ENDBRANCH  13  14
ENDBRANCH  12  13
ENDBRANCH  11  12
ENDBRANCH  10  11
ENDBRANCH   1  10
TORSDOF 13
ENDMDL
MODEL 6
REMARK VINA RESULT:    -4.740      1.064      1.938
REMARK INTER + INTRA:          -9.415
REMARK INTER:                  -8.807
REMARK INTRA:                  -0.608
REMARK UNBOUND:                -1.072
REMARK SMILES CCCCCCCCCCCCCCC(=O)[O-]
REMARK SMILES IDX 9 1 10 2 11 3 12 4 13 5 14 6 15 7 16 8 17 9 8 10 7 11 6 12
REMARK SMILES IDX 5 13 4 14 3 15 2 16 1 17
REMARK H PARENT
REMARK Flexibility Score: inf
ROOT
ATOM      1  C   UNL     1       4.998  57.142  21.317  1.00  0.00     0.000 C 
ENDROOT
BRANCH   1   2
ATOM      2  C   UNL     1       4.409  58.408  20.672  1.00  0.00     0.000 C 
BRANCH   2   3
ATOM      3  C   UNL     1       2.992  58.723  21.181  1.00  0.00     0.000 C 
BRANCH   3   4
ATOM      4  C   UNL     1       2.786  60.216  21.495  1.00  0.00     0.000 C 
BRANCH   4   5
ATOM      5  C   UNL     1       1.636  60.525  22.472  1.00  0.00     0.006 C 
BRANCH   5   6
ATOM      6  C   UNL     1       1.051  59.266  23.123  1.00  0.00     0.053 C 
BRANCH   6   7
ATOM      7  C   UNL     1       0.123  59.636  24.236  1.00  0.00     0.041 C 
ATOM      8  O   UNL     1      -0.562  60.692  24.166  1.00  0.00    -0.550 OA
ATOM      9  O   UNL     1       0.049  58.843  25.374  1.00  0.00    -0.550 OA
ENDBRANCH   6   7
ENDBRANCH   5   6
ENDBRANCH   4   5
ENDBRANCH   3   4
ENDBRANCH   2   3
ENDBRANCH   1   2
BRANCH   1  10
ATOM     10  C   UNL     1       6.424  56.840  20.825  1.00  0.00     0.000 C 
BRANCH  10  11
ATOM     11  C   UNL     1       7.040  55.615  21.523  1.00  0.00    -0.000 C 
BRANCH  11  12
ATOM     12  C   UNL     1       7.689  54.633  20.531  1.00  0.00    -0.000 C 
BRANCH  12  13
ATOM     13  C   UNL     1       9.143  54.298  20.901  1.00  0.00    -0.000 C 
BRANCH  13  14
ATOM     14  C   UNL     1       9.243  53.420  22.162  1.00  0.00    -0.000 C 
BRANCH  14  15
ATOM     15  C   UNL     1      10.604  53.549  22.864  1.00  0.00    -0.000 C 
BRANCH  15  16
ATOM     16  C   UNL     1      10.584  54.574  24.006  1.00  0.00    -0.003 C 
ATOM     17  C   UNL     1       9.208  54.639  24.662  1.00  0.00     0.004 C 
ENDBRANCH  15  16
ENDBRANCH  14  15
ENDBRANCH  13  14
ENDBRANCH  12  13
ENDBRANCH  11  12
ENDBRANCH  10  11
ENDBRANCH   1  10
TORSDOF 13
ENDMDL
MODEL 7
REMARK VINA RESULT:    -4.736      2.444      4.056
REMARK INTER + INTRA:          -9.408
REMARK INTER:                  -8.592
REMARK INTRA:                  -0.816
REMARK UNBOUND:                -1.072
REMARK SMILES CCCCCCCCCCCCCCC(=O)[O-]
REMARK SMILES IDX 9 1 10 2 11 3 12 4 13 5 14 6 15 7 16 8 17 9 8 10 7 11 6 12
REMARK SMILES IDX 5 13 4 14 3 15 2 16 1 17
REMARK H PARENT
REMARK Flexibility Score: inf
ROOT
ATOM      1  C   UNL     1       4.181  58.132  21.329  1.00  0.00     0.000 C 
ENDROOT
BRANCH   1   2
ATOM      2  C   UNL     1       3.736  59.102  20.222  1.00  0.00     0.000 C 
BRANCH   2   3
ATOM      3  C   UNL     1       3.040  60.355  20.782  1.00  0.00     0.000 C 
BRANCH   3   4
ATOM      4  C   UNL     1       2.372  60.109  22.148  1.00  0.00     0.000 C 
BRANCH   4   5
ATOM      5  C   UNL     1       0.841  60.269  22.165  1.00  0.00     0.006 C 
BRANCH   5   6
ATOM      6  C   UNL     1       0.322  60.920  23.453  1.00  0.00     0.053 C 
BRANCH   6   7
ATOM      7  C   UNL     1      -0.375  59.908  24.306  1.00  0.00     0.041 C 
ATOM      8  O   UNL     1       0.283  58.993  24.870  1.00  0.00    -0.550 OA
ATOM      9  O   UNL     1      -1.757  59.944  24.440  1.00  0.00    -0.550 OA
ENDBRANCH   6   7
ENDBRANCH   5   6
ENDBRANCH   4   5
ENDBRANCH   3   4
ENDBRANCH   2   3
ENDBRANCH   1   2
BRANCH   1  10
ATOM     10  C   UNL     1       5.468  57.372  20.962  1.00  0.00     0.000 C 
BRANCH  10  11
ATOM     11  C   UNL     1       5.577  56.018  21.683  1.00  0.00    -0.000 C 
BRANCH  11  12
ATOM     12  C   UNL     1       6.971  55.380  21.537  1.00  0.00    -0.000 C 
BRANCH  12  13
ATOM     13  C   UNL     1       7.944  56.267  20.743  1.00  0.00    -0.000 C 
BRANCH  13  14
ATOM     14  C   UNL     1       8.257  55.696  19.348  1.00  0.00    -0.000 C 
BRANCH  14  15
ATOM     15  C   UNL     1       7.548  54.358  19.086  1.00  0.00    -0.000 C 
BRANCH  15  16
ATOM     16  C   UNL     1       6.871  54.309  17.709  1.00  0.00    -0.003 C 
ATOM     17  C   UNL     1       7.211  55.547  16.885  1.00  0.00     0.004 C 
ENDBRANCH  15  16
ENDBRANCH  14  15
ENDBRANCH  13  14
ENDBRANCH  12  13
ENDBRANCH  11  12
ENDBRANCH  10  11
ENDBRANCH   1  10
TORSDOF 13
ENDMDL
MODEL 8
REMARK VINA RESULT:    -4.713      6.016      9.851
REMARK INTER + INTRA:          -9.367
REMARK INTER:                  -8.581
REMARK INTRA:                  -0.787
REMARK UNBOUND:                -1.072
REMARK SMILES CCCCCCCCCCCCCCC(=O)[O-]
REMARK SMILES IDX 9 1 10 2 11 3 12 4 13 5 14 6 15 7 16 8 17 9 8 10 7 11 6 12
REMARK SMILES IDX 5 13 4 14 3 15 2 16 1 17
REMARK H PARENT
REMARK Flexibility Score: inf
ROOT
ATOM      1  C   UNL     1      10.964  53.176  22.253  1.00  0.00     0.000 C 
ENDROOT
BRANCH   1   2
ATOM      2  C   UNL     1      10.316  51.799  22.037  1.00  0.00     0.000 C 
BRANCH   2   3
ATOM      3  C   UNL     1      10.621  50.819  23.183  1.00  0.00     0.000 C 
BRANCH   3   4
ATOM      4  C   UNL     1      11.000  49.412  22.684  1.00  0.00     0.000 C 
BRANCH   4   5
ATOM      5  C   UNL     1      12.013  48.658  23.565  1.00  0.00     0.006 C 
BRANCH   5   6
ATOM      6  C   UNL     1      11.356  47.944  24.754  1.00  0.00     0.053 C 
BRANCH   6   7
ATOM      7  C   UNL     1      10.265  47.038  24.280  1.00  0.00     0.041 C 
ATOM      8  O   UNL     1       9.071  47.249  24.625  1.00  0.00    -0.550 OA
ATOM      9  O   UNL     1      10.569  45.930  23.499  1.00  0.00    -0.550 OA
ENDBRANCH   6   7
ENDBRANCH   5   6
ENDBRANCH   4   5
ENDBRANCH   3   4
ENDBRANCH   2   3
ENDBRANCH   1   2
BRANCH   1  10
ATOM     10  C   UNL     1      10.164  54.313  21.593  1.00  0.00     0.000 C 
BRANCH  10  11
ATOM     11  C   UNL     1       9.177  54.979  22.566  1.00  0.00    -0.000 C 
BRANCH  11  12
ATOM     12  C   UNL     1       7.759  54.386  22.471  1.00  0.00    -0.000 C 
BRANCH  12  13
ATOM     13  C   UNL     1       6.853  55.178  21.514  1.00  0.00    -0.000 C 
BRANCH  13  14
ATOM     14  C   UNL     1       7.534  56.448  20.974  1.00  0.00    -0.000 C 
BRANCH  14  15
ATOM     15  C   UNL     1       7.887  56.338  19.481  1.00  0.00    -0.000 C 
BRANCH  15  16
ATOM     16  C   UNL     1       7.445  55.002  18.867  1.00  0.00    -0.003 C 
ATOM     17  C   UNL     1       7.250  55.129  17.359  1.00  0.00     0.004 C 
ENDBRANCH  15  16
ENDBRANCH  14  15
ENDBRANCH  13  14
ENDBRANCH  12  13
ENDBRANCH  11  12
ENDBRANCH  10  11
ENDBRANCH   1  10
TORSDOF 13
ENDMDL
MODEL 9
REMARK VINA RESULT:    -4.687      6.992     10.534
REMARK INTER + INTRA:          -9.321
REMARK INTER:                  -8.425
REMARK INTRA:                  -0.896
REMARK UNBOUND:                -1.072
REMARK SMILES CCCCCCCCCCCCCCC(=O)[O-]
REMARK SMILES IDX 9 1 10 2 11 3 12 4 13 5 14 6 15 7 16 8 17 9 8 10 7 11 6 12
REMARK SMILES IDX 5 13 4 14 3 15 2 16 1 17
REMARK H PARENT
REMARK Flexibility Score: inf
ROOT
ATOM      1  C   UNL     1      10.276  52.030  21.754  1.00  0.00     0.000 C 
ENDROOT
BRANCH   1   2
ATOM      2  C   UNL     1      10.640  51.239  23.021  1.00  0.00     0.000 C 
BRANCH   2   3
ATOM      3  C   UNL     1      11.004  49.775  22.716  1.00  0.00     0.000 C 
BRANCH   3   4
ATOM      4  C   UNL     1      10.929  48.867  23.958  1.00  0.00     0.000 C 
BRANCH   4   5
ATOM      5  C   UNL     1      10.107  47.579  23.776  1.00  0.00     0.006 C 
BRANCH   5   6
ATOM      6  C   UNL     1      10.981  46.340  23.539  1.00  0.00     0.053 C 
BRANCH   6   7
ATOM      7  C   UNL     1      11.452  45.777  24.842  1.00  0.00     0.041 C 
ATOM      8  O   UNL     1      10.723  44.978  25.489  1.00  0.00    -0.550 OA
ATOM      9  O   UNL     1      12.675  46.172  25.369  1.00  0.00    -0.550 OA
ENDBRANCH   6   7
ENDBRANCH   5   6
ENDBRANCH   4   5
ENDBRANCH   3   4
ENDBRANCH   2   3
ENDBRANCH   1   2
BRANCH   1  10
ATOM     10  C   UNL     1      10.679  53.512  21.850  1.00  0.00     0.000 C 
BRANCH  10  11
ATOM     11  C   UNL     1      10.525  54.073  23.273  1.00  0.00    -0.000 C 
BRANCH  11  12
ATOM     12  C   UNL     1       9.514  55.232  23.347  1.00  0.00    -0.000 C 
BRANCH  12  13
ATOM     13  C   UNL     1       8.387  55.097  22.310  1.00  0.00    -0.000 C 
BRANCH  13  14
ATOM     14  C   UNL     1       8.185  56.382  21.488  1.00  0.00    -0.000 C 
BRANCH  14  15
ATOM     15  C   UNL     1       8.115  56.111  19.977  1.00  0.00    -0.000 C 
BRANCH  15  16
ATOM     16  C   UNL     1       7.845  54.634  19.654  1.00  0.00    -0.003 C 
ATOM     17  C   UNL     1       7.626  54.430  18.158  1.00  0.00     0.004 C 
ENDBRANCH  15  16
ENDBRANCH  14  15
ENDBRANCH  13  14
ENDBRANCH  12  13
ENDBRANCH  11  12
ENDBRANCH  10  11
ENDBRANCH   1  10
TORSDOF 13
ENDMDL
