MODEL 1
REMARK VINA RESULT:    -4.549      0.000      0.000
REMARK INTER + INTRA:          -9.839
REMARK INTER:                  -8.272
REMARK INTRA:                  -1.566
REMARK UNBOUND:                -1.566
REMARK SMILES CCCCCCCCCCCCCCCC(=O)[O-]
REMARK SMILES IDX 9 1 10 2 11 3 12 4 13 5 14 6 15 7 16 8 17 9 18 10 8 11 7 12
REMARK SMILES IDX 6 13 5 14 4 15 3 16 2 17 1 18
REMARK H PARENT
REMARK Flexibility Score: inf
ROOT
ATOM      1  C   UNL     1     -29.789 -13.118  16.620  1.00  0.00     0.000 C 
ENDROOT
BRANCH   1   2
ATOM      2  C   UNL     1     -30.834 -13.502  17.680  1.00  0.00     0.000 C 
BRANCH   2   3
ATOM      3  C   UNL     1     -31.844 -14.543  17.166  1.00  0.00     0.000 C 
BRANCH   3   4
ATOM      4  C   UNL     1     -31.744 -14.749  15.639  1.00  0.00     0.000 C 
BRANCH   4   5
ATOM      5  C   UNL     1     -31.249 -16.150  15.234  1.00  0.00     0.000 C 
BRANCH   5   6
ATOM      6  C   UNL     1     -30.107 -16.158  14.203  1.00  0.00     0.006 C 
BRANCH   6   7
ATOM      7  C   UNL     1     -30.190 -17.347  13.237  1.00  0.00     0.053 C 
BRANCH   7   8
ATOM      8  C   UNL     1     -28.871 -17.561  12.563  1.00  0.00     0.041 C 
ATOM      9  O   UNL     1     -28.190 -18.589  12.817  1.00  0.00    -0.550 OA
ATOM     10  O   UNL     1     -28.372 -16.602  11.690  1.00  0.00    -0.550 OA
ENDBRANCH   7   8
ENDBRANCH   6   7
ENDBRANCH   5   6
ENDBRANCH   4   5
ENDBRANCH   3   4
ENDBRANCH   2   3
ENDBRANCH   1   2
BRANCH   1  11
ATOM     11  C   UNL     1     -29.225 -11.702  16.830  1.00  0.00     0.000 C 
BRANCH  11  12
ATOM     12  C   UNL     1     -27.994 -11.684  17.750  1.00  0.00    -0.000 C 
BRANCH  12  13
ATOM     13  C   UNL     1     -26.686 -11.439  16.981  1.00  0.00    -0.000 C 
BRANCH  13  14
ATOM     14  C   UNL     1     -25.650 -12.557  17.195  1.00  0.00    -0.000 C 
BRANCH  14  15
ATOM     15  C   UNL     1     -26.141 -13.687  18.124  1.00  0.00    -0.000 C 
BRANCH  15  16
ATOM     16  C   UNL     1     -26.203 -15.044  17.403  1.00  0.00    -0.000 C 
BRANCH  16  17
ATOM     17  C   UNL     1     -27.616 -15.648  17.400  1.00  0.00    -0.003 C 
ATOM     18  C   UNL     1     -27.625 -17.129  17.024  1.00  0.00     0.004 C 
ENDBRANCH  16  17
ENDBRANCH  15  16
ENDBRANCH  14  15
ENDBRANCH  13  14
ENDBRANCH  12  13
ENDBRANCH  11  12
ENDBRANCH   1  11
TORSDOF 14
ENDMDL
MODEL 2
REMARK VINA RESULT:    -4.456      1.490      4.186
REMARK INTER + INTRA:          -9.669
REMARK INTER:                  -8.105
REMARK INTRA:                  -1.564
REMARK UNBOUND:                -1.566
REMARK SMILES CCCCCCCCCCCCCCCC(=O)[O-]
REMARK SMILES IDX 9 1 10 2 11 3 12 4 13 5 14 6 15 7 16 8 17 9 18 10 8 11 7 12
REMARK SMILES IDX 6 13 5 14 4 15 3 16 2 17 1 18
REMARK H PARENT
REMARK Flexibility Score: inf
ROOT
ATOM      1  C   UNL     1     -25.551 -11.807  17.135  1.00  0.00     0.000 C 
ENDROOT
BRANCH   1   2
ATOM      2  C   UNL     1     -25.290 -13.054  17.997  1.00  0.00     0.000 C 
BRANCH   2   3
ATOM      3  C   UNL     1     -26.493 -14.013  18.029  1.00  0.00     0.000 C 
BRANCH   3   4
ATOM      4  C   UNL     1     -26.163 -15.385  17.402  1.00  0.00     0.000 C 
BRANCH   4   5
ATOM      5  C   UNL     1     -27.302 -16.414  17.529  1.00  0.00     0.000 C 
BRANCH   5   6
ATOM      6  C   UNL     1     -28.502 -16.165  16.599  1.00  0.00     0.006 C 
BRANCH   6   7
ATOM      7  C   UNL     1     -28.756 -17.332  15.635  1.00  0.00     0.053 C 
BRANCH   7   8
ATOM      8  C   UNL     1     -29.946 -17.045  14.775  1.00  0.00     0.041 C 
ATOM      9  O   UNL     1     -30.917 -17.846  14.751  1.00  0.00    -0.550 OA
ATOM     10  O   UNL     1     -29.962 -15.918  13.963  1.00  0.00    -0.550 OA
ENDBRANCH   7   8
ENDBRANCH   6   7
ENDBRANCH   5   6
ENDBRANCH   4   5
ENDBRANCH   3   4
ENDBRANCH   2   3
ENDBRANCH   1   2
BRANCH   1  11
ATOM     11  C   UNL     1     -27.010 -11.712  16.658  1.00  0.00     0.000 C 
BRANCH  11  12
ATOM     12  C   UNL     1     -27.786 -10.579  17.347  1.00  0.00    -0.000 C 
BRANCH  12  13
ATOM     13  C   UNL     1     -29.254 -10.948  17.615  1.00  0.00    -0.000 C 
BRANCH  13  14
ATOM     14  C   UNL     1     -29.721 -12.169  16.802  1.00  0.00    -0.000 C 
BRANCH  14  15
ATOM     15  C   UNL     1     -30.163 -13.362  17.676  1.00  0.00    -0.000 C 
BRANCH  15  16
ATOM     16  C   UNL     1     -31.688 -13.565  17.650  1.00  0.00    -0.000 C 
BRANCH  16  17
ATOM     17  C   UNL     1     -32.108 -14.780  16.808  1.00  0.00    -0.003 C 
ATOM     18  C   UNL     1     -32.766 -14.383  15.487  1.00  0.00     0.004 C 
ENDBRANCH  16  17
ENDBRANCH  15  16
ENDBRANCH  14  15
ENDBRANCH  13  14
ENDBRANCH  12  13
ENDBRANCH  11  12
ENDBRANCH   1  11
TORSDOF 14
ENDMDL
MODEL 3
REMARK VINA RESULT:    -4.425      2.466      5.439
REMARK INTER + INTRA:          -9.612
REMARK INTER:                  -7.965
REMARK INTRA:                  -1.647
REMARK UNBOUND:                -1.566
REMARK SMILES CCCCCCCCCCCCCCCC(=O)[O-]
REMARK SMILES IDX 9 1 10 2 11 3 12 4 13 5 14 6 15 7 16 8 17 9 18 10 8 11 7 12
REMARK SMILES IDX 6 13 5 14 4 15 3 16 2 17 1 18
REMARK H PARENT
REMARK Flexibility Score: inf
ROOT
ATOM      1  C   UNL     1     -25.988 -13.423  17.985  1.00  0.00     0.000 C 
ENDROOT
BRANCH   1   2
ATOM      2  C   UNL     1     -25.747 -12.418  16.847  1.00  0.00     0.000 C 
BRANCH   2   3
ATOM      3  C   UNL     1     -26.575 -11.131  17.007  1.00  0.00     0.000 C 
BRANCH   3   4
ATOM      4  C   UNL     1     -27.885 -11.373  17.789  1.00  0.00     0.000 C 
BRANCH   4   5
ATOM      5  C   UNL     1     -29.106 -11.629  16.886  1.00  0.00     0.000 C 
BRANCH   5   6
ATOM      6  C   UNL     1     -30.051 -12.739  17.378  1.00  0.00     0.006 C 
BRANCH   6   7
ATOM      7  C   UNL     1     -30.490 -13.685  16.253  1.00  0.00     0.053 C 
BRANCH   7   8
ATOM      8  C   UNL     1     -31.957 -13.962  16.349  1.00  0.00     0.041 C 
ATOM      9  O   UNL     1     -32.575 -14.451  15.367  1.00  0.00    -0.550 OA
ATOM     10  O   UNL     1     -32.653 -13.633  17.506  1.00  0.00    -0.550 OA
ENDBRANCH   7   8
ENDBRANCH   6   7
ENDBRANCH   5   6
ENDBRANCH   4   5
ENDBRANCH   3   4
ENDBRANCH   2   3
ENDBRANCH   1   2
BRANCH   1  11
ATOM     11  C   UNL     1     -26.089 -14.874  17.483  1.00  0.00     0.000 C 
BRANCH  11  12
ATOM     12  C   UNL     1     -27.512 -15.442  17.595  1.00  0.00    -0.000 C 
BRANCH  12  13
ATOM     13  C   UNL     1     -27.745 -16.637  16.656  1.00  0.00    -0.000 C 
BRANCH  13  14
ATOM     14  C   UNL     1     -29.212 -17.100  16.632  1.00  0.00    -0.000 C 
BRANCH  14  15
ATOM     15  C   UNL     1     -29.618 -17.804  15.320  1.00  0.00    -0.000 C 
BRANCH  15  16
ATOM     16  C   UNL     1     -29.926 -16.800  14.195  1.00  0.00    -0.000 C 
BRANCH  16  17
ATOM     17  C   UNL     1     -29.289 -17.199  12.855  1.00  0.00    -0.003 C 
ATOM     18  C   UNL     1     -28.373 -18.417  12.976  1.00  0.00     0.004 C 
ENDBRANCH  16  17
ENDBRANCH  15  16
ENDBRANCH  14  15
ENDBRANCH  13  14
ENDBRANCH  12  13
ENDBRANCH  11  12
ENDBRANCH   1  11
TORSDOF 14
ENDMDL
MODEL 4
REMARK VINA RESULT:    -4.395      2.381      4.610
REMARK INTER + INTRA:          -9.558
REMARK INTER:                  -7.953
REMARK INTRA:                  -1.605
REMARK UNBOUND:                -1.566
REMARK SMILES CCCCCCCCCCCCCCCC(=O)[O-]
REMARK SMILES IDX 9 1 10 2 11 3 12 4 13 5 14 6 15 7 16 8 17 9 18 10 8 11 7 12
REMARK SMILES IDX 6 13 5 14 4 15 3 16 2 17 1 18
REMARK H PARENT
REMARK Flexibility Score: inf
ROOT
ATOM      1  C   UNL     1     -25.568 -12.121  17.379  1.00  0.00     0.000 C 
ENDROOT
BRANCH   1   2
ATOM      2  C   UNL     1     -26.895 -11.758  16.692  1.00  0.00     0.000 C 
BRANCH   2   3
ATOM      3  C   UNL     1     -27.653 -10.636  17.424  1.00  0.00     0.000 C 
BRANCH   3   4
ATOM      4  C   UNL     1     -29.173 -10.897  17.478  1.00  0.00     0.000 C 
BRANCH   4   5
ATOM      5  C   UNL     1     -29.618 -12.131  16.669  1.00  0.00     0.000 C 
BRANCH   5   6
ATOM      6  C   UNL     1     -30.388 -13.189  17.479  1.00  0.00     0.006 C 
BRANCH   6   7
ATOM      7  C   UNL     1     -30.460 -14.545  16.764  1.00  0.00     0.053 C 
BRANCH   7   8
ATOM      8  C   UNL     1     -31.863 -14.829  16.329  1.00  0.00     0.041 C 
ATOM      9  O   UNL     1     -32.323 -15.998  16.402  1.00  0.00    -0.550 OA
ATOM     10  O   UNL     1     -32.645 -13.812  15.797  1.00  0.00    -0.550 OA
ENDBRANCH   7   8
ENDBRANCH   6   7
ENDBRANCH   5   6
ENDBRANCH   4   5
ENDBRANCH   3   4
ENDBRANCH   2   3
ENDBRANCH   1   2
BRANCH   1  11
ATOM     11  C   UNL     1     -25.631 -13.472  18.112  1.00  0.00     0.000 C 
BRANCH  11  12
ATOM     12  C   UNL     1     -26.894 -14.276  17.766  1.00  0.00    -0.000 C 
BRANCH  12  13
ATOM     13  C   UNL     1     -26.747 -15.772  18.086  1.00  0.00    -0.000 C 
BRANCH  13  14
ATOM     14  C   UNL     1     -25.860 -16.515  17.071  1.00  0.00    -0.000 C 
BRANCH  14  15
ATOM     15  C   UNL     1     -26.580 -17.674  16.351  1.00  0.00    -0.000 C 
BRANCH  15  16
ATOM     16  C   UNL     1     -28.100 -17.451  16.272  1.00  0.00    -0.000 C 
BRANCH  16  17
ATOM     17  C   UNL     1     -28.665 -17.719  14.868  1.00  0.00    -0.003 C 
ATOM     18  C   UNL     1     -30.070 -18.319  14.901  1.00  0.00     0.004 C 
ENDBRANCH  16  17
ENDBRANCH  15  16
ENDBRANCH  14  15
ENDBRANCH  13  14
ENDBRANCH  12  13
ENDBRANCH  11  12
ENDBRANCH   1  11
TORSDOF 14
ENDMDL
MODEL 5
REMARK VINA RESULT:    -4.337      1.424      3.371
REMARK INTER + INTRA:          -9.453
REMARK INTER:                  -8.211
REMARK INTRA:                  -1.242
REMARK UNBOUND:                -1.566
REMARK SMILES CCCCCCCCCCCCCCCC(=O)[O-]
REMARK SMILES IDX 9 1 10 2 11 3 12 4 13 5 14 6 15 7 16 8 17 9 18 10 8 11 7 12
REMARK SMILES IDX 6 13 5 14 4 15 3 16 2 17 1 18
REMARK H PARENT
REMARK Flexibility Score: inf
ROOT
ATOM      1  C   UNL     1     -30.728 -15.478  14.641  1.00  0.00     0.000 C 
ENDROOT
BRANCH   1   2
ATOM      2  C   UNL     1     -31.331 -16.874  14.867  1.00  0.00     0.000 C 
BRANCH   2   3
ATOM      3  C   UNL     1     -30.547 -17.697  15.904  1.00  0.00     0.000 C 
BRANCH   3   4
ATOM      4  C   UNL     1     -29.099 -17.984  15.449  1.00  0.00     0.000 C 
BRANCH   4   5
ATOM      5  C   UNL     1     -29.010 -18.853  14.180  1.00  0.00     0.000 C 
BRANCH   5   6
ATOM      6  C   UNL     1     -27.921 -18.425  13.181  1.00  0.00     0.006 C 
BRANCH   6   7
ATOM      7  C   UNL     1     -28.477 -17.590  12.020  1.00  0.00     0.053 C 
BRANCH   7   8
ATOM      8  C   UNL     1     -27.869 -18.029  10.726  1.00  0.00     0.041 C 
ATOM      9  O   UNL     1     -26.938 -18.877  10.720  1.00  0.00    -0.550 OA
ATOM     10  O   UNL     1     -28.296 -17.467   9.530  1.00  0.00    -0.550 OA
ENDBRANCH   7   8
ENDBRANCH   6   7
ENDBRANCH   5   6
ENDBRANCH   4   5
ENDBRANCH   3   4
ENDBRANCH   2   3
ENDBRANCH   1   2
BRANCH   1  11
ATOM     11  C   UNL     1     -30.993 -14.521  15.817  1.00  0.00     0.000 C 
BRANCH  11  12
ATOM     12  C   UNL     1     -29.708 -13.872  16.354  1.00  0.00    -0.000 C 
BRANCH  12  13
ATOM     13  C   UNL     1     -29.988 -12.817  17.436  1.00  0.00    -0.000 C 
BRANCH  13  14
ATOM     14  C   UNL     1     -29.292 -11.474  17.155  1.00  0.00    -0.000 C 
BRANCH  14  15
ATOM     15  C   UNL     1     -27.885 -11.363  17.781  1.00  0.00    -0.000 C 
BRANCH  15  16
ATOM     16  C   UNL     1     -26.770 -11.532  16.734  1.00  0.00    -0.000 C 
BRANCH  16  17
ATOM     17  C   UNL     1     -25.662 -12.489  17.199  1.00  0.00    -0.003 C 
ATOM     18  C   UNL     1     -26.211 -13.736  17.892  1.00  0.00     0.004 C 
ENDBRANCH  16  17
ENDBRANCH  15  16
ENDBRANCH  14  15
ENDBRANCH  13  14
ENDBRANCH  12  13
ENDBRANCH  11  12
ENDBRANCH   1  11
TORSDOF 14
ENDMDL
MODEL 6
REMARK VINA RESULT:    -4.335      1.916      4.834
REMARK INTER + INTRA:          -9.450
REMARK INTER:                  -7.927
REMARK INTRA:                  -1.523
REMARK UNBOUND:                -1.566
REMARK SMILES CCCCCCCCCCCCCCCC(=O)[O-]
REMARK SMILES IDX 9 1 10 2 11 3 12 4 13 5 14 6 15 7 16 8 17 9 18 10 8 11 7 12
REMARK SMILES IDX 6 13 5 14 4 15 3 16 2 17 1 18
REMARK H PARENT
REMARK Flexibility Score: inf
ROOT
ATOM      1  C   UNL     1     -27.157 -11.503  16.628  1.00  0.00     0.000 C 
ENDROOT
BRANCH   1   2
ATOM      2  C   UNL     1     -25.781 -11.352  17.296  1.00  0.00     0.000 C 
BRANCH   2   3
ATOM      3  C   UNL     1     -25.203 -12.696  17.773  1.00  0.00     0.000 C 
BRANCH   3   4
ATOM      4  C   UNL     1     -26.308 -13.715  18.125  1.00  0.00     0.000 C 
BRANCH   4   5
ATOM      5  C   UNL     1     -25.841 -15.181  18.064  1.00  0.00     0.000 C 
BRANCH   5   6
ATOM      6  C   UNL     1     -26.659 -16.080  17.120  1.00  0.00     0.006 C 
BRANCH   6   7
ATOM      7  C   UNL     1     -25.853 -17.275  16.594  1.00  0.00     0.053 C 
BRANCH   7   8
ATOM      8  C   UNL     1     -26.667 -18.061  15.615  1.00  0.00     0.041 C 
ATOM      9  O   UNL     1     -26.132 -18.522  14.573  1.00  0.00    -0.550 OA
ATOM     10  O   UNL     1     -28.028 -18.241  15.829  1.00  0.00    -0.550 OA
ENDBRANCH   7   8
ENDBRANCH   6   7
ENDBRANCH   5   6
ENDBRANCH   4   5
ENDBRANCH   3   4
ENDBRANCH   2   3
ENDBRANCH   1   2
BRANCH   1  11
ATOM     11  C   UNL     1     -28.266 -10.746  17.379  1.00  0.00     0.000 C 
BRANCH  11  12
ATOM     12  C   UNL     1     -29.593 -11.520  17.414  1.00  0.00    -0.000 C 
BRANCH  12  13
ATOM     13  C   UNL     1     -29.551 -12.800  16.564  1.00  0.00    -0.000 C 
BRANCH  13  14
ATOM     14  C   UNL     1     -29.926 -14.060  17.363  1.00  0.00    -0.000 C 
BRANCH  14  15
ATOM     15  C   UNL     1     -30.231 -15.287  16.477  1.00  0.00    -0.000 C 
BRANCH  15  16
ATOM     16  C   UNL     1     -31.321 -14.991  15.433  1.00  0.00    -0.000 C 
BRANCH  16  17
ATOM     17  C   UNL     1     -32.688 -14.701  16.071  1.00  0.00    -0.003 C 
ATOM     18  C   UNL     1     -33.530 -13.726  15.247  1.00  0.00     0.004 C 
ENDBRANCH  16  17
ENDBRANCH  15  16
ENDBRANCH  14  15
ENDBRANCH  13  14
ENDBRANCH  12  13
ENDBRANCH  11  12
ENDBRANCH   1  11
TORSDOF 14
ENDMDL
MODEL 7
REMARK VINA RESULT:    -4.269      1.140      3.188
REMARK INTER + INTRA:          -9.328
REMARK INTER:                  -7.524
REMARK INTRA:                  -1.804
REMARK UNBOUND:                -1.566
REMARK SMILES CCCCCCCCCCCCCCCC(=O)[O-]
REMARK SMILES IDX 9 1 10 2 11 3 12 4 13 5 14 6 15 7 16 8 17 9 18 10 8 11 7 12
REMARK SMILES IDX 6 13 5 14 4 15 3 16 2 17 1 18
REMARK H PARENT
REMARK Flexibility Score: inf
ROOT
ATOM      1  C   UNL     1     -26.195 -14.967  17.393  1.00  0.00     0.000 C 
ENDROOT
BRANCH   1   2
ATOM      2  C   UNL     1     -27.409 -15.835  17.764  1.00  0.00     0.000 C 
BRANCH   2   3
ATOM      3  C   UNL     1     -27.839 -16.770  16.620  1.00  0.00     0.000 C 
BRANCH   3   4
ATOM      4  C   UNL     1     -29.119 -17.563  16.964  1.00  0.00     0.000 C 
BRANCH   4   5
ATOM      5  C   UNL     1     -29.779 -18.232  15.744  1.00  0.00     0.000 C 
BRANCH   5   6
ATOM      6  C   UNL     1     -29.300 -17.703  14.380  1.00  0.00     0.006 C 
BRANCH   6   7
ATOM      7  C   UNL     1     -28.603 -18.780  13.539  1.00  0.00     0.053 C 
BRANCH   7   8
ATOM      8  C   UNL     1     -27.902 -18.156  12.374  1.00  0.00     0.041 C 
ATOM      9  O   UNL     1     -26.860 -18.685  11.905  1.00  0.00    -0.550 OA
ATOM     10  O   UNL     1     -28.371 -16.964  11.836  1.00  0.00    -0.550 OA
ENDBRANCH   7   8
ENDBRANCH   6   7
ENDBRANCH   5   6
ENDBRANCH   4   5
ENDBRANCH   3   4
ENDBRANCH   2   3
ENDBRANCH   1   2
BRANCH   1  11
ATOM     11  C   UNL     1     -26.210 -13.598  18.096  1.00  0.00     0.000 C 
BRANCH  11  12
ATOM     12  C   UNL     1     -25.710 -12.462  17.190  1.00  0.00    -0.000 C 
BRANCH  12  13
ATOM     13  C   UNL     1     -26.856 -11.593  16.647  1.00  0.00    -0.000 C 
BRANCH  13  14
ATOM     14  C   UNL     1     -28.079 -11.566  17.581  1.00  0.00    -0.000 C 
BRANCH  14  15
ATOM     15  C   UNL     1     -29.391 -12.002  16.895  1.00  0.00    -0.000 C 
BRANCH  15  16
ATOM     16  C   UNL     1     -30.106 -13.122  17.671  1.00  0.00    -0.000 C 
BRANCH  16  17
ATOM     17  C   UNL     1     -30.897 -14.066  16.752  1.00  0.00    -0.003 C 
ATOM     18  C   UNL     1     -30.200 -14.309  15.414  1.00  0.00     0.004 C 
ENDBRANCH  16  17
ENDBRANCH  15  16
ENDBRANCH  14  15
ENDBRANCH  13  14
ENDBRANCH  12  13
ENDBRANCH  11  12
ENDBRANCH   1  11
TORSDOF 14
ENDMDL
MODEL 8
REMARK VINA RESULT:    -4.265      1.947      5.176
REMARK INTER + INTRA:          -9.322
REMARK INTER:                  -7.759
REMARK INTRA:                  -1.562
REMARK UNBOUND:                -1.566
REMARK SMILES CCCCCCCCCCCCCCCC(=O)[O-]
REMARK SMILES IDX 9 1 10 2 11 3 12 4 13 5 14 6 15 7 16 8 17 9 18 10 8 11 7 12
REMARK SMILES IDX 6 13 5 14 4 15 3 16 2 17 1 18
REMARK H PARENT
REMARK Flexibility Score: inf
ROOT
ATOM      1  C   UNL     1     -29.397 -11.860  16.638  1.00  0.00     0.000 C 
ENDROOT
BRANCH   1   2
ATOM      2  C   UNL     1     -28.320 -11.923  17.734  1.00  0.00     0.000 C 
BRANCH   2   3
ATOM      3  C   UNL     1     -26.998 -11.263  17.304  1.00  0.00     0.000 C 
BRANCH   3   4
ATOM      4  C   UNL     1     -25.830 -12.272  17.262  1.00  0.00     0.000 C 
BRANCH   4   5
ATOM      5  C   UNL     1     -26.105 -13.571  18.043  1.00  0.00     0.000 C 
BRANCH   5   6
ATOM      6  C   UNL     1     -25.684 -14.861  17.317  1.00  0.00     0.006 C 
BRANCH   6   7
ATOM      7  C   UNL     1     -26.291 -16.121  17.949  1.00  0.00     0.053 C 
BRANCH   7   8
ATOM      8  C   UNL     1     -26.155 -17.285  17.019  1.00  0.00     0.041 C 
ATOM      9  O   UNL     1     -25.195 -17.337  16.206  1.00  0.00    -0.550 OA
ATOM     10  O   UNL     1     -27.116 -18.288  17.015  1.00  0.00    -0.550 OA
ENDBRANCH   7   8
ENDBRANCH   6   7
ENDBRANCH   5   6
ENDBRANCH   4   5
ENDBRANCH   3   4
ENDBRANCH   2   3
ENDBRANCH   1   2
BRANCH   1  11
ATOM     11  C   UNL     1     -30.259 -13.133  16.581  1.00  0.00     0.000 C 
BRANCH  11  12
ATOM     12  C   UNL     1     -29.661 -14.290  17.396  1.00  0.00    -0.000 C 
BRANCH  12  13
ATOM     13  C   UNL     1     -29.591 -15.601  16.596  1.00  0.00    -0.000 C 
BRANCH  13  14
ATOM     14  C   UNL     1     -29.996 -15.422  15.122  1.00  0.00    -0.000 C 
BRANCH  14  15
ATOM     15  C   UNL     1     -31.128 -16.370  14.673  1.00  0.00    -0.000 C 
BRANCH  15  16
ATOM     16  C   UNL     1     -30.643 -17.407  13.646  1.00  0.00    -0.000 C 
BRANCH  16  17
ATOM     17  C   UNL     1     -29.117 -17.392  13.467  1.00  0.00    -0.003 C 
ATOM     18  C   UNL     1     -28.694 -17.349  11.998  1.00  0.00     0.004 C 
ENDBRANCH  16  17
ENDBRANCH  15  16
ENDBRANCH  14  15
ENDBRANCH  13  14
ENDBRANCH  12  13
ENDBRANCH  11  12
ENDBRANCH   1  11
TORSDOF 14
ENDMDL
MODEL 9
REMARK VINA RESULT:    -4.255      2.583      5.933
REMARK INTER + INTRA:          -9.303
REMARK INTER:                  -7.801
REMARK INTRA:                  -1.502
REMARK UNBOUND:                -1.566
REMARK SMILES CCCCCCCCCCCCCCCC(=O)[O-]
REMARK SMILES IDX 9 1 10 2 11 3 12 4 13 5 14 6 15 7 16 8 17 9 18 10 8 11 7 12
REMARK SMILES IDX 6 13 5 14 4 15 3 16 2 17 1 18
REMARK H PARENT
REMARK Flexibility Score: inf
ROOT
ATOM      1  C   UNL     1     -26.821 -16.259  17.372  1.00  0.00     0.000 C 
ENDROOT
BRANCH   1   2
ATOM      2  C   UNL     1     -25.882 -15.049  17.501  1.00  0.00     0.000 C 
BRANCH   2   3
ATOM      3  C   UNL     1     -26.598 -13.799  18.043  1.00  0.00     0.000 C 
BRANCH   3   4
ATOM      4  C   UNL     1     -26.196 -12.519  17.279  1.00  0.00     0.000 C 
BRANCH   4   5
ATOM      5  C   UNL     1     -27.394 -11.645  16.862  1.00  0.00     0.000 C 
BRANCH   5   6
ATOM      6  C   UNL     1     -28.761 -12.144  17.363  1.00  0.00     0.006 C 
BRANCH   6   7
ATOM      7  C   UNL     1     -29.585 -12.820  16.259  1.00  0.00     0.053 C 
BRANCH   7   8
ATOM      8  C   UNL     1     -30.883 -13.320  16.812  1.00  0.00     0.041 C 
ATOM      9  O   UNL     1     -31.121 -13.232  18.046  1.00  0.00    -0.550 OA
ATOM     10  O   UNL     1     -31.810 -13.926  15.973  1.00  0.00    -0.550 OA
ENDBRANCH   7   8
ENDBRANCH   6   7
ENDBRANCH   5   6
ENDBRANCH   4   5
ENDBRANCH   3   4
ENDBRANCH   2   3
ENDBRANCH   1   2
BRANCH   1  11
ATOM     11  C   UNL     1     -28.231 -15.976  17.917  1.00  0.00     0.000 C 
BRANCH  11  12
ATOM     12  C   UNL     1     -29.339 -16.576  17.038  1.00  0.00    -0.000 C 
BRANCH  12  13
ATOM     13  C   UNL     1     -28.831 -16.979  15.644  1.00  0.00    -0.000 C 
BRANCH  13  14
ATOM     14  C   UNL     1     -29.784 -16.549  14.514  1.00  0.00    -0.000 C 
BRANCH  14  15
ATOM     15  C   UNL     1     -29.595 -17.348  13.207  1.00  0.00    -0.000 C 
BRANCH  15  16
ATOM     16  C   UNL     1     -28.214 -18.022  13.135  1.00  0.00    -0.000 C 
BRANCH  16  17
ATOM     17  C   UNL     1     -27.712 -18.188  11.692  1.00  0.00    -0.003 C 
ATOM     18  C   UNL     1     -27.416 -19.644  11.334  1.00  0.00     0.004 C 
ENDBRANCH  16  17
ENDBRANCH  15  16
ENDBRANCH  14  15
ENDBRANCH  13  14
ENDBRANCH  12  13
ENDBRANCH  11  12
ENDBRANCH   1  11
TORSDOF 14
ENDMDL
