MODEL 1
REMARK VINA RESULT:    70.129      0.000      0.000
REMARK INTER + INTRA:         121.916
REMARK INTER:                 115.227
REMARK INTRA:                   6.689
REMARK UNBOUND:                 6.689
REMARK SMILES COc1ccc([C@@H]2CC(=O)c3c(O)cc(O[C@@H]4O[C@H](CO[C@H]5O[C@@H](C)[C@H](O)[C@@H](O)[C@H]5O)[C@@H](O)[C@@H](O)[C@@H]4O)cc3O2)cc1O
REMARK SMILES IDX 19 1 32 2 34 3 36 4 17 5 18 6 20 7 21 8 22 9 25 10 24 11
REMARK SMILES IDX 26 12 23 13 28 14 30 15 27 16 29 18 31 20 33 22 35 24 16 26
REMARK SMILES IDX 15 27 14 28 38 29 12 30 39 31 11 32 40 33 9 34 7 35 10 36
REMARK SMILES IDX 8 37 13 38 6 40 41 41 5 42 42 43 4 44 3 45 43 46 2 48 1 49
REMARK SMILES IDX 37 50
REMARK H PARENT 27 17 29 19 31 21 33 23 35 25 13 39 43 47 37 51
REMARK Flexibility Score: inf
ROOT
ATOM      1  C   UNL     1      16.810  52.052  59.907  1.00  0.00     0.180 C 
ATOM      2  C   UNL     1      15.317  52.569  59.825  1.00  0.00     0.177 C 
ATOM      3  C   UNL     1      14.353  51.494  59.212  1.00  0.00     0.180 C 
ATOM      4  C   UNL     1      14.866  51.076  57.817  1.00  0.00     0.214 C 
ATOM      5  C   UNL     1      16.251  50.451  58.124  1.00  0.00     0.339 C 
ATOM      6  O   UNL     1      17.213  51.359  58.679  1.00  0.00    -0.332 OA
ENDROOT
BRANCH   1   7
ATOM      7  C   UNL     1      17.649  51.669  61.297  1.00  0.00     0.198 C 
BRANCH   7   8
ATOM      8  O   UNL     1      17.991  52.638  62.321  1.00  0.00    -0.347 OA
BRANCH   8   9
ATOM      9  C   UNL     1      16.828  53.272  62.846  1.00  0.00     0.281 C 
ATOM     10  C   UNL     1      14.838  54.803  60.960  1.00  0.00     0.041 C 
ATOM     11  C   UNL     1      15.483  55.125  62.481  1.00  0.00     0.150 C 
ATOM     12  C   UNL     1      14.782  54.755  63.897  1.00  0.00     0.174 C 
ATOM     13  O   UNL     1      16.816  54.631  62.518  1.00  0.00    -0.344 OA
ATOM     14  C   UNL     1      14.138  53.429  63.510  1.00  0.00     0.179 C 
ATOM     15  C   UNL     1      15.451  52.514  62.917  1.00  0.00     0.202 C 
BRANCH  12  16
ATOM     16  O   UNL     1      15.696  54.611  64.980  1.00  0.00    -0.388 OA
ATOM     17  H   UNL     1      15.239  54.935  65.814  1.00  0.00     0.211 HD
ENDBRANCH  12  16
BRANCH  14  18
ATOM     18  O   UNL     1      13.115  54.002  62.610  1.00  0.00    -0.387 OA
ATOM     19  H   UNL     1      13.223  54.991  62.356  1.00  0.00     0.211 HD
ENDBRANCH  14  18
BRANCH  15  20
ATOM     20  O   UNL     1      15.188  51.700  61.798  1.00  0.00    -0.385 OA
ATOM     21  H   UNL     1      15.620  50.793  61.888  1.00  0.00     0.211 HD
ENDBRANCH  15  20
ENDBRANCH   8   9
ENDBRANCH   7   8
ENDBRANCH   1   7
BRANCH   2  22
ATOM     22  O   UNL     1      15.215  53.739  58.991  1.00  0.00    -0.387 OA
ATOM     23  H   UNL     1      15.670  54.471  59.494  1.00  0.00     0.211 HD
ENDBRANCH   2  22
BRANCH   3  24
ATOM     24  O   UNL     1      13.006  51.895  59.210  1.00  0.00    -0.387 OA
ATOM     25  H   UNL     1      12.679  51.844  60.145  1.00  0.00     0.211 HD
ENDBRANCH   3  24
BRANCH   5  26
ATOM     26  O   UNL     1      16.178  49.206  58.927  1.00  0.00    -0.462 OA
BRANCH  26  27
ATOM     27  C   UNL     1      16.238  47.869  58.515  1.00  0.00     0.130 A 
ATOM     28  C   UNL     1      15.051  47.154  58.246  1.00  0.00     0.093 A 
ATOM     29  C   UNL     1      17.530  47.138  58.481  1.00  0.00     0.094 A 
ATOM     30  C   UNL     1      15.096  45.939  57.566  1.00  0.00     0.133 A 
ATOM     31  C   UNL     1      17.489  45.841  57.936  1.00  0.00     0.138 A 
ATOM     32  C   UNL     1      16.329  45.409  57.256  1.00  0.00     0.102 A 
ATOM     33  O   UNL     1      18.637  44.997  57.921  1.00  0.00    -0.484 OA
ATOM     34  C   UNL     1      16.547  44.561  56.087  1.00  0.00     0.174 C 
ATOM     35  C   UNL     1      18.851  44.012  56.898  1.00  0.00     0.211 C 
ATOM     36  O   UNL     1      16.304  45.084  54.941  1.00  0.00    -0.294 OA
ATOM     37  C   UNL     1      17.539  43.483  56.218  1.00  0.00     0.131 C 
BRANCH  30  38
ATOM     38  O   UNL     1      13.923  45.267  57.147  1.00  0.00    -0.507 OA
ATOM     39  H   UNL     1      13.602  45.206  56.200  1.00  0.00     0.293 HD
ENDBRANCH  30  38
BRANCH  35  40
ATOM     40  C   UNL     1      19.799  44.599  55.849  1.00  0.00    -0.003 A 
ATOM     41  C   UNL     1      21.063  44.060  55.620  1.00  0.00     0.057 A 
ATOM     42  C   UNL     1      19.322  45.691  55.113  1.00  0.00     0.011 A 
ATOM     43  C   UNL     1      21.915  44.701  54.669  1.00  0.00     0.158 A 
ATOM     44  C   UNL     1      20.175  46.302  54.158  1.00  0.00     0.051 A 
ATOM     45  C   UNL     1      21.465  45.795  53.914  1.00  0.00     0.160 A 
BRANCH  43  46
ATOM     46  O   UNL     1      23.235  44.307  54.524  1.00  0.00    -0.504 OA
ATOM     47  H   UNL     1      23.913  44.389  55.264  1.00  0.00     0.293 HD
ENDBRANCH  43  46
BRANCH  45  48
ATOM     48  O   UNL     1      22.371  46.419  53.047  1.00  0.00    -0.493 OA
ATOM     49  C   UNL     1      22.956  47.704  53.271  1.00  0.00     0.278 C 
ENDBRANCH  45  48
ENDBRANCH  35  40
ENDBRANCH  26  27
ENDBRANCH   5  26
BRANCH   4  50
ATOM     50  O   UNL     1      13.899  50.137  57.301  1.00  0.00    -0.384 OA
ATOM     51  H   UNL     1      14.443  49.518  56.715  1.00  0.00     0.211 HD
ENDBRANCH   4  50
TORSDOF 15
ENDMDL
