MODEL 1
REMARK VINA RESULT:    35.205      0.000      0.000
REMARK INTER + INTRA:          43.648
REMARK INTER:                  43.437
REMARK INTRA:                   0.211
REMARK UNBOUND:                 0.211
REMARK SMILES Oc1cc(O)c2cc(O)c(-c3cc(O)c(O)c(O)c3)[o+]c2c1
REMARK SMILES IDX 10 1 20 2 21 3 22 4 2 5 3 6 4 7 6 8 7 9 8 10 11 11 12 12
REMARK SMILES IDX 13 13 19 14 15 15 17 16 14 17 16 19 18 21 9 23 1 25 5 27
REMARK H PARENT 14 18 16 20 18 22 9 24 1 26 5 28
REMARK Flexibility Score: inf
ROOT
ATOM      1  C   UNL     1     -35.378  24.574   5.968  1.00  0.00     0.402 A 
ATOM      2  O   UNL     1     -36.162  24.819   4.922  1.00  0.00    -0.202 OA
ATOM      3  C   UNL     1     -37.360  24.266   4.762  1.00  0.00     0.368 A 
ATOM      4  C   UNL     1     -38.110  24.583   3.627  1.00  0.00     0.162 A 
ATOM      5  C   UNL     1     -39.372  24.012   3.432  1.00  0.00     0.128 A 
ATOM      6  C   UNL     1     -39.884  23.120   4.378  1.00  0.00     0.093 A 
ATOM      7  C   UNL     1     -39.152  22.786   5.524  1.00  0.00     0.136 A 
ATOM      8  C   UNL     1     -37.872  23.364   5.726  1.00  0.00     0.125 A 
ATOM      9  C   UNL     1     -37.074  23.098   6.851  1.00  0.00     0.078 A 
ATOM     10  C   UNL     1     -35.824  23.710   6.985  1.00  0.00     0.223 A 
ENDROOT
BRANCH   1  11
ATOM     11  C   UNL     1     -34.060  25.246   6.027  1.00  0.00     0.091 A 
ATOM     12  C   UNL     1     -32.983  24.686   6.738  1.00  0.00     0.068 A 
ATOM     13  C   UNL     1     -31.736  25.326   6.763  1.00  0.00     0.162 A 
ATOM     14  C   UNL     1     -33.860  26.438   5.316  1.00  0.00     0.068 A 
ATOM     15  C   UNL     1     -31.553  26.531   6.065  1.00  0.00     0.200 A 
ATOM     16  C   UNL     1     -32.619  27.084   5.336  1.00  0.00     0.162 A 
BRANCH  13  17
ATOM     17  O   UNL     1     -30.678  24.764   7.476  1.00  0.00    -0.504 OA
ATOM     18  H   UNL     1     -30.239  23.898   7.182  1.00  0.00     0.293 HD
ENDBRANCH  13  17
BRANCH  15  19
ATOM     19  O   UNL     1     -30.320  27.183   6.084  1.00  0.00    -0.502 OA
ATOM     20  H   UNL     1     -30.160  28.022   6.630  1.00  0.00     0.293 HD
ENDBRANCH  15  19
BRANCH  16  21
ATOM     21  O   UNL     1     -32.466  28.275   4.627  1.00  0.00    -0.504 OA
ATOM     22  H   UNL     1     -32.645  29.179   5.047  1.00  0.00     0.293 HD
ENDBRANCH  16  21
ENDBRANCH   1  11
BRANCH  10  23
ATOM     23  O   UNL     1     -35.053  23.484   8.125  1.00  0.00    -0.500 OA
ATOM     24  H   UNL     1     -34.567  24.238   8.597  1.00  0.00     0.294 HD
ENDBRANCH  10  23
BRANCH   5  25
ATOM     25  O   UNL     1     -40.125  24.325   2.303  1.00  0.00    -0.507 OA
ATOM     26  H   UNL     1     -41.136  24.370   2.336  1.00  0.00     0.293 HD
ENDBRANCH   5  25
BRANCH   7  27
ATOM     27  O   UNL     1     -39.734  21.883   6.418  1.00  0.00    -0.507 OA
ATOM     28  H   UNL     1     -39.236  21.413   7.160  1.00  0.00     0.293 HD
ENDBRANCH   7  27
TORSDOF 7
ENDMDL
MODEL 2
REMARK VINA RESULT:    35.618      3.784      6.328
REMARK INTER + INTRA:          44.158
REMARK INTER:                  44.538
REMARK INTRA:                  -0.380
REMARK UNBOUND:                 0.211
REMARK SMILES Oc1cc(O)c2cc(O)c(-c3cc(O)c(O)c(O)c3)[o+]c2c1
REMARK SMILES IDX 10 1 20 2 21 3 22 4 2 5 3 6 4 7 6 8 7 9 8 10 11 11 12 12
REMARK SMILES IDX 13 13 19 14 15 15 17 16 14 17 16 19 18 21 9 23 1 25 5 27
REMARK H PARENT 14 18 16 20 18 22 9 24 1 26 5 28
REMARK Flexibility Score: inf
ROOT
ATOM      1  C   UNL     1     -38.696  24.900   4.049  1.00  0.00     0.402 A 
ATOM      2  O   UNL     1     -38.103  24.746   2.868  1.00  0.00    -0.202 OA
ATOM      3  C   UNL     1     -38.277  25.581   1.849  1.00  0.00     0.368 A 
ATOM      4  C   UNL     1     -37.612  25.333   0.645  1.00  0.00     0.162 A 
ATOM      5  C   UNL     1     -37.781  26.193  -0.444  1.00  0.00     0.128 A 
ATOM      6  C   UNL     1     -38.619  27.305  -0.329  1.00  0.00     0.093 A 
ATOM      7  C   UNL     1     -39.297  27.575   0.867  1.00  0.00     0.136 A 
ATOM      8  C   UNL     1     -39.127  26.706   1.976  1.00  0.00     0.125 A 
ATOM      9  C   UNL     1     -39.755  26.905   3.216  1.00  0.00     0.078 A 
ATOM     10  C   UNL     1     -39.536  26.008   4.265  1.00  0.00     0.223 A 
ENDROOT
BRANCH   1  11
ATOM     11  C   UNL     1     -38.428  23.896   5.103  1.00  0.00     0.091 A 
ATOM     12  C   UNL     1     -37.370  24.058   6.016  1.00  0.00     0.068 A 
ATOM     13  C   UNL     1     -37.146  23.108   7.022  1.00  0.00     0.162 A 
ATOM     14  C   UNL     1     -39.277  22.788   5.234  1.00  0.00     0.068 A 
ATOM     15  C   UNL     1     -37.989  21.989   7.130  1.00  0.00     0.200 A 
ATOM     16  C   UNL     1     -39.060  21.834   6.234  1.00  0.00     0.162 A 
BRANCH  13  17
ATOM     17  O   UNL     1     -36.091  23.276   7.918  1.00  0.00    -0.504 OA
ATOM     18  H   UNL     1     -35.125  23.193   7.623  1.00  0.00     0.293 HD
ENDBRANCH  13  17
BRANCH  15  19
ATOM     19  O   UNL     1     -37.777  21.032   8.122  1.00  0.00    -0.502 OA
ATOM     20  H   UNL     1     -38.500  20.382   8.410  1.00  0.00     0.293 HD
ENDBRANCH  15  19
BRANCH  16  21
ATOM     21  O   UNL     1     -39.919  20.739   6.320  1.00  0.00    -0.504 OA
ATOM     22  H   UNL     1     -40.810  20.789   6.799  1.00  0.00     0.293 HD
ENDBRANCH  16  21
ENDBRANCH   1  11
BRANCH  10  23
ATOM     23  O   UNL     1     -40.120  26.233   5.512  1.00  0.00    -0.500 OA
ATOM     24  H   UNL     1     -40.415  27.158   5.803  1.00  0.00     0.294 HD
ENDBRANCH  10  23
BRANCH   5  25
ATOM     25  O   UNL     1     -37.120  25.953  -1.647  1.00  0.00    -0.507 OA
ATOM     26  H   UNL     1     -37.602  26.003  -2.536  1.00  0.00     0.293 HD
ENDBRANCH   5  25
BRANCH   7  27
ATOM     27  O   UNL     1     -40.119  28.705   0.899  1.00  0.00    -0.507 OA
ATOM     28  H   UNL     1     -40.220  29.315   1.697  1.00  0.00     0.293 HD
ENDBRANCH   7  27
TORSDOF 7
ENDMDL
MODEL 3
REMARK VINA RESULT:    35.649      1.708      2.230
REMARK INTER + INTRA:          44.196
REMARK INTER:                  43.950
REMARK INTRA:                   0.246
REMARK UNBOUND:                 0.211
REMARK SMILES Oc1cc(O)c2cc(O)c(-c3cc(O)c(O)c(O)c3)[o+]c2c1
REMARK SMILES IDX 10 1 20 2 21 3 22 4 2 5 3 6 4 7 6 8 7 9 8 10 11 11 12 12
REMARK SMILES IDX 13 13 19 14 15 15 17 16 14 17 16 19 18 21 9 23 1 25 5 27
REMARK H PARENT 14 18 16 20 18 22 9 24 1 26 5 28
REMARK Flexibility Score: inf
ROOT
ATOM      1  C   UNL     1     -35.392  25.025   5.853  1.00  0.00     0.402 A 
ATOM      2  O   UNL     1     -36.312  24.638   4.975  1.00  0.00    -0.202 OA
ATOM      3  C   UNL     1     -37.268  23.758   5.258  1.00  0.00     0.368 A 
ATOM      4  C   UNL     1     -38.190  23.412   4.267  1.00  0.00     0.162 A 
ATOM      5  C   UNL     1     -39.202  22.486   4.537  1.00  0.00     0.128 A 
ATOM      6  C   UNL     1     -39.293  21.906   5.805  1.00  0.00     0.093 A 
ATOM      7  C   UNL     1     -38.381  22.236   6.815  1.00  0.00     0.136 A 
ATOM      8  C   UNL     1     -37.353  23.176   6.546  1.00  0.00     0.125 A 
ATOM      9  C   UNL     1     -36.404  23.577   7.501  1.00  0.00     0.078 A 
ATOM     10  C   UNL     1     -35.422  24.513   7.163  1.00  0.00     0.223 A 
ENDROOT
BRANCH   1  11
ATOM     11  C   UNL     1     -34.373  26.005   5.413  1.00  0.00     0.091 A 
ATOM     12  C   UNL     1     -33.955  26.074   4.072  1.00  0.00     0.068 A 
ATOM     13  C   UNL     1     -33.006  27.025   3.670  1.00  0.00     0.162 A 
ATOM     14  C   UNL     1     -33.852  26.922   6.337  1.00  0.00     0.068 A 
ATOM     15  C   UNL     1     -32.474  27.924   4.608  1.00  0.00     0.200 A 
ATOM     16  C   UNL     1     -32.904  27.873   5.945  1.00  0.00     0.162 A 
BRANCH  13  17
ATOM     17  O   UNL     1     -32.595  27.080   2.339  1.00  0.00    -0.504 OA
ATOM     18  H   UNL     1     -33.244  27.296   1.590  1.00  0.00     0.293 HD
ENDBRANCH  13  17
BRANCH  15  19
ATOM     19  O   UNL     1     -31.525  28.873   4.226  1.00  0.00    -0.502 OA
ATOM     20  H   UNL     1     -30.539  28.650   4.147  1.00  0.00     0.293 HD
ENDBRANCH  15  19
BRANCH  16  21
ATOM     21  O   UNL     1     -32.401  28.757   6.899  1.00  0.00    -0.504 OA
ATOM     22  H   UNL     1     -32.537  28.613   7.892  1.00  0.00     0.293 HD
ENDBRANCH  16  21
ENDBRANCH   1  11
BRANCH  10  23
ATOM     23  O   UNL     1     -34.511  24.949   8.125  1.00  0.00    -0.500 OA
ATOM     24  H   UNL     1     -34.636  25.824   8.620  1.00  0.00     0.294 HD
ENDBRANCH  10  23
BRANCH   5  25
ATOM     25  O   UNL     1     -40.125  22.137   3.554  1.00  0.00    -0.507 OA
ATOM     26  H   UNL     1     -40.733  22.826   3.128  1.00  0.00     0.293 HD
ENDBRANCH   5  25
BRANCH   7  27
ATOM     27  O   UNL     1     -38.539  21.607   8.053  1.00  0.00    -0.507 OA
ATOM     28  H   UNL     1     -38.139  21.942   8.918  1.00  0.00     0.293 HD
ENDBRANCH   7  27
TORSDOF 7
ENDMDL
MODEL 4
REMARK VINA RESULT:    36.222      1.198      3.100
REMARK INTER + INTRA:          44.903
REMARK INTER:                  44.903
REMARK INTRA:                   0.001
REMARK UNBOUND:                 0.211
REMARK SMILES Oc1cc(O)c2cc(O)c(-c3cc(O)c(O)c(O)c3)[o+]c2c1
REMARK SMILES IDX 10 1 20 2 21 3 22 4 2 5 3 6 4 7 6 8 7 9 8 10 11 11 12 12
REMARK SMILES IDX 13 13 19 14 15 15 17 16 14 17 16 19 18 21 9 23 1 25 5 27
REMARK H PARENT 14 18 16 20 18 22 9 24 1 26 5 28
REMARK Flexibility Score: inf
ROOT
ATOM      1  C   UNL     1     -35.584  24.609   5.165  1.00  0.00     0.402 A 
ATOM      2  O   UNL     1     -36.321  24.162   6.178  1.00  0.00    -0.202 OA
ATOM      3  C   UNL     1     -37.486  23.544   6.017  1.00  0.00     0.368 A 
ATOM      4  C   UNL     1     -38.189  23.113   7.146  1.00  0.00     0.162 A 
ATOM      5  C   UNL     1     -39.419  22.463   7.004  1.00  0.00     0.128 A 
ATOM      6  C   UNL     1     -39.948  22.244   5.730  1.00  0.00     0.093 A 
ATOM      7  C   UNL     1     -39.263  22.667   4.584  1.00  0.00     0.136 A 
ATOM      8  C   UNL     1     -38.013  23.325   4.722  1.00  0.00     0.125 A 
ATOM      9  C   UNL     1     -37.251  23.770   3.630  1.00  0.00     0.078 A 
ATOM     10  C   UNL     1     -36.025  24.407   3.844  1.00  0.00     0.223 A 
ENDROOT
BRANCH   1  11
ATOM     11  C   UNL     1     -34.307  25.290   5.475  1.00  0.00     0.091 A 
ATOM     12  C   UNL     1     -33.919  26.461   4.798  1.00  0.00     0.068 A 
ATOM     13  C   UNL     1     -32.716  27.104   5.122  1.00  0.00     0.162 A 
ATOM     14  C   UNL     1     -33.491  24.794   6.502  1.00  0.00     0.068 A 
ATOM     15  C   UNL     1     -31.895  26.587   6.137  1.00  0.00     0.200 A 
ATOM     16  C   UNL     1     -32.288  25.429   6.830  1.00  0.00     0.162 A 
BRANCH  13  17
ATOM     17  O   UNL     1     -32.339  28.260   4.440  1.00  0.00    -0.504 OA
ATOM     18  H   UNL     1     -33.022  28.860   3.990  1.00  0.00     0.293 HD
ENDBRANCH  13  17
BRANCH  15  19
ATOM     19  O   UNL     1     -30.692  27.212   6.468  1.00  0.00    -0.502 OA
ATOM     20  H   UNL     1     -29.887  26.694   6.799  1.00  0.00     0.293 HD
ENDBRANCH  15  19
BRANCH  16  21
ATOM     21  O   UNL     1     -31.499  24.896   7.848  1.00  0.00    -0.504 OA
ATOM     22  H   UNL     1     -31.038  25.480   8.535  1.00  0.00     0.293 HD
ENDBRANCH  16  21
ENDBRANCH   1  11
BRANCH  10  23
ATOM     23  O   UNL     1     -35.244  24.805   2.759  1.00  0.00    -0.500 OA
ATOM     24  H   UNL     1     -34.846  25.736   2.701  1.00  0.00     0.294 HD
ENDBRANCH  10  23
BRANCH   5  25
ATOM     25  O   UNL     1     -40.125  22.030   8.125  1.00  0.00    -0.507 OA
ATOM     26  H   UNL     1     -39.690  21.455   8.836  1.00  0.00     0.293 HD
ENDBRANCH   5  25
BRANCH   7  27
ATOM     27  O   UNL     1     -39.862  22.413   3.347  1.00  0.00    -0.507 OA
ATOM     28  H   UNL     1     -40.024  23.113   2.637  1.00  0.00     0.293 HD
ENDBRANCH   7  27
TORSDOF 7
ENDMDL
MODEL 5
REMARK VINA RESULT:    36.363      1.170      2.494
REMARK INTER + INTRA:          45.077
REMARK INTER:                  45.114
REMARK INTRA:                  -0.037
REMARK UNBOUND:                 0.211
REMARK SMILES Oc1cc(O)c2cc(O)c(-c3cc(O)c(O)c(O)c3)[o+]c2c1
REMARK SMILES IDX 10 1 20 2 21 3 22 4 2 5 3 6 4 7 6 8 7 9 8 10 11 11 12 12
REMARK SMILES IDX 13 13 19 14 15 15 17 16 14 17 16 19 18 21 9 23 1 25 5 27
REMARK H PARENT 14 18 16 20 18 22 9 24 1 26 5 28
REMARK Flexibility Score: inf
ROOT
ATOM      1  C   UNL     1     -35.409  24.630   5.186  1.00  0.00     0.402 A 
ATOM      2  O   UNL     1     -36.194  24.267   6.196  1.00  0.00    -0.202 OA
ATOM      3  C   UNL     1     -37.365  23.659   6.030  1.00  0.00     0.368 A 
ATOM      4  C   UNL     1     -38.120  23.319   7.155  1.00  0.00     0.162 A 
ATOM      5  C   UNL     1     -39.357  22.683   7.008  1.00  0.00     0.128 A 
ATOM      6  C   UNL     1     -39.839  22.386   5.730  1.00  0.00     0.093 A 
ATOM      7  C   UNL     1     -39.100  22.717   4.587  1.00  0.00     0.136 A 
ATOM      8  C   UNL     1     -37.844  23.361   4.732  1.00  0.00     0.125 A 
ATOM      9  C   UNL     1     -37.030  23.718   3.644  1.00  0.00     0.078 A 
ATOM     10  C   UNL     1     -35.801  24.346   3.865  1.00  0.00     0.223 A 
ENDROOT
BRANCH   1  11
ATOM     11  C   UNL     1     -34.132  25.309   5.501  1.00  0.00     0.091 A 
ATOM     12  C   UNL     1     -33.227  24.770   6.433  1.00  0.00     0.068 A 
ATOM     13  C   UNL     1     -32.012  25.416   6.702  1.00  0.00     0.162 A 
ATOM     14  C   UNL     1     -33.787  26.484   4.817  1.00  0.00     0.068 A 
ATOM     15  C   UNL     1     -31.686  26.605   6.027  1.00  0.00     0.200 A 
ATOM     16  C   UNL     1     -32.577  27.136   5.079  1.00  0.00     0.162 A 
BRANCH  13  17
ATOM     17  O   UNL     1     -31.126  24.877   7.632  1.00  0.00    -0.504 OA
ATOM     18  H   UNL     1     -30.191  25.249   7.755  1.00  0.00     0.293 HD
ENDBRANCH  13  17
BRANCH  15  19
ATOM     19  O   UNL     1     -30.484  27.263   6.286  1.00  0.00    -0.502 OA
ATOM     20  H   UNL     1     -29.612  26.764   6.419  1.00  0.00     0.293 HD
ENDBRANCH  15  19
BRANCH  16  21
ATOM     21  O   UNL     1     -32.279  28.309   4.388  1.00  0.00    -0.504 OA
ATOM     22  H   UNL     1     -32.093  28.315   3.392  1.00  0.00     0.293 HD
ENDBRANCH  16  21
ENDBRANCH   1  11
BRANCH  10  23
ATOM     23  O   UNL     1     -34.970  24.656   2.788  1.00  0.00    -0.500 OA
ATOM     24  H   UNL     1     -34.336  25.446   2.814  1.00  0.00     0.294 HD
ENDBRANCH  10  23
BRANCH   5  25
ATOM     25  O   UNL     1     -40.115  22.340   8.125  1.00  0.00    -0.507 OA
ATOM     26  H   UNL     1     -40.993  21.842   8.038  1.00  0.00     0.293 HD
ENDBRANCH   5  25
BRANCH   7  27
ATOM     27  O   UNL     1     -39.655  22.390   3.347  1.00  0.00    -0.507 OA
ATOM     28  H   UNL     1     -40.521  21.885   3.224  1.00  0.00     0.293 HD
ENDBRANCH   7  27
TORSDOF 7
ENDMDL
MODEL 6
REMARK VINA RESULT:    37.033      1.654      1.936
REMARK INTER + INTRA:          45.905
REMARK INTER:                  46.251
REMARK INTRA:                  -0.347
REMARK UNBOUND:                 0.211
REMARK SMILES Oc1cc(O)c2cc(O)c(-c3cc(O)c(O)c(O)c3)[o+]c2c1
REMARK SMILES IDX 10 1 20 2 21 3 22 4 2 5 3 6 4 7 6 8 7 9 8 10 11 11 12 12
REMARK SMILES IDX 13 13 19 14 15 15 17 16 14 17 16 19 18 21 9 23 1 25 5 27
REMARK H PARENT 14 18 16 20 18 22 9 24 1 26 5 28
REMARK Flexibility Score: inf
ROOT
ATOM      1  C   UNL     1     -35.156  25.601   6.526  1.00  0.00     0.402 A 
ATOM      2  O   UNL     1     -35.621  24.585   5.805  1.00  0.00    -0.202 OA
ATOM      3  C   UNL     1     -36.878  24.157   5.872  1.00  0.00     0.368 A 
ATOM      4  C   UNL     1     -37.272  23.078   5.076  1.00  0.00     0.162 A 
ATOM      5  C   UNL     1     -38.588  22.606   5.130  1.00  0.00     0.128 A 
ATOM      6  C   UNL     1     -39.511  23.215   5.982  1.00  0.00     0.093 A 
ATOM      7  C   UNL     1     -39.140  24.297   6.790  1.00  0.00     0.136 A 
ATOM      8  C   UNL     1     -37.807  24.782   6.738  1.00  0.00     0.125 A 
ATOM      9  C   UNL     1     -37.351  25.869   7.501  1.00  0.00     0.078 A 
ATOM     10  C   UNL     1     -36.023  26.293   7.392  1.00  0.00     0.223 A 
ENDROOT
BRANCH   1  11
ATOM     11  C   UNL     1     -33.733  25.977   6.369  1.00  0.00     0.091 A 
ATOM     12  C   UNL     1     -32.709  25.242   6.993  1.00  0.00     0.068 A 
ATOM     13  C   UNL     1     -31.365  25.600   6.814  1.00  0.00     0.162 A 
ATOM     14  C   UNL     1     -33.390  27.053   5.538  1.00  0.00     0.068 A 
ATOM     15  C   UNL     1     -31.034  26.694   5.997  1.00  0.00     0.200 A 
ATOM     16  C   UNL     1     -32.052  27.418   5.354  1.00  0.00     0.162 A 
BRANCH  13  17
ATOM     17  O   UNL     1     -30.359  24.868   7.442  1.00  0.00    -0.504 OA
ATOM     18  H   UNL     1     -29.426  25.247   7.569  1.00  0.00     0.293 HD
ENDBRANCH  13  17
BRANCH  15  19
ATOM     19  O   UNL     1     -29.702  27.066   5.812  1.00  0.00    -0.502 OA
ATOM     20  H   UNL     1     -28.931  26.464   6.074  1.00  0.00     0.293 HD
ENDBRANCH  15  19
BRANCH  16  21
ATOM     21  O   UNL     1     -31.756  28.503   4.531  1.00  0.00    -0.504 OA
ATOM     22  H   UNL     1     -31.886  29.461   4.833  1.00  0.00     0.293 HD
ENDBRANCH  16  21
ENDBRANCH   1  11
BRANCH  10  23
ATOM     23  O   UNL     1     -35.582  27.403   8.112  1.00  0.00    -0.500 OA
ATOM     24  H   UNL     1     -34.600  27.552   8.314  1.00  0.00     0.294 HD
ENDBRANCH  10  23
BRANCH   5  25
ATOM     25  O   UNL     1     -38.988  21.531   4.338  1.00  0.00    -0.507 OA
ATOM     26  H   UNL     1     -38.729  20.579   4.567  1.00  0.00     0.293 HD
ENDBRANCH   5  25
BRANCH   7  27
ATOM     27  O   UNL     1     -40.123  24.848   7.618  1.00  0.00    -0.507 OA
ATOM     28  H   UNL     1     -39.983  25.084   8.590  1.00  0.00     0.293 HD
ENDBRANCH   7  27
TORSDOF 7
ENDMDL
