MODEL 1
REMARK VINA RESULT:    -5.803      0.000      0.000
REMARK INTER + INTRA:          -6.237
REMARK INTER:                  -6.142
REMARK INTRA:                  -0.095
REMARK UNBOUND:                -0.095
REMARK SMILES C=C(C)[C@@H]1CC=C(C)C(=O)C1
REMARK SMILES IDX 8 1 7 2 6 3 5 4 4 5 11 6 9 7 10 8 2 9 1 10 3 11
REMARK H PARENT
REMARK Flexibility Score: inf
ROOT
ATOM      1  C   UNL     1     -11.493 -34.716  25.991  1.00  0.00     0.048 C 
ATOM      2  C   UNL     1     -11.934 -34.281  27.362  1.00  0.00    -0.012 C 
ATOM      3  C   UNL     1     -11.117 -34.445  28.417  1.00  0.00    -0.019 C 
ATOM      4  C   UNL     1     -11.480 -33.953  29.793  1.00  0.00     0.036 C 
ATOM      5  C   UNL     1     -13.006 -33.981  30.009  1.00  0.00     0.025 C 
ATOM      6  C   UNL     1     -13.718 -33.185  28.898  1.00  0.00     0.089 C 
ATOM      7  C   UNL     1     -13.263 -33.648  27.541  1.00  0.00     0.158 C 
ATOM      8  O   UNL     1     -14.008 -33.449  26.544  1.00  0.00    -0.295 OA
ENDROOT
BRANCH   5   9
ATOM      9  C   UNL     1     -13.388 -33.474  31.394  1.00  0.00    -0.077 C 
ATOM     10  C   UNL     1     -12.638 -33.757  32.474  1.00  0.00     0.008 C 
ATOM     11  C   UNL     1     -14.628 -32.638  31.578  1.00  0.00     0.039 C 
ENDBRANCH   5   9
TORSDOF 1
ENDMDL
MODEL 2
REMARK VINA RESULT:    -5.746      3.111      4.877
REMARK INTER + INTRA:          -6.177
REMARK INTER:                  -6.084
REMARK INTRA:                  -0.093
REMARK UNBOUND:                -0.095
REMARK SMILES C=C(C)[C@@H]1CC=C(C)C(=O)C1
REMARK SMILES IDX 8 1 7 2 6 3 5 4 4 5 11 6 9 7 10 8 2 9 1 10 3 11
REMARK H PARENT
REMARK Flexibility Score: inf
ROOT
ATOM      1  C   UNL     1     -12.535 -38.312  31.827  1.00  0.00     0.048 C 
ATOM      2  C   UNL     1     -12.611 -37.297  30.720  1.00  0.00    -0.012 C 
ATOM      3  C   UNL     1     -13.474 -37.471  29.703  1.00  0.00    -0.019 C 
ATOM      4  C   UNL     1     -13.644 -36.445  28.614  1.00  0.00     0.036 C 
ATOM      5  C   UNL     1     -12.333 -35.673  28.367  1.00  0.00     0.025 C 
ATOM      6  C   UNL     1     -11.823 -35.052  29.681  1.00  0.00     0.089 C 
ATOM      7  C   UNL     1     -11.749 -36.091  30.765  1.00  0.00     0.158 C 
ATOM      8  O   UNL     1     -10.975 -35.904  31.743  1.00  0.00    -0.295 OA
ENDROOT
BRANCH   5   9
ATOM      9  C   UNL     1     -12.496 -34.624  27.275  1.00  0.00    -0.077 C 
ATOM     10  C   UNL     1     -13.432 -33.662  27.363  1.00  0.00     0.008 C 
ATOM     11  C   UNL     1     -11.599 -34.647  26.064  1.00  0.00     0.039 C 
ENDBRANCH   5   9
TORSDOF 1
ENDMDL
MODEL 3
REMARK VINA RESULT:    -5.629      2.093      4.425
REMARK INTER + INTRA:          -6.053
REMARK INTER:                  -5.959
REMARK INTRA:                  -0.093
REMARK UNBOUND:                -0.095
REMARK SMILES C=C(C)[C@@H]1CC=C(C)C(=O)C1
REMARK SMILES IDX 8 1 7 2 6 3 5 4 4 5 11 6 9 7 10 8 2 9 1 10 3 11
REMARK H PARENT
REMARK Flexibility Score: inf
ROOT
ATOM      1  C   UNL     1     -11.311 -33.692  32.880  1.00  0.00     0.048 C 
ATOM      2  C   UNL     1     -11.630 -33.896  31.424  1.00  0.00    -0.012 C 
ATOM      3  C   UNL     1     -10.772 -33.475  30.479  1.00  0.00    -0.019 C 
ATOM      4  C   UNL     1     -11.009 -33.728  29.014  1.00  0.00     0.036 C 
ATOM      5  C   UNL     1     -12.516 -33.778  28.695  1.00  0.00     0.025 C 
ATOM      6  C   UNL     1     -13.217 -34.819  29.588  1.00  0.00     0.089 C 
ATOM      7  C   UNL     1     -12.886 -34.584  31.036  1.00  0.00     0.158 C 
ATOM      8  O   UNL     1     -13.667 -35.022  31.923  1.00  0.00    -0.295 OA
ENDROOT
BRANCH   5   9
ATOM      9  C   UNL     1     -12.770 -34.044  27.216  1.00  0.00    -0.077 C 
ATOM     10  C   UNL     1     -13.952 -33.753  26.646  1.00  0.00     0.008 C 
ATOM     11  C   UNL     1     -11.686 -34.646  26.360  1.00  0.00     0.039 C 
ENDBRANCH   5   9
TORSDOF 1
ENDMDL
MODEL 4
REMARK VINA RESULT:    -5.547      2.012      4.664
REMARK INTER + INTRA:          -5.966
REMARK INTER:                  -5.871
REMARK INTRA:                  -0.095
REMARK UNBOUND:                -0.095
REMARK SMILES C=C(C)[C@@H]1CC=C(C)C(=O)C1
REMARK SMILES IDX 8 1 7 2 6 3 5 4 4 5 11 6 9 7 10 8 2 9 1 10 3 11
REMARK H PARENT
REMARK Flexibility Score: inf
ROOT
ATOM      1  C   UNL     1     -11.944 -33.876  32.739  1.00  0.00     0.048 C 
ATOM      2  C   UNL     1     -12.137 -33.834  31.248  1.00  0.00    -0.012 C 
ATOM      3  C   UNL     1     -13.323 -33.466  30.731  1.00  0.00    -0.019 C 
ATOM      4  C   UNL     1     -13.541 -33.330  29.247  1.00  0.00     0.036 C 
ATOM      5  C   UNL     1     -12.647 -34.310  28.462  1.00  0.00     0.025 C 
ATOM      6  C   UNL     1     -11.170 -34.120  28.855  1.00  0.00     0.089 C 
ATOM      7  C   UNL     1     -11.008 -34.176  30.349  1.00  0.00     0.158 C 
ATOM      8  O   UNL     1      -9.883 -34.473  30.834  1.00  0.00    -0.295 OA
ENDROOT
BRANCH   5   9
ATOM      9  C   UNL     1     -12.850 -34.175  26.958  1.00  0.00    -0.077 C 
ATOM     10  C   UNL     1     -14.001 -33.705  26.447  1.00  0.00     0.008 C 
ATOM     11  C   UNL     1     -11.749 -34.570  26.009  1.00  0.00     0.039 C 
ENDBRANCH   5   9
TORSDOF 1
ENDMDL
MODEL 5
REMARK VINA RESULT:    -5.452      3.002      4.106
REMARK INTER + INTRA:          -5.866
REMARK INTER:                  -5.771
REMARK INTRA:                  -0.095
REMARK UNBOUND:                -0.095
REMARK SMILES C=C(C)[C@@H]1CC=C(C)C(=O)C1
REMARK SMILES IDX 8 1 7 2 6 3 5 4 4 5 11 6 9 7 10 8 2 9 1 10 3 11
REMARK H PARENT
REMARK Flexibility Score: inf
ROOT
ATOM      1  C   UNL     1     -12.514 -38.677  31.947  1.00  0.00     0.048 C 
ATOM      2  C   UNL     1     -12.300 -37.382  31.213  1.00  0.00    -0.012 C 
ATOM      3  C   UNL     1     -11.659 -36.364  31.813  1.00  0.00    -0.019 C 
ATOM      4  C   UNL     1     -11.350 -35.078  31.093  1.00  0.00     0.036 C 
ATOM      5  C   UNL     1     -12.414 -34.771  30.020  1.00  0.00     0.025 C 
ATOM      6  C   UNL     1     -12.556 -35.962  29.054  1.00  0.00     0.089 C 
ATOM      7  C   UNL     1     -12.778 -37.239  29.815  1.00  0.00     0.158 C 
ATOM      8  O   UNL     1     -13.335 -38.211  29.236  1.00  0.00    -0.295 OA
ENDROOT
BRANCH   5   9
ATOM      9  C   UNL     1     -12.106 -33.478  29.277  1.00  0.00    -0.077 C 
ATOM     10  C   UNL     1     -10.855 -32.988  29.214  1.00  0.00     0.008 C 
ATOM     11  C   UNL     1     -13.212 -32.718  28.592  1.00  0.00     0.039 C 
ENDBRANCH   5   9
TORSDOF 1
ENDMDL
MODEL 6
REMARK VINA RESULT:    -5.352      2.414      3.329
REMARK INTER + INTRA:          -5.760
REMARK INTER:                  -5.667
REMARK INTRA:                  -0.093
REMARK UNBOUND:                -0.095
REMARK SMILES C=C(C)[C@@H]1CC=C(C)C(=O)C1
REMARK SMILES IDX 8 1 7 2 6 3 5 4 4 5 11 6 9 7 10 8 2 9 1 10 3 11
REMARK H PARENT
REMARK Flexibility Score: inf
ROOT
ATOM      1  C   UNL     1     -14.041 -31.982  28.308  1.00  0.00     0.048 C 
ATOM      2  C   UNL     1     -13.442 -33.033  29.202  1.00  0.00    -0.012 C 
ATOM      3  C   UNL     1     -12.480 -33.848  28.735  1.00  0.00    -0.019 C 
ATOM      4  C   UNL     1     -11.794 -34.861  29.613  1.00  0.00     0.036 C 
ATOM      5  C   UNL     1     -12.739 -35.368  30.720  1.00  0.00     0.025 C 
ATOM      6  C   UNL     1     -13.302 -34.182  31.526  1.00  0.00     0.089 C 
ATOM      7  C   UNL     1     -13.900 -33.153  30.608  1.00  0.00     0.158 C 
ATOM      8  O   UNL     1     -14.768 -32.357  31.060  1.00  0.00    -0.295 OA
ENDROOT
BRANCH   5   9
ATOM      9  C   UNL     1     -12.053 -36.385  31.623  1.00  0.00    -0.077 C 
ATOM     10  C   UNL     1     -11.002 -36.044  32.389  1.00  0.00     0.008 C 
ATOM     11  C   UNL     1     -12.548 -37.808  31.671  1.00  0.00     0.039 C 
ENDBRANCH   5   9
TORSDOF 1
ENDMDL
MODEL 7
REMARK VINA RESULT:    -5.288      2.815      3.481
REMARK INTER + INTRA:          -5.692
REMARK INTER:                  -5.598
REMARK INTRA:                  -0.094
REMARK UNBOUND:                -0.095
REMARK SMILES C=C(C)[C@@H]1CC=C(C)C(=O)C1
REMARK SMILES IDX 8 1 7 2 6 3 5 4 4 5 11 6 9 7 10 8 2 9 1 10 3 11
REMARK H PARENT
REMARK Flexibility Score: inf
ROOT
ATOM      1  C   UNL     1     -14.288 -37.895  28.576  1.00  0.00     0.048 C 
ATOM      2  C   UNL     1     -13.403 -37.171  29.553  1.00  0.00    -0.012 C 
ATOM      3  C   UNL     1     -13.167 -37.697  30.768  1.00  0.00    -0.019 C 
ATOM      4  C   UNL     1     -12.226 -37.050  31.750  1.00  0.00     0.036 C 
ATOM      5  C   UNL     1     -12.202 -35.520  31.573  1.00  0.00     0.025 C 
ATOM      6  C   UNL     1     -11.866 -35.155  30.114  1.00  0.00     0.089 C 
ATOM      7  C   UNL     1     -12.772 -35.887  29.163  1.00  0.00     0.158 C 
ATOM      8  O   UNL     1     -12.953 -35.419  28.006  1.00  0.00    -0.295 OA
ENDROOT
BRANCH   5   9
ATOM      9  C   UNL     1     -11.244 -34.855  32.553  1.00  0.00    -0.077 C 
ATOM     10  C   UNL     1     -10.096 -35.450  32.921  1.00  0.00     0.008 C 
ATOM     11  C   UNL     1     -11.573 -33.503  33.132  1.00  0.00     0.039 C 
ENDBRANCH   5   9
TORSDOF 1
ENDMDL
MODEL 8
REMARK VINA RESULT:    -5.287      1.955      2.938
REMARK INTER + INTRA:          -5.692
REMARK INTER:                  -5.599
REMARK INTRA:                  -0.093
REMARK UNBOUND:                -0.095
REMARK SMILES C=C(C)[C@@H]1CC=C(C)C(=O)C1
REMARK SMILES IDX 8 1 7 2 6 3 5 4 4 5 11 6 9 7 10 8 2 9 1 10 3 11
REMARK H PARENT
REMARK Flexibility Score: inf
ROOT
ATOM      1  C   UNL     1     -10.018 -35.794  30.533  1.00  0.00     0.048 C 
ATOM      2  C   UNL     1     -11.197 -34.910  30.836  1.00  0.00    -0.012 C 
ATOM      3  C   UNL     1     -11.453 -34.538  32.103  1.00  0.00    -0.019 C 
ATOM      4  C   UNL     1     -12.572 -33.590  32.447  1.00  0.00     0.036 C 
ATOM      5  C   UNL     1     -13.739 -33.721  31.449  1.00  0.00     0.025 C 
ATOM      6  C   UNL     1     -13.233 -33.528  30.007  1.00  0.00     0.089 C 
ATOM      7  C   UNL     1     -12.062 -34.430  29.731  1.00  0.00     0.158 C 
ATOM      8  O   UNL     1     -11.793 -34.739  28.538  1.00  0.00    -0.295 OA
ENDROOT
BRANCH   5   9
ATOM      9  C   UNL     1     -14.873 -32.759  31.779  1.00  0.00    -0.077 C 
ATOM     10  C   UNL     1     -15.529 -32.828  32.951  1.00  0.00     0.008 C 
ATOM     11  C   UNL     1     -15.281 -31.702  30.786  1.00  0.00     0.039 C 
ENDBRANCH   5   9
TORSDOF 1
ENDMDL
MODEL 9
REMARK VINA RESULT:    -5.261      2.020      4.860
REMARK INTER + INTRA:          -5.663
REMARK INTER:                  -5.570
REMARK INTRA:                  -0.093
REMARK UNBOUND:                -0.095
REMARK SMILES C=C(C)[C@@H]1CC=C(C)C(=O)C1
REMARK SMILES IDX 8 1 7 2 6 3 5 4 4 5 11 6 9 7 10 8 2 9 1 10 3 11
REMARK H PARENT
REMARK Flexibility Score: inf
ROOT
ATOM      1  C   UNL     1     -15.085 -32.366  32.694  1.00  0.00     0.048 C 
ATOM      2  C   UNL     1     -14.412 -32.729  31.399  1.00  0.00    -0.012 C 
ATOM      3  C   UNL     1     -14.736 -32.081  30.265  1.00  0.00    -0.019 C 
ATOM      4  C   UNL     1     -14.035 -32.352  28.961  1.00  0.00     0.036 C 
ATOM      5  C   UNL     1     -13.552 -33.814  28.882  1.00  0.00     0.025 C 
ATOM      6  C   UNL     1     -12.671 -34.152  30.100  1.00  0.00     0.089 C 
ATOM      7  C   UNL     1     -13.373 -33.787  31.379  1.00  0.00     0.158 C 
ATOM      8  O   UNL     1     -13.035 -34.360  32.450  1.00  0.00    -0.295 OA
ENDROOT
BRANCH   5   9
ATOM      9  C   UNL     1     -12.830 -34.097  27.571  1.00  0.00    -0.077 C 
ATOM     10  C   UNL     1     -13.428 -33.892  26.385  1.00  0.00     0.008 C 
ATOM     11  C   UNL     1     -11.416 -34.619  27.584  1.00  0.00     0.039 C 
ENDBRANCH   5   9
TORSDOF 1
ENDMDL
