MODEL 1
REMARK VINA RESULT:    -5.000      0.000      0.000
REMARK INTER + INTRA:          -5.776
REMARK INTER:                  -5.731
REMARK INTRA:                  -0.045
REMARK UNBOUND:                -0.045
REMARK SMILES O=C([O-])c1cc(O)c(O)c(O)c1
REMARK SMILES IDX 4 1 5 2 12 3 6 4 10 5 8 6 2 7 1 8 3 9 7 10 11 12 9 14
REMARK H PARENT 7 11 11 13 9 15
REMARK Flexibility Score: inf
ROOT
ATOM      1  C   UNL     1      -4.303  11.707 -40.867  1.00  0.00     0.005 A 
ATOM      2  C   UNL     1      -5.158  10.744 -41.428  1.00  0.00     0.060 A 
ATOM      3  C   UNL     1      -3.117  12.042 -41.540  1.00  0.00     0.060 A 
ATOM      4  C   UNL     1      -4.835  10.123 -42.643  1.00  0.00     0.162 A 
ATOM      5  C   UNL     1      -2.787  11.427 -42.753  1.00  0.00     0.162 A 
ATOM      6  C   UNL     1      -3.646  10.464 -43.309  1.00  0.00     0.200 A 
ENDROOT
BRANCH   1   7
ATOM      7  C   UNL     1      -4.644  12.364 -39.584  1.00  0.00     0.072 C 
ATOM      8  O   UNL     1      -4.020  12.072 -38.529  1.00  0.00    -0.545 OA
ATOM      9  O   UNL     1      -5.657  13.314 -39.527  1.00  0.00    -0.545 OA
ENDBRANCH   1   7
BRANCH   4  10
ATOM     10  O   UNL     1      -5.691   9.168 -43.190  1.00  0.00    -0.504 OA
ATOM     11  H   UNL     1      -6.040   9.248 -44.137  1.00  0.00     0.293 HD
ENDBRANCH   4  10
BRANCH   5  12
ATOM     12  O   UNL     1      -1.600  11.788 -43.390  1.00  0.00    -0.504 OA
ATOM     13  H   UNL     1      -1.470  12.700 -43.810  1.00  0.00     0.293 HD
ENDBRANCH   5  12
BRANCH   6  14
ATOM     14  O   UNL     1      -3.308   9.856 -44.519  1.00  0.00    -0.502 OA
ATOM     15  H   UNL     1      -3.971   9.306 -45.050  1.00  0.00     0.293 HD
ENDBRANCH   6  14
TORSDOF 4
ENDMDL
MODEL 2
REMARK VINA RESULT:    -4.996      0.046      2.429
REMARK INTER + INTRA:          -5.771
REMARK INTER:                  -5.726
REMARK INTRA:                  -0.045
REMARK UNBOUND:                -0.045
REMARK SMILES O=C([O-])c1cc(O)c(O)c(O)c1
REMARK SMILES IDX 4 1 5 2 12 3 6 4 10 5 8 6 2 7 1 8 3 9 7 10 11 12 9 14
REMARK H PARENT 7 11 11 13 9 15
REMARK Flexibility Score: inf
ROOT
ATOM      1  C   UNL     1      -4.314  11.707 -40.902  1.00  0.00     0.005 A 
ATOM      2  C   UNL     1      -3.120  12.050 -41.558  1.00  0.00     0.060 A 
ATOM      3  C   UNL     1      -5.154  10.739 -41.475  1.00  0.00     0.060 A 
ATOM      4  C   UNL     1      -2.769  11.435 -42.768  1.00  0.00     0.162 A 
ATOM      5  C   UNL     1      -4.811  10.121 -42.683  1.00  0.00     0.162 A 
ATOM      6  C   UNL     1      -3.616  10.468 -43.334  1.00  0.00     0.200 A 
ENDROOT
BRANCH   1   7
ATOM      7  C   UNL     1      -4.686  12.355 -39.623  1.00  0.00     0.072 C 
ATOM      8  O   UNL     1      -4.067  12.077 -38.560  1.00  0.00    -0.545 OA
ATOM      9  O   UNL     1      -5.721  13.280 -39.577  1.00  0.00    -0.545 OA
ENDBRANCH   1   7
BRANCH   4  10
ATOM     10  O   UNL     1      -1.581  11.784 -43.410  1.00  0.00    -0.504 OA
ATOM     11  H   UNL     1      -1.402  11.525 -44.373  1.00  0.00     0.293 HD
ENDBRANCH   4  10
BRANCH   5  12
ATOM     12  O   UNL     1      -5.672   9.165 -43.219  1.00  0.00    -0.504 OA
ATOM     13  H   UNL     1      -5.338   8.275 -43.572  1.00  0.00     0.293 HD
ENDBRANCH   5  12
BRANCH   6  14
ATOM     14  O   UNL     1      -3.282   9.847 -44.538  1.00  0.00    -0.502 OA
ATOM     15  H   UNL     1      -2.552  10.201 -45.144  1.00  0.00     0.293 HD
ENDBRANCH   6  14
TORSDOF 4
ENDMDL
MODEL 3
REMARK VINA RESULT:    -4.962      1.564      2.355
REMARK INTER + INTRA:          -5.733
REMARK INTER:                  -5.687
REMARK INTRA:                  -0.046
REMARK UNBOUND:                -0.045
REMARK SMILES O=C([O-])c1cc(O)c(O)c(O)c1
REMARK SMILES IDX 4 1 5 2 12 3 6 4 10 5 8 6 2 7 1 8 3 9 7 10 11 12 9 14
REMARK H PARENT 7 11 11 13 9 15
REMARK Flexibility Score: inf
ROOT
ATOM      1  C   UNL     1      -4.848  10.792 -41.272  1.00  0.00     0.005 A 
ATOM      2  C   UNL     1      -4.751  10.402 -42.619  1.00  0.00     0.060 A 
ATOM      3  C   UNL     1      -3.674  11.075 -40.557  1.00  0.00     0.060 A 
ATOM      4  C   UNL     1      -3.499  10.294 -43.241  1.00  0.00     0.162 A 
ATOM      5  C   UNL     1      -2.421  10.970 -41.171  1.00  0.00     0.162 A 
ATOM      6  C   UNL     1      -2.330  10.578 -42.517  1.00  0.00     0.200 A 
ENDROOT
BRANCH   1   7
ATOM      7  C   UNL     1      -6.170  10.907 -40.614  1.00  0.00     0.072 C 
ATOM      8  O   UNL     1      -6.573  12.018 -40.175  1.00  0.00    -0.545 OA
ATOM      9  O   UNL     1      -6.985   9.791 -40.472  1.00  0.00    -0.545 OA
ENDBRANCH   1   7
BRANCH   4  10
ATOM     10  O   UNL     1      -3.415   9.905 -44.577  1.00  0.00    -0.504 OA
ATOM     11  H   UNL     1      -4.035   9.205 -44.967  1.00  0.00     0.293 HD
ENDBRANCH   4  10
BRANCH   5  12
ATOM     12  O   UNL     1      -1.279  11.259 -40.426  1.00  0.00    -0.504 OA
ATOM     13  H   UNL     1      -1.248  12.025 -39.762  1.00  0.00     0.293 HD
ENDBRANCH   5  12
BRANCH   6  14
ATOM     14  O   UNL     1      -1.076  10.476 -43.121  1.00  0.00    -0.502 OA
ATOM     15  H   UNL     1      -0.898  10.819 -44.057  1.00  0.00     0.293 HD
ENDBRANCH   6  14
TORSDOF 4
ENDMDL
MODEL 4
REMARK VINA RESULT:    -4.953      1.587      2.916
REMARK INTER + INTRA:          -5.722
REMARK INTER:                  -5.677
REMARK INTRA:                  -0.046
REMARK UNBOUND:                -0.045
REMARK SMILES O=C([O-])c1cc(O)c(O)c(O)c1
REMARK SMILES IDX 4 1 5 2 12 3 6 4 10 5 8 6 2 7 1 8 3 9 7 10 11 12 9 14
REMARK H PARENT 7 11 11 13 9 15
REMARK Flexibility Score: inf
ROOT
ATOM      1  C   UNL     1      -4.871  10.784 -41.265  1.00  0.00     0.005 A 
ATOM      2  C   UNL     1      -3.703  11.075 -40.539  1.00  0.00     0.060 A 
ATOM      3  C   UNL     1      -4.759  10.393 -42.609  1.00  0.00     0.060 A 
ATOM      4  C   UNL     1      -2.443  10.979 -41.145  1.00  0.00     0.162 A 
ATOM      5  C   UNL     1      -3.504  10.295 -43.221  1.00  0.00     0.162 A 
ATOM      6  C   UNL     1      -2.341  10.588 -42.491  1.00  0.00     0.200 A 
ENDROOT
BRANCH   1   7
ATOM      7  C   UNL     1      -6.202  10.885 -40.625  1.00  0.00     0.072 C 
ATOM      8  O   UNL     1      -6.667  12.007 -40.287  1.00  0.00    -0.545 OA
ATOM      9  O   UNL     1      -6.959   9.743 -40.390  1.00  0.00    -0.545 OA
ENDBRANCH   1   7
BRANCH   4  10
ATOM     10  O   UNL     1      -1.292  11.271 -40.415  1.00  0.00    -0.504 OA
ATOM     11  H   UNL     1      -1.163  12.169 -39.963  1.00  0.00     0.293 HD
ENDBRANCH   4  10
BRANCH   5  12
ATOM     12  O   UNL     1      -3.437   9.903 -44.558  1.00  0.00    -0.504 OA
ATOM     13  H   UNL     1      -4.158  10.144 -45.228  1.00  0.00     0.293 HD
ENDBRANCH   5  12
BRANCH   6  14
ATOM     14  O   UNL     1      -1.095  10.486 -43.110  1.00  0.00    -0.502 OA
ATOM     15  H   UNL     1      -0.273  10.955 -42.750  1.00  0.00     0.293 HD
ENDBRANCH   6  14
TORSDOF 4
ENDMDL
MODEL 5
REMARK VINA RESULT:    -4.943      3.449      5.531
REMARK INTER + INTRA:          -5.711
REMARK INTER:                  -5.664
REMARK INTRA:                  -0.047
REMARK UNBOUND:                -0.045
REMARK SMILES O=C([O-])c1cc(O)c(O)c(O)c1
REMARK SMILES IDX 4 1 5 2 12 3 6 4 10 5 8 6 2 7 1 8 3 9 7 10 11 12 9 14
REMARK H PARENT 7 11 11 13 9 15
REMARK Flexibility Score: inf
ROOT
ATOM      1  C   UNL     1      -6.739  10.688 -41.155  1.00  0.00     0.005 A 
ATOM      2  C   UNL     1      -8.019  11.245 -41.320  1.00  0.00     0.060 A 
ATOM      3  C   UNL     1      -6.448   9.984 -39.976  1.00  0.00     0.060 A 
ATOM      4  C   UNL     1      -8.993  11.103 -40.322  1.00  0.00     0.162 A 
ATOM      5  C   UNL     1      -7.416   9.838 -38.975  1.00  0.00     0.162 A 
ATOM      6  C   UNL     1      -8.692  10.397 -39.145  1.00  0.00     0.200 A 
ENDROOT
BRANCH   1   7
ATOM      7  C   UNL     1      -5.710  10.837 -42.209  1.00  0.00     0.072 C 
ATOM      8  O   UNL     1      -5.141   9.824 -42.698  1.00  0.00    -0.545 OA
ATOM      9  O   UNL     1      -5.358  12.098 -42.676  1.00  0.00    -0.545 OA
ENDBRANCH   1   7
BRANCH   4  10
ATOM     10  O   UNL     1     -10.259  11.661 -40.497  1.00  0.00    -0.504 OA
ATOM     11  H   UNL     1     -10.383  12.648 -40.688  1.00  0.00     0.293 HD
ENDBRANCH   4  10
BRANCH   5  12
ATOM     12  O   UNL     1      -7.086   9.131 -37.819  1.00  0.00    -0.504 OA
ATOM     13  H   UNL     1      -7.022   8.120 -37.804  1.00  0.00     0.293 HD
ENDBRANCH   5  12
BRANCH   6  14
ATOM     14  O   UNL     1      -9.650  10.246 -38.142  1.00  0.00    -0.502 OA
ATOM     15  H   UNL     1     -10.612  10.538 -38.265  1.00  0.00     0.293 HD
ENDBRANCH   6  14
TORSDOF 4
ENDMDL
MODEL 6
REMARK VINA RESULT:    -4.927      3.440      5.629
REMARK INTER + INTRA:          -5.693
REMARK INTER:                  -5.645
REMARK INTRA:                  -0.047
REMARK UNBOUND:                -0.045
REMARK SMILES O=C([O-])c1cc(O)c(O)c(O)c1
REMARK SMILES IDX 4 1 5 2 12 3 6 4 10 5 8 6 2 7 1 8 3 9 7 10 11 12 9 14
REMARK H PARENT 7 11 11 13 9 15
REMARK Flexibility Score: inf
ROOT
ATOM      1  C   UNL     1      -6.683  10.709 -41.107  1.00  0.00     0.005 A 
ATOM      2  C   UNL     1      -6.386   9.995 -39.933  1.00  0.00     0.060 A 
ATOM      3  C   UNL     1      -7.968  11.248 -41.271  1.00  0.00     0.060 A 
ATOM      4  C   UNL     1      -7.358   9.822 -38.938  1.00  0.00     0.162 A 
ATOM      5  C   UNL     1      -8.944  11.079 -40.282  1.00  0.00     0.162 A 
ATOM      6  C   UNL     1      -8.642  10.365 -39.112  1.00  0.00     0.200 A 
ENDROOT
BRANCH   1   7
ATOM      7  C   UNL     1      -5.656  10.893 -42.158  1.00  0.00     0.072 C 
ATOM      8  O   UNL     1      -5.058   9.899 -42.652  1.00  0.00    -0.545 OA
ATOM      9  O   UNL     1      -5.339  12.166 -42.616  1.00  0.00    -0.545 OA
ENDBRANCH   1   7
BRANCH   4  10
ATOM     10  O   UNL     1      -7.052   9.111 -37.779  1.00  0.00    -0.504 OA
ATOM     11  H   UNL     1      -6.401   8.335 -37.787  1.00  0.00     0.293 HD
ENDBRANCH   4  10
BRANCH   5  12
ATOM     12  O   UNL     1     -10.209  11.631 -40.484  1.00  0.00    -0.504 OA
ATOM     13  H   UNL     1     -10.746  11.457 -41.325  1.00  0.00     0.293 HD
ENDBRANCH   5  12
BRANCH   6  14
ATOM     14  O   UNL     1      -9.622  10.201 -38.131  1.00  0.00    -0.502 OA
ATOM     15  H   UNL     1      -9.400   9.902 -37.190  1.00  0.00     0.293 HD
ENDBRANCH   6  14
TORSDOF 4
ENDMDL
MODEL 7
REMARK VINA RESULT:    -4.798      5.591      7.539
REMARK INTER + INTRA:          -5.545
REMARK INTER:                  -5.499
REMARK INTRA:                  -0.045
REMARK UNBOUND:                -0.045
REMARK SMILES O=C([O-])c1cc(O)c(O)c(O)c1
REMARK SMILES IDX 4 1 5 2 12 3 6 4 10 5 8 6 2 7 1 8 3 9 7 10 11 12 9 14
REMARK H PARENT 7 11 11 13 9 15
REMARK Flexibility Score: inf
ROOT
ATOM      1  C   UNL     1      -9.329  10.931 -40.719  1.00  0.00     0.005 A 
ATOM      2  C   UNL     1     -10.560  10.917 -41.397  1.00  0.00     0.060 A 
ATOM      3  C   UNL     1      -9.323  11.051 -39.320  1.00  0.00     0.060 A 
ATOM      4  C   UNL     1     -11.766  11.022 -40.690  1.00  0.00     0.162 A 
ATOM      5  C   UNL     1     -10.523  11.156 -38.607  1.00  0.00     0.162 A 
ATOM      6  C   UNL     1     -11.749  11.142 -39.291  1.00  0.00     0.200 A 
ENDROOT
BRANCH   1   7
ATOM      7  C   UNL     1      -8.055  10.819 -41.464  1.00  0.00     0.072 C 
ATOM      8  O   UNL     1      -7.615  11.793 -42.132  1.00  0.00    -0.545 OA
ATOM      9  O   UNL     1      -7.324   9.637 -41.436  1.00  0.00    -0.545 OA
ENDBRANCH   1   7
BRANCH   4  10
ATOM     10  O   UNL     1     -12.980  11.008 -41.375  1.00  0.00    -0.504 OA
ATOM     11  H   UNL     1     -13.095  10.499 -42.244  1.00  0.00     0.293 HD
ENDBRANCH   4  10
BRANCH   5  12
ATOM     12  O   UNL     1     -10.473  11.274 -37.219  1.00  0.00    -0.504 OA
ATOM     13  H   UNL     1     -11.311  11.347 -36.653  1.00  0.00     0.293 HD
ENDBRANCH   5  12
BRANCH   6  14
ATOM     14  O   UNL     1     -12.940  11.248 -38.572  1.00  0.00    -0.502 OA
ATOM     15  H   UNL     1     -13.205  12.097 -38.087  1.00  0.00     0.293 HD
ENDBRANCH   6  14
TORSDOF 4
ENDMDL
MODEL 8
REMARK VINA RESULT:    -4.795      5.660      7.746
REMARK INTER + INTRA:          -5.542
REMARK INTER:                  -5.497
REMARK INTRA:                  -0.045
REMARK UNBOUND:                -0.045
REMARK SMILES O=C([O-])c1cc(O)c(O)c(O)c1
REMARK SMILES IDX 4 1 5 2 12 3 6 4 10 5 8 6 2 7 1 8 3 9 7 10 11 12 9 14
REMARK H PARENT 7 11 11 13 9 15
REMARK Flexibility Score: inf
ROOT
ATOM      1  C   UNL     1      -9.439  10.931 -40.784  1.00  0.00     0.005 A 
ATOM      2  C   UNL     1      -9.377  11.035 -39.384  1.00  0.00     0.060 A 
ATOM      3  C   UNL     1     -10.694  10.925 -41.413  1.00  0.00     0.060 A 
ATOM      4  C   UNL     1     -10.551  11.131 -38.623  1.00  0.00     0.162 A 
ATOM      5  C   UNL     1     -11.870  11.020 -40.660  1.00  0.00     0.162 A 
ATOM      6  C   UNL     1     -11.802  11.123 -39.261  1.00  0.00     0.200 A 
ENDROOT
BRANCH   1   7
ATOM      7  C   UNL     1      -8.200  10.830 -41.589  1.00  0.00     0.072 C 
ATOM      8  O   UNL     1      -7.679   9.707 -41.826  1.00  0.00    -0.545 OA
ATOM      9  O   UNL     1      -7.595  11.974 -42.096  1.00  0.00    -0.545 OA
ENDBRANCH   1   7
BRANCH   4  10
ATOM     10  O   UNL     1     -10.477  11.233 -37.235  1.00  0.00    -0.504 OA
ATOM     11  H   UNL     1     -11.163  10.792 -36.632  1.00  0.00     0.293 HD
ENDBRANCH   4  10
BRANCH   5  12
ATOM     12  O   UNL     1     -13.097  11.010 -41.324  1.00  0.00    -0.504 OA
ATOM     13  H   UNL     1     -13.379  10.245 -41.925  1.00  0.00     0.293 HD
ENDBRANCH   5  12
BRANCH   6  14
ATOM     14  O   UNL     1     -12.981  11.218 -38.519  1.00  0.00    -0.502 OA
ATOM     15  H   UNL     1     -13.822  11.637 -38.894  1.00  0.00     0.293 HD
ENDBRANCH   6  14
TORSDOF 4
ENDMDL
MODEL 9
REMARK VINA RESULT:    -4.735      1.826      3.905
REMARK INTER + INTRA:          -5.472
REMARK INTER:                  -5.426
REMARK INTRA:                  -0.046
REMARK UNBOUND:                -0.045
REMARK SMILES O=C([O-])c1cc(O)c(O)c(O)c1
REMARK SMILES IDX 4 1 5 2 12 3 6 4 10 5 8 6 2 7 1 8 3 9 7 10 11 12 9 14
REMARK H PARENT 7 11 11 13 9 15
REMARK Flexibility Score: inf
ROOT
ATOM      1  C   UNL     1      -6.228  10.400 -41.357  1.00  0.00     0.005 A 
ATOM      2  C   UNL     1      -5.987  10.480 -39.975  1.00  0.00     0.060 A 
ATOM      3  C   UNL     1      -5.224  10.807 -42.250  1.00  0.00     0.060 A 
ATOM      4  C   UNL     1      -4.761  10.959 -39.492  1.00  0.00     0.162 A 
ATOM      5  C   UNL     1      -3.999  11.288 -41.775  1.00  0.00     0.162 A 
ATOM      6  C   UNL     1      -3.763  11.365 -40.393  1.00  0.00     0.200 A 
ENDROOT
BRANCH   1   7
ATOM      7  C   UNL     1      -7.522   9.892 -41.869  1.00  0.00     0.072 C 
ATOM      8  O   UNL     1      -8.590  10.526 -41.652  1.00  0.00    -0.545 OA
ATOM      9  O   UNL     1      -7.576   8.710 -42.598  1.00  0.00    -0.545 OA
ENDBRANCH   1   7
BRANCH   4  10
ATOM     10  O   UNL     1      -4.533  11.035 -38.118  1.00  0.00    -0.504 OA
ATOM     11  H   UNL     1      -3.604  11.181 -37.741  1.00  0.00     0.293 HD
ENDBRANCH   4  10
BRANCH   5  12
ATOM     12  O   UNL     1      -3.028  11.682 -42.695  1.00  0.00    -0.504 OA
ATOM     13  H   UNL     1      -2.039  11.667 -42.476  1.00  0.00     0.293 HD
ENDBRANCH   5  12
BRANCH   6  14
ATOM     14  O   UNL     1      -2.538  11.846 -39.929  1.00  0.00    -0.502 OA
ATOM     15  H   UNL     1      -1.802  11.228 -39.610  1.00  0.00     0.293 HD
ENDBRANCH   6  14
TORSDOF 4
ENDMDL
