MODEL 1
REMARK VINA RESULT:    -0.287      0.000      0.000
REMARK INTER + INTRA:           0.270
REMARK INTER:                  -0.354
REMARK INTRA:                   0.624
REMARK UNBOUND:                 0.624
REMARK SMILES C=C1[C@@H]2CC[C@H]3[C@@H]2C(C)(C)CCC[C@@]13C
REMARK SMILES IDX 14 1 6 2 7 3 3 4 2 5 1 6 4 7 5 8 15 9 8 10 9 11 10 12 11 13
REMARK SMILES IDX 13 15 12 16
REMARK H PARENT
REMARK Flexibility Score: 80.00
ROOT
ATOM      1  C   UNL     1       6.527   6.014  13.493  1.00  0.00    -0.008 C 
ATOM      2  C   UNL     1       6.285   7.346  14.306  1.00  0.00     0.003 C 
ATOM      3  C   UNL     1       6.177   8.447  13.230  1.00  0.00     0.006 C 
ATOM      4  C   UNL     1       7.492   8.052  12.555  1.00  0.00     0.019 C 
ATOM      5  C   UNL     1       7.300   6.579  12.327  1.00  0.00    -0.068 C 
ATOM      6  C   UNL     1       7.812   5.885  11.303  1.00  0.00     0.009 C 
ATOM      7  C   UNL     1       8.481   8.189  13.737  1.00  0.00     0.008 C 
ATOM      8  C   UNL     1       7.616   7.802  14.963  1.00  0.00     0.005 C 
ATOM      9  C   UNL     1       7.380   4.966  14.259  1.00  0.00     0.016 C 
ENDROOT
BRANCH   3  10
ATOM     10  C   UNL     1       4.853   8.581  12.362  1.00  0.00    -0.032 C 
ATOM     11  C   UNL     1       5.175   8.879  10.875  1.00  0.00     0.011 C 
ATOM     12  C   UNL     1       4.062   9.810  12.888  1.00  0.00     0.011 C 
BRANCH  10  13
ATOM     13  C   UNL     1       3.869   7.381  12.477  1.00  0.00     0.007 CG0
ATOM     14  G   UNL     1       4.405   6.033  12.003  1.00  0.00     0.000 G0
ENDBRANCH  10  13
ENDBRANCH   3  10
BRANCH   1  15
ATOM     15  C   UNL     1       5.205   5.317  13.073  1.00  0.00     0.011 C 
BRANCH  15  16
ATOM     16  C   UNL     1       4.381   6.035  12.007  1.00  0.00     0.001 CG0
ATOM     17  G   UNL     1       3.862   7.388  12.486  1.00  0.00     0.000 G0
ENDBRANCH  15  16
ENDBRANCH   1  15
TORSDOF 0
ENDMDL
MODEL 2
REMARK VINA RESULT:     0.366      4.875      6.880
REMARK INTER + INTRA:           1.075
REMARK INTER:                   0.443
REMARK INTRA:                   0.632
REMARK UNBOUND:                 0.624
REMARK SMILES C=C1[C@@H]2CC[C@H]3[C@@H]2C(C)(C)CCC[C@@]13C
REMARK SMILES IDX 14 1 6 2 7 3 3 4 2 5 1 6 4 7 5 8 15 9 8 10 9 11 10 12 11 13
REMARK SMILES IDX 13 15 12 16
REMARK H PARENT
REMARK Flexibility Score: 80.00
ROOT
ATOM      1  C   UNL     1       1.979  10.871  11.493  1.00  0.00    -0.008 C 
ATOM      2  C   UNL     1       1.390  12.319  11.270  1.00  0.00     0.003 C 
ATOM      3  C   UNL     1       1.895  13.136  12.477  1.00  0.00     0.006 C 
ATOM      4  C   UNL     1       1.381  12.124  13.502  1.00  0.00     0.019 C 
ATOM      5  C   UNL     1       1.977  10.838  13.001  1.00  0.00    -0.068 C 
ATOM      6  C   UNL     1       2.352   9.811  13.773  1.00  0.00     0.009 C 
ATOM      7  C   UNL     1      -0.124  12.081  13.143  1.00  0.00     0.008 C 
ATOM      8  C   UNL     1      -0.125  12.321  11.612  1.00  0.00     0.005 C 
ATOM      9  C   UNL     1       1.082   9.741  10.920  1.00  0.00     0.016 C 
ENDROOT
BRANCH   3  10
ATOM     10  C   UNL     1       3.408  13.618  12.533  1.00  0.00    -0.032 C 
ATOM     11  C   UNL     1       4.006  13.455  13.954  1.00  0.00     0.011 C 
ATOM     12  C   UNL     1       3.435  15.141  12.225  1.00  0.00     0.011 C 
BRANCH  10  13
ATOM     13  C   UNL     1       4.342  12.969  11.471  1.00  0.00     0.007 CG0
ATOM     14  G   UNL     1       4.509  11.455  11.567  1.00  0.00     0.000 G0
ENDBRANCH  10  13
ENDBRANCH   3  10
BRANCH   1  15
ATOM     15  C   UNL     1       3.393  10.695  10.878  1.00  0.00     0.011 C 
BRANCH  15  16
ATOM     16  C   UNL     1       4.520  11.464  11.563  1.00  0.00     0.001 CG0
ATOM     17  G   UNL     1       4.334  12.977  11.469  1.00  0.00     0.000 G0
ENDBRANCH  15  16
ENDBRANCH   1  15
TORSDOF 0
ENDMDL
MODEL 3
REMARK VINA RESULT:     0.547      1.148      3.073
REMARK INTER + INTRA:           1.299
REMARK INTER:                   0.654
REMARK INTRA:                   0.644
REMARK UNBOUND:                 0.624
REMARK SMILES C=C1[C@@H]2CC[C@H]3[C@@H]2C(C)(C)CCC[C@@]13C
REMARK SMILES IDX 14 1 6 2 7 3 3 4 2 5 1 6 4 7 5 8 15 9 8 10 9 11 10 12 11 13
REMARK SMILES IDX 13 15 12 16
REMARK H PARENT
REMARK Flexibility Score: 80.00
ROOT
ATOM      1  C   UNL     1       7.419   7.415  12.421  1.00  0.00    -0.008 C 
ATOM      2  C   UNL     1       6.842   6.007  12.000  1.00  0.00     0.003 C 
ATOM      3  C   UNL     1       5.591   5.816  12.882  1.00  0.00     0.006 C 
ATOM      4  C   UNL     1       6.343   6.108  14.181  1.00  0.00     0.019 C 
ATOM      5  C   UNL     1       7.008   7.420  13.873  1.00  0.00    -0.068 C 
ATOM      6  C   UNL     1       7.268   8.381  14.768  1.00  0.00     0.009 C 
ATOM      7  C   UNL     1       7.451   5.028  14.128  1.00  0.00     0.008 C 
ATOM      8  C   UNL     1       7.723   4.882  12.610  1.00  0.00     0.005 C 
ATOM      9  C   UNL     1       8.962   7.519  12.289  1.00  0.00     0.016 C 
ENDROOT
BRANCH   3  10
ATOM     10  C   UNL     1       4.256   6.609  12.547  1.00  0.00    -0.032 C 
ATOM     11  C   UNL     1       3.582   7.157  13.831  1.00  0.00     0.011 C 
ATOM     12  C   UNL     1       3.248   5.603  11.925  1.00  0.00     0.011 C 
BRANCH  10  13
ATOM     13  C   UNL     1       4.412   7.738  11.488  1.00  0.00     0.007 CG0
ATOM     14  G   UNL     1       5.333   8.892  11.876  1.00  0.00     0.000 G0
ENDBRANCH  10  13
ENDBRANCH   3  10
BRANCH   1  15
ATOM     15  C   UNL     1       6.804   8.585  11.607  1.00  0.00     0.011 C 
BRANCH  15  16
ATOM     16  C   UNL     1       5.334   8.889  11.881  1.00  0.00     0.001 CG0
ATOM     17  G   UNL     1       4.416   7.735  11.486  1.00  0.00     0.000 G0
ENDBRANCH  15  16
ENDBRANCH   1  15
TORSDOF 0
ENDMDL
MODEL 4
REMARK VINA RESULT:     0.762      5.202      7.068
REMARK INTER + INTRA:           1.564
REMARK INTER:                   0.946
REMARK INTRA:                   0.619
REMARK UNBOUND:                 0.624
REMARK SMILES C=C1[C@@H]2CC[C@H]3[C@@H]2C(C)(C)CCC[C@@]13C
REMARK SMILES IDX 14 1 6 2 7 3 3 4 2 5 1 6 4 7 5 8 15 9 8 10 9 11 10 12 11 13
REMARK SMILES IDX 13 15 12 16
REMARK H PARENT
REMARK Flexibility Score: 80.00
ROOT
ATOM      1  C   UNL     1       2.650  11.370  13.594  1.00  0.00    -0.008 C 
ATOM      2  C   UNL     1       3.634  11.382  12.359  1.00  0.00     0.003 C 
ATOM      3  C   UNL     1       3.092  12.495  11.438  1.00  0.00     0.006 C 
ATOM      4  C   UNL     1       1.671  11.929  11.428  1.00  0.00     0.019 C 
ATOM      5  C   UNL     1       1.378  11.784  12.895  1.00  0.00    -0.068 C 
ATOM      6  C   UNL     1       0.170  11.913  13.456  1.00  0.00     0.009 C 
ATOM      7  C   UNL     1       1.927  10.502  10.886  1.00  0.00     0.008 C 
ATOM      8  C   UNL     1       3.333  10.164  11.444  1.00  0.00     0.005 C 
ATOM      9  C   UNL     1       2.487   9.969  14.244  1.00  0.00     0.016 C 
ENDROOT
BRANCH   3  10
ATOM     10  C   UNL     1       3.332  14.020  11.811  1.00  0.00    -0.032 C 
ATOM     11  C   UNL     1       2.074  14.881  11.525  1.00  0.00     0.011 C 
ATOM     12  C   UNL     1       4.450  14.568  10.881  1.00  0.00     0.011 C 
BRANCH  10  13
ATOM     13  C   UNL     1       3.845  14.269  13.259  1.00  0.00     0.007 CG0
ATOM     14  G   UNL     1       2.903  13.841  14.381  1.00  0.00     0.000 G0
ENDBRANCH  10  13
ENDBRANCH   3  10
BRANCH   1  15
ATOM     15  C   UNL     1       3.080  12.353  14.716  1.00  0.00     0.011 C 
BRANCH  15  16
ATOM     16  C   UNL     1       2.935  13.838  14.394  1.00  0.00     0.001 CG0
ATOM     17  G   UNL     1       3.842  14.278  13.247  1.00  0.00     0.000 G0
ENDBRANCH  15  16
ENDBRANCH   1  15
TORSDOF 0
ENDMDL
MODEL 5
REMARK VINA RESULT:     0.966      4.833      6.858
REMARK INTER + INTRA:           1.816
REMARK INTER:                   1.168
REMARK INTRA:                   0.648
REMARK UNBOUND:                 0.624
REMARK SMILES C=C1[C@@H]2CC[C@H]3[C@@H]2C(C)(C)CCC[C@@]13C
REMARK SMILES IDX 14 1 6 2 7 3 3 4 2 5 1 6 4 7 5 8 15 9 8 10 9 11 10 12 11 13
REMARK SMILES IDX 13 15 12 16
REMARK H PARENT
REMARK Flexibility Score: 80.00
ROOT
ATOM      1  C   UNL     1       3.623  13.194  13.523  1.00  0.00    -0.008 C 
ATOM      2  C   UNL     1       2.871  14.243  12.614  1.00  0.00     0.003 C 
ATOM      3  C   UNL     1       2.355  13.422  11.414  1.00  0.00     0.006 C 
ATOM      4  C   UNL     1       3.728  12.818  11.113  1.00  0.00     0.019 C 
ATOM      5  C   UNL     1       4.128  12.261  12.450  1.00  0.00    -0.068 C 
ATOM      6  C   UNL     1       4.884  11.172  12.636  1.00  0.00     0.009 C 
ATOM      7  C   UNL     1       4.571  14.098  10.897  1.00  0.00     0.008 C 
ATOM      8  C   UNL     1       3.911  15.117  11.861  1.00  0.00     0.005 C 
ATOM      9  C   UNL     1       4.808  13.802  14.322  1.00  0.00     0.016 C 
ENDROOT
BRANCH   3  10
ATOM     10  C   UNL     1       1.095  12.471  11.587  1.00  0.00    -0.032 C 
ATOM     11  C   UNL     1       1.307  11.109  10.875  1.00  0.00     0.011 C 
ATOM     12  C   UNL     1      -0.112  13.146  10.877  1.00  0.00     0.011 C 
BRANCH  10  13
ATOM     13  C   UNL     1       0.634  12.252  13.057  1.00  0.00     0.007 CG0
ATOM     14  G   UNL     1       1.642  11.564  13.974  1.00  0.00     0.000 G0
ENDBRANCH  10  13
ENDBRANCH   3  10
BRANCH   1  15
ATOM     15  C   UNL     1       2.683  12.500  14.545  1.00  0.00     0.011 C 
BRANCH  15  16
ATOM     16  C   UNL     1       1.639  11.555  13.958  1.00  0.00     0.001 CG0
ATOM     17  G   UNL     1       0.653  12.274  13.041  1.00  0.00     0.000 G0
ENDBRANCH  15  16
ENDBRANCH   1  15
TORSDOF 0
ENDMDL
MODEL 6
REMARK VINA RESULT:     1.382      1.517      3.753
REMARK INTER + INTRA:           2.329
REMARK INTER:                   1.697
REMARK INTRA:                   0.632
REMARK UNBOUND:                 0.624
REMARK SMILES C=C1[C@@H]2CC[C@H]3[C@@H]2C(C)(C)CCC[C@@]13C
REMARK SMILES IDX 14 1 6 2 7 3 3 4 2 5 1 6 4 7 5 8 15 9 8 10 9 11 10 12 11 13
REMARK SMILES IDX 13 15 12 16
REMARK H PARENT
REMARK Flexibility Score: 80.00
ROOT
ATOM      1  C   UNL     1       4.875   6.545  12.326  1.00  0.00    -0.008 C 
ATOM      2  C   UNL     1       5.873   7.503  11.566  1.00  0.00     0.003 C 
ATOM      3  C   UNL     1       6.540   8.338  12.680  1.00  0.00     0.006 C 
ATOM      4  C   UNL     1       5.205   8.762  13.295  1.00  0.00     0.019 C 
ATOM      5  C   UNL     1       4.510   7.443  13.482  1.00  0.00    -0.068 C 
ATOM      6  C   UNL     1       3.645   7.160  14.464  1.00  0.00     0.009 C 
ATOM      7  C   UNL     1       4.529   9.448  12.083  1.00  0.00     0.008 C 
ATOM      8  C   UNL     1       5.074   8.643  10.877  1.00  0.00     0.005 C 
ATOM      9  C   UNL     1       3.614   6.178  11.498  1.00  0.00     0.016 C 
ENDROOT
BRANCH   3  10
ATOM     10  C   UNL     1       7.660   7.684  13.597  1.00  0.00    -0.032 C 
ATOM     11  C   UNL     1       7.489   8.094  15.083  1.00  0.00     0.011 C 
ATOM     12  C   UNL     1       9.035   8.252  13.148  1.00  0.00     0.011 C 
BRANCH  10  13
ATOM     13  C   UNL     1       7.794   6.139  13.470  1.00  0.00     0.007 CG0
ATOM     14  G   UNL     1       6.563   5.329  13.869  1.00  0.00     0.000 G0
ENDBRANCH  10  13
ENDBRANCH   3  10
BRANCH   1  15
ATOM     15  C   UNL     1       5.540   5.214  12.770  1.00  0.00     0.011 C 
BRANCH  15  16
ATOM     16  C   UNL     1       6.580   5.325  13.881  1.00  0.00     0.001 CG0
ATOM     17  G   UNL     1       7.801   6.138  13.457  1.00  0.00     0.000 G0
ENDBRANCH  15  16
ENDBRANCH   1  15
TORSDOF 0
ENDMDL
MODEL 7
REMARK VINA RESULT:     1.433      3.747      6.653
REMARK INTER + INTRA:           2.392
REMARK INTER:                   1.754
REMARK INTRA:                   0.638
REMARK UNBOUND:                 0.624
REMARK SMILES C=C1[C@@H]2CC[C@H]3[C@@H]2C(C)(C)CCC[C@@]13C
REMARK SMILES IDX 14 1 6 2 7 3 3 4 2 5 1 6 4 7 5 8 15 9 8 10 9 11 10 12 11 13
REMARK SMILES IDX 13 15 12 16
REMARK H PARENT
REMARK Flexibility Score: 80.00
ROOT
ATOM      1  C   UNL     1       3.101  13.151  12.890  1.00  0.00    -0.008 C 
ATOM      2  C   UNL     1       3.153  11.959  13.925  1.00  0.00     0.003 C 
ATOM      3  C   UNL     1       2.417  10.799  13.223  1.00  0.00     0.006 C 
ATOM      4  C   UNL     1       1.181  11.642  12.910  1.00  0.00     0.019 C 
ATOM      5  C   UNL     1       1.779  12.841  12.231  1.00  0.00    -0.068 C 
ATOM      6  C   UNL     1       1.186  13.557  11.268  1.00  0.00     0.009 C 
ATOM      7  C   UNL     1       0.771  12.099  14.331  1.00  0.00     0.008 C 
ATOM      8  C   UNL     1       2.130  12.218  15.065  1.00  0.00     0.005 C 
ATOM      9  C   UNL     1       3.064  14.552  13.558  1.00  0.00     0.016 C 
ENDROOT
BRANCH   3  10
ATOM     10  C   UNL     1       3.138   9.992  12.059  1.00  0.00    -0.032 C 
ATOM     11  C   UNL     1       2.167   9.694  10.887  1.00  0.00     0.011 C 
ATOM     12  C   UNL     1       3.564   8.611  12.630  1.00  0.00     0.011 C 
BRANCH  10  13
ATOM     13  C   UNL     1       4.451  10.637  11.528  1.00  0.00     0.007 CG0
ATOM     14  G   UNL     1       4.302  12.013  10.883  1.00  0.00     0.000 G0
ENDBRANCH  10  13
ENDBRANCH   3  10
BRANCH   1  15
ATOM     15  C   UNL     1       4.297  13.141  11.901  1.00  0.00     0.011 C 
BRANCH  15  16
ATOM     16  C   UNL     1       4.311  12.005  10.882  1.00  0.00     0.001 CG0
ATOM     17  G   UNL     1       4.447  10.633  11.539  1.00  0.00     0.000 G0
ENDBRANCH  15  16
ENDBRANCH   1  15
TORSDOF 0
ENDMDL
MODEL 8
REMARK VINA RESULT:     2.290      4.515      6.290
REMARK INTER + INTRA:           3.449
REMARK INTER:                   2.205
REMARK INTRA:                   1.245
REMARK UNBOUND:                 0.624
REMARK SMILES C=C1[C@@H]2CC[C@H]3[C@@H]2C(C)(C)CCC[C@@]13C
REMARK SMILES IDX 14 1 6 2 7 3 3 4 2 5 1 6 4 7 5 8 15 9 8 10 9 11 10 12 11 13
REMARK SMILES IDX 13 15 12 16
REMARK H PARENT
REMARK Flexibility Score: 80.00
ROOT
ATOM      1  C   UNL     1       3.991  11.934  12.697  1.00  0.00    -0.008 C 
ATOM      2  C   UNL     1       2.769  12.018  13.694  1.00  0.00     0.003 C 
ATOM      3  C   UNL     1       1.641  12.681  12.875  1.00  0.00     0.006 C 
ATOM      4  C   UNL     1       2.513  13.862  12.447  1.00  0.00     0.019 C 
ATOM      5  C   UNL     1       3.722  13.173  11.878  1.00  0.00    -0.068 C 
ATOM      6  C   UNL     1       4.474  13.640  10.875  1.00  0.00     0.009 C 
ATOM      7  C   UNL     1       2.935  14.429  13.823  1.00  0.00     0.008 C 
ATOM      8  C   UNL     1       3.011  13.164  14.714  1.00  0.00     0.005 C 
ATOM      9  C   UNL     1       5.372  12.030  13.398  1.00  0.00     0.016 C 
ENDROOT
BRANCH   3  10
ATOM     10  C   UNL     1       0.857  11.839  11.779  1.00  0.00    -0.032 C 
ATOM     11  C   UNL     1      -0.057  12.744  10.913  1.00  0.00     0.011 C 
ATOM     12  C   UNL     1      -0.088  10.854  12.522  1.00  0.00     0.011 C 
BRANCH  10  13
ATOM     13  C   UNL     1       1.752  10.943  10.875  1.00  0.00     0.007 CG0
ATOM     14  G   UNL     1       2.669   9.965  11.606  1.00  0.00     0.000 G0
ENDBRANCH  10  13
ENDBRANCH   3  10
BRANCH   1  15
ATOM     15  C   UNL     1       3.990  10.630  11.854  1.00  0.00     0.011 C 
BRANCH  15  16
ATOM     16  C   UNL     1       2.623  10.002  11.596  1.00  0.00     0.001 CG0
ATOM     17  G   UNL     1       1.684  10.939  10.839  1.00  0.00     0.000 G0
ENDBRANCH  15  16
ENDBRANCH   1  15
TORSDOF 0
ENDMDL
