MODEL 1
REMARK VINA RESULT:    -4.233      0.000      0.000
REMARK INTER + INTRA:          -4.655
REMARK INTER:                  -4.481
REMARK INTRA:                  -0.174
REMARK UNBOUND:                -0.174
REMARK SMILES CC(C)[C@@H]1CC[C@H](C)CC1=O
REMARK SMILES IDX 8 1 7 2 6 3 5 4 4 5 10 6 11 7 9 8 2 9 1 10 3 11
REMARK H PARENT
REMARK Flexibility Score: inf
ROOT
ATOM      1  C   UNL     1      -2.971  81.229  -7.564  1.00  0.00     0.008 C 
ATOM      2  C   UNL     1      -2.992  82.477  -8.455  1.00  0.00    -0.007 C 
ATOM      3  C   UNL     1      -3.803  82.220  -9.762  1.00  0.00     0.004 C 
ATOM      4  C   UNL     1      -5.153  82.951  -9.785  1.00  0.00     0.012 C 
ATOM      5  C   UNL     1      -4.956  84.480  -9.658  1.00  0.00     0.058 C 
ATOM      6  C   UNL     1      -3.957  84.795  -8.560  1.00  0.00     0.136 C 
ATOM      7  O   UNL     1      -3.512  85.925  -8.433  1.00  0.00    -0.299 OA
ATOM      8  C   UNL     1      -3.490  83.698  -7.645  1.00  0.00     0.079 C 
ENDROOT
BRANCH   5   9
ATOM      9  C   UNL     1      -6.317  85.218  -9.485  1.00  0.00    -0.007 C 
ATOM     10  C   UNL     1      -7.508  84.278  -9.729  1.00  0.00     0.008 C 
ATOM     11  C   UNL     1      -6.451  86.475 -10.365  1.00  0.00     0.008 C 
ENDBRANCH   5   9
TORSDOF 1
ENDMDL
MODEL 2
REMARK VINA RESULT:    -4.009      1.827      3.760
REMARK INTER + INTRA:          -4.417
REMARK INTER:                  -4.198
REMARK INTRA:                  -0.219
REMARK UNBOUND:                -0.174
REMARK SMILES CC(C)[C@@H]1CC[C@H](C)CC1=O
REMARK SMILES IDX 8 1 7 2 6 3 5 4 4 5 10 6 11 7 9 8 2 9 1 10 3 11
REMARK H PARENT
REMARK Flexibility Score: inf
ROOT
ATOM      1  C   UNL     1      -7.378  83.333  -9.380  1.00  0.00     0.008 C 
ATOM      2  C   UNL     1      -5.877  83.458  -9.667  1.00  0.00    -0.007 C 
ATOM      3  C   UNL     1      -5.484  84.937  -9.970  1.00  0.00     0.004 C 
ATOM      4  C   UNL     1      -4.681  85.589  -8.835  1.00  0.00     0.012 C 
ATOM      5  C   UNL     1      -3.371  84.810  -8.567  1.00  0.00     0.058 C 
ATOM      6  C   UNL     1      -3.643  83.318  -8.524  1.00  0.00     0.136 C 
ATOM      7  O   UNL     1      -2.719  82.520  -8.523  1.00  0.00    -0.299 OA
ATOM      8  C   UNL     1      -5.062  82.822  -8.515  1.00  0.00     0.079 C 
ENDROOT
BRANCH   5   9
ATOM      9  C   UNL     1      -2.642  85.342  -7.296  1.00  0.00    -0.007 C 
ATOM     10  C   UNL     1      -3.604  85.477  -6.104  1.00  0.00     0.008 C 
ATOM     11  C   UNL     1      -1.900  86.671  -7.525  1.00  0.00     0.008 C 
ENDBRANCH   5   9
TORSDOF 1
ENDMDL
MODEL 3
REMARK VINA RESULT:    -3.968      2.179      4.249
REMARK INTER + INTRA:          -4.374
REMARK INTER:                  -4.196
REMARK INTRA:                  -0.178
REMARK UNBOUND:                -0.174
REMARK SMILES CC(C)[C@@H]1CC[C@H](C)CC1=O
REMARK SMILES IDX 8 1 7 2 6 3 5 4 4 5 10 6 11 7 9 8 2 9 1 10 3 11
REMARK H PARENT
REMARK Flexibility Score: inf
ROOT
ATOM      1  C   UNL     1      -3.571  88.310  -6.192  1.00  0.00     0.008 C 
ATOM      2  C   UNL     1      -3.420  87.546  -7.513  1.00  0.00    -0.007 C 
ATOM      3  C   UNL     1      -2.249  86.519  -7.437  1.00  0.00     0.004 C 
ATOM      4  C   UNL     1      -2.731  85.062  -7.376  1.00  0.00     0.012 C 
ATOM      5  C   UNL     1      -3.575  84.707  -8.623  1.00  0.00     0.058 C 
ATOM      6  C   UNL     1      -4.576  85.809  -8.916  1.00  0.00     0.136 C 
ATOM      7  O   UNL     1      -5.197  85.818  -9.966  1.00  0.00    -0.299 OA
ATOM      8  C   UNL     1      -4.775  86.914  -7.917  1.00  0.00     0.079 C 
ENDROOT
BRANCH   5   9
ATOM      9  C   UNL     1      -4.231  83.299  -8.485  1.00  0.00    -0.007 C 
ATOM     10  C   UNL     1      -3.729  82.559  -7.235  1.00  0.00     0.008 C 
ATOM     11  C   UNL     1      -4.048  82.412  -9.730  1.00  0.00     0.008 C 
ENDBRANCH   5   9
TORSDOF 1
ENDMDL
MODEL 4
REMARK VINA RESULT:    -3.715      0.956      4.115
REMARK INTER + INTRA:          -4.107
REMARK INTER:                  -3.923
REMARK INTRA:                  -0.183
REMARK UNBOUND:                -0.174
REMARK SMILES CC(C)[C@@H]1CC[C@H](C)CC1=O
REMARK SMILES IDX 8 1 7 2 6 3 5 4 4 5 10 6 11 7 9 8 2 9 1 10 3 11
REMARK H PARENT
REMARK Flexibility Score: inf
ROOT
ATOM      1  C   UNL     1      -6.377  86.584 -10.391  1.00  0.00     0.008 C 
ATOM      2  C   UNL     1      -6.120  85.696  -9.167  1.00  0.00    -0.007 C 
ATOM      3  C   UNL     1      -6.572  84.228  -9.433  1.00  0.00     0.004 C 
ATOM      4  C   UNL     1      -5.394  83.257  -9.600  1.00  0.00     0.012 C 
ATOM      5  C   UNL     1      -4.506  83.244  -8.333  1.00  0.00     0.058 C 
ATOM      6  C   UNL     1      -4.242  84.660  -7.857  1.00  0.00     0.136 C 
ATOM      7  O   UNL     1      -3.732  84.861  -6.766  1.00  0.00    -0.299 OA
ATOM      8  C   UNL     1      -4.642  85.820  -8.724  1.00  0.00     0.079 C 
ENDROOT
BRANCH   5   9
ATOM      9  C   UNL     1      -3.205  82.415  -8.558  1.00  0.00    -0.007 C 
ATOM     10  C   UNL     1      -3.159  81.801  -9.966  1.00  0.00     0.008 C 
ATOM     11  C   UNL     1      -2.984  81.319  -7.499  1.00  0.00     0.008 C 
ENDBRANCH   5   9
TORSDOF 1
ENDMDL
MODEL 5
REMARK VINA RESULT:    -3.701      8.058     10.028
REMARK INTER + INTRA:          -4.092
REMARK INTER:                  -3.865
REMARK INTRA:                  -0.227
REMARK UNBOUND:                -0.174
REMARK SMILES CC(C)[C@@H]1CC[C@H](C)CC1=O
REMARK SMILES IDX 8 1 7 2 6 3 5 4 4 5 10 6 11 7 9 8 2 9 1 10 3 11
REMARK H PARENT
REMARK Flexibility Score: inf
ROOT
ATOM      1  C   UNL     1      -5.155  90.568 -12.404  1.00  0.00     0.008 C 
ATOM      2  C   UNL     1      -4.566  90.115 -13.745  1.00  0.00    -0.007 C 
ATOM      3  C   UNL     1      -5.679  89.572 -14.692  1.00  0.00     0.004 C 
ATOM      4  C   UNL     1      -5.986  90.517 -15.863  1.00  0.00     0.012 C 
ATOM      5  C   UNL     1      -4.723  90.757 -16.725  1.00  0.00     0.058 C 
ATOM      6  C   UNL     1      -3.523  91.034 -15.839  1.00  0.00     0.136 C 
ATOM      7  O   UNL     1      -2.397  91.052 -16.310  1.00  0.00    -0.299 OA
ATOM      8  C   UNL     1      -3.724  91.256 -14.366  1.00  0.00     0.079 C 
ENDROOT
BRANCH   5   9
ATOM      9  C   UNL     1      -4.967  91.861 -17.798  1.00  0.00    -0.007 C 
ATOM     10  C   UNL     1      -5.353  93.203 -17.155  1.00  0.00     0.008 C 
ATOM     11  C   UNL     1      -6.013  91.466 -18.858  1.00  0.00     0.008 C 
ENDBRANCH   5   9
TORSDOF 1
ENDMDL
MODEL 6
REMARK VINA RESULT:    -3.681      2.267      3.813
REMARK INTER + INTRA:          -4.070
REMARK INTER:                  -3.888
REMARK INTRA:                  -0.182
REMARK UNBOUND:                -0.174
REMARK SMILES CC(C)[C@@H]1CC[C@H](C)CC1=O
REMARK SMILES IDX 8 1 7 2 6 3 5 4 4 5 10 6 11 7 9 8 2 9 1 10 3 11
REMARK H PARENT
REMARK Flexibility Score: inf
ROOT
ATOM      1  C   UNL     1      -4.918  82.729  -9.975  1.00  0.00     0.008 C 
ATOM      2  C   UNL     1      -5.417  83.903  -9.122  1.00  0.00    -0.007 C 
ATOM      3  C   UNL     1      -4.842  83.830  -7.675  1.00  0.00     0.004 C 
ATOM      4  C   UNL     1      -3.777  84.900  -7.397  1.00  0.00     0.012 C 
ATOM      5  C   UNL     1      -4.358  86.321  -7.591  1.00  0.00     0.058 C 
ATOM      6  C   UNL     1      -5.167  86.391  -8.873  1.00  0.00     0.136 C 
ATOM      7  O   UNL     1      -5.870  87.360  -9.109  1.00  0.00    -0.299 OA
ATOM      8  C   UNL     1      -5.124  85.242  -9.841  1.00  0.00     0.079 C 
ENDROOT
BRANCH   5   9
ATOM      9  C   UNL     1      -3.245  87.409  -7.503  1.00  0.00    -0.007 C 
ATOM     10  C   UNL     1      -1.875  86.794  -7.174  1.00  0.00     0.008 C 
ATOM     11  C   UNL     1      -3.567  88.538  -6.507  1.00  0.00     0.008 C 
ENDBRANCH   5   9
TORSDOF 1
ENDMDL
MODEL 7
REMARK VINA RESULT:    -3.650      7.957      9.353
REMARK INTER + INTRA:          -4.037
REMARK INTER:                  -3.814
REMARK INTRA:                  -0.223
REMARK UNBOUND:                -0.174
REMARK SMILES CC(C)[C@@H]1CC[C@H](C)CC1=O
REMARK SMILES IDX 8 1 7 2 6 3 5 4 4 5 10 6 11 7 9 8 2 9 1 10 3 11
REMARK H PARENT
REMARK Flexibility Score: inf
ROOT
ATOM      1  C   UNL     1      -8.356  89.924 -13.769  1.00  0.00     0.008 C 
ATOM      2  C   UNL     1      -6.848  89.828 -13.501  1.00  0.00    -0.007 C 
ATOM      3  C   UNL     1      -6.114  89.108 -14.673  1.00  0.00     0.004 C 
ATOM      4  C   UNL     1      -5.264  90.061 -15.525  1.00  0.00     0.012 C 
ATOM      5  C   UNL     1      -4.184  90.758 -14.664  1.00  0.00     0.058 C 
ATOM      6  C   UNL     1      -4.786  91.258 -13.364  1.00  0.00     0.136 C 
ATOM      7  O   UNL     1      -4.067  91.657 -12.461  1.00  0.00    -0.299 OA
ATOM      8  C   UNL     1      -6.277  91.230 -13.178  1.00  0.00     0.079 C 
ENDROOT
BRANCH   5   9
ATOM      9  C   UNL     1      -3.442  91.868 -15.468  1.00  0.00    -0.007 C 
ATOM     10  C   UNL     1      -4.427  92.852 -16.119  1.00  0.00     0.008 C 
ATOM     11  C   UNL     1      -2.474  91.313 -16.530  1.00  0.00     0.008 C 
ENDBRANCH   5   9
TORSDOF 1
ENDMDL
MODEL 8
REMARK VINA RESULT:    -3.629      6.864      9.564
REMARK INTER + INTRA:          -4.015
REMARK INTER:                  -3.827
REMARK INTRA:                  -0.188
REMARK UNBOUND:                -0.174
REMARK SMILES CC(C)[C@@H]1CC[C@H](C)CC1=O
REMARK SMILES IDX 8 1 7 2 6 3 5 4 4 5 10 6 11 7 9 8 2 9 1 10 3 11
REMARK H PARENT
REMARK Flexibility Score: inf
ROOT
ATOM      1  C   UNL     1      -6.025  91.573 -18.229  1.00  0.00     0.008 C 
ATOM      2  C   UNL     1      -5.546  91.684 -16.777  1.00  0.00    -0.007 C 
ATOM      3  C   UNL     1      -6.700  92.153 -15.839  1.00  0.00     0.004 C 
ATOM      4  C   UNL     1      -7.218  91.037 -14.920  1.00  0.00     0.012 C 
ATOM      5  C   UNL     1      -6.084  90.492 -14.019  1.00  0.00     0.058 C 
ATOM      6  C   UNL     1      -4.826  90.260 -14.835  1.00  0.00     0.136 C 
ATOM      7  O   UNL     1      -3.764  90.023 -14.281  1.00  0.00    -0.299 OA
ATOM      8  C   UNL     1      -4.885  90.356 -16.333  1.00  0.00     0.079 C 
ENDROOT
BRANCH   5   9
ATOM      9  C   UNL     1      -6.545  89.233 -13.223  1.00  0.00    -0.007 C 
ATOM     10  C   UNL     1      -7.958  88.788 -13.633  1.00  0.00     0.008 C 
ATOM     11  C   UNL     1      -6.472  89.413 -11.696  1.00  0.00     0.008 C 
ENDBRANCH   5   9
TORSDOF 1
ENDMDL
MODEL 9
REMARK VINA RESULT:    -3.625      8.339      9.810
REMARK INTER + INTRA:          -4.011
REMARK INTER:                  -3.848
REMARK INTRA:                  -0.163
REMARK UNBOUND:                -0.174
REMARK SMILES CC(C)[C@@H]1CC[C@H](C)CC1=O
REMARK SMILES IDX 8 1 7 2 6 3 5 4 4 5 10 6 11 7 9 8 2 9 1 10 3 11
REMARK H PARENT
REMARK Flexibility Score: inf
ROOT
ATOM      1  C   UNL     1      -5.612  91.358 -17.876  1.00  0.00     0.008 C 
ATOM      2  C   UNL     1      -4.751  90.795 -16.739  1.00  0.00    -0.007 C 
ATOM      3  C   UNL     1      -3.727  91.856 -16.232  1.00  0.00     0.004 C 
ATOM      4  C   UNL     1      -4.078  92.415 -14.845  1.00  0.00     0.012 C 
ATOM      5  C   UNL     1      -4.129  91.283 -13.791  1.00  0.00     0.058 C 
ATOM      6  C   UNL     1      -4.900  90.093 -14.330  1.00  0.00     0.136 C 
ATOM      7  O   UNL     1      -4.887  89.026 -13.736  1.00  0.00    -0.299 OA
ATOM      8  C   UNL     1      -5.657  90.223 -15.622  1.00  0.00     0.079 C 
ENDROOT
BRANCH   5   9
ATOM      9  C   UNL     1      -4.671  91.802 -12.424  1.00  0.00    -0.007 C 
ATOM     10  C   UNL     1      -6.208  91.841 -12.401  1.00  0.00     0.008 C 
ATOM     11  C   UNL     1      -4.104  93.176 -12.021  1.00  0.00     0.008 C 
ENDBRANCH   5   9
TORSDOF 1
ENDMDL
