MODEL 1
REMARK VINA RESULT:    -5.613      0.000      0.000
REMARK INTER + INTRA:          -5.613
REMARK INTER:                  -5.613
REMARK INTRA:                   0.000
REMARK UNBOUND:                 0.000
REMARK SMILES CC(C)=C1CC[C@@H](C)CC1=O
REMARK SMILES IDX 8 1 7 2 6 3 5 4 4 5 2 6 1 7 3 8 10 9 11 10 9 11
REMARK H PARENT
REMARK Flexibility Score: inf
ROOT
ATOM      1  C   UNL     1      10.990  14.450  26.997  1.00  0.00     0.008 C 
ATOM      2  C   UNL     1      12.417  15.001  26.919  1.00  0.00    -0.006 C 
ATOM      3  C   UNL     1      12.681  15.983  28.073  1.00  0.00     0.008 C 
ATOM      4  C   UNL     1      14.137  16.467  28.070  1.00  0.00     0.039 C 
ATOM      5  C   UNL     1      14.566  17.022  26.719  1.00  0.00    -0.006 C 
ATOM      6  C   UNL     1      15.484  18.030  26.625  1.00  0.00    -0.070 C 
ATOM      7  C   UNL     1      16.126  18.623  27.858  1.00  0.00     0.039 C 
ATOM      8  C   UNL     1      15.875  18.627  25.293  1.00  0.00     0.039 C 
ATOM      9  C   UNL     1      14.016  16.326  25.519  1.00  0.00     0.159 C 
ATOM     10  O   UNL     1      14.676  16.243  24.449  1.00  0.00    -0.295 OA
ATOM     11  C   UNL     1      12.652  15.700  25.572  1.00  0.00     0.084 C 
ENDROOT
TORSDOF 0
ENDMDL
MODEL 2
REMARK VINA RESULT:    -5.403      1.557      4.468
REMARK INTER + INTRA:          -5.403
REMARK INTER:                  -5.403
REMARK INTRA:                   0.000
REMARK UNBOUND:                 0.000
REMARK SMILES CC(C)=C1CC[C@@H](C)CC1=O
REMARK SMILES IDX 8 1 7 2 6 3 5 4 4 5 2 6 1 7 3 8 10 9 11 10 9 11
REMARK H PARENT
REMARK Flexibility Score: inf
ROOT
ATOM      1  C   UNL     1      16.106  18.617  27.753  1.00  0.00     0.008 C 
ATOM      2  C   UNL     1      15.387  17.514  26.970  1.00  0.00    -0.006 C 
ATOM      3  C   UNL     1      14.185  18.090  26.203  1.00  0.00     0.008 C 
ATOM      4  C   UNL     1      13.514  17.020  25.333  1.00  0.00     0.039 C 
ATOM      5  C   UNL     1      13.159  15.765  26.120  1.00  0.00    -0.006 C 
ATOM      6  C   UNL     1      12.068  15.009  25.795  1.00  0.00    -0.070 C 
ATOM      7  C   UNL     1      11.178  15.377  24.630  1.00  0.00     0.039 C 
ATOM      8  C   UNL     1      11.674  13.795  26.604  1.00  0.00     0.039 C 
ATOM      9  C   UNL     1      14.130  15.357  27.177  1.00  0.00     0.159 C 
ATOM     10  O   UNL     1      14.314  14.145  27.465  1.00  0.00    -0.295 OA
ATOM     11  C   UNL     1      14.918  16.399  27.917  1.00  0.00     0.084 C 
ENDROOT
TORSDOF 0
ENDMDL
MODEL 3
REMARK VINA RESULT:    -5.361      1.289      4.093
REMARK INTER + INTRA:          -5.361
REMARK INTER:                  -5.361
REMARK INTRA:                   0.000
REMARK UNBOUND:                 0.000
REMARK SMILES CC(C)=C1CC[C@@H](C)CC1=O
REMARK SMILES IDX 8 1 7 2 6 3 5 4 4 5 2 6 1 7 3 8 10 9 11 10 9 11
REMARK H PARENT
REMARK Flexibility Score: inf
ROOT
ATOM      1  C   UNL     1      16.922  18.634  27.908  1.00  0.00     0.008 C 
ATOM      2  C   UNL     1      15.501  18.101  27.703  1.00  0.00    -0.006 C 
ATOM      3  C   UNL     1      15.420  16.614  28.085  1.00  0.00     0.008 C 
ATOM      4  C   UNL     1      13.982  16.089  27.983  1.00  0.00     0.039 C 
ATOM      5  C   UNL     1      13.348  16.380  26.630  1.00  0.00    -0.006 C 
ATOM      6  C   UNL     1      12.428  15.533  26.080  1.00  0.00    -0.070 C 
ATOM      7  C   UNL     1      11.987  14.280  26.801  1.00  0.00     0.039 C 
ATOM      8  C   UNL     1      11.835  15.782  24.713  1.00  0.00     0.039 C 
ATOM      9  C   UNL     1      13.704  17.689  26.007  1.00  0.00     0.159 C 
ATOM     10  O   UNL     1      12.885  18.315  25.282  1.00  0.00    -0.295 OA
ATOM     11  C   UNL     1      15.059  18.292  26.244  1.00  0.00     0.084 C 
ENDROOT
TORSDOF 0
ENDMDL
MODEL 4
REMARK VINA RESULT:    -4.916      1.107      4.144
REMARK INTER + INTRA:          -4.916
REMARK INTER:                  -4.916
REMARK INTRA:                   0.000
REMARK UNBOUND:                 0.000
REMARK SMILES CC(C)=C1CC[C@@H](C)CC1=O
REMARK SMILES IDX 8 1 7 2 6 3 5 4 4 5 2 6 1 7 3 8 10 9 11 10 9 11
REMARK H PARENT
REMARK Flexibility Score: inf
ROOT
ATOM      1  C   UNL     1      16.115  18.479  26.858  1.00  0.00     0.008 C 
ATOM      2  C   UNL     1      14.695  17.905  26.832  1.00  0.00    -0.006 C 
ATOM      3  C   UNL     1      14.437  17.044  28.079  1.00  0.00     0.008 C 
ATOM      4  C   UNL     1      12.987  16.544  28.121  1.00  0.00     0.039 C 
ATOM      5  C   UNL     1      12.572  15.847  26.833  1.00  0.00    -0.006 C 
ATOM      6  C   UNL     1      11.667  14.823  26.840  1.00  0.00    -0.070 C 
ATOM      7  C   UNL     1      11.026  14.352  28.125  1.00  0.00     0.039 C 
ATOM      8  C   UNL     1      11.291  14.086  25.575  1.00  0.00     0.039 C 
ATOM      9  C   UNL     1      13.120  16.423  25.570  1.00  0.00     0.159 C 
ATOM     10  O   UNL     1      12.465  16.387  24.494  1.00  0.00    -0.295 OA
ATOM     11  C   UNL     1      14.476  17.068  25.563  1.00  0.00     0.084 C 
ENDROOT
TORSDOF 0
ENDMDL
MODEL 5
REMARK VINA RESULT:    -4.632      1.511      4.639
REMARK INTER + INTRA:          -4.632
REMARK INTER:                  -4.632
REMARK INTRA:                   0.000
REMARK UNBOUND:                 0.000
REMARK SMILES CC(C)=C1CC[C@@H](C)CC1=O
REMARK SMILES IDX 8 1 7 2 6 3 5 4 4 5 2 6 1 7 3 8 10 9 11 10 9 11
REMARK H PARENT
REMARK Flexibility Score: inf
ROOT
ATOM      1  C   UNL     1      16.376  19.742  24.098  1.00  0.00     0.008 C 
ATOM      2  C   UNL     1      15.867  18.435  24.714  1.00  0.00    -0.006 C 
ATOM      3  C   UNL     1      14.615  17.939  23.974  1.00  0.00     0.008 C 
ATOM      4  C   UNL     1      14.151  16.579  24.512  1.00  0.00     0.039 C 
ATOM      5  C   UNL     1      13.976  16.578  26.025  1.00  0.00    -0.006 C 
ATOM      6  C   UNL     1      13.031  15.798  26.629  1.00  0.00    -0.070 C 
ATOM      7  C   UNL     1      12.132  14.890  25.822  1.00  0.00     0.039 C 
ATOM      8  C   UNL     1      12.810  15.831  28.123  1.00  0.00     0.039 C 
ATOM      9  C   UNL     1      14.966  17.382  26.800  1.00  0.00     0.159 C 
ATOM     10  O   UNL     1      15.332  17.035  27.955  1.00  0.00    -0.295 OA
ATOM     11  C   UNL     1      15.554  18.629  26.205  1.00  0.00     0.084 C 
ENDROOT
TORSDOF 0
ENDMDL
MODEL 6
REMARK VINA RESULT:    -4.146      1.841      2.651
REMARK INTER + INTRA:          -4.146
REMARK INTER:                  -4.146
REMARK INTRA:                   0.000
REMARK UNBOUND:                 0.000
REMARK SMILES CC(C)=C1CC[C@@H](C)CC1=O
REMARK SMILES IDX 8 1 7 2 6 3 5 4 4 5 2 6 1 7 3 8 10 9 11 10 9 11
REMARK H PARENT
REMARK Flexibility Score: inf
ROOT
ATOM      1  C   UNL     1      13.423  13.522  28.097  1.00  0.00     0.008 C 
ATOM      2  C   UNL     1      13.549  14.939  27.528  1.00  0.00    -0.006 C 
ATOM      3  C   UNL     1      13.469  14.915  25.993  1.00  0.00     0.008 C 
ATOM      4  C   UNL     1      13.491  16.335  25.412  1.00  0.00     0.039 C 
ATOM      5  C   UNL     1      14.666  17.158  25.924  1.00  0.00    -0.006 C 
ATOM      6  C   UNL     1      15.254  18.115  25.147  1.00  0.00    -0.070 C 
ATOM      7  C   UNL     1      14.751  18.410  23.752  1.00  0.00     0.039 C 
ATOM      8  C   UNL     1      16.455  18.898  25.623  1.00  0.00     0.039 C 
ATOM      9  C   UNL     1      15.050  16.935  27.349  1.00  0.00     0.159 C 
ATOM     10  O   UNL     1      15.523  17.867  28.053  1.00  0.00    -0.295 OA
ATOM     11  C   UNL     1      14.870  15.583  27.975  1.00  0.00     0.084 C 
ENDROOT
TORSDOF 0
ENDMDL
MODEL 7
REMARK VINA RESULT:    -4.091      1.575      3.063
REMARK INTER + INTRA:          -4.091
REMARK INTER:                  -4.091
REMARK INTRA:                   0.000
REMARK UNBOUND:                 0.000
REMARK SMILES CC(C)=C1CC[C@@H](C)CC1=O
REMARK SMILES IDX 8 1 7 2 6 3 5 4 4 5 2 6 1 7 3 8 10 9 11 10 9 11
REMARK H PARENT
REMARK Flexibility Score: inf
ROOT
ATOM      1  C   UNL     1      13.971  16.240  28.121  1.00  0.00     0.008 C 
ATOM      2  C   UNL     1      14.737  16.711  26.881  1.00  0.00    -0.006 C 
ATOM      3  C   UNL     1      15.357  18.097  27.121  1.00  0.00     0.008 C 
ATOM      4  C   UNL     1      16.212  18.540  25.927  1.00  0.00     0.039 C 
ATOM      5  C   UNL     1      15.459  18.458  24.606  1.00  0.00    -0.006 C 
ATOM      6  C   UNL     1      15.716  19.330  23.587  1.00  0.00    -0.070 C 
ATOM      7  C   UNL     1      16.772  20.403  23.721  1.00  0.00     0.039 C 
ATOM      8  C   UNL     1      14.936  19.294  22.293  1.00  0.00     0.039 C 
ATOM      9  C   UNL     1      14.520  17.307  24.458  1.00  0.00     0.159 C 
ATOM     10  O   UNL     1      14.311  16.772  23.336  1.00  0.00    -0.295 OA
ATOM     11  C   UNL     1      13.806  16.758  25.659  1.00  0.00     0.084 C 
ENDROOT
TORSDOF 0
ENDMDL
MODEL 8
REMARK VINA RESULT:    -3.885      1.536      4.150
REMARK INTER + INTRA:          -3.885
REMARK INTER:                  -3.885
REMARK INTRA:                   0.000
REMARK UNBOUND:                 0.000
REMARK SMILES CC(C)=C1CC[C@@H](C)CC1=O
REMARK SMILES IDX 8 1 7 2 6 3 5 4 4 5 2 6 1 7 3 8 10 9 11 10 9 11
REMARK H PARENT
REMARK Flexibility Score: inf
ROOT
ATOM      1  C   UNL     1      15.742  19.762  23.005  1.00  0.00     0.008 C 
ATOM      2  C   UNL     1      15.068  19.000  24.151  1.00  0.00    -0.006 C 
ATOM      3  C   UNL     1      16.108  18.563  25.195  1.00  0.00     0.008 C 
ATOM      4  C   UNL     1      15.439  17.887  26.399  1.00  0.00     0.039 C 
ATOM      5  C   UNL     1      14.508  16.754  25.990  1.00  0.00    -0.006 C 
ATOM      6  C   UNL     1      14.325  15.662  26.791  1.00  0.00    -0.070 C 
ATOM      7  C   UNL     1      15.026  15.542  28.125  1.00  0.00     0.039 C 
ATOM      8  C   UNL     1      13.448  14.506  26.371  1.00  0.00     0.039 C 
ATOM      9  C   UNL     1      13.730  16.965  24.734  1.00  0.00     0.159 C 
ATOM     10  O   UNL     1      12.576  16.481  24.588  1.00  0.00    -0.295 OA
ATOM     11  C   UNL     1      14.317  17.773  23.613  1.00  0.00     0.084 C 
ENDROOT
TORSDOF 0
ENDMDL
