MODEL 1
REMARK VINA RESULT:    -5.425      0.000      0.000
REMARK INTER + INTRA:         -19.102
REMARK INTER:                 -14.306
REMARK INTRA:                  -4.796
REMARK UNBOUND:                -4.796
REMARK SMILES CCCCCCCCCCCCCCCCCCCCCCCCCCCCCC(=O)[O-]
REMARK SMILES IDX 16 1 17 2 18 3 19 4 20 5 21 6 22 7 23 8 24 9 25 10 26 11
REMARK SMILES IDX 27 12 28 13 29 14 30 15 31 16 32 17 15 18 14 19 13 20 12 21
REMARK SMILES IDX 11 22 10 23 9 24 8 25 7 26 6 27 5 28 4 29 3 30 2 31 1 32
REMARK H PARENT
REMARK Flexibility Score: inf
ROOT
ATOM      1  C   UNL     1      -1.281   5.998  29.282  1.00  0.00     0.000 C 
ENDROOT
BRANCH   1   2
ATOM      2  C   UNL     1      -1.013   4.758  28.406  1.00  0.00     0.000 C 
BRANCH   2   3
ATOM      3  C   UNL     1      -1.925   4.657  27.165  1.00  0.00     0.000 C 
BRANCH   3   4
ATOM      4  C   UNL     1      -1.681   5.798  26.163  1.00  0.00     0.000 C 
BRANCH   4   5
ATOM      5  C   UNL     1      -0.186   6.094  25.960  1.00  0.00     0.000 C 
BRANCH   5   6
ATOM      6  C   UNL     1       0.212   6.125  24.474  1.00  0.00     0.000 C 
BRANCH   6   7
ATOM      7  C   UNL     1       0.448   4.721  23.888  1.00  0.00     0.000 C 
BRANCH   7   8
ATOM      8  C   UNL     1      -0.477   4.341  22.717  1.00  0.00     0.000 C 
BRANCH   8   9
ATOM      9  C   UNL     1      -1.060   5.528  21.925  1.00  0.00     0.000 C 
BRANCH   9  10
ATOM     10  C   UNL     1      -2.527   5.332  21.485  1.00  0.00     0.000 C 
BRANCH  10  11
ATOM     11  C   UNL     1      -3.324   4.427  22.443  1.00  0.00     0.000 C 
BRANCH  11  12
ATOM     12  C   UNL     1      -4.235   3.427  21.709  1.00  0.00     0.000 C 
BRANCH  12  13
ATOM     13  C   UNL     1      -4.982   3.993  20.483  1.00  0.00     0.006 C 
BRANCH  13  14
ATOM     14  C   UNL     1      -6.407   4.490  20.788  1.00  0.00     0.053 C 
BRANCH  14  15
ATOM     15  C   UNL     1      -6.863   4.134  22.170  1.00  0.00     0.041 C 
ATOM     16  O   UNL     1      -7.426   3.028  22.388  1.00  0.00    -0.550 OA
ATOM     17  O   UNL     1      -6.683   5.033  23.215  1.00  0.00    -0.550 OA
ENDBRANCH  14  15
ENDBRANCH  13  14
ENDBRANCH  12  13
ENDBRANCH  11  12
ENDBRANCH  10  11
ENDBRANCH   9  10
ENDBRANCH   8   9
ENDBRANCH   7   8
ENDBRANCH   6   7
ENDBRANCH   5   6
ENDBRANCH   4   5
ENDBRANCH   3   4
ENDBRANCH   2   3
ENDBRANCH   1   2
BRANCH   1  18
ATOM     18  C   UNL     1      -0.123   7.005  29.361  1.00  0.00     0.000 C 
BRANCH  18  19
ATOM     19  C   UNL     1       0.138   7.497  30.795  1.00  0.00     0.000 C 
BRANCH  19  20
ATOM     20  C   UNL     1       1.446   6.945  31.385  1.00  0.00     0.000 C 
BRANCH  20  21
ATOM     21  C   UNL     1       1.263   5.563  32.040  1.00  0.00     0.000 C 
BRANCH  21  22
ATOM     22  C   UNL     1       1.910   4.432  31.222  1.00  0.00     0.000 C 
BRANCH  22  23
ATOM     23  C   UNL     1       3.310   4.805  30.706  1.00  0.00     0.000 C 
BRANCH  23  24
ATOM     24  C   UNL     1       3.559   4.338  29.260  1.00  0.00    -0.000 C 
BRANCH  24  25
ATOM     25  C   UNL     1       2.323   3.769  28.534  1.00  0.00    -0.000 C 
BRANCH  25  26
ATOM     26  C   UNL     1       2.443   3.682  26.999  1.00  0.00    -0.000 C 
BRANCH  26  27
ATOM     27  C   UNL     1       3.791   4.153  26.423  1.00  0.00    -0.000 C 
BRANCH  27  28
ATOM     28  C   UNL     1       3.668   5.438  25.591  1.00  0.00    -0.000 C 
BRANCH  28  29
ATOM     29  C   UNL     1       4.116   6.661  26.401  1.00  0.00    -0.000 C 
BRANCH  29  30
ATOM     30  C   UNL     1       2.931   7.292  27.148  1.00  0.00    -0.000 C 
BRANCH  30  31
ATOM     31  C   UNL     1       3.377   8.188  28.315  1.00  0.00    -0.003 C 
ATOM     32  C   UNL     1       4.749   7.805  28.866  1.00  0.00     0.004 C 
ENDBRANCH  30  31
ENDBRANCH  29  30
ENDBRANCH  28  29
ENDBRANCH  27  28
ENDBRANCH  26  27
ENDBRANCH  25  26
ENDBRANCH  24  25
ENDBRANCH  23  24
ENDBRANCH  22  23
ENDBRANCH  21  22
ENDBRANCH  20  21
ENDBRANCH  19  20
ENDBRANCH  18  19
ENDBRANCH   1  18
TORSDOF 28
ENDMDL
MODEL 2
REMARK VINA RESULT:    -5.309      3.306      8.196
REMARK INTER + INTRA:         -18.796
REMARK INTER:                 -12.456
REMARK INTRA:                  -6.340
REMARK UNBOUND:                -4.796
REMARK SMILES CCCCCCCCCCCCCCCCCCCCCCCCCCCCCC(=O)[O-]
REMARK SMILES IDX 16 1 17 2 18 3 19 4 20 5 21 6 22 7 23 8 24 9 25 10 26 11
REMARK SMILES IDX 27 12 28 13 29 14 30 15 31 16 32 17 15 18 14 19 13 20 12 21
REMARK SMILES IDX 11 22 10 23 9 24 8 25 7 26 6 27 5 28 4 29 3 30 2 31 1 32
REMARK H PARENT
REMARK Flexibility Score: inf
ROOT
ATOM      1  C   UNL     1      -1.609   4.518  28.332  1.00  0.00     0.000 C 
ENDROOT
BRANCH   1   2
ATOM      2  C   UNL     1      -1.063   5.789  29.010  1.00  0.00     0.000 C 
BRANCH   2   3
ATOM      3  C   UNL     1      -0.195   6.670  28.088  1.00  0.00     0.000 C 
BRANCH   3   4
ATOM      4  C   UNL     1       0.614   7.720  28.869  1.00  0.00     0.000 C 
BRANCH   4   5
ATOM      5  C   UNL     1       2.100   7.730  28.477  1.00  0.00     0.000 C 
BRANCH   5   6
ATOM      6  C   UNL     1       2.315   7.481  26.974  1.00  0.00     0.000 C 
BRANCH   6   7
ATOM      7  C   UNL     1       3.684   6.851  26.661  1.00  0.00     0.000 C 
BRANCH   7   8
ATOM      8  C   UNL     1       3.635   5.596  25.770  1.00  0.00     0.000 C 
BRANCH   8   9
ATOM      9  C   UNL     1       3.692   4.252  26.521  1.00  0.00     0.000 C 
BRANCH   9  10
ATOM     10  C   UNL     1       2.346   3.498  26.569  1.00  0.00     0.000 C 
BRANCH  10  11
ATOM     11  C   UNL     1       1.746   3.432  27.986  1.00  0.00     0.000 C 
BRANCH  11  12
ATOM     12  C   UNL     1       2.550   4.244  29.018  1.00  0.00     0.000 C 
BRANCH  12  13
ATOM     13  C   UNL     1       1.986   4.230  30.454  1.00  0.00     0.006 C 
BRANCH  13  14
ATOM     14  C   UNL     1       2.676   5.218  31.411  1.00  0.00     0.053 C 
BRANCH  14  15
ATOM     15  C   UNL     1       1.741   6.260  31.944  1.00  0.00     0.041 C 
ATOM     16  O   UNL     1       0.553   5.959  32.234  1.00  0.00    -0.550 OA
ATOM     17  O   UNL     1       2.178   7.570  32.104  1.00  0.00    -0.550 OA
ENDBRANCH  14  15
ENDBRANCH  13  14
ENDBRANCH  12  13
ENDBRANCH  11  12
ENDBRANCH  10  11
ENDBRANCH   9  10
ENDBRANCH   8   9
ENDBRANCH   7   8
ENDBRANCH   6   7
ENDBRANCH   5   6
ENDBRANCH   4   5
ENDBRANCH   3   4
ENDBRANCH   2   3
ENDBRANCH   1   2
BRANCH   1  18
ATOM     18  C   UNL     1      -3.084   4.589  27.902  1.00  0.00     0.000 C 
BRANCH  18  19
ATOM     19  C   UNL     1      -3.254   4.646  26.374  1.00  0.00     0.000 C 
BRANCH  19  20
ATOM     20  C   UNL     1      -4.367   5.609  25.934  1.00  0.00     0.000 C 
BRANCH  20  21
ATOM     21  C   UNL     1      -3.868   6.681  24.948  1.00  0.00     0.000 C 
BRANCH  21  22
ATOM     22  C   UNL     1      -2.525   7.299  25.377  1.00  0.00     0.000 C 
BRANCH  22  23
ATOM     23  C   UNL     1      -1.663   7.725  24.176  1.00  0.00     0.000 C 
BRANCH  23  24
ATOM     24  C   UNL     1      -0.222   7.188  24.254  1.00  0.00    -0.000 C 
BRANCH  24  25
ATOM     25  C   UNL     1      -0.087   5.752  24.800  1.00  0.00    -0.000 C 
BRANCH  25  26
ATOM     26  C   UNL     1       0.462   4.716  23.799  1.00  0.00    -0.000 C 
BRANCH  26  27
ATOM     27  C   UNL     1      -0.448   4.432  22.590  1.00  0.00    -0.000 C 
BRANCH  27  28
ATOM     28  C   UNL     1      -1.887   4.080  22.994  1.00  0.00    -0.000 C 
BRANCH  28  29
ATOM     29  C   UNL     1      -2.892   4.619  21.969  1.00  0.00    -0.000 C 
BRANCH  29  30
ATOM     30  C   UNL     1      -4.192   3.799  21.986  1.00  0.00    -0.000 C 
BRANCH  30  31
ATOM     31  C   UNL     1      -4.364   2.991  23.282  1.00  0.00    -0.003 C 
ATOM     32  C   UNL     1      -5.824   2.652  23.579  1.00  0.00     0.004 C 
ENDBRANCH  30  31
ENDBRANCH  29  30
ENDBRANCH  28  29
ENDBRANCH  27  28
ENDBRANCH  26  27
ENDBRANCH  25  26
ENDBRANCH  24  25
ENDBRANCH  23  24
ENDBRANCH  22  23
ENDBRANCH  21  22
ENDBRANCH  20  21
ENDBRANCH  19  20
ENDBRANCH  18  19
ENDBRANCH   1  18
TORSDOF 28
ENDMDL
MODEL 3
REMARK VINA RESULT:    -5.305      1.444      3.894
REMARK INTER + INTRA:         -18.784
REMARK INTER:                 -13.569
REMARK INTRA:                  -5.216
REMARK UNBOUND:                -4.796
REMARK SMILES CCCCCCCCCCCCCCCCCCCCCCCCCCCCCC(=O)[O-]
REMARK SMILES IDX 16 1 17 2 18 3 19 4 20 5 21 6 22 7 23 8 24 9 25 10 26 11
REMARK SMILES IDX 27 12 28 13 29 14 30 15 31 16 32 17 15 18 14 19 13 20 12 21
REMARK SMILES IDX 11 22 10 23 9 24 8 25 7 26 6 27 5 28 4 29 3 30 2 31 1 32
REMARK H PARENT
REMARK Flexibility Score: inf
ROOT
ATOM      1  C   UNL     1      -0.597   3.826  26.085  1.00  0.00     0.000 C 
ENDROOT
BRANCH   1   2
ATOM      2  C   UNL     1       0.652   4.446  25.429  1.00  0.00     0.000 C 
BRANCH   2   3
ATOM      3  C   UNL     1       0.347   5.305  24.183  1.00  0.00     0.000 C 
BRANCH   3   4
ATOM      4  C   UNL     1      -0.187   4.466  23.010  1.00  0.00     0.000 C 
BRANCH   4   5
ATOM      5  C   UNL     1      -0.808   5.332  21.902  1.00  0.00     0.000 C 
BRANCH   5   6
ATOM      6  C   UNL     1      -1.364   6.664  22.437  1.00  0.00     0.000 C 
BRANCH   6   7
ATOM      7  C   UNL     1      -2.468   7.253  21.541  1.00  0.00     0.000 C 
BRANCH   7   8
ATOM      8  C   UNL     1      -2.636   6.562  20.175  1.00  0.00     0.000 C 
BRANCH   8   9
ATOM      9  C   UNL     1      -3.994   5.869  19.950  1.00  0.00     0.000 C 
BRANCH   9  10
ATOM     10  C   UNL     1      -3.937   4.328  20.039  1.00  0.00     0.000 C 
BRANCH  10  11
ATOM     11  C   UNL     1      -4.760   3.765  21.213  1.00  0.00     0.000 C 
BRANCH  11  12
ATOM     12  C   UNL     1      -3.891   3.353  22.415  1.00  0.00     0.000 C 
BRANCH  12  13
ATOM     13  C   UNL     1      -3.918   4.324  23.613  1.00  0.00     0.006 C 
BRANCH  13  14
ATOM     14  C   UNL     1      -4.619   3.762  24.863  1.00  0.00     0.053 C 
BRANCH  14  15
ATOM     15  C   UNL     1      -5.940   4.414  25.132  1.00  0.00     0.041 C 
ATOM     16  O   UNL     1      -6.447   4.371  26.284  1.00  0.00    -0.550 OA
ATOM     17  O   UNL     1      -6.622   5.055  24.104  1.00  0.00    -0.550 OA
ENDBRANCH  14  15
ENDBRANCH  13  14
ENDBRANCH  12  13
ENDBRANCH  11  12
ENDBRANCH  10  11
ENDBRANCH   9  10
ENDBRANCH   8   9
ENDBRANCH   7   8
ENDBRANCH   6   7
ENDBRANCH   5   6
ENDBRANCH   4   5
ENDBRANCH   3   4
ENDBRANCH   2   3
ENDBRANCH   1   2
BRANCH   1  18
ATOM     18  C   UNL     1      -1.532   4.826  26.784  1.00  0.00     0.000 C 
BRANCH  18  19
ATOM     19  C   UNL     1      -1.560   4.642  28.311  1.00  0.00     0.000 C 
BRANCH  19  20
ATOM     20  C   UNL     1      -1.166   5.917  29.073  1.00  0.00     0.000 C 
BRANCH  20  21
ATOM     21  C   UNL     1      -0.334   6.886  28.212  1.00  0.00     0.000 C 
BRANCH  21  22
ATOM     22  C   UNL     1       0.474   7.884  29.060  1.00  0.00     0.000 C 
BRANCH  22  23
ATOM     23  C   UNL     1      -0.002   7.934  30.523  1.00  0.00     0.000 C 
BRANCH  23  24
ATOM     24  C   UNL     1       1.100   8.395  31.494  1.00  0.00    -0.000 C 
BRANCH  24  25
ATOM     25  C   UNL     1       1.525   7.350  32.546  1.00  0.00    -0.000 C 
BRANCH  25  26
ATOM     26  C   UNL     1       1.212   5.885  32.181  1.00  0.00    -0.000 C 
BRANCH  26  27
ATOM     27  C   UNL     1       2.285   5.180  31.333  1.00  0.00    -0.000 C 
BRANCH  27  28
ATOM     28  C   UNL     1       1.700   4.117  30.392  1.00  0.00    -0.000 C 
BRANCH  28  29
ATOM     29  C   UNL     1       2.487   4.053  29.077  1.00  0.00    -0.000 C 
BRANCH  29  30
ATOM     30  C   UNL     1       3.177   5.394  28.781  1.00  0.00    -0.000 C 
BRANCH  30  31
ATOM     31  C   UNL     1       3.606   5.527  27.311  1.00  0.00    -0.003 C 
ATOM     32  C   UNL     1       3.382   6.931  26.753  1.00  0.00     0.004 C 
ENDBRANCH  30  31
ENDBRANCH  29  30
ENDBRANCH  28  29
ENDBRANCH  27  28
ENDBRANCH  26  27
ENDBRANCH  25  26
ENDBRANCH  24  25
ENDBRANCH  23  24
ENDBRANCH  22  23
ENDBRANCH  21  22
ENDBRANCH  20  21
ENDBRANCH  19  20
ENDBRANCH  18  19
ENDBRANCH   1  18
TORSDOF 28
ENDMDL
MODEL 4
REMARK VINA RESULT:    -5.305      1.550      2.914
REMARK INTER + INTRA:         -18.784
REMARK INTER:                 -12.723
REMARK INTRA:                  -6.061
REMARK UNBOUND:                -4.796
REMARK SMILES CCCCCCCCCCCCCCCCCCCCCCCCCCCCCC(=O)[O-]
REMARK SMILES IDX 16 1 17 2 18 3 19 4 20 5 21 6 22 7 23 8 24 9 25 10 26 11
REMARK SMILES IDX 27 12 28 13 29 14 30 15 31 16 32 17 15 18 14 19 13 20 12 21
REMARK SMILES IDX 11 22 10 23 9 24 8 25 7 26 6 27 5 28 4 29 3 30 2 31 1 32
REMARK H PARENT
REMARK Flexibility Score: inf
ROOT
ATOM      1  C   UNL     1      -1.379   5.910  29.261  1.00  0.00     0.000 C 
ENDROOT
BRANCH   1   2
ATOM      2  C   UNL     1      -1.245   4.698  28.318  1.00  0.00     0.000 C 
BRANCH   2   3
ATOM      3  C   UNL     1       0.046   4.699  27.473  1.00  0.00     0.000 C 
BRANCH   3   4
ATOM      4  C   UNL     1      -0.049   3.765  26.256  1.00  0.00     0.000 C 
BRANCH   4   5
ATOM      5  C   UNL     1       0.690   4.320  25.027  1.00  0.00     0.000 C 
BRANCH   5   6
ATOM      6  C   UNL     1      -0.234   5.128  24.099  1.00  0.00     0.000 C 
BRANCH   6   7
ATOM      7  C   UNL     1      -0.215   6.637  24.403  1.00  0.00     0.000 C 
BRANCH   7   8
ATOM      8  C   UNL     1      -1.401   7.146  25.243  1.00  0.00     0.000 C 
BRANCH   8   9
ATOM      9  C   UNL     1      -2.780   6.587  24.844  1.00  0.00     0.000 C 
BRANCH   9  10
ATOM     10  C   UNL     1      -3.616   6.063  26.032  1.00  0.00     0.000 C 
BRANCH  10  11
ATOM     11  C   UNL     1      -4.370   4.760  25.704  1.00  0.00     0.000 C 
BRANCH  11  12
ATOM     12  C   UNL     1      -3.462   3.676  25.093  1.00  0.00     0.000 C 
BRANCH  12  13
ATOM     13  C   UNL     1      -3.991   3.026  23.798  1.00  0.00     0.006 C 
BRANCH  13  14
ATOM     14  C   UNL     1      -3.482   3.692  22.506  1.00  0.00     0.053 C 
BRANCH  14  15
ATOM     15  C   UNL     1      -4.501   3.686  21.409  1.00  0.00     0.041 C 
ATOM     16  O   UNL     1      -5.730   3.666  21.683  1.00  0.00    -0.550 OA
ATOM     17  O   UNL     1      -4.092   3.684  20.080  1.00  0.00    -0.550 OA
ENDBRANCH  14  15
ENDBRANCH  13  14
ENDBRANCH  12  13
ENDBRANCH  11  12
ENDBRANCH  10  11
ENDBRANCH   9  10
ENDBRANCH   8   9
ENDBRANCH   7   8
ENDBRANCH   6   7
ENDBRANCH   5   6
ENDBRANCH   4   5
ENDBRANCH   3   4
ENDBRANCH   2   3
ENDBRANCH   1   2
BRANCH   1  18
ATOM     18  C   UNL     1      -0.337   7.021  29.051  1.00  0.00     0.000 C 
BRANCH  18  19
ATOM     19  C   UNL     1       0.080   7.699  30.367  1.00  0.00     0.000 C 
BRANCH  19  20
ATOM     20  C   UNL     1       1.425   7.186  30.902  1.00  0.00     0.000 C 
BRANCH  20  21
ATOM     21  C   UNL     1       1.259   6.051  31.929  1.00  0.00     0.000 C 
BRANCH  21  22
ATOM     22  C   UNL     1       2.024   4.776  31.531  1.00  0.00     0.000 C 
BRANCH  22  23
ATOM     23  C   UNL     1       2.254   4.678  30.013  1.00  0.00     0.000 C 
BRANCH  23  24
ATOM     24  C   UNL     1       3.745   4.599  29.638  1.00  0.00    -0.000 C 
BRANCH  24  25
ATOM     25  C   UNL     1       4.714   5.209  30.672  1.00  0.00    -0.000 C 
BRANCH  25  26
ATOM     26  C   UNL     1       5.587   6.368  30.152  1.00  0.00    -0.000 C 
BRANCH  26  27
ATOM     27  C   UNL     1       5.148   7.771  30.609  1.00  0.00    -0.000 C 
BRANCH  27  28
ATOM     28  C   UNL     1       4.919   8.738  29.438  1.00  0.00    -0.000 C 
BRANCH  28  29
ATOM     29  C   UNL     1       4.607   7.971  28.147  1.00  0.00    -0.000 C 
BRANCH  29  30
ATOM     30  C   UNL     1       3.102   7.993  27.841  1.00  0.00    -0.000 C 
BRANCH  30  31
ATOM     31  C   UNL     1       2.698   6.954  26.783  1.00  0.00    -0.003 C 
ATOM     32  C   UNL     1       3.892   6.183  26.222  1.00  0.00     0.004 C 
ENDBRANCH  30  31
ENDBRANCH  29  30
ENDBRANCH  28  29
ENDBRANCH  27  28
ENDBRANCH  26  27
ENDBRANCH  25  26
ENDBRANCH  24  25
ENDBRANCH  23  24
ENDBRANCH  22  23
ENDBRANCH  21  22
ENDBRANCH  20  21
ENDBRANCH  19  20
ENDBRANCH  18  19
ENDBRANCH   1  18
TORSDOF 28
ENDMDL
MODEL 5
REMARK VINA RESULT:    -5.220      3.560      9.484
REMARK INTER + INTRA:         -18.559
REMARK INTER:                 -13.367
REMARK INTRA:                  -5.192
REMARK UNBOUND:                -4.796
REMARK SMILES CCCCCCCCCCCCCCCCCCCCCCCCCCCCCC(=O)[O-]
REMARK SMILES IDX 16 1 17 2 18 3 19 4 20 5 21 6 22 7 23 8 24 9 25 10 26 11
REMARK SMILES IDX 27 12 28 13 29 14 30 15 31 16 32 17 15 18 14 19 13 20 12 21
REMARK SMILES IDX 11 22 10 23 9 24 8 25 7 26 6 27 5 28 4 29 3 30 2 31 1 32
REMARK H PARENT
REMARK Flexibility Score: inf
ROOT
ATOM      1  C   UNL     1      -0.987   3.775  26.069  1.00  0.00     0.000 C 
ENDROOT
BRANCH   1   2
ATOM      2  C   UNL     1      -1.877   4.814  26.778  1.00  0.00     0.000 C 
BRANCH   2   3
ATOM      3  C   UNL     1      -1.415   5.165  28.209  1.00  0.00     0.000 C 
BRANCH   3   4
ATOM      4  C   UNL     1      -1.305   6.683  28.433  1.00  0.00     0.000 C 
BRANCH   4   5
ATOM      5  C   UNL     1       0.136   7.133  28.721  1.00  0.00     0.000 C 
BRANCH   5   6
ATOM      6  C   UNL     1       1.027   7.093  27.467  1.00  0.00     0.000 C 
BRANCH   6   7
ATOM      7  C   UNL     1       2.312   7.927  27.620  1.00  0.00     0.000 C 
BRANCH   7   8
ATOM      8  C   UNL     1       3.619   7.111  27.636  1.00  0.00     0.000 C 
BRANCH   8   9
ATOM      9  C   UNL     1       3.502   5.670  27.104  1.00  0.00     0.000 C 
BRANCH   9  10
ATOM     10  C   UNL     1       3.713   4.582  28.180  1.00  0.00     0.000 C 
BRANCH  10  11
ATOM     11  C   UNL     1       2.452   3.730  28.423  1.00  0.00     0.000 C 
BRANCH  11  12
ATOM     12  C   UNL     1       1.826   3.966  29.810  1.00  0.00     0.000 C 
BRANCH  12  13
ATOM     13  C   UNL     1       2.535   5.022  30.684  1.00  0.00     0.006 C 
BRANCH  13  14
ATOM     14  C   UNL     1       1.609   5.736  31.685  1.00  0.00     0.053 C 
BRANCH  14  15
ATOM     15  C   UNL     1       2.005   7.160  31.929  1.00  0.00     0.041 C 
ATOM     16  O   UNL     1       1.499   7.804  32.886  1.00  0.00    -0.550 OA
ATOM     17  O   UNL     1       2.919   7.782  31.087  1.00  0.00    -0.550 OA
ENDBRANCH  14  15
ENDBRANCH  13  14
ENDBRANCH  12  13
ENDBRANCH  11  12
ENDBRANCH  10  11
ENDBRANCH   9  10
ENDBRANCH   8   9
ENDBRANCH   7   8
ENDBRANCH   6   7
ENDBRANCH   5   6
ENDBRANCH   4   5
ENDBRANCH   3   4
ENDBRANCH   2   3
ENDBRANCH   1   2
BRANCH   1  18
ATOM     18  C   UNL     1       0.322   4.329  25.481  1.00  0.00     0.000 C 
BRANCH  18  19
ATOM     19  C   UNL     1       0.084   5.257  24.277  1.00  0.00     0.000 C 
BRANCH  19  20
ATOM     20  C   UNL     1      -0.283   4.491  22.997  1.00  0.00     0.000 C 
BRANCH  20  21
ATOM     21  C   UNL     1      -1.094   5.347  22.006  1.00  0.00     0.000 C 
BRANCH  21  22
ATOM     22  C   UNL     1      -2.302   6.031  22.668  1.00  0.00     0.000 C 
BRANCH  22  23
ATOM     23  C   UNL     1      -3.596   5.861  21.852  1.00  0.00     0.000 C 
BRANCH  23  24
ATOM     24  C   UNL     1      -3.338   5.766  20.337  1.00  0.00    -0.000 C 
BRANCH  24  25
ATOM     25  C   UNL     1      -3.964   4.539  19.642  1.00  0.00    -0.000 C 
BRANCH  25  26
ATOM     26  C   UNL     1      -4.905   3.693  20.523  1.00  0.00    -0.000 C 
BRANCH  26  27
ATOM     27  C   UNL     1      -6.398   4.050  20.414  1.00  0.00    -0.000 C 
BRANCH  27  28
ATOM     28  C   UNL     1      -7.111   4.062  21.774  1.00  0.00    -0.000 C 
BRANCH  28  29
ATOM     29  C   UNL     1      -6.311   3.277  22.821  1.00  0.00    -0.000 C 
BRANCH  29  30
ATOM     30  C   UNL     1      -6.027   4.139  24.061  1.00  0.00    -0.000 C 
BRANCH  30  31
ATOM     31  C   UNL     1      -4.716   3.752  24.764  1.00  0.00    -0.003 C 
ATOM     32  C   UNL     1      -3.914   2.708  23.989  1.00  0.00     0.004 C 
ENDBRANCH  30  31
ENDBRANCH  29  30
ENDBRANCH  28  29
ENDBRANCH  27  28
ENDBRANCH  26  27
ENDBRANCH  25  26
ENDBRANCH  24  25
ENDBRANCH  23  24
ENDBRANCH  22  23
ENDBRANCH  21  22
ENDBRANCH  20  21
ENDBRANCH  19  20
ENDBRANCH  18  19
ENDBRANCH   1  18
TORSDOF 28
ENDMDL
MODEL 6
REMARK VINA RESULT:    -5.196      1.390      3.092
REMARK INTER + INTRA:         -18.496
REMARK INTER:                 -12.618
REMARK INTRA:                  -5.878
REMARK UNBOUND:                -4.796
REMARK SMILES CCCCCCCCCCCCCCCCCCCCCCCCCCCCCC(=O)[O-]
REMARK SMILES IDX 16 1 17 2 18 3 19 4 20 5 21 6 22 7 23 8 24 9 25 10 26 11
REMARK SMILES IDX 27 12 28 13 29 14 30 15 31 16 32 17 15 18 14 19 13 20 12 21
REMARK SMILES IDX 11 22 10 23 9 24 8 25 7 26 6 27 5 28 4 29 3 30 2 31 1 32
REMARK H PARENT
REMARK Flexibility Score: inf
ROOT
ATOM      1  C   UNL     1      -2.290   4.900  26.872  1.00  0.00     0.000 C 
ENDROOT
BRANCH   1   2
ATOM      2  C   UNL     1      -1.623   4.153  25.700  1.00  0.00     0.000 C 
BRANCH   2   3
ATOM      3  C   UNL     1      -0.348   3.378  26.093  1.00  0.00     0.000 C 
BRANCH   3   4
ATOM      4  C   UNL     1       0.937   4.114  25.678  1.00  0.00     0.000 C 
BRANCH   4   5
ATOM      5  C   UNL     1       0.666   5.263  24.692  1.00  0.00     0.000 C 
BRANCH   5   6
ATOM      6  C   UNL     1       1.280   6.595  25.157  1.00  0.00     0.000 C 
BRANCH   6   7
ATOM      7  C   UNL     1       0.378   7.806  24.858  1.00  0.00     0.000 C 
BRANCH   7   8
ATOM      8  C   UNL     1      -1.049   7.455  24.395  1.00  0.00     0.000 C 
BRANCH   8   9
ATOM      9  C   UNL     1      -1.312   7.625  22.886  1.00  0.00     0.000 C 
BRANCH   9  10
ATOM     10  C   UNL     1      -2.553   6.863  22.373  1.00  0.00     0.000 C 
BRANCH  10  11
ATOM     11  C   UNL     1      -2.231   5.421  21.935  1.00  0.00     0.000 C 
BRANCH  11  12
ATOM     12  C   UNL     1      -3.255   4.853  20.935  1.00  0.00     0.000 C 
BRANCH  12  13
ATOM     13  C   UNL     1      -4.016   3.598  21.411  1.00  0.00     0.006 C 
BRANCH  13  14
ATOM     14  C   UNL     1      -4.040   3.419  22.940  1.00  0.00     0.053 C 
BRANCH  14  15
ATOM     15  C   UNL     1      -5.220   4.078  23.584  1.00  0.00     0.041 C 
ATOM     16  O   UNL     1      -6.384   3.860  23.153  1.00  0.00    -0.550 OA
ATOM     17  O   UNL     1      -5.034   4.949  24.652  1.00  0.00    -0.550 OA
ENDBRANCH  14  15
ENDBRANCH  13  14
ENDBRANCH  12  13
ENDBRANCH  11  12
ENDBRANCH  10  11
ENDBRANCH   9  10
ENDBRANCH   8   9
ENDBRANCH   7   8
ENDBRANCH   6   7
ENDBRANCH   5   6
ENDBRANCH   4   5
ENDBRANCH   3   4
ENDBRANCH   2   3
ENDBRANCH   1   2
BRANCH   1  18
ATOM     18  C   UNL     1      -1.805   4.487  28.271  1.00  0.00     0.000 C 
BRANCH  18  19
ATOM     19  C   UNL     1      -1.265   5.675  29.085  1.00  0.00     0.000 C 
BRANCH  19  20
ATOM     20  C   UNL     1      -1.095   6.948  28.241  1.00  0.00     0.000 C 
BRANCH  20  21
ATOM     21  C   UNL     1      -0.224   8.009  28.938  1.00  0.00     0.000 C 
BRANCH  21  22
ATOM     22  C   UNL     1      -0.231   7.866  30.470  1.00  0.00     0.000 C 
BRANCH  22  23
ATOM     23  C   UNL     1       1.045   8.429  31.120  1.00  0.00     0.000 C 
BRANCH  23  24
ATOM     24  C   UNL     1       1.523   7.594  32.322  1.00  0.00    -0.000 C 
BRANCH  24  25
ATOM     25  C   UNL     1       1.297   6.073  32.193  1.00  0.00    -0.000 C 
BRANCH  25  26
ATOM     26  C   UNL     1       2.365   5.316  31.379  1.00  0.00    -0.000 C 
BRANCH  26  27
ATOM     27  C   UNL     1       1.848   4.090  30.606  1.00  0.00    -0.000 C 
BRANCH  27  28
ATOM     28  C   UNL     1       2.175   4.147  29.106  1.00  0.00    -0.000 C 
BRANCH  28  29
ATOM     29  C   UNL     1       2.384   5.594  28.644  1.00  0.00    -0.000 C 
BRANCH  29  30
ATOM     30  C   UNL     1       3.707   5.743  27.877  1.00  0.00    -0.000 C 
BRANCH  30  31
ATOM     31  C   UNL     1       4.036   7.208  27.545  1.00  0.00    -0.003 C 
ATOM     32  C   UNL     1       3.920   8.131  28.756  1.00  0.00     0.004 C 
ENDBRANCH  30  31
ENDBRANCH  29  30
ENDBRANCH  28  29
ENDBRANCH  27  28
ENDBRANCH  26  27
ENDBRANCH  25  26
ENDBRANCH  24  25
ENDBRANCH  23  24
ENDBRANCH  22  23
ENDBRANCH  21  22
ENDBRANCH  20  21
ENDBRANCH  19  20
ENDBRANCH  18  19
ENDBRANCH   1  18
TORSDOF 28
ENDMDL
MODEL 7
REMARK VINA RESULT:    -5.168      3.138      9.211
REMARK INTER + INTRA:         -18.423
REMARK INTER:                 -12.894
REMARK INTRA:                  -5.530
REMARK UNBOUND:                -4.796
REMARK SMILES CCCCCCCCCCCCCCCCCCCCCCCCCCCCCC(=O)[O-]
REMARK SMILES IDX 16 1 17 2 18 3 19 4 20 5 21 6 22 7 23 8 24 9 25 10 26 11
REMARK SMILES IDX 27 12 28 13 29 14 30 15 31 16 32 17 15 18 14 19 13 20 12 21
REMARK SMILES IDX 11 22 10 23 9 24 8 25 7 26 6 27 5 28 4 29 3 30 2 31 1 32
REMARK H PARENT
REMARK Flexibility Score: inf
ROOT
ATOM      1  C   UNL     1      -1.032   4.269  24.054  1.00  0.00     0.000 C 
ENDROOT
BRANCH   1   2
ATOM      2  C   UNL     1      -0.448   4.802  25.377  1.00  0.00     0.000 C 
BRANCH   2   3
ATOM      3  C   UNL     1      -0.477   3.780  26.534  1.00  0.00     0.000 C 
BRANCH   3   4
ATOM      4  C   UNL     1      -1.271   4.291  27.748  1.00  0.00     0.000 C 
BRANCH   4   5
ATOM      5  C   UNL     1      -1.179   5.817  27.913  1.00  0.00     0.000 C 
BRANCH   5   6
ATOM      6  C   UNL     1      -0.993   6.241  29.380  1.00  0.00     0.000 C 
BRANCH   6   7
ATOM      7  C   UNL     1      -0.013   7.417  29.543  1.00  0.00     0.000 C 
BRANCH   7   8
ATOM      8  C   UNL     1       0.616   7.551  30.942  1.00  0.00     0.000 C 
BRANCH   8   9
ATOM      9  C   UNL     1       0.877   6.222  31.677  1.00  0.00     0.000 C 
BRANCH   9  10
ATOM     10  C   UNL     1       2.245   5.581  31.354  1.00  0.00     0.000 C 
BRANCH  10  11
ATOM     11  C   UNL     1       2.124   4.117  30.889  1.00  0.00     0.000 C 
BRANCH  11  12
ATOM     12  C   UNL     1       1.991   3.980  29.361  1.00  0.00     0.000 C 
BRANCH  12  13
ATOM     13  C   UNL     1       2.727   5.056  28.536  1.00  0.00     0.006 C 
BRANCH  13  14
ATOM     14  C   UNL     1       3.111   4.607  27.115  1.00  0.00     0.053 C 
BRANCH  14  15
ATOM     15  C   UNL     1       3.432   5.755  26.209  1.00  0.00     0.041 C 
ATOM     16  O   UNL     1       2.745   6.810  26.252  1.00  0.00    -0.550 OA
ATOM     17  O   UNL     1       4.481   5.653  25.302  1.00  0.00    -0.550 OA
ENDBRANCH  14  15
ENDBRANCH  13  14
ENDBRANCH  12  13
ENDBRANCH  11  12
ENDBRANCH  10  11
ENDBRANCH   9  10
ENDBRANCH   8   9
ENDBRANCH   7   8
ENDBRANCH   6   7
ENDBRANCH   5   6
ENDBRANCH   4   5
ENDBRANCH   3   4
ENDBRANCH   2   3
ENDBRANCH   1   2
BRANCH   1  18
ATOM     18  C   UNL     1      -0.311   4.747  22.783  1.00  0.00     0.000 C 
BRANCH  18  19
ATOM     19  C   UNL     1      -1.213   5.604  21.878  1.00  0.00     0.000 C 
BRANCH  19  20
ATOM     20  C   UNL     1      -1.592   6.949  22.517  1.00  0.00     0.000 C 
BRANCH  20  21
ATOM     21  C   UNL     1      -3.059   7.338  22.254  1.00  0.00     0.000 C 
BRANCH  21  22
ATOM     22  C   UNL     1      -3.782   7.809  23.528  1.00  0.00     0.000 C 
BRANCH  22  23
ATOM     23  C   UNL     1      -3.134   7.259  24.811  1.00  0.00     0.000 C 
BRANCH  23  24
ATOM     24  C   UNL     1      -4.161   6.673  25.796  1.00  0.00    -0.000 C 
BRANCH  24  25
ATOM     25  C   UNL     1      -4.234   5.133  25.827  1.00  0.00    -0.000 C 
BRANCH  25  26
ATOM     26  C   UNL     1      -5.620   4.534  25.517  1.00  0.00    -0.000 C 
BRANCH  26  27
ATOM     27  C   UNL     1      -6.529   5.412  24.638  1.00  0.00    -0.000 C 
BRANCH  27  28
ATOM     28  C   UNL     1      -6.248   5.248  23.137  1.00  0.00    -0.000 C 
BRANCH  28  29
ATOM     29  C   UNL     1      -5.804   3.816  22.814  1.00  0.00    -0.000 C 
BRANCH  29  30
ATOM     30  C   UNL     1      -4.378   3.796  22.241  1.00  0.00    -0.000 C 
BRANCH  30  31
ATOM     31  C   UNL     1      -4.340   3.377  20.763  1.00  0.00    -0.003 C 
ATOM     32  C   UNL     1      -4.112   4.556  19.819  1.00  0.00     0.004 C 
ENDBRANCH  30  31
ENDBRANCH  29  30
ENDBRANCH  28  29
ENDBRANCH  27  28
ENDBRANCH  26  27
ENDBRANCH  25  26
ENDBRANCH  24  25
ENDBRANCH  23  24
ENDBRANCH  22  23
ENDBRANCH  21  22
ENDBRANCH  20  21
ENDBRANCH  19  20
ENDBRANCH  18  19
ENDBRANCH   1  18
TORSDOF 28
ENDMDL
MODEL 8
REMARK VINA RESULT:    -5.160      5.219      9.793
REMARK INTER + INTRA:         -18.403
REMARK INTER:                 -12.036
REMARK INTRA:                  -6.367
REMARK UNBOUND:                -4.796
REMARK SMILES CCCCCCCCCCCCCCCCCCCCCCCCCCCCCC(=O)[O-]
REMARK SMILES IDX 16 1 17 2 18 3 19 4 20 5 21 6 22 7 23 8 24 9 25 10 26 11
REMARK SMILES IDX 27 12 28 13 29 14 30 15 31 16 32 17 15 18 14 19 13 20 12 21
REMARK SMILES IDX 11 22 10 23 9 24 8 25 7 26 6 27 5 28 4 29 3 30 2 31 1 32
REMARK H PARENT
REMARK Flexibility Score: inf
ROOT
ATOM      1  C   UNL     1       3.149   4.123  29.171  1.00  0.00     0.000 C 
ENDROOT
BRANCH   1   2
ATOM      2  C   UNL     1       2.318   5.247  29.821  1.00  0.00     0.000 C 
BRANCH   2   3
ATOM      3  C   UNL     1       2.346   5.238  31.364  1.00  0.00     0.000 C 
BRANCH   3   4
ATOM      4  C   UNL     1       1.189   6.046  31.976  1.00  0.00     0.000 C 
BRANCH   4   5
ATOM      5  C   UNL     1       1.602   7.479  32.345  1.00  0.00     0.000 C 
BRANCH   5   6
ATOM      6  C   UNL     1       0.726   8.541  31.658  1.00  0.00     0.000 C 
BRANCH   6   7
ATOM      7  C   UNL     1       1.545   9.710  31.081  1.00  0.00     0.000 C 
BRANCH   7   8
ATOM      8  C   UNL     1       3.042   9.415  30.874  1.00  0.00     0.000 C 
BRANCH   8   9
ATOM      9  C   UNL     1       3.446   9.034  29.437  1.00  0.00     0.000 C 
BRANCH   9  10
ATOM     10  C   UNL     1       4.669   8.095  29.353  1.00  0.00     0.000 C 
BRANCH  10  11
ATOM     11  C   UNL     1       5.054   7.491  30.717  1.00  0.00     0.000 C 
BRANCH  11  12
ATOM     12  C   UNL     1       6.448   6.837  30.714  1.00  0.00     0.000 C 
BRANCH  12  13
ATOM     13  C   UNL     1       6.468   5.326  31.028  1.00  0.00     0.006 C 
BRANCH  13  14
ATOM     14  C   UNL     1       7.863   4.772  31.370  1.00  0.00     0.053 C 
BRANCH  14  15
ATOM     15  C   UNL     1       8.244   4.999  32.800  1.00  0.00     0.041 C 
ATOM     16  O   UNL     1       8.016   4.114  33.667  1.00  0.00    -0.550 OA
ATOM     17  O   UNL     1       8.836   6.198  33.180  1.00  0.00    -0.550 OA
ENDBRANCH  14  15
ENDBRANCH  13  14
ENDBRANCH  12  13
ENDBRANCH  11  12
ENDBRANCH  10  11
ENDBRANCH   9  10
ENDBRANCH   8   9
ENDBRANCH   7   8
ENDBRANCH   6   7
ENDBRANCH   5   6
ENDBRANCH   4   5
ENDBRANCH   3   4
ENDBRANCH   2   3
ENDBRANCH   1   2
BRANCH   1  18
ATOM     18  C   UNL     1       4.085   4.574  28.038  1.00  0.00     0.000 C 
BRANCH  18  19
ATOM     19  C   UNL     1       3.496   4.308  26.642  1.00  0.00     0.000 C 
BRANCH  19  20
ATOM     20  C   UNL     1       3.709   5.481  25.672  1.00  0.00     0.000 C 
BRANCH  20  21
ATOM     21  C   UNL     1       2.431   6.313  25.459  1.00  0.00     0.000 C 
BRANCH  21  22
ATOM     22  C   UNL     1       2.122   7.237  26.650  1.00  0.00     0.000 C 
BRANCH  22  23
ATOM     23  C   UNL     1       0.621   7.551  26.777  1.00  0.00     0.000 C 
BRANCH  23  24
ATOM     24  C   UNL     1       0.164   7.704  28.239  1.00  0.00    -0.000 C 
BRANCH  24  25
ATOM     25  C   UNL     1      -1.227   7.119  28.554  1.00  0.00    -0.000 C 
BRANCH  25  26
ATOM     26  C   UNL     1      -1.229   5.664  29.067  1.00  0.00    -0.000 C 
BRANCH  26  27
ATOM     27  C   UNL     1      -1.475   4.593  27.989  1.00  0.00    -0.000 C 
BRANCH  27  28
ATOM     28  C   UNL     1      -0.177   4.077  27.351  1.00  0.00    -0.000 C 
BRANCH  28  29
ATOM     29  C   UNL     1      -0.352   3.867  25.842  1.00  0.00    -0.000 C 
BRANCH  29  30
ATOM     30  C   UNL     1      -1.318   4.903  25.249  1.00  0.00    -0.000 C 
BRANCH  30  31
ATOM     31  C   UNL     1      -0.877   5.398  23.862  1.00  0.00    -0.003 C 
ATOM     32  C   UNL     1       0.176   4.498  23.219  1.00  0.00     0.004 C 
ENDBRANCH  30  31
ENDBRANCH  29  30
ENDBRANCH  28  29
ENDBRANCH  27  28
ENDBRANCH  26  27
ENDBRANCH  25  26
ENDBRANCH  24  25
ENDBRANCH  23  24
ENDBRANCH  22  23
ENDBRANCH  21  22
ENDBRANCH  20  21
ENDBRANCH  19  20
ENDBRANCH  18  19
ENDBRANCH   1  18
TORSDOF 28
ENDMDL
MODEL 9
REMARK VINA RESULT:    -5.142      3.143      8.530
REMARK INTER + INTRA:         -18.354
REMARK INTER:                 -12.303
REMARK INTRA:                  -6.052
REMARK UNBOUND:                -4.796
REMARK SMILES CCCCCCCCCCCCCCCCCCCCCCCCCCCCCC(=O)[O-]
REMARK SMILES IDX 16 1 17 2 18 3 19 4 20 5 21 6 22 7 23 8 24 9 25 10 26 11
REMARK SMILES IDX 27 12 28 13 29 14 30 15 31 16 32 17 15 18 14 19 13 20 12 21
REMARK SMILES IDX 11 22 10 23 9 24 8 25 7 26 6 27 5 28 4 29 3 30 2 31 1 32
REMARK H PARENT
REMARK Flexibility Score: inf
ROOT
ATOM      1  C   UNL     1      -1.009   3.965  25.393  1.00  0.00     0.000 C 
ENDROOT
BRANCH   1   2
ATOM      2  C   UNL     1      -0.716   4.435  26.832  1.00  0.00     0.000 C 
BRANCH   2   3
ATOM      3  C   UNL     1      -1.965   4.507  27.736  1.00  0.00     0.000 C 
BRANCH   3   4
ATOM      4  C   UNL     1      -1.730   5.362  28.993  1.00  0.00     0.000 C 
BRANCH   4   5
ATOM      5  C   UNL     1      -0.539   6.321  28.838  1.00  0.00     0.000 C 
BRANCH   5   6
ATOM      6  C   UNL     1      -0.311   7.183  30.093  1.00  0.00     0.000 C 
BRANCH   6   7
ATOM      7  C   UNL     1       1.176   7.496  30.341  1.00  0.00     0.000 C 
BRANCH   7   8
ATOM      8  C   UNL     1       1.793   6.794  31.565  1.00  0.00     0.000 C 
BRANCH   8   9
ATOM      9  C   UNL     1       1.519   5.281  31.664  1.00  0.00     0.000 C 
BRANCH   9  10
ATOM     10  C   UNL     1       2.512   4.407  30.867  1.00  0.00     0.000 C 
BRANCH  10  11
ATOM     11  C   UNL     1       1.898   3.829  29.577  1.00  0.00     0.000 C 
BRANCH  11  12
ATOM     12  C   UNL     1       2.730   4.145  28.321  1.00  0.00     0.000 C 
BRANCH  12  13
ATOM     13  C   UNL     1       3.186   5.613  28.184  1.00  0.00     0.006 C 
BRANCH  13  14
ATOM     14  C   UNL     1       2.766   6.282  26.862  1.00  0.00     0.053 C 
BRANCH  14  15
ATOM     15  C   UNL     1       3.223   5.522  25.655  1.00  0.00     0.041 C 
ATOM     16  O   UNL     1       2.397   4.867  24.967  1.00  0.00    -0.550 OA
ATOM     17  O   UNL     1       4.567   5.524  25.300  1.00  0.00    -0.550 OA
ENDBRANCH  14  15
ENDBRANCH  13  14
ENDBRANCH  12  13
ENDBRANCH  11  12
ENDBRANCH  10  11
ENDBRANCH   9  10
ENDBRANCH   8   9
ENDBRANCH   7   8
ENDBRANCH   6   7
ENDBRANCH   5   6
ENDBRANCH   4   5
ENDBRANCH   3   4
ENDBRANCH   2   3
ENDBRANCH   1   2
BRANCH   1  18
ATOM     18  C   UNL     1      -0.959   5.067  24.323  1.00  0.00     0.000 C 
BRANCH  18  19
ATOM     19  C   UNL     1      -0.753   4.507  22.905  1.00  0.00     0.000 C 
BRANCH  19  20
ATOM     20  C   UNL     1      -1.357   5.407  21.815  1.00  0.00     0.000 C 
BRANCH  20  21
ATOM     21  C   UNL     1      -2.897   5.423  21.847  1.00  0.00     0.000 C 
BRANCH  21  22
ATOM     22  C   UNL     1      -3.511   4.072  21.440  1.00  0.00     0.000 C 
BRANCH  22  23
ATOM     23  C   UNL     1      -4.727   3.694  22.304  1.00  0.00     0.000 C 
BRANCH  23  24
ATOM     24  C   UNL     1      -4.380   2.692  23.420  1.00  0.00    -0.000 C 
BRANCH  24  25
ATOM     25  C   UNL     1      -4.430   3.262  24.852  1.00  0.00    -0.000 C 
BRANCH  25  26
ATOM     26  C   UNL     1      -5.287   4.532  25.024  1.00  0.00    -0.000 C 
BRANCH  26  27
ATOM     27  C   UNL     1      -4.513   5.785  25.473  1.00  0.00    -0.000 C 
BRANCH  27  28
ATOM     28  C   UNL     1      -4.596   6.935  24.458  1.00  0.00    -0.000 C 
BRANCH  28  29
ATOM     29  C   UNL     1      -3.651   8.079  24.845  1.00  0.00    -0.000 C 
BRANCH  29  30
ATOM     30  C   UNL     1      -2.791   7.697  26.060  1.00  0.00    -0.000 C 
BRANCH  30  31
ATOM     31  C   UNL     1      -1.373   8.287  25.990  1.00  0.00    -0.003 C 
ATOM     32  C   UNL     1      -1.195   9.510  26.888  1.00  0.00     0.004 C 
ENDBRANCH  30  31
ENDBRANCH  29  30
ENDBRANCH  28  29
ENDBRANCH  27  28
ENDBRANCH  26  27
ENDBRANCH  25  26
ENDBRANCH  24  25
ENDBRANCH  23  24
ENDBRANCH  22  23
ENDBRANCH  21  22
ENDBRANCH  20  21
ENDBRANCH  19  20
ENDBRANCH  18  19
ENDBRANCH   1  18
TORSDOF 28
ENDMDL
