MODEL 1
REMARK VINA RESULT:    -4.745      0.000      0.000
REMARK INTER + INTRA:          -7.291
REMARK INTER:                  -6.965
REMARK INTRA:                  -0.327
REMARK UNBOUND:                -0.327
REMARK SMILES O=C([O-])CCCCCCCC(=O)[O-]
REMARK SMILES IDX 7 1 6 2 5 3 4 4 2 5 1 6 3 7 8 8 9 9 10 10 11 11 12 12 13 13
REMARK H PARENT
REMARK Flexibility Score: inf
ROOT
ATOM      1  C   UNL     1      -1.859  12.501  -8.612  1.00  0.00     0.000 C 
ENDROOT
BRANCH   1   2
ATOM      2  C   UNL     1      -1.076  11.271  -8.116  1.00  0.00     0.000 C 
BRANCH   2   3
ATOM      3  C   UNL     1       0.451  11.364  -8.278  1.00  0.00     0.006 C 
BRANCH   3   4
ATOM      4  C   UNL     1       1.115   9.996  -8.486  1.00  0.00     0.053 C 
BRANCH   4   5
ATOM      5  C   UNL     1       2.580  10.159  -8.735  1.00  0.00     0.041 C 
ATOM      6  O   UNL     1       3.291  10.816  -7.930  1.00  0.00    -0.550 OA
ATOM      7  O   UNL     1       3.154   9.625  -9.883  1.00  0.00    -0.550 OA
ENDBRANCH   4   5
ENDBRANCH   3   4
ENDBRANCH   2   3
ENDBRANCH   1   2
BRANCH   1   8
ATOM      8  C   UNL     1      -3.106  12.130  -9.428  1.00  0.00     0.000 C 
BRANCH   8   9
ATOM      9  C   UNL     1      -2.858  10.869 -10.266  1.00  0.00     0.006 C 
BRANCH   9  10
ATOM     10  C   UNL     1      -4.136  10.427 -10.985  1.00  0.00     0.053 C 
BRANCH  10  11
ATOM     11  C   UNL     1      -4.391   8.971 -10.751  1.00  0.00     0.041 C 
ATOM     12  O   UNL     1      -5.520   8.477 -11.006  1.00  0.00    -0.550 OA
ATOM     13  O   UNL     1      -3.366   8.150 -10.298  1.00  0.00    -0.550 OA
ENDBRANCH  10  11
ENDBRANCH   9  10
ENDBRANCH   8   9
ENDBRANCH   1   8
TORSDOF 8
ENDMDL
MODEL 2
REMARK VINA RESULT:    -4.682      1.523      6.569
REMARK INTER + INTRA:          -7.198
REMARK INTER:                  -6.858
REMARK INTRA:                  -0.340
REMARK UNBOUND:                -0.327
REMARK SMILES O=C([O-])CCCCCCCC(=O)[O-]
REMARK SMILES IDX 7 1 6 2 5 3 4 4 2 5 1 6 3 7 8 8 9 9 10 10 11 11 12 12 13 13
REMARK H PARENT
REMARK Flexibility Score: inf
ROOT
ATOM      1  C   UNL     1      -1.769  10.504  -8.024  1.00  0.00     0.000 C 
ENDROOT
BRANCH   1   2
ATOM      2  C   UNL     1      -2.881  10.086  -9.004  1.00  0.00     0.000 C 
BRANCH   2   3
ATOM      3  C   UNL     1      -3.055  11.010 -10.221  1.00  0.00     0.006 C 
BRANCH   3   4
ATOM      4  C   UNL     1      -4.265  10.636 -11.088  1.00  0.00     0.053 C 
BRANCH   4   5
ATOM      5  C   UNL     1      -5.520  11.206 -10.506  1.00  0.00     0.041 C 
ATOM      6  O   UNL     1      -5.479  12.260  -9.819  1.00  0.00    -0.550 OA
ATOM      7  O   UNL     1      -6.730  10.546 -10.682  1.00  0.00    -0.550 OA
ENDBRANCH   4   5
ENDBRANCH   3   4
ENDBRANCH   2   3
ENDBRANCH   1   2
BRANCH   1   8
ATOM      8  C   UNL     1      -0.880  11.630  -8.571  1.00  0.00     0.000 C 
BRANCH   8   9
ATOM      9  C   UNL     1       0.578  11.442  -8.131  1.00  0.00     0.006 C 
BRANCH   9  10
ATOM     10  C   UNL     1       1.124  10.091  -8.603  1.00  0.00     0.053 C 
BRANCH  10  11
ATOM     11  C   UNL     1       2.598  10.176  -8.841  1.00  0.00     0.041 C 
ATOM     12  O   UNL     1       3.336  10.794  -8.030  1.00  0.00    -0.550 OA
ATOM     13  O   UNL     1       3.164   9.531  -9.934  1.00  0.00    -0.550 OA
ENDBRANCH  10  11
ENDBRANCH   9  10
ENDBRANCH   8   9
ENDBRANCH   1   8
TORSDOF 8
ENDMDL
MODEL 3
REMARK VINA RESULT:    -4.670      0.703      6.463
REMARK INTER + INTRA:          -7.180
REMARK INTER:                  -6.937
REMARK INTRA:                  -0.243
REMARK UNBOUND:                -0.327
REMARK SMILES O=C([O-])CCCCCCCC(=O)[O-]
REMARK SMILES IDX 7 1 6 2 5 3 4 4 2 5 1 6 3 7 8 8 9 9 10 10 11 11 12 12 13 13
REMARK H PARENT
REMARK Flexibility Score: inf
ROOT
ATOM      1  C   UNL     1      -1.862  12.197  -9.102  1.00  0.00     0.000 C 
ENDROOT
BRANCH   1   2
ATOM      2  C   UNL     1      -3.291  11.758  -9.474  1.00  0.00     0.000 C 
BRANCH   2   3
ATOM      3  C   UNL     1      -3.381  10.751 -10.633  1.00  0.00     0.006 C 
BRANCH   3   4
ATOM      4  C   UNL     1      -4.824  10.344 -10.962  1.00  0.00     0.053 C 
BRANCH   4   5
ATOM      5  C   UNL     1      -5.086   8.942 -10.513  1.00  0.00     0.041 C 
ATOM      6  O   UNL     1      -5.013   7.989 -11.333  1.00  0.00    -0.550 OA
ATOM      7  O   UNL     1      -5.460   8.691  -9.198  1.00  0.00    -0.550 OA
ENDBRANCH   4   5
ENDBRANCH   3   4
ENDBRANCH   2   3
ENDBRANCH   1   2
BRANCH   1   8
ATOM      8  C   UNL     1      -1.122  11.162  -8.242  1.00  0.00     0.000 C 
BRANCH   8   9
ATOM      9  C   UNL     1       0.397  11.347  -8.346  1.00  0.00     0.006 C 
BRANCH   9  10
ATOM     10  C   UNL     1       1.102  10.001  -8.542  1.00  0.00     0.053 C 
BRANCH  10  11
ATOM     11  C   UNL     1       2.570  10.204  -8.746  1.00  0.00     0.041 C 
ATOM     12  O   UNL     1       3.254  10.803  -7.875  1.00  0.00    -0.550 OA
ATOM     13  O   UNL     1       3.192   9.688  -9.876  1.00  0.00    -0.550 OA
ENDBRANCH  10  11
ENDBRANCH   9  10
ENDBRANCH   8   9
ENDBRANCH   1   8
TORSDOF 8
ENDMDL
MODEL 4
REMARK VINA RESULT:    -4.524      0.982      1.443
REMARK INTER + INTRA:          -6.966
REMARK INTER:                  -6.627
REMARK INTRA:                  -0.340
REMARK UNBOUND:                -0.327
REMARK SMILES O=C([O-])CCCCCCCC(=O)[O-]
REMARK SMILES IDX 7 1 6 2 5 3 4 4 2 5 1 6 3 7 8 8 9 9 10 10 11 11 12 12 13 13
REMARK H PARENT
REMARK Flexibility Score: inf
ROOT
ATOM      1  C   UNL     1      -2.186  11.121  -9.412  1.00  0.00     0.000 C 
ENDROOT
BRANCH   1   2
ATOM      2  C   UNL     1      -1.450  12.279  -8.714  1.00  0.00     0.000 C 
BRANCH   2   3
ATOM      3  C   UNL     1       0.036  12.018  -8.413  1.00  0.00     0.006 C 
BRANCH   3   4
ATOM      4  C   UNL     1       0.401  10.528  -8.450  1.00  0.00     0.053 C 
BRANCH   4   5
ATOM      5  C   UNL     1       1.887  10.354  -8.482  1.00  0.00     0.041 C 
ATOM      6  O   UNL     1       2.612  10.957  -7.648  1.00  0.00    -0.550 OA
ATOM      7  O   UNL     1       2.474   9.566  -9.463  1.00  0.00    -0.550 OA
ENDBRANCH   4   5
ENDBRANCH   3   4
ENDBRANCH   2   3
ENDBRANCH   1   2
BRANCH   1   8
ATOM      8  C   UNL     1      -3.646  11.456  -9.751  1.00  0.00     0.000 C 
BRANCH   8   9
ATOM      9  C   UNL     1      -4.091  10.740 -11.032  1.00  0.00     0.006 C 
BRANCH   9  10
ATOM     10  C   UNL     1      -3.956   9.221 -10.888  1.00  0.00     0.053 C 
BRANCH  10  11
ATOM     11  C   UNL     1      -5.084   8.669 -10.075  1.00  0.00     0.041 C 
ATOM     12  O   UNL     1      -4.888   8.305  -8.886  1.00  0.00    -0.550 OA
ATOM     13  O   UNL     1      -6.362   8.604 -10.615  1.00  0.00    -0.550 OA
ENDBRANCH  10  11
ENDBRANCH   9  10
ENDBRANCH   8   9
ENDBRANCH   1   8
TORSDOF 8
ENDMDL
MODEL 5
REMARK VINA RESULT:    -4.493      1.048      5.983
REMARK INTER + INTRA:          -6.920
REMARK INTER:                  -6.526
REMARK INTRA:                  -0.394
REMARK UNBOUND:                -0.327
REMARK SMILES O=C([O-])CCCCCCCC(=O)[O-]
REMARK SMILES IDX 7 1 6 2 5 3 4 4 2 5 1 6 3 7 8 8 9 9 10 10 11 11 12 12 13 13
REMARK H PARENT
REMARK Flexibility Score: inf
ROOT
ATOM      1  C   UNL     1      -2.731  10.857  -9.176  1.00  0.00     0.000 C 
ENDROOT
BRANCH   1   2
ATOM      2  C   UNL     1      -3.180  10.861 -10.649  1.00  0.00     0.000 C 
BRANCH   2   3
ATOM      3  C   UNL     1      -4.571  10.258 -10.907  1.00  0.00     0.006 C 
BRANCH   3   4
ATOM      4  C   UNL     1      -4.865   9.033 -10.031  1.00  0.00     0.053 C 
BRANCH   4   5
ATOM      5  C   UNL     1      -4.342   7.790 -10.678  1.00  0.00     0.041 C 
ATOM      6  O   UNL     1      -3.195   7.360 -10.388  1.00  0.00    -0.550 OA
ATOM      7  O   UNL     1      -5.102   7.134 -11.638  1.00  0.00    -0.550 OA
ENDBRANCH   4   5
ENDBRANCH   3   4
ENDBRANCH   2   3
ENDBRANCH   1   2
BRANCH   1   8
ATOM      8  C   UNL     1      -2.158  12.208  -8.720  1.00  0.00     0.000 C 
BRANCH   8   9
ATOM      9  C   UNL     1      -0.634  12.134  -8.570  1.00  0.00     0.006 C 
BRANCH   9  10
ATOM     10  C   UNL     1      -0.169  10.687  -8.384  1.00  0.00     0.053 C 
BRANCH  10  11
ATOM     11  C   UNL     1       1.325  10.617  -8.352  1.00  0.00     0.041 C 
ATOM     12  O   UNL     1       1.977  11.364  -7.577  1.00  0.00    -0.550 OA
ATOM     13  O   UNL     1       1.994   9.690  -9.142  1.00  0.00    -0.550 OA
ENDBRANCH  10  11
ENDBRANCH   9  10
ENDBRANCH   8   9
ENDBRANCH   1   8
TORSDOF 8
ENDMDL
MODEL 6
REMARK VINA RESULT:    -4.452      2.208      2.616
REMARK INTER + INTRA:          -6.860
REMARK INTER:                  -6.582
REMARK INTRA:                  -0.278
REMARK UNBOUND:                -0.327
REMARK SMILES O=C([O-])CCCCCCCC(=O)[O-]
REMARK SMILES IDX 7 1 6 2 5 3 4 4 2 5 1 6 3 7 8 8 9 9 10 10 11 11 12 12 13 13
REMARK H PARENT
REMARK Flexibility Score: inf
ROOT
ATOM      1  C   UNL     1      -2.080  11.967  -9.137  1.00  0.00     0.000 C 
ENDROOT
BRANCH   1   2
ATOM      2  C   UNL     1      -1.164  11.265  -8.117  1.00  0.00     0.000 C 
BRANCH   2   3
ATOM      3  C   UNL     1       0.342  11.380  -8.408  1.00  0.00     0.006 C 
BRANCH   3   4
ATOM      4  C   UNL     1       1.025  10.017  -8.579  1.00  0.00     0.053 C 
BRANCH   4   5
ATOM      5  C   UNL     1       2.505  10.186  -8.713  1.00  0.00     0.041 C 
ATOM      6  O   UNL     1       3.155  10.802  -7.828  1.00  0.00    -0.550 OA
ATOM      7  O   UNL     1       3.160   9.707  -9.841  1.00  0.00    -0.550 OA
ENDBRANCH   4   5
ENDBRANCH   3   4
ENDBRANCH   2   3
ENDBRANCH   1   2
BRANCH   1   8
ATOM      8  C   UNL     1      -2.793  10.984 -10.078  1.00  0.00     0.000 C 
BRANCH   8   9
ATOM      9  C   UNL     1      -4.288  11.310 -10.180  1.00  0.00     0.006 C 
BRANCH   9  10
ATOM     10  C   UNL     1      -4.628  12.583  -9.399  1.00  0.00     0.053 C 
BRANCH  10  11
ATOM     11  C   UNL     1      -6.061  12.566  -8.970  1.00  0.00     0.041 C 
ATOM     12  O   UNL     1      -6.864  11.737  -9.474  1.00  0.00    -0.550 OA
ATOM     13  O   UNL     1      -6.500  13.434  -7.977  1.00  0.00    -0.550 OA
ENDBRANCH  10  11
ENDBRANCH   9  10
ENDBRANCH   8   9
ENDBRANCH   1   8
TORSDOF 8
ENDMDL
MODEL 7
REMARK VINA RESULT:    -4.378     11.938     14.163
REMARK INTER + INTRA:          -6.752
REMARK INTER:                  -6.314
REMARK INTRA:                  -0.438
REMARK UNBOUND:                -0.327
REMARK SMILES O=C([O-])CCCCCCCC(=O)[O-]
REMARK SMILES IDX 7 1 6 2 5 3 4 4 2 5 1 6 3 7 8 8 9 9 10 10 11 11 12 12 13 13
REMARK H PARENT
REMARK Flexibility Score: inf
ROOT
ATOM      1  C   UNL     1      -2.626   6.200 -19.764  1.00  0.00     0.000 C 
ENDROOT
BRANCH   1   2
ATOM      2  C   UNL     1      -2.609   6.796 -21.184  1.00  0.00     0.000 C 
BRANCH   2   3
ATOM      3  C   UNL     1      -3.312   5.946 -22.255  1.00  0.00     0.006 C 
BRANCH   3   4
ATOM      4  C   UNL     1      -4.800   5.719 -21.959  1.00  0.00     0.053 C 
BRANCH   4   5
ATOM      5  C   UNL     1      -5.103   4.256 -21.891  1.00  0.00     0.041 C 
ATOM      6  O   UNL     1      -6.280   3.861 -21.679  1.00  0.00    -0.550 OA
ATOM      7  O   UNL     1      -4.077   3.327 -22.012  1.00  0.00    -0.550 OA
ENDBRANCH   4   5
ENDBRANCH   3   4
ENDBRANCH   2   3
ENDBRANCH   1   2
BRANCH   1   8
ATOM      8  C   UNL     1      -1.221   5.897 -19.224  1.00  0.00     0.000 C 
BRANCH   8   9
ATOM      9  C   UNL     1      -0.580   4.730 -19.985  1.00  0.00     0.006 C 
BRANCH   9  10
ATOM     10  C   UNL     1       0.948   4.846 -19.983  1.00  0.00     0.053 C 
BRANCH  10  11
ATOM     11  C   UNL     1       1.491   4.633 -21.360  1.00  0.00     0.041 C 
ATOM     12  O   UNL     1       0.711   4.394 -22.319  1.00  0.00    -0.550 OA
ATOM     13  O   UNL     1       2.856   4.747 -21.594  1.00  0.00    -0.550 OA
ENDBRANCH  10  11
ENDBRANCH   9  10
ENDBRANCH   8   9
ENDBRANCH   1   8
TORSDOF 8
ENDMDL
MODEL 8
REMARK VINA RESULT:    -4.342     11.954     13.030
REMARK INTER + INTRA:          -6.699
REMARK INTER:                  -6.248
REMARK INTRA:                  -0.451
REMARK UNBOUND:                -0.327
REMARK SMILES O=C([O-])CCCCCCCC(=O)[O-]
REMARK SMILES IDX 7 1 6 2 5 3 4 4 2 5 1 6 3 7 8 8 9 9 10 10 11 11 12 12 13 13
REMARK H PARENT
REMARK Flexibility Score: inf
ROOT
ATOM      1  C   UNL     1      -2.803   6.291 -19.986  1.00  0.00     0.000 C 
ENDROOT
BRANCH   1   2
ATOM      2  C   UNL     1      -1.486   5.898 -19.290  1.00  0.00     0.000 C 
BRANCH   2   3
ATOM      3  C   UNL     1      -0.666   4.817 -20.013  1.00  0.00     0.006 C 
BRANCH   3   4
ATOM      4  C   UNL     1       0.837   5.123 -20.041  1.00  0.00     0.053 C 
BRANCH   4   5
ATOM      5  C   UNL     1       1.433   4.700 -21.346  1.00  0.00     0.041 C 
ATOM      6  O   UNL     1       2.683   4.663 -21.489  1.00  0.00    -0.550 OA
ATOM      7  O   UNL     1       0.608   4.393 -22.420  1.00  0.00    -0.550 OA
ENDBRANCH   4   5
ENDBRANCH   3   4
ENDBRANCH   2   3
ENDBRANCH   1   2
BRANCH   1   8
ATOM      8  C   UNL     1      -2.612   6.663 -21.464  1.00  0.00     0.000 C 
BRANCH   8   9
ATOM      9  C   UNL     1      -3.408   5.721 -22.375  1.00  0.00     0.006 C 
BRANCH   9  10
ATOM     10  C   UNL     1      -4.859   5.594 -21.900  1.00  0.00     0.053 C 
BRANCH  10  11
ATOM     11  C   UNL     1      -5.281   4.159 -21.882  1.00  0.00     0.041 C 
ATOM     12  O   UNL     1      -6.460   3.849 -21.571  1.00  0.00    -0.550 OA
ATOM     13  O   UNL     1      -4.383   3.167 -22.259  1.00  0.00    -0.550 OA
ENDBRANCH  10  11
ENDBRANCH   9  10
ENDBRANCH   8   9
ENDBRANCH   1   8
TORSDOF 8
ENDMDL
MODEL 9
REMARK VINA RESULT:    -4.323      1.509      2.271
REMARK INTER + INTRA:          -6.671
REMARK INTER:                  -6.085
REMARK INTRA:                  -0.586
REMARK UNBOUND:                -0.327
REMARK SMILES O=C([O-])CCCCCCCC(=O)[O-]
REMARK SMILES IDX 7 1 6 2 5 3 4 4 2 5 1 6 3 7 8 8 9 9 10 10 11 11 12 12 13 13
REMARK H PARENT
REMARK Flexibility Score: inf
ROOT
ATOM      1  C   UNL     1      -0.940  12.363  -6.351  1.00  0.00     0.000 C 
ENDROOT
BRANCH   1   2
ATOM      2  C   UNL     1       0.465  12.190  -6.957  1.00  0.00     0.000 C 
BRANCH   2   3
ATOM      3  C   UNL     1       0.491  11.604  -8.379  1.00  0.00     0.006 C 
BRANCH   3   4
ATOM      4  C   UNL     1       0.990  10.154  -8.421  1.00  0.00     0.053 C 
BRANCH   4   5
ATOM      5  C   UNL     1       2.389  10.096  -8.947  1.00  0.00     0.041 C 
ATOM      6  O   UNL     1       2.668   9.354  -9.924  1.00  0.00    -0.550 OA
ATOM      7  O   UNL     1       3.395  10.827  -8.327  1.00  0.00    -0.550 OA
ENDBRANCH   4   5
ENDBRANCH   3   4
ENDBRANCH   2   3
ENDBRANCH   1   2
BRANCH   1   8
ATOM      8  C   UNL     1      -1.846  13.276  -7.190  1.00  0.00     0.000 C 
BRANCH   8   9
ATOM      9  C   UNL     1      -3.034  12.494  -7.764  1.00  0.00     0.006 C 
BRANCH   9  10
ATOM     10  C   UNL     1      -2.888  12.304  -9.277  1.00  0.00     0.053 C 
BRANCH  10  11
ATOM     11  C   UNL     1      -3.044  10.862  -9.641  1.00  0.00     0.041 C 
ATOM     12  O   UNL     1      -3.459  10.538 -10.785  1.00  0.00    -0.550 OA
ATOM     13  O   UNL     1      -2.683   9.873  -8.734  1.00  0.00    -0.550 OA
ENDBRANCH  10  11
ENDBRANCH   9  10
ENDBRANCH   8   9
ENDBRANCH   1   8
TORSDOF 8
ENDMDL
