MODEL 1
REMARK VINA RESULT:    -1.942      0.000      0.000
REMARK INTER + INTRA:          -3.384
REMARK INTER:                  -2.963
REMARK INTRA:                  -0.420
REMARK UNBOUND:                -0.420
REMARK SMILES CC1=CCC[C@@H](C)C(=O)C[C@H](C(C)C)C(=O)C1
REMARK SMILES IDX 8 1 9 2 6 3 7 4 5 5 4 6 3 7 2 8 1 9 10 11 11 12 15 13 16 14
REMARK SMILES IDX 17 15 12 17 13 18 14 19
REMARK H PARENT
REMARK Flexibility Score: 70.00
ROOT
ATOM      1  C   UNL     1     169.456 170.252 144.628  1.00  0.00     0.136 C 
ATOM      2  O   UNL     1     170.277 169.439 145.029  1.00  0.00    -0.299 OA
ENDROOT
BRANCH   1   3
ATOM      3  C   UNL     1     168.680 171.108 145.623  1.00  0.00     0.053 C 
ATOM      4  C   UNL     1     169.591 172.080 146.391  1.00  0.00     0.016 C 
BRANCH   3   5
ATOM      5  C   UNL     1     167.835 170.257 146.595  1.00  0.00     0.015 C 
BRANCH   5   6
ATOM      6  C   UNL     1     166.480 169.819 146.004  1.00  0.00     0.028 C 
BRANCH   6   7
ATOM      7  C   UNL     1     165.778 170.929 145.262  1.00  0.00    -0.028 C 
ATOM      8  C   UNL     1     165.357 170.882 143.972  1.00  0.00    -0.070 CG0
ATOM      9  C   UNL     1     164.573 172.067 143.461  1.00  0.00     0.039 C 
ATOM     10  G   UNL     1     165.675 169.748 143.002  1.00  0.00     0.000 G0
ENDBRANCH   6   7
ENDBRANCH   5   6
ENDBRANCH   3   5
ENDBRANCH   1   3
BRANCH   1  11
ATOM     11  C   UNL     1     169.255 170.413 143.140  1.00  0.00     0.087 C 
BRANCH  11  12
ATOM     12  C   UNL     1     168.271 169.365 142.548  1.00  0.00     0.066 C 
BRANCH  12  13
ATOM     13  C   UNL     1     166.920 169.950 142.144  1.00  0.00     0.140 C 
ATOM     14  O   UNL     1     166.875 170.705 141.183  1.00  0.00    -0.299 OA
BRANCH  13  15
ATOM     15  C   UNL     1     165.670 169.756 142.969  1.00  0.00     0.106 CG0
ATOM     16  G   UNL     1     165.376 170.895 143.942  1.00  0.00     0.000 G0
ENDBRANCH  13  15
ENDBRANCH  12  13
BRANCH  12  17
ATOM     17  C   UNL     1     168.885 168.508 141.391  1.00  0.00    -0.006 C 
ATOM     18  C   UNL     1     168.169 167.155 141.252  1.00  0.00     0.008 C 
ATOM     19  C   UNL     1     170.402 168.279 141.513  1.00  0.00     0.008 C 
ENDBRANCH  12  17
ENDBRANCH  11  12
ENDBRANCH   1  11
TORSDOF 1
ENDMDL
MODEL 2
REMARK VINA RESULT:    -1.740      3.616      6.709
REMARK INTER + INTRA:          -3.076
REMARK INTER:                  -2.966
REMARK INTRA:                  -0.110
REMARK UNBOUND:                -0.420
REMARK SMILES CC1=CCC[C@@H](C)C(=O)C[C@H](C(C)C)C(=O)C1
REMARK SMILES IDX 8 1 9 2 6 3 7 4 5 5 4 6 3 7 2 8 1 9 10 11 11 12 15 13 16 14
REMARK SMILES IDX 17 15 12 17 13 18 14 19
REMARK H PARENT
REMARK Flexibility Score: 70.00
ROOT
ATOM      1  C   UNL     1     165.597 171.423 146.155  1.00  0.00     0.136 C 
ATOM      2  O   UNL     1     164.645 170.664 146.034  1.00  0.00    -0.299 OA
ENDROOT
BRANCH   1   3
ATOM      3  C   UNL     1     166.506 171.703 144.965  1.00  0.00     0.053 C 
ATOM      4  C   UNL     1     166.231 170.757 143.784  1.00  0.00     0.016 C 
BRANCH   3   5
ATOM      5  C   UNL     1     168.002 171.684 145.352  1.00  0.00     0.015 C 
BRANCH   5   6
ATOM      6  C   UNL     1     168.504 170.289 145.774  1.00  0.00     0.028 C 
BRANCH   6   7
ATOM      7  C   UNL     1     169.695 170.349 146.699  1.00  0.00    -0.028 C 
ATOM      8  C   UNL     1     169.689 170.059 148.025  1.00  0.00    -0.070 CG0
ATOM      9  C   UNL     1     171.018 170.076 148.740  1.00  0.00     0.039 C 
ATOM     10  G   UNL     1     168.429 169.781 148.841  1.00  0.00     0.000 G0
ENDBRANCH   6   7
ENDBRANCH   5   6
ENDBRANCH   3   5
ENDBRANCH   1   3
BRANCH   1  11
ATOM     11  C   UNL     1     165.829 172.095 147.488  1.00  0.00     0.087 C 
BRANCH  11  12
ATOM     12  C   UNL     1     166.087 171.081 148.638  1.00  0.00     0.066 C 
BRANCH  12  13
ATOM     13  C   UNL     1     167.546 171.009 149.078  1.00  0.00     0.140 C 
ATOM     14  O   UNL     1     168.072 172.020 149.523  1.00  0.00    -0.299 OA
BRANCH  13  15
ATOM     15  C   UNL     1     168.408 169.790 148.846  1.00  0.00     0.106 CG0
ATOM     16  G   UNL     1     169.681 170.062 148.051  1.00  0.00     0.000 G0
ENDBRANCH  13  15
ENDBRANCH  12  13
BRANCH  12  17
ATOM     17  C   UNL     1     165.134 171.266 149.865  1.00  0.00    -0.006 C 
ATOM     18  C   UNL     1     165.178 170.046 150.801  1.00  0.00     0.008 C 
ATOM     19  C   UNL     1     163.674 171.574 149.490  1.00  0.00     0.008 C 
ENDBRANCH  12  17
ENDBRANCH  11  12
ENDBRANCH   1  11
TORSDOF 1
ENDMDL
MODEL 3
REMARK VINA RESULT:    -1.700      1.653      3.760
REMARK INTER + INTRA:          -3.015
REMARK INTER:                  -2.674
REMARK INTRA:                  -0.341
REMARK UNBOUND:                -0.420
REMARK SMILES CC1=CCC[C@@H](C)C(=O)C[C@H](C(C)C)C(=O)C1
REMARK SMILES IDX 8 1 9 2 6 3 7 4 5 5 4 6 3 7 2 8 1 9 10 11 11 12 15 13 16 14
REMARK SMILES IDX 17 15 12 17 13 18 14 19
REMARK H PARENT
REMARK Flexibility Score: 70.00
ROOT
ATOM      1  C   UNL     1     165.793 168.719 143.068  1.00  0.00     0.136 C 
ATOM      2  O   UNL     1     165.249 168.342 142.039  1.00  0.00    -0.299 OA
ENDROOT
BRANCH   1   3
ATOM      3  C   UNL     1     165.006 169.519 144.098  1.00  0.00     0.053 C 
ATOM      4  C   UNL     1     163.701 168.816 144.511  1.00  0.00     0.016 C 
BRANCH   3   5
ATOM      5  C   UNL     1     164.731 170.966 143.632  1.00  0.00     0.015 C 
BRANCH   5   6
ATOM      6  C   UNL     1     165.578 172.018 144.375  1.00  0.00     0.028 C 
BRANCH   6   7
ATOM      7  C   UNL     1     166.266 171.461 145.597  1.00  0.00    -0.028 C 
ATOM      8  C   UNL     1     167.601 171.258 145.736  1.00  0.00    -0.070 CG0
ATOM      9  C   UNL     1     168.090 170.796 147.088  1.00  0.00     0.039 C 
ATOM     10  G   UNL     1     168.618 171.408 144.608  1.00  0.00     0.000 G0
ENDBRANCH   6   7
ENDBRANCH   5   6
ENDBRANCH   3   5
ENDBRANCH   1   3
BRANCH   1  11
ATOM     11  C   UNL     1     167.237 168.348 143.307  1.00  0.00     0.087 C 
BRANCH  11  12
ATOM     12  C   UNL     1     168.229 169.449 142.838  1.00  0.00     0.066 C 
BRANCH  12  13
ATOM     13  C   UNL     1     169.027 170.083 143.973  1.00  0.00     0.140 C 
ATOM     14  O   UNL     1     169.953 169.449 144.460  1.00  0.00    -0.299 OA
BRANCH  13  15
ATOM     15  C   UNL     1     168.628 171.389 144.619  1.00  0.00     0.106 CG0
ATOM     16  G   UNL     1     167.598 171.249 145.737  1.00  0.00     0.000 G0
ENDBRANCH  13  15
ENDBRANCH  12  13
BRANCH  12  17
ATOM     17  C   UNL     1     169.167 168.995 141.671  1.00  0.00    -0.006 C 
ATOM     18  C   UNL     1     168.784 169.671 140.345  1.00  0.00     0.008 C 
ATOM     19  C   UNL     1     169.233 167.470 141.472  1.00  0.00     0.008 C 
ENDBRANCH  12  17
ENDBRANCH  11  12
ENDBRANCH   1  11
TORSDOF 1
ENDMDL
MODEL 4
REMARK VINA RESULT:    -1.640     18.611     20.280
REMARK INTER + INTRA:          -2.923
REMARK INTER:                  -2.711
REMARK INTRA:                  -0.212
REMARK UNBOUND:                -0.420
REMARK SMILES CC1=CCC[C@@H](C)C(=O)C[C@H](C(C)C)C(=O)C1
REMARK SMILES IDX 8 1 9 2 6 3 7 4 5 5 4 6 3 7 2 8 1 9 10 11 11 12 15 13 16 14
REMARK SMILES IDX 17 15 12 17 13 18 14 19
REMARK H PARENT
REMARK Flexibility Score: 70.00
ROOT
ATOM      1  C   UNL     1     155.815 155.815 144.514  1.00  0.00     0.136 C 
ATOM      2  O   UNL     1     155.551 156.469 145.514  1.00  0.00    -0.299 OA
ENDROOT
BRANCH   1   3
ATOM      3  C   UNL     1     155.078 156.084 143.208  1.00  0.00     0.053 C 
ATOM      4  C   UNL     1     154.812 157.583 142.986  1.00  0.00     0.016 C 
BRANCH   3   5
ATOM      5  C   UNL     1     153.771 155.268 143.093  1.00  0.00     0.015 C 
BRANCH   5   6
ATOM      6  C   UNL     1     153.757 154.306 141.888  1.00  0.00     0.028 C 
BRANCH   6   7
ATOM      7  C   UNL     1     155.070 154.274 141.148  1.00  0.00    -0.028 C 
ATOM      8  C   UNL     1     156.019 153.309 141.252  1.00  0.00    -0.070 CG0
ATOM      9  C   UNL     1     157.213 153.415 140.333  1.00  0.00     0.039 C 
ATOM     10  G   UNL     1     155.985 152.172 142.269  1.00  0.00     0.000 G0
ENDBRANCH   6   7
ENDBRANCH   5   6
ENDBRANCH   3   5
ENDBRANCH   1   3
BRANCH   1  11
ATOM     11  C   UNL     1     156.902 154.769 144.593  1.00  0.00     0.087 C 
BRANCH  11  12
ATOM     12  C   UNL     1     156.342 153.320 144.651  1.00  0.00     0.066 C 
BRANCH  12  13
ATOM     13  C   UNL     1     156.831 152.426 143.516  1.00  0.00     0.140 C 
ATOM     14  O   UNL     1     157.981 152.010 143.555  1.00  0.00    -0.299 OA
BRANCH  13  15
ATOM     15  C   UNL     1     156.008 152.159 142.278  1.00  0.00     0.106 CG0
ATOM     16  G   UNL     1     156.030 153.290 141.253  1.00  0.00     0.000 G0
ENDBRANCH  13  15
ENDBRANCH  12  13
BRANCH  12  17
ATOM     17  C   UNL     1     156.534 152.627 146.041  1.00  0.00    -0.006 C 
ATOM     18  C   UNL     1     155.490 153.111 147.060  1.00  0.00     0.008 C 
ATOM     19  C   UNL     1     157.946 152.784 146.635  1.00  0.00     0.008 C 
ENDBRANCH  12  17
ENDBRANCH  11  12
ENDBRANCH   1  11
TORSDOF 1
ENDMDL
MODEL 5
REMARK VINA RESULT:    -1.640     20.282     21.641
REMARK INTER + INTRA:          -2.923
REMARK INTER:                  -2.692
REMARK INTRA:                  -0.231
REMARK UNBOUND:                -0.420
REMARK SMILES CC1=CCC[C@@H](C)C(=O)C[C@H](C(C)C)C(=O)C1
REMARK SMILES IDX 8 1 9 2 6 3 7 4 5 5 4 6 3 7 2 8 1 9 10 11 11 12 15 13 16 14
REMARK SMILES IDX 17 15 12 17 13 18 14 19
REMARK H PARENT
REMARK Flexibility Score: 70.00
ROOT
ATOM      1  C   UNL     1     155.494 156.251 150.227  1.00  0.00     0.136 C 
ATOM      2  O   UNL     1     155.451 157.216 150.978  1.00  0.00    -0.299 OA
ENDROOT
BRANCH   1   3
ATOM      3  C   UNL     1     155.173 156.421 148.747  1.00  0.00     0.053 C 
ATOM      4  C   UNL     1     155.994 157.548 148.097  1.00  0.00     0.016 C 
BRANCH   3   5
ATOM      5  C   UNL     1     153.663 156.620 148.493  1.00  0.00     0.015 C 
BRANCH   5   6
ATOM      6  C   UNL     1     152.902 155.298 148.271  1.00  0.00     0.028 C 
BRANCH   6   7
ATOM      7  C   UNL     1     153.594 154.379 147.295  1.00  0.00    -0.028 C 
ATOM      8  C   UNL     1     153.911 153.078 147.514  1.00  0.00    -0.070 CG0
ATOM      9  C   UNL     1     154.502 152.309 146.357  1.00  0.00     0.039 C 
ATOM     10  G   UNL     1     153.766 152.370 148.859  1.00  0.00     0.000 G0
ENDBRANCH   6   7
ENDBRANCH   5   6
ENDBRANCH   3   5
ENDBRANCH   1   3
BRANCH   1  11
ATOM     11  C   UNL     1     155.902 154.909 150.787  1.00  0.00     0.087 C 
BRANCH  11  12
ATOM     12  C   UNL     1     154.726 153.894 150.837  1.00  0.00     0.066 C 
BRANCH  12  13
ATOM     13  C   UNL     1     154.870 152.737 149.852  1.00  0.00     0.140 C 
ATOM     14  O   UNL     1     155.949 152.167 149.776  1.00  0.00    -0.299 OA
BRANCH  13  15
ATOM     15  C   UNL     1     153.787 152.368 148.866  1.00  0.00     0.106 CG0
ATOM     16  G   UNL     1     153.886 153.088 147.524  1.00  0.00     0.000 G0
ENDBRANCH  13  15
ENDBRANCH  12  13
BRANCH  12  17
ATOM     17  C   UNL     1     154.404 153.374 152.277  1.00  0.00    -0.006 C 
ATOM     18  C   UNL     1     153.298 154.210 152.943  1.00  0.00     0.008 C 
ATOM     19  C   UNL     1     155.627 153.301 153.209  1.00  0.00     0.008 C 
ENDBRANCH  12  17
ENDBRANCH  11  12
ENDBRANCH   1  11
TORSDOF 1
ENDMDL
MODEL 6
REMARK VINA RESULT:    -1.626      3.178      5.698
REMARK INTER + INTRA:          -2.901
REMARK INTER:                  -2.737
REMARK INTRA:                  -0.164
REMARK UNBOUND:                -0.420
REMARK SMILES CC1=CCC[C@@H](C)C(=O)C[C@H](C(C)C)C(=O)C1
REMARK SMILES IDX 8 1 9 2 6 3 7 4 5 5 4 6 3 7 2 8 1 9 10 11 11 12 15 13 16 14
REMARK SMILES IDX 17 15 12 17 13 18 14 19
REMARK H PARENT
REMARK Flexibility Score: 70.00
ROOT
ATOM      1  C   UNL     1     169.481 167.504 147.582  1.00  0.00     0.136 C 
ATOM      2  O   UNL     1     170.006 166.449 147.912  1.00  0.00    -0.299 OA
ENDROOT
BRANCH   1   3
ATOM      3  C   UNL     1     169.356 167.867 146.108  1.00  0.00     0.053 C 
ATOM      4  C   UNL     1     169.154 166.630 145.217  1.00  0.00     0.016 C 
BRANCH   3   5
ATOM      5  C   UNL     1     170.545 168.719 145.611  1.00  0.00     0.015 C 
BRANCH   5   6
ATOM      6  C   UNL     1     170.111 169.986 144.848  1.00  0.00     0.028 C 
BRANCH   6   7
ATOM      7  C   UNL     1     168.615 170.180 144.835  1.00  0.00    -0.028 C 
ATOM      8  C   UNL     1     167.909 170.980 145.674  1.00  0.00    -0.070 CG0
ATOM      9  C   UNL     1     166.428 171.114 145.414  1.00  0.00     0.039 C 
ATOM     10  G   UNL     1     168.501 171.694 146.886  1.00  0.00     0.000 G0
ENDBRANCH   6   7
ENDBRANCH   5   6
ENDBRANCH   3   5
ENDBRANCH   1   3
BRANCH   1  11
ATOM     11  C   UNL     1     168.934 168.413 148.658  1.00  0.00     0.087 C 
BRANCH  11  12
ATOM     12  C   UNL     1     169.492 169.861 148.564  1.00  0.00     0.066 C 
BRANCH  12  13
ATOM     13  C   UNL     1     168.443 170.901 148.181  1.00  0.00     0.140 C 
ATOM     14  O   UNL     1     167.451 171.016 148.888  1.00  0.00    -0.299 OA
BRANCH  13  15
ATOM     15  C   UNL     1     168.505 171.682 146.890  1.00  0.00     0.106 CG0
ATOM     16  G   UNL     1     167.888 170.966 145.692  1.00  0.00     0.000 G0
ENDBRANCH  13  15
ENDBRANCH  12  13
BRANCH  12  17
ATOM     17  C   UNL     1     170.296 170.308 149.830  1.00  0.00    -0.006 C 
ATOM     18  C   UNL     1     171.000 171.656 149.603  1.00  0.00     0.008 C 
ATOM     19  C   UNL     1     171.318 169.270 150.328  1.00  0.00     0.008 C 
ENDBRANCH  12  17
ENDBRANCH  11  12
ENDBRANCH   1  11
TORSDOF 1
ENDMDL
MODEL 7
REMARK VINA RESULT:    -1.606     18.235     19.741
REMARK INTER + INTRA:          -2.872
REMARK INTER:                  -2.625
REMARK INTRA:                  -0.247
REMARK UNBOUND:                -0.420
REMARK SMILES CC1=CCC[C@@H](C)C(=O)C[C@H](C(C)C)C(=O)C1
REMARK SMILES IDX 8 1 9 2 6 3 7 4 5 5 4 6 3 7 2 8 1 9 10 11 11 12 15 13 16 14
REMARK SMILES IDX 17 15 12 17 13 18 14 19
REMARK H PARENT
REMARK Flexibility Score: 70.00
ROOT
ATOM      1  C   UNL     1     157.475 155.205 141.523  1.00  0.00     0.136 C 
ATOM      2  O   UNL     1     157.788 156.255 142.067  1.00  0.00    -0.299 OA
ENDROOT
BRANCH   1   3
ATOM      3  C   UNL     1     156.776 155.225 140.168  1.00  0.00     0.053 C 
ATOM      4  C   UNL     1     157.705 155.705 139.040  1.00  0.00     0.016 C 
BRANCH   3   5
ATOM      5  C   UNL     1     155.469 156.047 140.195  1.00  0.00     0.015 C 
BRANCH   5   6
ATOM      6  C   UNL     1     154.215 155.190 140.460  1.00  0.00     0.028 C 
BRANCH   6   7
ATOM      7  C   UNL     1     153.687 155.342 141.865  1.00  0.00    -0.028 C 
ATOM      8  C   UNL     1     154.028 154.573 142.931  1.00  0.00    -0.070 CG0
ATOM      9  C   UNL     1     153.465 154.970 144.274  1.00  0.00     0.039 C 
ATOM     10  G   UNL     1     154.885 153.313 142.846  1.00  0.00     0.000 G0
ENDBRANCH   6   7
ENDBRANCH   5   6
ENDBRANCH   3   5
ENDBRANCH   1   3
BRANCH   1  11
ATOM     11  C   UNL     1     157.824 153.900 142.200  1.00  0.00     0.087 C 
BRANCH  11  12
ATOM     12  C   UNL     1     157.365 153.850 143.684  1.00  0.00     0.066 C 
BRANCH  12  13
ATOM     13  C   UNL     1     155.996 153.208 143.883  1.00  0.00     0.140 C 
ATOM     14  O   UNL     1     155.824 152.490 144.859  1.00  0.00    -0.299 OA
BRANCH  13  15
ATOM     15  C   UNL     1     154.896 153.298 142.852  1.00  0.00     0.106 CG0
ATOM     16  G   UNL     1     154.056 154.570 142.938  1.00  0.00     0.000 G0
ENDBRANCH  13  15
ENDBRANCH  12  13
BRANCH  12  17
ATOM     17  C   UNL     1     158.428 153.228 144.650  1.00  0.00    -0.006 C 
ATOM     18  C   UNL     1     158.808 154.206 145.774  1.00  0.00     0.008 C 
ATOM     19  C   UNL     1     159.704 152.729 143.947  1.00  0.00     0.008 C 
ENDBRANCH  12  17
ENDBRANCH  11  12
ENDBRANCH   1  11
TORSDOF 1
ENDMDL
MODEL 8
REMARK VINA RESULT:    -1.579      2.492      5.704
REMARK INTER + INTRA:          -2.830
REMARK INTER:                  -2.578
REMARK INTRA:                  -0.252
REMARK UNBOUND:                -0.420
REMARK SMILES CC1=CCC[C@@H](C)C(=O)C[C@H](C(C)C)C(=O)C1
REMARK SMILES IDX 8 1 9 2 6 3 7 4 5 5 4 6 3 7 2 8 1 9 10 11 11 12 15 13 16 14
REMARK SMILES IDX 17 15 12 17 13 18 14 19
REMARK H PARENT
REMARK Flexibility Score: 70.00
ROOT
ATOM      1  C   UNL     1     165.968 170.209 146.059  1.00  0.00     0.136 C 
ATOM      2  O   UNL     1     165.756 169.047 146.376  1.00  0.00    -0.299 OA
ENDROOT
BRANCH   1   3
ATOM      3  C   UNL     1     165.428 170.752 144.741  1.00  0.00     0.053 C 
ATOM      4  C   UNL     1     163.900 170.612 144.634  1.00  0.00     0.016 C 
BRANCH   3   5
ATOM      5  C   UNL     1     166.128 170.123 143.517  1.00  0.00     0.015 C 
BRANCH   5   6
ATOM      6  C   UNL     1     167.479 170.785 143.179  1.00  0.00     0.028 C 
BRANCH   6   7
ATOM      7  C   UNL     1     168.661 169.905 143.503  1.00  0.00    -0.028 C 
ATOM      8  C   UNL     1     169.466 170.021 144.590  1.00  0.00    -0.070 CG0
ATOM      9  C   UNL     1     170.526 168.962 144.778  1.00  0.00     0.039 C 
ATOM     10  G   UNL     1     169.408 171.175 145.586  1.00  0.00     0.000 G0
ENDBRANCH   6   7
ENDBRANCH   5   6
ENDBRANCH   3   5
ENDBRANCH   1   3
BRANCH   1  11
ATOM     11  C   UNL     1     166.740 171.095 147.008  1.00  0.00     0.087 C 
BRANCH  11  12
ATOM     12  C   UNL     1     167.954 170.371 147.657  1.00  0.00     0.066 C 
BRANCH  12  13
ATOM     13  C   UNL     1     169.296 170.745 147.035  1.00  0.00     0.140 C 
ATOM     14  O   UNL     1     170.275 170.821 147.765  1.00  0.00    -0.299 OA
BRANCH  13  15
ATOM     15  C   UNL     1     169.436 171.171 145.593  1.00  0.00     0.106 CG0
ATOM     16  G   UNL     1     169.480 170.015 144.598  1.00  0.00     0.000 G0
ENDBRANCH  13  15
ENDBRANCH  12  13
BRANCH  12  17
ATOM     17  C   UNL     1     167.998 170.492 149.216  1.00  0.00    -0.006 C 
ATOM     18  C   UNL     1     168.359 169.150 149.874  1.00  0.00     0.008 C 
ATOM     19  C   UNL     1     166.704 171.042 149.844  1.00  0.00     0.008 C 
ENDBRANCH  12  17
ENDBRANCH  11  12
ENDBRANCH   1  11
TORSDOF 1
ENDMDL
MODEL 9
REMARK VINA RESULT:    -1.572     17.315     18.968
REMARK INTER + INTRA:          -2.820
REMARK INTER:                  -2.466
REMARK INTRA:                  -0.354
REMARK UNBOUND:                -0.420
REMARK SMILES CC1=CCC[C@@H](C)C(=O)C[C@H](C(C)C)C(=O)C1
REMARK SMILES IDX 8 1 9 2 6 3 7 4 5 5 4 6 3 7 2 8 1 9 10 11 11 12 15 13 16 14
REMARK SMILES IDX 17 15 12 17 13 18 14 19
REMARK H PARENT
REMARK Flexibility Score: 70.00
ROOT
ATOM      1  C   UNL     1     158.684 156.158 143.357  1.00  0.00     0.136 C 
ATOM      2  O   UNL     1     159.226 157.028 142.690  1.00  0.00    -0.299 OA
ENDROOT
BRANCH   1   3
ATOM      3  C   UNL     1     159.480 155.395 144.409  1.00  0.00     0.053 C 
ATOM      4  C   UNL     1     160.365 156.323 145.258  1.00  0.00     0.016 C 
BRANCH   3   5
ATOM      5  C   UNL     1     160.312 154.246 143.797  1.00  0.00     0.015 C 
BRANCH   5   6
ATOM      6  C   UNL     1     159.890 152.852 144.301  1.00  0.00     0.028 C 
BRANCH   6   7
ATOM      7  C   UNL     1     158.903 152.913 145.440  1.00  0.00    -0.028 C 
ATOM      8  C   UNL     1     157.581 152.615 145.364  1.00  0.00    -0.070 CG0
ATOM      9  C   UNL     1     156.796 152.635 146.654  1.00  0.00     0.039 C 
ATOM     10  G   UNL     1     156.835 152.325 144.065  1.00  0.00     0.000 G0
ENDBRANCH   6   7
ENDBRANCH   5   6
ENDBRANCH   3   5
ENDBRANCH   1   3
BRANCH   1  11
ATOM     11  C   UNL     1     157.214 155.882 143.141  1.00  0.00     0.087 C 
BRANCH  11  12
ATOM     12  C   UNL     1     156.948 154.488 142.508  1.00  0.00     0.066 C 
BRANCH  12  13
ATOM     13  C   UNL     1     156.176 153.537 143.418  1.00  0.00     0.140 C 
ATOM     14  O   UNL     1     155.030 153.829 143.728  1.00  0.00    -0.299 OA
BRANCH  13  15
ATOM     15  C   UNL     1     156.817 152.334 144.069  1.00  0.00     0.106 CG0
ATOM     16  G   UNL     1     157.561 152.642 145.366  1.00  0.00     0.000 G0
ENDBRANCH  13  15
ENDBRANCH  12  13
BRANCH  12  17
ATOM     17  C   UNL     1     156.305 154.556 141.084  1.00  0.00    -0.006 C 
ATOM     18  C   UNL     1     157.108 153.735 140.063  1.00  0.00     0.008 C 
ATOM     19  C   UNL     1     156.103 155.986 140.550  1.00  0.00     0.008 C 
ENDBRANCH  12  17
ENDBRANCH  11  12
ENDBRANCH   1  11
TORSDOF 1
ENDMDL
