MODEL 1
REMARK VINA RESULT:    -3.864      0.000      0.000
REMARK INTER + INTRA:          -4.384
REMARK INTER:                  -4.315
REMARK INTRA:                  -0.068
REMARK UNBOUND:                -0.068
REMARK SMILES COc1ccc(C(=O)[O-])cc1
REMARK SMILES IDX 6 1 5 2 10 3 4 4 11 5 3 6 7 7 8 8 9 9 2 10 1 11
REMARK H PARENT
REMARK Flexibility Score: inf
ROOT
ATOM      1  C   UNL     1      48.330 -28.726 -31.533  1.00  0.00    -0.003 A 
ATOM      2  C   UNL     1      48.764 -28.094 -32.711  1.00  0.00     0.014 A 
ATOM      3  C   UNL     1      49.287 -29.149 -30.595  1.00  0.00     0.014 A 
ATOM      4  C   UNL     1      50.128 -27.889 -32.945  1.00  0.00     0.047 A 
ATOM      5  C   UNL     1      50.650 -28.943 -30.830  1.00  0.00     0.047 A 
ATOM      6  C   UNL     1      51.083 -28.315 -32.003  1.00  0.00     0.118 A 
ENDROOT
BRANCH   1   7
ATOM      7  C   UNL     1      46.886 -28.940 -31.290  1.00  0.00     0.071 C 
ATOM      8  O   UNL     1      46.023 -28.303 -31.952  1.00  0.00    -0.545 OA
ATOM      9  O   UNL     1      46.461 -29.848 -30.327  1.00  0.00    -0.545 OA
ENDBRANCH   1   7
BRANCH   6  10
ATOM     10  O   UNL     1      52.460 -28.132 -32.191  1.00  0.00    -0.497 OA
ATOM     11  C   UNL     1      53.412 -28.051 -31.135  1.00  0.00     0.278 C 
ENDBRANCH   6  10
TORSDOF 2
ENDMDL
MODEL 2
REMARK VINA RESULT:    -3.826      0.977      4.658
REMARK INTER + INTRA:          -4.342
REMARK INTER:                  -4.275
REMARK INTRA:                  -0.067
REMARK UNBOUND:                -0.068
REMARK SMILES COc1ccc(C(=O)[O-])cc1
REMARK SMILES IDX 6 1 5 2 10 3 4 4 11 5 3 6 7 7 8 8 9 9 2 10 1 11
REMARK H PARENT
REMARK Flexibility Score: inf
ROOT
ATOM      1  C   UNL     1      50.882 -28.558 -31.657  1.00  0.00    -0.003 A 
ATOM      2  C   UNL     1      50.303 -28.003 -32.810  1.00  0.00     0.014 A 
ATOM      3  C   UNL     1      50.044 -29.092 -30.663  1.00  0.00     0.014 A 
ATOM      4  C   UNL     1      48.913 -27.982 -32.967  1.00  0.00     0.047 A 
ATOM      5  C   UNL     1      48.654 -29.070 -30.821  1.00  0.00     0.047 A 
ATOM      6  C   UNL     1      48.077 -28.517 -31.969  1.00  0.00     0.118 A 
ENDROOT
BRANCH   1   7
ATOM      7  C   UNL     1      52.353 -28.579 -31.495  1.00  0.00     0.071 C 
ATOM      8  O   UNL     1      53.072 -27.718 -32.071  1.00  0.00    -0.545 OA
ATOM      9  O   UNL     1      52.962 -29.547 -30.706  1.00  0.00    -0.545 OA
ENDBRANCH   1   7
BRANCH   6  10
ATOM     10  O   UNL     1      46.679 -28.520 -32.080  1.00  0.00    -0.497 OA
ATOM     11  C   UNL     1      45.785 -28.532 -30.972  1.00  0.00     0.278 C 
ENDBRANCH   6  10
TORSDOF 2
ENDMDL
MODEL 3
REMARK VINA RESULT:    -3.809      0.991      4.973
REMARK INTER + INTRA:          -4.323
REMARK INTER:                  -4.260
REMARK INTRA:                  -0.062
REMARK UNBOUND:                -0.068
REMARK SMILES COc1ccc(C(=O)[O-])cc1
REMARK SMILES IDX 6 1 5 2 10 3 4 4 11 5 3 6 7 7 8 8 9 9 2 10 1 11
REMARK H PARENT
REMARK Flexibility Score: inf
ROOT
ATOM      1  C   UNL     1      50.840 -28.572 -31.640  1.00  0.00    -0.003 A 
ATOM      2  C   UNL     1      50.029 -29.133 -30.638  1.00  0.00     0.014 A 
ATOM      3  C   UNL     1      50.231 -28.017 -32.778  1.00  0.00     0.014 A 
ATOM      4  C   UNL     1      48.637 -29.139 -30.773  1.00  0.00     0.047 A 
ATOM      5  C   UNL     1      48.839 -28.024 -32.911  1.00  0.00     0.047 A 
ATOM      6  C   UNL     1      48.031 -28.583 -31.915  1.00  0.00     0.118 A 
ENDROOT
BRANCH   1   7
ATOM      7  C   UNL     1      52.313 -28.568 -31.493  1.00  0.00     0.071 C 
ATOM      8  O   UNL     1      52.893 -29.471 -30.833  1.00  0.00    -0.545 OA
ATOM      9  O   UNL     1      53.077 -27.567 -32.082  1.00  0.00    -0.545 OA
ENDBRANCH   1   7
BRANCH   6  10
ATOM     10  O   UNL     1      46.640 -28.564 -32.096  1.00  0.00    -0.497 OA
ATOM     11  C   UNL     1      45.692 -28.521 -31.035  1.00  0.00     0.278 C 
ENDBRANCH   6  10
TORSDOF 2
ENDMDL
MODEL 4
REMARK VINA RESULT:    -3.800      1.780      4.672
REMARK INTER + INTRA:          -4.313
REMARK INTER:                  -4.253
REMARK INTRA:                  -0.060
REMARK UNBOUND:                -0.068
REMARK SMILES COc1ccc(C(=O)[O-])cc1
REMARK SMILES IDX 6 1 5 2 10 3 4 4 11 5 3 6 7 7 8 8 9 9 2 10 1 11
REMARK H PARENT
REMARK Flexibility Score: inf
ROOT
ATOM      1  C   UNL     1      48.861 -28.424 -31.828  1.00  0.00    -0.003 A 
ATOM      2  C   UNL     1      47.514 -28.329 -32.218  1.00  0.00     0.014 A 
ATOM      3  C   UNL     1      49.180 -29.102 -30.640  1.00  0.00     0.014 A 
ATOM      4  C   UNL     1      46.507 -28.901 -31.434  1.00  0.00     0.047 A 
ATOM      5  C   UNL     1      48.172 -29.675 -29.858  1.00  0.00     0.047 A 
ATOM      6  C   UNL     1      46.831 -29.580 -30.244  1.00  0.00     0.118 A 
ENDROOT
BRANCH   1   7
ATOM      7  C   UNL     1      49.923 -27.816 -32.661  1.00  0.00     0.071 C 
ATOM      8  O   UNL     1      49.884 -27.909 -33.917  1.00  0.00    -0.545 OA
ATOM      9  O   UNL     1      50.979 -27.133 -32.068  1.00  0.00    -0.545 OA
ENDBRANCH   1   7
BRANCH   6  10
ATOM     10  O   UNL     1      45.858 -30.171 -29.425  1.00  0.00    -0.497 OA
ATOM     11  C   UNL     1      45.875 -31.533 -29.012  1.00  0.00     0.278 C 
ENDBRANCH   6  10
TORSDOF 2
ENDMDL
MODEL 5
REMARK VINA RESULT:    -3.707      1.468      2.006
REMARK INTER + INTRA:          -4.209
REMARK INTER:                  -4.144
REMARK INTRA:                  -0.065
REMARK UNBOUND:                -0.068
REMARK SMILES COc1ccc(C(=O)[O-])cc1
REMARK SMILES IDX 6 1 5 2 10 3 4 4 11 5 3 6 7 7 8 8 9 9 2 10 1 11
REMARK H PARENT
REMARK Flexibility Score: inf
ROOT
ATOM      1  C   UNL     1      47.301 -29.491 -30.671  1.00  0.00    -0.003 A 
ATOM      2  C   UNL     1      47.103 -28.869 -31.915  1.00  0.00     0.014 A 
ATOM      3  C   UNL     1      48.582 -29.466 -30.093  1.00  0.00     0.014 A 
ATOM      4  C   UNL     1      48.164 -28.234 -32.567  1.00  0.00     0.047 A 
ATOM      5  C   UNL     1      49.642 -28.830 -30.746  1.00  0.00     0.047 A 
ATOM      6  C   UNL     1      49.445 -28.210 -31.985  1.00  0.00     0.118 A 
ENDROOT
BRANCH   1   7
ATOM      7  C   UNL     1      46.175 -30.163 -29.984  1.00  0.00     0.071 C 
ATOM      8  O   UNL     1      46.307 -31.331 -29.529  1.00  0.00    -0.545 OA
ATOM      9  O   UNL     1      44.956 -29.514 -29.829  1.00  0.00    -0.545 OA
ENDBRANCH   1   7
BRANCH   6  10
ATOM     10  O   UNL     1      50.541 -27.586 -32.599  1.00  0.00    -0.497 OA
ATOM     11  C   UNL     1      51.836 -27.481 -32.018  1.00  0.00     0.278 C 
ENDBRANCH   6  10
TORSDOF 2
ENDMDL
MODEL 6
REMARK VINA RESULT:    -3.669      1.660      2.592
REMARK INTER + INTRA:          -4.166
REMARK INTER:                  -4.109
REMARK INTRA:                  -0.057
REMARK UNBOUND:                -0.068
REMARK SMILES COc1ccc(C(=O)[O-])cc1
REMARK SMILES IDX 6 1 5 2 10 3 4 4 11 5 3 6 7 7 8 8 9 9 2 10 1 11
REMARK H PARENT
REMARK Flexibility Score: inf
ROOT
ATOM      1  C   UNL     1      47.165 -29.529 -30.450  1.00  0.00    -0.003 A 
ATOM      2  C   UNL     1      48.471 -29.529 -29.933  1.00  0.00     0.014 A 
ATOM      3  C   UNL     1      46.927 -28.934 -31.701  1.00  0.00     0.014 A 
ATOM      4  C   UNL     1      49.519 -28.944 -30.652  1.00  0.00     0.047 A 
ATOM      5  C   UNL     1      47.976 -28.351 -32.419  1.00  0.00     0.047 A 
ATOM      6  C   UNL     1      49.276 -28.349 -31.904  1.00  0.00     0.118 A 
ENDROOT
BRANCH   1   7
ATOM      7  C   UNL     1      46.059 -30.149 -29.686  1.00  0.00     0.071 C 
ATOM      8  O   UNL     1      46.001 -31.400 -29.544  1.00  0.00    -0.545 OA
ATOM      9  O   UNL     1      45.070 -29.359 -29.111  1.00  0.00    -0.545 OA
ENDBRANCH   1   7
BRANCH   6  10
ATOM     10  O   UNL     1      50.293 -27.751 -32.664  1.00  0.00    -0.497 OA
ATOM     11  C   UNL     1      51.517 -27.264 -32.125  1.00  0.00     0.278 C 
ENDBRANCH   6  10
TORSDOF 2
ENDMDL
MODEL 7
REMARK VINA RESULT:    -3.592     13.186     14.330
REMARK INTER + INTRA:          -4.080
REMARK INTER:                  -4.018
REMARK INTRA:                  -0.062
REMARK UNBOUND:                -0.068
REMARK SMILES COc1ccc(C(=O)[O-])cc1
REMARK SMILES IDX 6 1 5 2 10 3 4 4 11 5 3 6 7 7 8 8 9 9 2 10 1 11
REMARK H PARENT
REMARK Flexibility Score: inf
ROOT
ATOM      1  C   UNL     1      54.052 -41.113 -31.921  1.00  0.00    -0.003 A 
ATOM      2  C   UNL     1      54.854 -41.758 -30.964  1.00  0.00     0.014 A 
ATOM      3  C   UNL     1      52.663 -41.053 -31.716  1.00  0.00     0.014 A 
ATOM      4  C   UNL     1      54.279 -42.332 -29.826  1.00  0.00     0.047 A 
ATOM      5  C   UNL     1      52.090 -41.627 -30.577  1.00  0.00     0.047 A 
ATOM      6  C   UNL     1      52.887 -42.271 -29.625  1.00  0.00     0.118 A 
ENDROOT
BRANCH   1   7
ATOM      7  C   UNL     1      54.665 -40.507 -33.123  1.00  0.00     0.071 C 
ATOM      8  O   UNL     1      55.425 -39.506 -33.020  1.00  0.00    -0.545 OA
ATOM      9  O   UNL     1      54.413 -41.033 -34.385  1.00  0.00    -0.545 OA
ENDBRANCH   1   7
BRANCH   6  10
ATOM     10  O   UNL     1      52.263 -42.830 -28.501  1.00  0.00    -0.497 OA
ATOM     11  C   UNL     1      50.877 -43.148 -28.426  1.00  0.00     0.278 C 
ENDBRANCH   6  10
TORSDOF 2
ENDMDL
MODEL 8
REMARK VINA RESULT:    -3.576     14.640     15.614
REMARK INTER + INTRA:          -4.062
REMARK INTER:                  -3.997
REMARK INTRA:                  -0.065
REMARK UNBOUND:                -0.068
REMARK SMILES COc1ccc(C(=O)[O-])cc1
REMARK SMILES IDX 6 1 5 2 10 3 4 4 11 5 3 6 7 7 8 8 9 9 2 10 1 11
REMARK H PARENT
REMARK Flexibility Score: inf
ROOT
ATOM      1  C   UNL     1      55.439 -39.486 -23.121  1.00  0.00    -0.003 A 
ATOM      2  C   UNL     1      55.540 -38.312 -22.355  1.00  0.00     0.014 A 
ATOM      3  C   UNL     1      54.222 -40.188 -23.135  1.00  0.00     0.014 A 
ATOM      4  C   UNL     1      54.445 -37.850 -21.617  1.00  0.00     0.047 A 
ATOM      5  C   UNL     1      53.128 -39.724 -22.397  1.00  0.00     0.047 A 
ATOM      6  C   UNL     1      53.228 -38.557 -21.633  1.00  0.00     0.118 A 
ENDROOT
BRANCH   1   7
ATOM      7  C   UNL     1      56.600 -39.971 -23.900  1.00  0.00     0.071 C 
ATOM      8  O   UNL     1      56.622 -41.147 -24.353  1.00  0.00    -0.545 OA
ATOM      9  O   UNL     1      57.684 -39.135 -24.145  1.00  0.00    -0.545 OA
ENDBRANCH   1   7
BRANCH   6  10
ATOM     10  O   UNL     1      52.102 -38.134 -20.912  1.00  0.00    -0.497 OA
ATOM     11  C   UNL     1      51.265 -38.998 -20.150  1.00  0.00     0.278 C 
ENDBRANCH   6  10
TORSDOF 2
ENDMDL
MODEL 9
REMARK VINA RESULT:    -3.531     14.389     15.518
REMARK INTER + INTRA:          -4.012
REMARK INTER:                  -3.959
REMARK INTRA:                  -0.053
REMARK UNBOUND:                -0.068
REMARK SMILES COc1ccc(C(=O)[O-])cc1
REMARK SMILES IDX 6 1 5 2 10 3 4 4 11 5 3 6 7 7 8 8 9 9 2 10 1 11
REMARK H PARENT
REMARK Flexibility Score: inf
ROOT
ATOM      1  C   UNL     1      55.713 -40.759 -24.586  1.00  0.00    -0.003 A 
ATOM      2  C   UNL     1      54.550 -40.781 -23.798  1.00  0.00     0.014 A 
ATOM      3  C   UNL     1      56.697 -39.792 -24.321  1.00  0.00     0.014 A 
ATOM      4  C   UNL     1      54.375 -39.854 -22.765  1.00  0.00     0.047 A 
ATOM      5  C   UNL     1      56.521 -38.866 -23.288  1.00  0.00     0.047 A 
ATOM      6  C   UNL     1      55.363 -38.887 -22.503  1.00  0.00     0.118 A 
ENDROOT
BRANCH   1   7
ATOM      7  C   UNL     1      55.894 -41.742 -25.677  1.00  0.00     0.071 C 
ATOM      8  O   UNL     1      55.813 -41.383 -26.883  1.00  0.00    -0.545 OA
ATOM      9  O   UNL     1      56.157 -43.076 -25.388  1.00  0.00    -0.545 OA
ENDBRANCH   1   7
BRANCH   6  10
ATOM     10  O   UNL     1      55.234 -37.937 -21.480  1.00  0.00    -0.497 OA
ATOM     11  C   UNL     1      54.988 -36.551 -21.695  1.00  0.00     0.278 C 
ENDBRANCH   6  10
TORSDOF 2
ENDMDL
