MODEL 1
REMARK VINA RESULT:    -5.737      0.000      0.000
REMARK INTER + INTRA:          -7.643
REMARK INTER:                  -7.079
REMARK INTRA:                  -0.565
REMARK UNBOUND:                -0.565
REMARK SMILES CC(C)=CCC[C@@H](C)c1ccc(C)cc1
REMARK SMILES IDX 6 1 7 2 8 3 9 4 13 5 12 6 11 7 14 8 10 9 15 10 5 11 4 12
REMARK SMILES IDX 2 13 1 14 3 15
REMARK H PARENT
REMARK Flexibility Score: inf
ROOT
ATOM      1  C   UNL     1      11.579 -26.552  13.924  1.00  0.00     0.012 C 
ENDROOT
BRANCH   1   2
ATOM      2  C   UNL     1      10.108 -27.005  13.777  1.00  0.00     0.016 C 
ATOM      3  C   UNL     1       9.918 -28.492  14.115  1.00  0.00     0.013 C 
BRANCH   2   4
ATOM      4  C   UNL     1       9.202 -26.147  14.640  1.00  0.00    -0.045 A 
ATOM      5  C   UNL     1       6.598 -23.701  17.070  1.00  0.00     0.044 C 
ATOM      6  C   UNL     1       7.523 -24.528  16.226  1.00  0.00    -0.051 A 
ATOM      7  C   UNL     1       7.430 -24.487  14.828  1.00  0.00     0.004 A 
ATOM      8  C   UNL     1       8.442 -25.398  16.830  1.00  0.00     0.004 A 
ATOM      9  C   UNL     1       8.267 -25.285  14.041  1.00  0.00     0.004 A 
ATOM     10  C   UNL     1       9.278 -26.196  16.045  1.00  0.00     0.004 A 
ENDBRANCH   2   4
ENDBRANCH   1   2
BRANCH   1  11
ATOM     11  C   UNL     1      11.885 -25.270  13.136  1.00  0.00     0.028 C 
BRANCH  11  12
ATOM     12  C   UNL     1      13.356 -24.943  13.200  1.00  0.00    -0.028 C 
ATOM     13  C   UNL     1      14.036 -24.290  12.232  1.00  0.00    -0.080 C 
ATOM     14  C   UNL     1      13.379 -23.868  10.938  1.00  0.00     0.039 C 
ATOM     15  C   UNL     1      15.498 -23.996  12.452  1.00  0.00     0.039 C 
ENDBRANCH  11  12
ENDBRANCH   1  11
TORSDOF 4
ENDMDL
MODEL 2
REMARK VINA RESULT:    -5.730      0.060      1.251
REMARK INTER + INTRA:          -7.634
REMARK INTER:                  -7.056
REMARK INTRA:                  -0.578
REMARK UNBOUND:                -0.565
REMARK SMILES CC(C)=CCC[C@@H](C)c1ccc(C)cc1
REMARK SMILES IDX 6 1 7 2 8 3 9 4 13 5 12 6 11 7 14 8 10 9 15 10 5 11 4 12
REMARK SMILES IDX 2 13 1 14 3 15
REMARK H PARENT
REMARK Flexibility Score: inf
ROOT
ATOM      1  C   UNL     1      11.577 -26.582  13.922  1.00  0.00     0.012 C 
ENDROOT
BRANCH   1   2
ATOM      2  C   UNL     1      10.107 -27.028  13.753  1.00  0.00     0.016 C 
ATOM      3  C   UNL     1       9.903 -28.512  14.098  1.00  0.00     0.013 C 
BRANCH   2   4
ATOM      4  C   UNL     1       9.190 -26.159  14.595  1.00  0.00    -0.045 A 
ATOM      5  C   UNL     1       6.605 -23.688  17.017  1.00  0.00     0.044 C 
ATOM      6  C   UNL     1       7.482 -24.568  16.178  1.00  0.00    -0.051 A 
ATOM      7  C   UNL     1       8.464 -25.368  16.780  1.00  0.00     0.004 A 
ATOM      8  C   UNL     1       7.371 -24.549  14.780  1.00  0.00     0.004 A 
ATOM      9  C   UNL     1       9.307 -26.161  15.995  1.00  0.00     0.004 A 
ATOM     10  C   UNL     1       8.213 -25.342  13.995  1.00  0.00     0.004 A 
ENDBRANCH   2   4
ENDBRANCH   1   2
BRANCH   1  11
ATOM     11  C   UNL     1      11.893 -25.287  13.159  1.00  0.00     0.028 C 
BRANCH  11  12
ATOM     12  C   UNL     1      13.367 -24.971  13.234  1.00  0.00    -0.028 C 
ATOM     13  C   UNL     1      14.056 -24.314  12.276  1.00  0.00    -0.080 C 
ATOM     14  C   UNL     1      13.410 -23.875  10.983  1.00  0.00     0.039 C 
ATOM     15  C   UNL     1      15.519 -24.031  12.507  1.00  0.00     0.039 C 
ENDBRANCH  11  12
ENDBRANCH   1  11
TORSDOF 4
ENDMDL
MODEL 3
REMARK VINA RESULT:    -5.508      1.268      6.259
REMARK INTER + INTRA:          -7.361
REMARK INTER:                  -6.643
REMARK INTRA:                  -0.718
REMARK UNBOUND:                -0.565
REMARK SMILES CC(C)=CCC[C@@H](C)c1ccc(C)cc1
REMARK SMILES IDX 6 1 7 2 8 3 9 4 13 5 12 6 11 7 14 8 10 9 15 10 5 11 4 12
REMARK SMILES IDX 2 13 1 14 3 15
REMARK H PARENT
REMARK Flexibility Score: inf
ROOT
ATOM      1  C   UNL     1      10.563 -27.392  13.534  1.00  0.00     0.012 C 
ENDROOT
BRANCH   1   2
ATOM      2  C   UNL     1      11.676 -26.475  14.091  1.00  0.00     0.016 C 
ATOM      3  C   UNL     1      12.564 -27.193  15.120  1.00  0.00     0.013 C 
BRANCH   2   4
ATOM      4  C   UNL     1      12.522 -25.922  12.958  1.00  0.00    -0.045 A 
ATOM      5  C   UNL     1      14.939 -24.321   9.756  1.00  0.00     0.044 C 
ATOM      6  C   UNL     1      14.075 -24.871  10.851  1.00  0.00    -0.051 A 
ATOM      7  C   UNL     1      13.646 -24.041  11.897  1.00  0.00     0.004 A 
ATOM      8  C   UNL     1      13.744 -26.234  10.874  1.00  0.00     0.004 A 
ATOM      9  C   UNL     1      12.871 -24.561  12.939  1.00  0.00     0.004 A 
ATOM     10  C   UNL     1      12.969 -26.754  11.914  1.00  0.00     0.004 A 
ENDBRANCH   2   4
ENDBRANCH   1   2
BRANCH   1  11
ATOM     11  C   UNL     1       9.164 -26.773  13.672  1.00  0.00     0.028 C 
BRANCH  11  12
ATOM     12  C   UNL     1       9.026 -26.057  14.993  1.00  0.00    -0.028 C 
ATOM     13  C   UNL     1       8.148 -25.058  15.231  1.00  0.00    -0.080 C 
ATOM     14  C   UNL     1       7.240 -24.515  14.152  1.00  0.00     0.039 C 
ATOM     15  C   UNL     1       8.093 -24.464  16.615  1.00  0.00     0.039 C 
ENDBRANCH  11  12
ENDBRANCH   1  11
TORSDOF 4
ENDMDL
MODEL 4
REMARK VINA RESULT:    -5.436      1.984      4.493
REMARK INTER + INTRA:          -7.272
REMARK INTER:                  -5.831
REMARK INTRA:                  -1.441
REMARK UNBOUND:                -0.565
REMARK SMILES CC(C)=CCC[C@@H](C)c1ccc(C)cc1
REMARK SMILES IDX 6 1 7 2 8 3 9 4 13 5 12 6 11 7 14 8 10 9 15 10 5 11 4 12
REMARK SMILES IDX 2 13 1 14 3 15
REMARK H PARENT
REMARK Flexibility Score: inf
ROOT
ATOM      1  C   UNL     1       7.490 -24.475  15.223  1.00  0.00     0.012 C 
ENDROOT
BRANCH   1   2
ATOM      2  C   UNL     1       7.054 -25.298  16.457  1.00  0.00     0.016 C 
ATOM      3  C   UNL     1       5.793 -26.135  16.186  1.00  0.00     0.013 C 
BRANCH   2   4
ATOM      4  C   UNL     1       8.189 -26.190  16.926  1.00  0.00    -0.045 A 
ATOM      5  C   UNL     1      11.435 -28.701  18.275  1.00  0.00     0.044 C 
ATOM      6  C   UNL     1      10.318 -27.833  17.778  1.00  0.00    -0.051 A 
ATOM      7  C   UNL     1      10.474 -26.440  17.730  1.00  0.00     0.004 A 
ATOM      8  C   UNL     1       9.086 -28.401  17.420  1.00  0.00     0.004 A 
ATOM      9  C   UNL     1       9.421 -25.626  17.301  1.00  0.00     0.004 A 
ATOM     10  C   UNL     1       8.034 -27.588  16.992  1.00  0.00     0.004 A 
ENDBRANCH   2   4
ENDBRANCH   1   2
BRANCH   1  11
ATOM     11  C   UNL     1       7.961 -25.359  14.060  1.00  0.00     0.028 C 
BRANCH  11  12
ATOM     12  C   UNL     1       9.458 -25.269  13.894  1.00  0.00    -0.028 C 
ATOM     13  C   UNL     1      10.277 -26.335  13.762  1.00  0.00    -0.080 C 
ATOM     14  C   UNL     1       9.762 -27.754  13.827  1.00  0.00     0.039 C 
ATOM     15  C   UNL     1      11.751 -26.090  13.562  1.00  0.00     0.039 C 
ENDBRANCH  11  12
ENDBRANCH   1  11
TORSDOF 4
ENDMDL
MODEL 5
REMARK VINA RESULT:    -5.226      2.205      5.625
REMARK INTER + INTRA:          -7.013
REMARK INTER:                  -5.714
REMARK INTRA:                  -1.299
REMARK UNBOUND:                -0.565
REMARK SMILES CC(C)=CCC[C@@H](C)c1ccc(C)cc1
REMARK SMILES IDX 6 1 7 2 8 3 9 4 13 5 12 6 11 7 14 8 10 9 15 10 5 11 4 12
REMARK SMILES IDX 2 13 1 14 3 15
REMARK H PARENT
REMARK Flexibility Score: inf
ROOT
ATOM      1  C   UNL     1       8.954 -26.855  13.692  1.00  0.00     0.012 C 
ENDROOT
BRANCH   1   2
ATOM      2  C   UNL     1      10.480 -26.873  13.938  1.00  0.00     0.016 C 
ATOM      3  C   UNL     1      11.136 -25.516  13.639  1.00  0.00     0.013 C 
BRANCH   2   4
ATOM      4  C   UNL     1      10.781 -27.302  15.363  1.00  0.00    -0.045 A 
ATOM      5  C   UNL     1      11.663 -28.498  19.419  1.00  0.00     0.044 C 
ATOM      6  C   UNL     1      11.368 -28.109  18.001  1.00  0.00    -0.051 A 
ATOM      7  C   UNL     1      12.299 -27.362  17.265  1.00  0.00     0.004 A 
ATOM      8  C   UNL     1      10.133 -28.432  17.421  1.00  0.00     0.004 A 
ATOM      9  C   UNL     1      12.011 -26.967  15.955  1.00  0.00     0.004 A 
ATOM     10  C   UNL     1       9.844 -28.038  16.112  1.00  0.00     0.004 A 
ENDBRANCH   2   4
ENDBRANCH   1   2
BRANCH   1  11
ATOM     11  C   UNL     1       8.339 -25.464  13.900  1.00  0.00     0.028 C 
BRANCH  11  12
ATOM     12  C   UNL     1       7.135 -25.543  14.807  1.00  0.00    -0.028 C 
ATOM     13  C   UNL     1       7.145 -25.215  16.118  1.00  0.00    -0.080 C 
ATOM     14  C   UNL     1       8.407 -24.782  16.826  1.00  0.00     0.039 C 
ATOM     15  C   UNL     1       5.854 -25.305  16.891  1.00  0.00     0.039 C 
ENDBRANCH  11  12
ENDBRANCH   1  11
TORSDOF 4
ENDMDL
MODEL 6
REMARK VINA RESULT:    -5.170      1.789      3.067
REMARK INTER + INTRA:          -6.943
REMARK INTER:                  -6.033
REMARK INTRA:                  -0.911
REMARK UNBOUND:                -0.565
REMARK SMILES CC(C)=CCC[C@@H](C)c1ccc(C)cc1
REMARK SMILES IDX 6 1 7 2 8 3 9 4 13 5 12 6 11 7 14 8 10 9 15 10 5 11 4 12
REMARK SMILES IDX 2 13 1 14 3 15
REMARK H PARENT
REMARK Flexibility Score: inf
ROOT
ATOM      1  C   UNL     1      13.143 -27.589  11.517  1.00  0.00     0.012 C 
ENDROOT
BRANCH   1   2
ATOM      2  C   UNL     1      12.650 -27.958  12.936  1.00  0.00     0.016 C 
ATOM      3  C   UNL     1      13.675 -27.596  14.023  1.00  0.00     0.013 C 
BRANCH   2   4
ATOM      4  C   UNL     1      11.317 -27.291  13.223  1.00  0.00    -0.045 A 
ATOM      5  C   UNL     1       7.539 -25.360  14.036  1.00  0.00     0.044 C 
ATOM      6  C   UNL     1       8.852 -26.040  13.782  1.00  0.00    -0.051 A 
ATOM      7  C   UNL     1      10.054 -25.333  13.929  1.00  0.00     0.004 A 
ATOM      8  C   UNL     1       8.885 -27.369  13.333  1.00  0.00     0.004 A 
ATOM      9  C   UNL     1      11.277 -25.955  13.658  1.00  0.00     0.004 A 
ATOM     10  C   UNL     1      10.106 -27.991  13.061  1.00  0.00     0.004 A 
ENDBRANCH   2   4
ENDBRANCH   1   2
BRANCH   1  11
ATOM     11  C   UNL     1      14.465 -26.808  11.537  1.00  0.00     0.028 C 
BRANCH  11  12
ATOM     12  C   UNL     1      14.216 -25.333  11.340  1.00  0.00    -0.028 C 
ATOM     13  C   UNL     1      14.880 -24.353  11.991  1.00  0.00    -0.080 C 
ATOM     14  C   UNL     1      15.921 -24.654  13.044  1.00  0.00     0.039 C 
ATOM     15  C   UNL     1      14.552 -22.920  11.661  1.00  0.00     0.039 C 
ENDBRANCH  11  12
ENDBRANCH   1  11
TORSDOF 4
ENDMDL
MODEL 7
REMARK VINA RESULT:    -5.123      1.210      6.384
REMARK INTER + INTRA:          -6.886
REMARK INTER:                  -6.245
REMARK INTRA:                  -0.641
REMARK UNBOUND:                -0.565
REMARK SMILES CC(C)=CCC[C@@H](C)c1ccc(C)cc1
REMARK SMILES IDX 6 1 7 2 8 3 9 4 13 5 12 6 11 7 14 8 10 9 15 10 5 11 4 12
REMARK SMILES IDX 2 13 1 14 3 15
REMARK H PARENT
REMARK Flexibility Score: inf
ROOT
ATOM      1  C   UNL     1      10.916 -26.680  14.784  1.00  0.00     0.012 C 
ENDROOT
BRANCH   1   2
ATOM      2  C   UNL     1      11.949 -27.347  13.846  1.00  0.00     0.016 C 
ATOM      3  C   UNL     1      11.288 -28.003  12.622  1.00  0.00     0.013 C 
BRANCH   2   4
ATOM      4  C   UNL     1      12.993 -26.338  13.405  1.00  0.00    -0.045 A 
ATOM      5  C   UNL     1      15.987 -23.492  12.143  1.00  0.00     0.044 C 
ATOM      6  C   UNL     1      14.950 -24.470  12.610  1.00  0.00    -0.051 A 
ATOM      7  C   UNL     1      15.323 -25.768  12.988  1.00  0.00     0.004 A 
ATOM      8  C   UNL     1      13.593 -24.115  12.609  1.00  0.00     0.004 A 
ATOM      9  C   UNL     1      14.353 -26.692  13.388  1.00  0.00     0.004 A 
ATOM     10  C   UNL     1      12.624 -25.039  13.009  1.00  0.00     0.004 A 
ENDBRANCH   2   4
ENDBRANCH   1   2
BRANCH   1  11
ATOM     11  C   UNL     1       9.471 -26.871  14.302  1.00  0.00     0.028 C 
BRANCH  11  12
ATOM     12  C   UNL     1       8.695 -25.582  14.423  1.00  0.00    -0.028 C 
ATOM     13  C   UNL     1       7.885 -25.274  15.460  1.00  0.00    -0.080 C 
ATOM     14  C   UNL     1       7.632 -26.239  16.594  1.00  0.00     0.039 C 
ATOM     15  C   UNL     1       7.205 -23.928  15.466  1.00  0.00     0.039 C 
ENDBRANCH  11  12
ENDBRANCH   1  11
TORSDOF 4
ENDMDL
MODEL 8
REMARK VINA RESULT:    -5.083      2.011      5.390
REMARK INTER + INTRA:          -6.836
REMARK INTER:                  -5.413
REMARK INTRA:                  -1.423
REMARK UNBOUND:                -0.565
REMARK SMILES CC(C)=CCC[C@@H](C)c1ccc(C)cc1
REMARK SMILES IDX 6 1 7 2 8 3 9 4 13 5 12 6 11 7 14 8 10 9 15 10 5 11 4 12
REMARK SMILES IDX 2 13 1 14 3 15
REMARK H PARENT
REMARK Flexibility Score: inf
ROOT
ATOM      1  C   UNL     1       8.356 -25.061  16.112  1.00  0.00     0.012 C 
ENDROOT
BRANCH   1   2
ATOM      2  C   UNL     1       8.038 -25.746  14.763  1.00  0.00     0.016 C 
ATOM      3  C   UNL     1       7.262 -24.824  13.808  1.00  0.00     0.013 C 
BRANCH   2   4
ATOM      4  C   UNL     1       9.314 -26.236  14.105  1.00  0.00    -0.045 A 
ATOM      5  C   UNL     1      12.967 -27.603  12.246  1.00  0.00     0.044 C 
ATOM      6  C   UNL     1      11.688 -27.120  12.864  1.00  0.00    -0.051 A 
ATOM      7  C   UNL     1      11.596 -25.814  13.367  1.00  0.00     0.004 A 
ATOM      8  C   UNL     1      10.597 -27.990  13.004  1.00  0.00     0.004 A 
ATOM      9  C   UNL     1      10.417 -25.374  13.976  1.00  0.00     0.004 A 
ATOM     10  C   UNL     1       9.419 -27.551  13.613  1.00  0.00     0.004 A 
ENDBRANCH   2   4
ENDBRANCH   1   2
BRANCH   1  11
ATOM     11  C   UNL     1       8.674 -26.070  17.226  1.00  0.00     0.028 C 
BRANCH  11  12
ATOM     12  C   UNL     1      10.166 -26.208  17.408  1.00  0.00    -0.028 C 
ATOM     13  C   UNL     1      10.851 -27.361  17.242  1.00  0.00    -0.080 C 
ATOM     14  C   UNL     1      10.161 -28.662  16.905  1.00  0.00     0.039 C 
ATOM     15  C   UNL     1      12.348 -27.339  17.418  1.00  0.00     0.039 C 
ENDBRANCH  11  12
ENDBRANCH   1  11
TORSDOF 4
ENDMDL
MODEL 9
REMARK VINA RESULT:    -4.902      1.787      6.909
REMARK INTER + INTRA:          -6.613
REMARK INTER:                  -6.080
REMARK INTRA:                  -0.533
REMARK UNBOUND:                -0.565
REMARK SMILES CC(C)=CCC[C@@H](C)c1ccc(C)cc1
REMARK SMILES IDX 6 1 7 2 8 3 9 4 13 5 12 6 11 7 14 8 10 9 15 10 5 11 4 12
REMARK SMILES IDX 2 13 1 14 3 15
REMARK H PARENT
REMARK Flexibility Score: inf
ROOT
ATOM      1  C   UNL     1      11.500 -25.723  13.556  1.00  0.00     0.012 C 
ENDROOT
BRANCH   1   2
ATOM      2  C   UNL     1      12.608 -26.695  13.088  1.00  0.00     0.016 C 
ATOM      3  C   UNL     1      12.056 -28.090  12.751  1.00  0.00     0.013 C 
BRANCH   2   4
ATOM      4  C   UNL     1      13.350 -26.119  11.897  1.00  0.00    -0.045 A 
ATOM      5  C   UNL     1      15.455 -24.507   8.486  1.00  0.00     0.044 C 
ATOM      6  C   UNL     1      14.751 -25.068   9.685  1.00  0.00    -0.051 A 
ATOM      7  C   UNL     1      14.551 -26.451   9.805  1.00  0.00     0.004 A 
ATOM      8  C   UNL     1      14.228 -24.210  10.664  1.00  0.00     0.004 A 
ATOM      9  C   UNL     1      13.862 -26.972  10.905  1.00  0.00     0.004 A 
ATOM     10  C   UNL     1      13.539 -24.730  11.762  1.00  0.00     0.004 A 
ENDBRANCH   2   4
ENDBRANCH   1   2
BRANCH   1  11
ATOM     11  C   UNL     1      10.190 -26.444  13.904  1.00  0.00     0.028 C 
BRANCH  11  12
ATOM     12  C   UNL     1       9.054 -25.457  14.021  1.00  0.00    -0.028 C 
ATOM     13  C   UNL     1       8.452 -25.121  15.183  1.00  0.00    -0.080 C 
ATOM     14  C   UNL     1       8.832 -25.761  16.497  1.00  0.00     0.039 C 
ATOM     15  C   UNL     1       7.355 -24.087  15.152  1.00  0.00     0.039 C 
ENDBRANCH  11  12
ENDBRANCH   1  11
TORSDOF 4
ENDMDL
