MODEL 1
REMARK VINA RESULT:    -2.309      0.000      0.000
REMARK INTER + INTRA:          -5.255
REMARK INTER:                  -5.278
REMARK INTRA:                   0.023
REMARK UNBOUND:                 0.023
REMARK SMILES CCCCCCCCCCCCCCCCCCCCCCCC(=O)[O-]
REMARK SMILES IDX 13 1 14 2 15 3 16 4 17 5 18 6 19 7 20 8 21 9 22 10 23 11
REMARK SMILES IDX 24 12 25 13 26 14 12 15 11 16 10 17 9 18 8 19 7 20 6 21 5 22
REMARK SMILES IDX 4 23 3 24 2 25 1 26
REMARK H PARENT
REMARK Flexibility Score: inf
ROOT
ATOM      1  C   UNL     1      43.278  63.521  54.191  1.00  0.00     0.000 C 
ENDROOT
BRANCH   1   2
ATOM      2  C   UNL     1      44.746  63.886  54.480  1.00  0.00     0.000 C 
BRANCH   2   3
ATOM      3  C   UNL     1      44.887  65.123  55.383  1.00  0.00     0.000 C 
BRANCH   3   4
ATOM      4  C   UNL     1      44.148  64.974  56.726  1.00  0.00     0.000 C 
BRANCH   4   5
ATOM      5  C   UNL     1      44.763  63.956  57.709  1.00  0.00     0.000 C 
BRANCH   5   6
ATOM      6  C   UNL     1      45.395  64.569  58.972  1.00  0.00     0.000 C 
BRANCH   6   7
ATOM      7  C   UNL     1      46.074  63.555  59.911  1.00  0.00     0.000 C 
BRANCH   7   8
ATOM      8  C   UNL     1      47.612  63.518  59.771  1.00  0.00     0.000 C 
BRANCH   8   9
ATOM      9  C   UNL     1      48.328  63.758  61.108  1.00  0.00     0.000 C 
BRANCH   9  10
ATOM     10  C   UNL     1      49.023  65.124  61.125  1.00  0.00     0.006 C 
BRANCH  10  11
ATOM     11  C   UNL     1      50.519  64.984  60.833  1.00  0.00     0.053 C 
BRANCH  11  12
ATOM     12  C   UNL     1      50.759  64.877  59.360  1.00  0.00     0.041 C 
ATOM     13  O   UNL     1      49.793  64.949  58.554  1.00  0.00    -0.550 OA
ATOM     14  O   UNL     1      52.053  64.749  58.873  1.00  0.00    -0.550 OA
ENDBRANCH  11  12
ENDBRANCH  10  11
ENDBRANCH   9  10
ENDBRANCH   8   9
ENDBRANCH   7   8
ENDBRANCH   6   7
ENDBRANCH   5   6
ENDBRANCH   4   5
ENDBRANCH   3   4
ENDBRANCH   2   3
ENDBRANCH   1   2
BRANCH   1  15
ATOM     15  C   UNL     1      42.351  64.716  53.887  1.00  0.00     0.000 C 
BRANCH  15  16
ATOM     16  C   UNL     1      41.393  65.110  55.029  1.00  0.00     0.000 C 
BRANCH  16  17
ATOM     17  C   UNL     1      41.199  64.033  56.114  1.00  0.00     0.000 C 
BRANCH  17  18
ATOM     18  C   UNL     1      40.978  64.580  57.538  1.00  0.00    -0.000 C 
BRANCH  18  19
ATOM     19  C   UNL     1      39.557  65.109  57.823  1.00  0.00    -0.000 C 
BRANCH  19  20
ATOM     20  C   UNL     1      39.080  64.958  59.279  1.00  0.00    -0.000 C 
BRANCH  20  21
ATOM     21  C   UNL     1      37.691  64.306  59.389  1.00  0.00    -0.000 C 
BRANCH  21  22
ATOM     22  C   UNL     1      37.334  63.890  60.827  1.00  0.00    -0.000 C 
BRANCH  22  23
ATOM     23  C   UNL     1      37.226  62.372  61.065  1.00  0.00    -0.000 C 
BRANCH  23  24
ATOM     24  C   UNL     1      36.878  61.588  59.792  1.00  0.00    -0.000 C 
BRANCH  24  25
ATOM     25  C   UNL     1      38.116  60.877  59.231  1.00  0.00    -0.003 C 
ATOM     26  C   UNL     1      38.783  60.008  60.292  1.00  0.00     0.004 C 
ENDBRANCH  24  25
ENDBRANCH  23  24
ENDBRANCH  22  23
ENDBRANCH  21  22
ENDBRANCH  20  21
ENDBRANCH  19  20
ENDBRANCH  18  19
ENDBRANCH  17  18
ENDBRANCH  16  17
ENDBRANCH  15  16
ENDBRANCH   1  15
TORSDOF 22
ENDMDL
MODEL 2
REMARK VINA RESULT:    -1.462      3.984      9.761
REMARK INTER + INTRA:          -3.319
REMARK INTER:                  -2.589
REMARK INTRA:                  -0.730
REMARK UNBOUND:                 0.023
REMARK SMILES CCCCCCCCCCCCCCCCCCCCCCCC(=O)[O-]
REMARK SMILES IDX 13 1 14 2 15 3 16 4 17 5 18 6 19 7 20 8 21 9 22 10 23 11
REMARK SMILES IDX 24 12 25 13 26 14 12 15 11 16 10 17 9 18 8 19 7 20 6 21 5 22
REMARK SMILES IDX 4 23 3 24 2 25 1 26
REMARK H PARENT
REMARK Flexibility Score: inf
ROOT
ATOM      1  C   UNL     1      43.818  63.072  56.020  1.00  0.00     0.000 C 
ENDROOT
BRANCH   1   2
ATOM      2  C   UNL     1      42.788  62.757  54.920  1.00  0.00     0.000 C 
BRANCH   2   3
ATOM      3  C   UNL     1      41.944  63.980  54.523  1.00  0.00     0.000 C 
BRANCH   3   4
ATOM      4  C   UNL     1      41.879  65.048  55.629  1.00  0.00     0.000 C 
BRANCH   4   5
ATOM      5  C   UNL     1      40.724  64.885  56.639  1.00  0.00     0.000 C 
BRANCH   5   6
ATOM      6  C   UNL     1      41.108  65.110  58.113  1.00  0.00     0.000 C 
BRANCH   6   7
ATOM      7  C   UNL     1      40.099  64.558  59.135  1.00  0.00     0.000 C 
BRANCH   7   8
ATOM      8  C   UNL     1      38.625  64.753  58.715  1.00  0.00     0.000 C 
BRANCH   8   9
ATOM      9  C   UNL     1      38.089  63.574  57.890  1.00  0.00     0.000 C 
BRANCH   9  10
ATOM     10  C   UNL     1      38.069  62.284  58.718  1.00  0.00     0.006 C 
BRANCH  10  11
ATOM     11  C   UNL     1      37.423  62.520  60.086  1.00  0.00     0.053 C 
BRANCH  11  12
ATOM     12  C   UNL     1      37.148  61.217  60.768  1.00  0.00     0.041 C 
ATOM     13  O   UNL     1      35.976  60.924  61.125  1.00  0.00    -0.550 OA
ATOM     14  O   UNL     1      38.176  60.304  60.963  1.00  0.00    -0.550 OA
ENDBRANCH  11  12
ENDBRANCH  10  11
ENDBRANCH   9  10
ENDBRANCH   8   9
ENDBRANCH   7   8
ENDBRANCH   6   7
ENDBRANCH   5   6
ENDBRANCH   4   5
ENDBRANCH   3   4
ENDBRANCH   2   3
ENDBRANCH   1   2
BRANCH   1  15
ATOM     15  C   UNL     1      44.640  64.360  55.801  1.00  0.00     0.000 C 
BRANCH  15  16
ATOM     16  C   UNL     1      45.294  64.944  57.069  1.00  0.00     0.000 C 
BRANCH  16  17
ATOM     17  C   UNL     1      44.356  65.065  58.286  1.00  0.00     0.000 C 
BRANCH  17  18
ATOM     18  C   UNL     1      45.013  64.749  59.644  1.00  0.00    -0.000 C 
BRANCH  18  19
ATOM     19  C   UNL     1      45.969  63.539  59.643  1.00  0.00    -0.000 C 
BRANCH  19  20
ATOM     20  C   UNL     1      46.719  63.293  60.965  1.00  0.00    -0.000 C 
BRANCH  20  21
ATOM     21  C   UNL     1      48.175  63.787  60.929  1.00  0.00    -0.000 C 
BRANCH  21  22
ATOM     22  C   UNL     1      48.641  64.182  59.515  1.00  0.00    -0.000 C 
BRANCH  22  23
ATOM     23  C   UNL     1      49.969  64.959  59.454  1.00  0.00    -0.000 C 
BRANCH  23  24
ATOM     24  C   UNL     1      51.198  64.068  59.689  1.00  0.00    -0.000 C 
BRANCH  24  25
ATOM     25  C   UNL     1      52.454  64.693  59.070  1.00  0.00    -0.003 C 
ATOM     26  C   UNL     1      52.203  65.125  57.628  1.00  0.00     0.004 C 
ENDBRANCH  24  25
ENDBRANCH  23  24
ENDBRANCH  22  23
ENDBRANCH  21  22
ENDBRANCH  20  21
ENDBRANCH  19  20
ENDBRANCH  18  19
ENDBRANCH  17  18
ENDBRANCH  16  17
ENDBRANCH  15  16
ENDBRANCH   1  15
TORSDOF 22
ENDMDL
MODEL 3
REMARK VINA RESULT:    -0.525      1.867      2.660
REMARK INTER + INTRA:          -1.177
REMARK INTER:                  -1.097
REMARK INTRA:                  -0.080
REMARK UNBOUND:                 0.023
REMARK SMILES CCCCCCCCCCCCCCCCCCCCCCCC(=O)[O-]
REMARK SMILES IDX 13 1 14 2 15 3 16 4 17 5 18 6 19 7 20 8 21 9 22 10 23 11
REMARK SMILES IDX 24 12 25 13 26 14 12 15 11 16 10 17 9 18 8 19 7 20 6 21 5 22
REMARK SMILES IDX 4 23 3 24 2 25 1 26
REMARK H PARENT
REMARK Flexibility Score: inf
ROOT
ATOM      1  C   UNL     1      42.496  61.435  56.198  1.00  0.00     0.000 C 
ENDROOT
BRANCH   1   2
ATOM      2  C   UNL     1      43.793  60.878  55.581  1.00  0.00     0.000 C 
BRANCH   2   3
ATOM      3  C   UNL     1      44.964  61.872  55.654  1.00  0.00     0.000 C 
BRANCH   3   4
ATOM      4  C   UNL     1      44.613  63.256  55.079  1.00  0.00     0.000 C 
BRANCH   4   5
ATOM      5  C   UNL     1      45.197  64.459  55.850  1.00  0.00     0.000 C 
BRANCH   5   6
ATOM      6  C   UNL     1      44.234  65.124  56.850  1.00  0.00     0.000 C 
BRANCH   6   7
ATOM      7  C   UNL     1      44.717  65.117  58.312  1.00  0.00     0.000 C 
BRANCH   7   8
ATOM      8  C   UNL     1      46.080  64.417  58.510  1.00  0.00     0.000 C 
BRANCH   8   9
ATOM      9  C   UNL     1      46.896  65.035  59.654  1.00  0.00     0.000 C 
BRANCH   9  10
ATOM     10  C   UNL     1      46.930  64.104  60.872  1.00  0.00     0.006 C 
BRANCH  10  11
ATOM     11  C   UNL     1      46.700  62.648  60.457  1.00  0.00     0.053 C 
BRANCH  11  12
ATOM     12  C   UNL     1      47.979  61.875  60.526  1.00  0.00     0.041 C 
ATOM     13  O   UNL     1      47.961  60.643  60.783  1.00  0.00    -0.550 OA
ATOM     14  O   UNL     1      49.187  62.504  60.255  1.00  0.00    -0.550 OA
ENDBRANCH  11  12
ENDBRANCH  10  11
ENDBRANCH   9  10
ENDBRANCH   8   9
ENDBRANCH   7   8
ENDBRANCH   6   7
ENDBRANCH   5   6
ENDBRANCH   4   5
ENDBRANCH   3   4
ENDBRANCH   2   3
ENDBRANCH   1   2
BRANCH   1  15
ATOM     15  C   UNL     1      42.015  62.780  55.614  1.00  0.00     0.000 C 
BRANCH  15  16
ATOM     16  C   UNL     1      41.787  63.900  56.649  1.00  0.00     0.000 C 
BRANCH  16  17
ATOM     17  C   UNL     1      40.498  63.760  57.482  1.00  0.00     0.000 C 
BRANCH  17  18
ATOM     18  C   UNL     1      40.078  65.033  58.242  1.00  0.00    -0.000 C 
BRANCH  18  19
ATOM     19  C   UNL     1      39.598  64.804  59.690  1.00  0.00    -0.000 C 
BRANCH  19  20
ATOM     20  C   UNL     1      38.071  64.735  59.873  1.00  0.00    -0.000 C 
BRANCH  20  21
ATOM     21  C   UNL     1      37.419  63.613  59.048  1.00  0.00    -0.000 C 
BRANCH  21  22
ATOM     22  C   UNL     1      36.558  62.662  59.899  1.00  0.00    -0.000 C 
BRANCH  22  23
ATOM     23  C   UNL     1      37.183  61.282  60.180  1.00  0.00    -0.000 C 
BRANCH  23  24
ATOM     24  C   UNL     1      38.523  61.073  59.462  1.00  0.00    -0.000 C 
BRANCH  24  25
ATOM     25  C   UNL     1      39.600  60.593  60.442  1.00  0.00    -0.003 C 
ATOM     26  C   UNL     1      39.578  59.073  60.586  1.00  0.00     0.004 C 
ENDBRANCH  24  25
ENDBRANCH  23  24
ENDBRANCH  22  23
ENDBRANCH  21  22
ENDBRANCH  20  21
ENDBRANCH  19  20
ENDBRANCH  18  19
ENDBRANCH  17  18
ENDBRANCH  16  17
ENDBRANCH  15  16
ENDBRANCH   1  15
TORSDOF 22
ENDMDL
MODEL 4
REMARK VINA RESULT:    -0.386      1.490      2.285
REMARK INTER + INTRA:          -0.859
REMARK INTER:                  -0.065
REMARK INTRA:                  -0.795
REMARK UNBOUND:                 0.023
REMARK SMILES CCCCCCCCCCCCCCCCCCCCCCCC(=O)[O-]
REMARK SMILES IDX 13 1 14 2 15 3 16 4 17 5 18 6 19 7 20 8 21 9 22 10 23 11
REMARK SMILES IDX 24 12 25 13 26 14 12 15 11 16 10 17 9 18 8 19 7 20 6 21 5 22
REMARK SMILES IDX 4 23 3 24 2 25 1 26
REMARK H PARENT
REMARK Flexibility Score: inf
ROOT
ATOM      1  C   UNL     1      44.222  60.967  55.094  1.00  0.00     0.000 C 
ENDROOT
BRANCH   1   2
ATOM      2  C   UNL     1      45.348  62.011  55.205  1.00  0.00     0.000 C 
BRANCH   2   3
ATOM      3  C   UNL     1      44.821  63.436  55.440  1.00  0.00     0.000 C 
BRANCH   3   4
ATOM      4  C   UNL     1      45.513  64.145  56.619  1.00  0.00     0.000 C 
BRANCH   4   5
ATOM      5  C   UNL     1      44.745  64.105  57.957  1.00  0.00     0.000 C 
BRANCH   5   6
ATOM      6  C   UNL     1      45.217  65.123  59.011  1.00  0.00     0.000 C 
BRANCH   6   7
ATOM      7  C   UNL     1      46.667  64.931  59.490  1.00  0.00     0.000 C 
BRANCH   7   8
ATOM      8  C   UNL     1      47.016  63.466  59.831  1.00  0.00     0.000 C 
BRANCH   8   9
ATOM      9  C   UNL     1      48.325  63.343  60.626  1.00  0.00     0.000 C 
BRANCH   9  10
ATOM     10  C   UNL     1      48.797  64.714  61.125  1.00  0.00     0.006 C 
BRANCH  10  11
ATOM     11  C   UNL     1      50.323  64.821  61.073  1.00  0.00     0.053 C 
BRANCH  11  12
ATOM     12  C   UNL     1      50.817  64.607  59.677  1.00  0.00     0.041 C 
ATOM     13  O   UNL     1      51.864  63.938  59.471  1.00  0.00    -0.550 OA
ATOM     14  O   UNL     1      50.094  65.103  58.600  1.00  0.00    -0.550 OA
ENDBRANCH  11  12
ENDBRANCH  10  11
ENDBRANCH   9  10
ENDBRANCH   8   9
ENDBRANCH   7   8
ENDBRANCH   6   7
ENDBRANCH   5   6
ENDBRANCH   4   5
ENDBRANCH   3   4
ENDBRANCH   2   3
ENDBRANCH   1   2
BRANCH   1  15
ATOM     15  C   UNL     1      42.985  61.239  55.975  1.00  0.00     0.000 C 
BRANCH  15  16
ATOM     16  C   UNL     1      42.127  62.447  55.546  1.00  0.00     0.000 C 
BRANCH  16  17
ATOM     17  C   UNL     1      41.928  63.520  56.633  1.00  0.00     0.000 C 
BRANCH  17  18
ATOM     18  C   UNL     1      40.491  64.064  56.751  1.00  0.00    -0.000 C 
BRANCH  18  19
ATOM     19  C   UNL     1      40.280  65.125  57.851  1.00  0.00    -0.000 C 
BRANCH  19  20
ATOM     20  C   UNL     1      41.229  65.016  59.059  1.00  0.00    -0.000 C 
BRANCH  20  21
ATOM     21  C   UNL     1      40.528  64.499  60.326  1.00  0.00    -0.000 C 
BRANCH  21  22
ATOM     22  C   UNL     1      38.999  64.674  60.282  1.00  0.00    -0.000 C 
BRANCH  22  23
ATOM     23  C   UNL     1      38.185  63.472  60.797  1.00  0.00    -0.000 C 
BRANCH  23  24
ATOM     24  C   UNL     1      36.914  63.211  59.975  1.00  0.00    -0.000 C 
BRANCH  24  25
ATOM     25  C   UNL     1      36.459  64.484  59.252  1.00  0.00    -0.003 C 
ATOM     26  C   UNL     1      35.015  64.832  59.602  1.00  0.00     0.004 C 
ENDBRANCH  24  25
ENDBRANCH  23  24
ENDBRANCH  22  23
ENDBRANCH  21  22
ENDBRANCH  20  21
ENDBRANCH  19  20
ENDBRANCH  18  19
ENDBRANCH  17  18
ENDBRANCH  16  17
ENDBRANCH  15  16
ENDBRANCH   1  15
TORSDOF 22
ENDMDL
MODEL 5
REMARK VINA RESULT:    -0.350     20.282     22.991
REMARK INTER + INTRA:          -0.777
REMARK INTER:                   0.986
REMARK INTRA:                  -1.762
REMARK UNBOUND:                 0.023
REMARK SMILES CCCCCCCCCCCCCCCCCCCCCCCC(=O)[O-]
REMARK SMILES IDX 13 1 14 2 15 3 16 4 17 5 18 6 19 7 20 8 21 9 22 10 23 11
REMARK SMILES IDX 24 12 25 13 26 14 12 15 11 16 10 17 9 18 8 19 7 20 6 21 5 22
REMARK SMILES IDX 4 23 3 24 2 25 1 26
REMARK H PARENT
REMARK Flexibility Score: inf
ROOT
ATOM      1  C   UNL     1      47.735  47.487  48.264  1.00  0.00     0.000 C 
ENDROOT
BRANCH   1   2
ATOM      2  C   UNL     1      49.130  47.743  47.664  1.00  0.00     0.000 C 
BRANCH   2   3
ATOM      3  C   UNL     1      49.495  46.746  46.552  1.00  0.00     0.000 C 
BRANCH   3   4
ATOM      4  C   UNL     1      51.012  46.511  46.431  1.00  0.00     0.000 C 
BRANCH   4   5
ATOM      5  C   UNL     1      51.602  46.716  45.019  1.00  0.00     0.000 C 
BRANCH   5   6
ATOM      6  C   UNL     1      52.357  45.503  44.445  1.00  0.00     0.000 C 
BRANCH   6   7
ATOM      7  C   UNL     1      53.548  45.856  43.536  1.00  0.00     0.000 C 
BRANCH   7   8
ATOM      8  C   UNL     1      53.350  45.430  42.065  1.00  0.00     0.000 C 
BRANCH   8   9
ATOM      9  C   UNL     1      53.212  46.632  41.120  1.00  0.00     0.000 C 
BRANCH   9  10
ATOM     10  C   UNL     1      51.841  47.301  41.274  1.00  0.00     0.006 C 
BRANCH  10  11
ATOM     11  C   UNL     1      50.711  46.278  41.125  1.00  0.00     0.053 C 
BRANCH  11  12
ATOM     12  C   UNL     1      49.578  46.610  42.044  1.00  0.00     0.041 C 
ATOM     13  O   UNL     1      49.125  47.784  42.092  1.00  0.00    -0.550 OA
ATOM     14  O   UNL     1      48.987  45.612  42.808  1.00  0.00    -0.550 OA
ENDBRANCH  11  12
ENDBRANCH  10  11
ENDBRANCH   9  10
ENDBRANCH   8   9
ENDBRANCH   7   8
ENDBRANCH   6   7
ENDBRANCH   5   6
ENDBRANCH   4   5
ENDBRANCH   3   4
ENDBRANCH   2   3
ENDBRANCH   1   2
BRANCH   1  15
ATOM     15  C   UNL     1      47.206  48.598  49.195  1.00  0.00     0.000 C 
BRANCH  15  16
ATOM     16  C   UNL     1      46.003  49.394  48.648  1.00  0.00     0.000 C 
BRANCH  16  17
ATOM     17  C   UNL     1      45.936  49.494  47.112  1.00  0.00     0.000 C 
BRANCH  17  18
ATOM     18  C   UNL     1      44.798  50.381  46.570  1.00  0.00    -0.000 C 
BRANCH  18  19
ATOM     19  C   UNL     1      44.793  50.578  45.040  1.00  0.00    -0.000 C 
BRANCH  19  20
ATOM     20  C   UNL     1      43.608  49.932  44.299  1.00  0.00    -0.000 C 
BRANCH  20  21
ATOM     21  C   UNL     1      43.871  49.751  42.794  1.00  0.00    -0.000 C 
BRANCH  21  22
ATOM     22  C   UNL     1      42.904  48.754  42.130  1.00  0.00    -0.000 C 
BRANCH  22  23
ATOM     23  C   UNL     1      43.557  47.473  41.577  1.00  0.00    -0.000 C 
BRANCH  23  24
ATOM     24  C   UNL     1      45.079  47.599  41.411  1.00  0.00    -0.000 C 
BRANCH  24  25
ATOM     25  C   UNL     1      45.739  46.216  41.354  1.00  0.00    -0.003 C 
ATOM     26  C   UNL     1      44.694  45.105  41.315  1.00  0.00     0.004 C 
ENDBRANCH  24  25
ENDBRANCH  23  24
ENDBRANCH  22  23
ENDBRANCH  21  22
ENDBRANCH  20  21
ENDBRANCH  19  20
ENDBRANCH  18  19
ENDBRANCH  17  18
ENDBRANCH  16  17
ENDBRANCH  15  16
ENDBRANCH   1  15
TORSDOF 22
ENDMDL
MODEL 6
REMARK VINA RESULT:    -0.287     20.205     23.950
REMARK INTER + INTRA:          -0.632
REMARK INTER:                   1.149
REMARK INTRA:                  -1.780
REMARK UNBOUND:                 0.023
REMARK SMILES CCCCCCCCCCCCCCCCCCCCCCCC(=O)[O-]
REMARK SMILES IDX 13 1 14 2 15 3 16 4 17 5 18 6 19 7 20 8 21 9 22 10 23 11
REMARK SMILES IDX 24 12 25 13 26 14 12 15 11 16 10 17 9 18 8 19 7 20 6 21 5 22
REMARK SMILES IDX 4 23 3 24 2 25 1 26
REMARK H PARENT
REMARK Flexibility Score: inf
ROOT
ATOM      1  C   UNL     1      47.699  47.469  48.384  1.00  0.00     0.000 C 
ENDROOT
BRANCH   1   2
ATOM      2  C   UNL     1      47.251  48.513  49.424  1.00  0.00     0.000 C 
BRANCH   2   3
ATOM      3  C   UNL     1      46.069  49.370  48.939  1.00  0.00     0.000 C 
BRANCH   3   4
ATOM      4  C   UNL     1      45.903  49.351  47.409  1.00  0.00     0.000 C 
BRANCH   4   5
ATOM      5  C   UNL     1      44.953  50.423  46.834  1.00  0.00     0.000 C 
BRANCH   5   6
ATOM      6  C   UNL     1      44.894  50.488  45.297  1.00  0.00     0.000 C 
BRANCH   6   7
ATOM      7  C   UNL     1      43.684  49.775  44.667  1.00  0.00     0.000 C 
BRANCH   7   8
ATOM      8  C   UNL     1      43.416  50.190  43.204  1.00  0.00     0.000 C 
BRANCH   8   9
ATOM      9  C   UNL     1      44.342  49.473  42.211  1.00  0.00     0.000 C 
BRANCH   9  10
ATOM     10  C   UNL     1      43.535  48.785  41.103  1.00  0.00     0.006 C 
BRANCH  10  11
ATOM     11  C   UNL     1      42.594  47.727  41.685  1.00  0.00     0.053 C 
BRANCH  11  12
ATOM     12  C   UNL     1      43.132  46.353  41.439  1.00  0.00     0.041 C 
ATOM     13  O   UNL     1      42.388  45.347  41.582  1.00  0.00    -0.550 OA
ATOM     14  O   UNL     1      44.439  46.187  41.000  1.00  0.00    -0.550 OA
ENDBRANCH  11  12
ENDBRANCH  10  11
ENDBRANCH   9  10
ENDBRANCH   8   9
ENDBRANCH   7   8
ENDBRANCH   6   7
ENDBRANCH   5   6
ENDBRANCH   4   5
ENDBRANCH   3   4
ENDBRANCH   2   3
ENDBRANCH   1   2
BRANCH   1  15
ATOM     15  C   UNL     1      49.021  47.793  47.657  1.00  0.00     0.000 C 
BRANCH  15  16
ATOM     16  C   UNL     1      49.512  46.709  46.675  1.00  0.00     0.000 C 
BRANCH  16  17
ATOM     17  C   UNL     1      51.007  46.794  46.310  1.00  0.00     0.000 C 
BRANCH  17  18
ATOM     18  C   UNL     1      51.485  45.741  45.292  1.00  0.00    -0.000 C 
BRANCH  18  19
ATOM     19  C   UNL     1      52.819  46.067  44.589  1.00  0.00    -0.000 C 
BRANCH  19  20
ATOM     20  C   UNL     1      53.078  45.297  43.281  1.00  0.00    -0.000 C 
BRANCH  20  21
ATOM     21  C   UNL     1      53.649  46.189  42.166  1.00  0.00    -0.000 C 
BRANCH  21  22
ATOM     22  C   UNL     1      52.585  47.083  41.505  1.00  0.00    -0.000 C 
BRANCH  22  23
ATOM     23  C   UNL     1      51.174  46.471  41.416  1.00  0.00    -0.000 C 
BRANCH  23  24
ATOM     24  C   UNL     1      50.093  47.359  42.048  1.00  0.00    -0.000 C 
BRANCH  24  25
ATOM     25  C   UNL     1      48.984  46.507  42.677  1.00  0.00    -0.003 C 
ATOM     26  C   UNL     1      47.623  47.184  42.542  1.00  0.00     0.004 C 
ENDBRANCH  24  25
ENDBRANCH  23  24
ENDBRANCH  22  23
ENDBRANCH  21  22
ENDBRANCH  20  21
ENDBRANCH  19  20
ENDBRANCH  18  19
ENDBRANCH  17  18
ENDBRANCH  16  17
ENDBRANCH  15  16
ENDBRANCH   1  15
TORSDOF 22
ENDMDL
MODEL 7
REMARK VINA RESULT:     0.039     20.310     23.017
REMARK INTER + INTRA:           0.112
REMARK INTER:                   1.601
REMARK INTRA:                  -1.489
REMARK UNBOUND:                 0.023
REMARK SMILES CCCCCCCCCCCCCCCCCCCCCCCC(=O)[O-]
REMARK SMILES IDX 13 1 14 2 15 3 16 4 17 5 18 6 19 7 20 8 21 9 22 10 23 11
REMARK SMILES IDX 24 12 25 13 26 14 12 15 11 16 10 17 9 18 8 19 7 20 6 21 5 22
REMARK SMILES IDX 4 23 3 24 2 25 1 26
REMARK H PARENT
REMARK Flexibility Score: inf
ROOT
ATOM      1  C   UNL     1      47.840  47.598  48.516  1.00  0.00     0.000 C 
ENDROOT
BRANCH   1   2
ATOM      2  C   UNL     1      48.555  47.510  47.154  1.00  0.00     0.000 C 
BRANCH   2   3
ATOM      3  C   UNL     1      50.003  47.004  47.271  1.00  0.00     0.000 C 
BRANCH   3   4
ATOM      4  C   UNL     1      50.773  47.076  45.940  1.00  0.00     0.000 C 
BRANCH   4   5
ATOM      5  C   UNL     1      50.420  45.980  44.912  1.00  0.00     0.000 C 
BRANCH   5   6
ATOM      6  C   UNL     1      49.306  46.351  43.917  1.00  0.00     0.000 C 
BRANCH   6   7
ATOM      7  C   UNL     1      49.037  45.299  42.827  1.00  0.00     0.000 C 
BRANCH   7   8
ATOM      8  C   UNL     1      49.457  45.754  41.412  1.00  0.00     0.000 C 
BRANCH   8   9
ATOM      9  C   UNL     1      50.965  45.601  41.169  1.00  0.00     0.000 C 
BRANCH   9  10
ATOM     10  C   UNL     1      51.722  46.866  41.591  1.00  0.00     0.006 C 
BRANCH  10  11
ATOM     11  C   UNL     1      53.193  46.792  41.169  1.00  0.00     0.053 C 
BRANCH  11  12
ATOM     12  C   UNL     1      53.996  46.052  42.191  1.00  0.00     0.041 C 
ATOM     13  O   UNL     1      55.120  45.572  41.888  1.00  0.00    -0.550 OA
ATOM     14  O   UNL     1      53.527  45.937  43.494  1.00  0.00    -0.550 OA
ENDBRANCH  11  12
ENDBRANCH  10  11
ENDBRANCH   9  10
ENDBRANCH   8   9
ENDBRANCH   7   8
ENDBRANCH   6   7
ENDBRANCH   5   6
ENDBRANCH   4   5
ENDBRANCH   3   4
ENDBRANCH   2   3
ENDBRANCH   1   2
BRANCH   1  15
ATOM     15  C   UNL     1      47.241  48.979  48.854  1.00  0.00     0.000 C 
BRANCH  15  16
ATOM     16  C   UNL     1      45.836  49.244  48.276  1.00  0.00     0.000 C 
BRANCH  16  17
ATOM     17  C   UNL     1      45.794  50.253  47.113  1.00  0.00     0.000 C 
BRANCH  17  18
ATOM     18  C   UNL     1      44.519  50.191  46.248  1.00  0.00    -0.000 C 
BRANCH  18  19
ATOM     19  C   UNL     1      44.741  50.411  44.737  1.00  0.00    -0.000 C 
BRANCH  19  20
ATOM     20  C   UNL     1      43.495  50.212  43.855  1.00  0.00    -0.000 C 
BRANCH  20  21
ATOM     21  C   UNL     1      43.811  49.508  42.524  1.00  0.00    -0.000 C 
BRANCH  21  22
ATOM     22  C   UNL     1      42.705  48.532  42.082  1.00  0.00    -0.000 C 
BRANCH  22  23
ATOM     23  C   UNL     1      43.149  47.442  41.089  1.00  0.00    -0.000 C 
BRANCH  23  24
ATOM     24  C   UNL     1      43.784  46.226  41.778  1.00  0.00    -0.000 C 
BRANCH  24  25
ATOM     25  C   UNL     1      45.202  45.975  41.248  1.00  0.00    -0.003 C 
ATOM     26  C   UNL     1      46.081  47.211  41.417  1.00  0.00     0.004 C 
ENDBRANCH  24  25
ENDBRANCH  23  24
ENDBRANCH  22  23
ENDBRANCH  21  22
ENDBRANCH  20  21
ENDBRANCH  19  20
ENDBRANCH  18  19
ENDBRANCH  17  18
ENDBRANCH  16  17
ENDBRANCH  15  16
ENDBRANCH   1  15
TORSDOF 22
ENDMDL
MODEL 8
REMARK VINA RESULT:     0.152     20.273     23.946
REMARK INTER + INTRA:           0.370
REMARK INTER:                   1.337
REMARK INTRA:                  -0.967
REMARK UNBOUND:                 0.023
REMARK SMILES CCCCCCCCCCCCCCCCCCCCCCCC(=O)[O-]
REMARK SMILES IDX 13 1 14 2 15 3 16 4 17 5 18 6 19 7 20 8 21 9 22 10 23 11
REMARK SMILES IDX 24 12 25 13 26 14 12 15 11 16 10 17 9 18 8 19 7 20 6 21 5 22
REMARK SMILES IDX 4 23 3 24 2 25 1 26
REMARK H PARENT
REMARK Flexibility Score: inf
ROOT
ATOM      1  C   UNL     1      46.380  49.715  47.613  1.00  0.00     0.000 C 
ENDROOT
BRANCH   1   2
ATOM      2  C   UNL     1      44.973  50.145  47.157  1.00  0.00     0.000 C 
BRANCH   2   3
ATOM      3  C   UNL     1      44.965  50.768  45.751  1.00  0.00     0.000 C 
BRANCH   3   4
ATOM      4  C   UNL     1      44.673  49.742  44.642  1.00  0.00     0.000 C 
BRANCH   4   5
ATOM      5  C   UNL     1      43.753  50.240  43.507  1.00  0.00     0.000 C 
BRANCH   5   6
ATOM      6  C   UNL     1      44.209  49.866  42.085  1.00  0.00     0.000 C 
BRANCH   6   7
ATOM      7  C   UNL     1      43.232  48.965  41.309  1.00  0.00     0.000 C 
BRANCH   7   8
ATOM      8  C   UNL     1      42.910  47.638  42.031  1.00  0.00     0.000 C 
BRANCH   8   9
ATOM      9  C   UNL     1      43.887  46.514  41.654  1.00  0.00     0.000 C 
BRANCH   9  10
ATOM     10  C   UNL     1      45.301  47.062  41.435  1.00  0.00     0.006 C 
BRANCH  10  11
ATOM     11  C   UNL     1      46.316  45.924  41.295  1.00  0.00     0.053 C 
BRANCH  11  12
ATOM     12  C   UNL     1      47.592  46.269  41.996  1.00  0.00     0.041 C 
ATOM     13  O   UNL     1      48.133  45.439  42.772  1.00  0.00    -0.550 OA
ATOM     14  O   UNL     1      48.211  47.488  41.752  1.00  0.00    -0.550 OA
ENDBRANCH  11  12
ENDBRANCH  10  11
ENDBRANCH   9  10
ENDBRANCH   8   9
ENDBRANCH   7   8
ENDBRANCH   6   7
ENDBRANCH   5   6
ENDBRANCH   4   5
ENDBRANCH   3   4
ENDBRANCH   2   3
ENDBRANCH   1   2
BRANCH   1  15
ATOM     15  C   UNL     1      46.461  49.145  49.045  1.00  0.00     0.000 C 
BRANCH  15  16
ATOM     16  C   UNL     1      47.541  48.066  49.261  1.00  0.00     0.000 C 
BRANCH  16  17
ATOM     17  C   UNL     1      47.892  47.240  48.009  1.00  0.00     0.000 C 
BRANCH  17  18
ATOM     18  C   UNL     1      49.328  47.437  47.484  1.00  0.00    -0.000 C 
BRANCH  18  19
ATOM     19  C   UNL     1      49.643  46.723  46.154  1.00  0.00    -0.000 C 
BRANCH  19  20
ATOM     20  C   UNL     1      51.140  46.499  45.868  1.00  0.00    -0.000 C 
BRANCH  20  21
ATOM     21  C   UNL     1      51.463  45.046  45.479  1.00  0.00    -0.000 C 
BRANCH  21  22
ATOM     22  C   UNL     1      52.091  44.923  44.079  1.00  0.00    -0.000 C 
BRANCH  22  23
ATOM     23  C   UNL     1      53.258  45.887  43.794  1.00  0.00    -0.000 C 
BRANCH  23  24
ATOM     24  C   UNL     1      54.459  45.197  43.133  1.00  0.00    -0.000 C 
BRANCH  24  25
ATOM     25  C   UNL     1      54.478  45.457  41.622  1.00  0.00    -0.003 C 
ATOM     26  C   UNL     1      53.493  46.558  41.239  1.00  0.00     0.004 C 
ENDBRANCH  24  25
ENDBRANCH  23  24
ENDBRANCH  22  23
ENDBRANCH  21  22
ENDBRANCH  20  21
ENDBRANCH  19  20
ENDBRANCH  18  19
ENDBRANCH  17  18
ENDBRANCH  16  17
ENDBRANCH  15  16
ENDBRANCH   1  15
TORSDOF 22
ENDMDL
