MODEL 1
REMARK VINA RESULT:    -4.174      0.000      0.000
REMARK INTER + INTRA:          -7.379
REMARK INTER:                  -6.371
REMARK INTRA:                  -1.008
REMARK UNBOUND:                -1.008
REMARK SMILES CCCCCCCCCCC(=O)[O-]
REMARK SMILES IDX 7 1 8 2 9 3 10 4 11 5 12 6 13 7 6 8 5 9 4 10 3 11 2 12 1 13
REMARK H PARENT
REMARK Flexibility Score: inf
ROOT
ATOM      1  C   UNL     1      13.913  -2.503   3.005  1.00  0.00     0.000 C 
ENDROOT
BRANCH   1   2
ATOM      2  C   UNL     1      14.963  -1.441   2.635  1.00  0.00     0.000 C 
BRANCH   2   3
ATOM      3  C   UNL     1      15.403  -1.531   1.166  1.00  0.00     0.006 C 
BRANCH   3   4
ATOM      4  C   UNL     1      15.173  -0.221   0.402  1.00  0.00     0.053 C 
BRANCH   4   5
ATOM      5  C   UNL     1      14.436  -0.483  -0.874  1.00  0.00     0.041 C 
ATOM      6  O   UNL     1      13.194  -0.683  -0.859  1.00  0.00    -0.550 OA
ATOM      7  O   UNL     1      15.115  -0.459  -2.086  1.00  0.00    -0.550 OA
ENDBRANCH   4   5
ENDBRANCH   3   4
ENDBRANCH   2   3
ENDBRANCH   1   2
BRANCH   1   8
ATOM      8  C   UNL     1      12.717  -1.909   3.765  1.00  0.00     0.000 C 
BRANCH   8   9
ATOM      9  C   UNL     1      12.966  -0.462   4.224  1.00  0.00    -0.000 C 
BRANCH   9  10
ATOM     10  C   UNL     1      11.874   0.507   3.724  1.00  0.00    -0.000 C 
BRANCH  10  11
ATOM     11  C   UNL     1      11.842   0.666   2.192  1.00  0.00    -0.000 C 
BRANCH  11  12
ATOM     12  C   UNL     1      10.648  -0.012   1.500  1.00  0.00    -0.003 C 
ATOM     13  C   UNL     1       9.478  -0.266   2.450  1.00  0.00     0.004 C 
ENDBRANCH  11  12
ENDBRANCH  10  11
ENDBRANCH   9  10
ENDBRANCH   8   9
ENDBRANCH   1   8
TORSDOF 9
ENDMDL
MODEL 2
REMARK VINA RESULT:    -4.126      1.379      2.082
REMARK INTER + INTRA:          -7.306
REMARK INTER:                  -5.976
REMARK INTRA:                  -1.330
REMARK UNBOUND:                -1.008
REMARK SMILES CCCCCCCCCCC(=O)[O-]
REMARK SMILES IDX 7 1 8 2 9 3 10 4 11 5 12 6 13 7 6 8 5 9 4 10 3 11 2 12 1 13
REMARK H PARENT
REMARK Flexibility Score: inf
ROOT
ATOM      1  C   UNL     1      12.756  -1.347   4.101  1.00  0.00     0.000 C 
ENDROOT
BRANCH   1   2
ATOM      2  C   UNL     1      13.828  -1.981   3.197  1.00  0.00     0.000 C 
BRANCH   2   3
ATOM      3  C   UNL     1      14.687  -0.933   2.474  1.00  0.00     0.006 C 
BRANCH   3   4
ATOM      4  C   UNL     1      15.148  -1.404   1.089  1.00  0.00     0.053 C 
BRANCH   4   5
ATOM      5  C   UNL     1      15.629  -0.244   0.276  1.00  0.00     0.041 C 
ATOM      6  O   UNL     1      16.385   0.621   0.790  1.00  0.00    -0.550 OA
ATOM      7  O   UNL     1      15.280  -0.143  -1.065  1.00  0.00    -0.550 OA
ENDBRANCH   4   5
ENDBRANCH   3   4
ENDBRANCH   2   3
ENDBRANCH   1   2
BRANCH   1   8
ATOM      8  C   UNL     1      12.682   0.180   3.946  1.00  0.00     0.000 C 
BRANCH   8   9
ATOM      9  C   UNL     1      11.256   0.678   3.658  1.00  0.00    -0.000 C 
BRANCH   9  10
ATOM     10  C   UNL     1      10.645   0.012   2.406  1.00  0.00    -0.000 C 
BRANCH  10  11
ATOM     11  C   UNL     1      11.186   0.576   1.079  1.00  0.00    -0.000 C 
BRANCH  11  12
ATOM     12  C   UNL     1      11.771  -0.477   0.124  1.00  0.00    -0.003 C 
ATOM     13  C   UNL     1      11.359  -1.904   0.491  1.00  0.00     0.004 C 
ENDBRANCH  11  12
ENDBRANCH  10  11
ENDBRANCH   9  10
ENDBRANCH   8   9
ENDBRANCH   1   8
TORSDOF 9
ENDMDL
MODEL 3
REMARK VINA RESULT:    -4.116      1.257      3.241
REMARK INTER + INTRA:          -7.289
REMARK INTER:                  -6.227
REMARK INTRA:                  -1.062
REMARK UNBOUND:                -1.008
REMARK SMILES CCCCCCCCCCC(=O)[O-]
REMARK SMILES IDX 7 1 8 2 9 3 10 4 11 5 12 6 13 7 6 8 5 9 4 10 3 11 2 12 1 13
REMARK H PARENT
REMARK Flexibility Score: inf
ROOT
ATOM      1  C   UNL     1      11.614   0.560   1.149  1.00  0.00     0.000 C 
ENDROOT
BRANCH   1   2
ATOM      2  C   UNL     1      11.606  -0.597   0.135  1.00  0.00     0.000 C 
BRANCH   2   3
ATOM      3  C   UNL     1      13.018  -1.115  -0.181  1.00  0.00     0.006 C 
BRANCH   3   4
ATOM      4  C   UNL     1      14.115  -0.278   0.489  1.00  0.00     0.053 C 
BRANCH   4   5
ATOM      5  C   UNL     1      15.301  -0.152  -0.415  1.00  0.00     0.041 C 
ATOM      6  O   UNL     1      15.162  -0.253  -1.661  1.00  0.00    -0.550 OA
ATOM      7  O   UNL     1      16.554   0.124   0.118  1.00  0.00    -0.550 OA
ENDBRANCH   4   5
ENDBRANCH   3   4
ENDBRANCH   2   3
ENDBRANCH   1   2
BRANCH   1   8
ATOM      8  C   UNL     1      10.645   0.326   2.318  1.00  0.00     0.000 C 
BRANCH   8   9
ATOM      9  C   UNL     1      11.248   0.722   3.677  1.00  0.00    -0.000 C 
BRANCH   9  10
ATOM     10  C   UNL     1      12.553  -0.043   3.983  1.00  0.00    -0.000 C 
BRANCH  10  11
ATOM     11  C   UNL     1      12.450  -1.562   3.749  1.00  0.00    -0.000 C 
BRANCH  11  12
ATOM     12  C   UNL     1      13.799  -2.293   3.663  1.00  0.00    -0.003 C 
ATOM     13  C   UNL     1      14.988  -1.379   3.961  1.00  0.00     0.004 C 
ENDBRANCH  11  12
ENDBRANCH  10  11
ENDBRANCH   9  10
ENDBRANCH   8   9
ENDBRANCH   1   8
TORSDOF 9
ENDMDL
MODEL 4
REMARK VINA RESULT:    -4.088      1.279      4.025
REMARK INTER + INTRA:          -7.247
REMARK INTER:                  -6.255
REMARK INTRA:                  -0.992
REMARK UNBOUND:                -1.008
REMARK SMILES CCCCCCCCCCC(=O)[O-]
REMARK SMILES IDX 7 1 8 2 9 3 10 4 11 5 12 6 13 7 6 8 5 9 4 10 3 11 2 12 1 13
REMARK H PARENT
REMARK Flexibility Score: inf
ROOT
ATOM      1  C   UNL     1      11.709   0.694   3.665  1.00  0.00     0.000 C 
ENDROOT
BRANCH   1   2
ATOM      2  C   UNL     1      10.336   0.267   3.116  1.00  0.00     0.000 C 
BRANCH   2   3
ATOM      3  C   UNL     1      10.265   0.336   1.583  1.00  0.00     0.006 C 
BRANCH   3   4
ATOM      4  C   UNL     1      11.639   0.568   0.940  1.00  0.00     0.053 C 
BRANCH   4   5
ATOM      5  C   UNL     1      12.038  -0.617   0.118  1.00  0.00     0.041 C 
ATOM      6  O   UNL     1      13.015  -0.540  -0.672  1.00  0.00    -0.550 OA
ATOM      7  O   UNL     1      11.360  -1.821   0.259  1.00  0.00    -0.550 OA
ENDBRANCH   4   5
ENDBRANCH   3   4
ENDBRANCH   2   3
ENDBRANCH   1   2
BRANCH   1   8
ATOM      8  C   UNL     1      12.378  -0.408   4.500  1.00  0.00     0.000 C 
BRANCH   8   9
ATOM      9  C   UNL     1      12.704  -1.664   3.673  1.00  0.00    -0.000 C 
BRANCH   9  10
ATOM     10  C   UNL     1      14.171  -2.113   3.845  1.00  0.00    -0.000 C 
BRANCH  10  11
ATOM     11  C   UNL     1      15.065  -1.788   2.634  1.00  0.00    -0.000 C 
BRANCH  11  12
ATOM     12  C   UNL     1      15.120  -0.298   2.257  1.00  0.00    -0.003 C 
ATOM     13  C   UNL     1      16.003  -0.028   1.038  1.00  0.00     0.004 C 
ENDBRANCH  11  12
ENDBRANCH  10  11
ENDBRANCH   9  10
ENDBRANCH   8   9
ENDBRANCH   1   8
TORSDOF 9
ENDMDL
MODEL 5
REMARK VINA RESULT:    -4.082      1.375      2.057
REMARK INTER + INTRA:          -7.238
REMARK INTER:                  -6.189
REMARK INTRA:                  -1.050
REMARK UNBOUND:                -1.008
REMARK SMILES CCCCCCCCCCC(=O)[O-]
REMARK SMILES IDX 7 1 8 2 9 3 10 4 11 5 12 6 13 7 6 8 5 9 4 10 3 11 2 12 1 13
REMARK H PARENT
REMARK Flexibility Score: inf
ROOT
ATOM      1  C   UNL     1      12.673  -2.500   1.159  1.00  0.00     0.000 C 
ENDROOT
BRANCH   1   2
ATOM      2  C   UNL     1      12.015  -1.420   0.282  1.00  0.00     0.000 C 
BRANCH   2   3
ATOM      3  C   UNL     1      13.038  -0.622  -0.540  1.00  0.00     0.006 C 
BRANCH   3   4
ATOM      4  C   UNL     1      14.364  -0.422   0.206  1.00  0.00     0.053 C 
BRANCH   4   5
ATOM      5  C   UNL     1      15.504  -0.362  -0.762  1.00  0.00     0.041 C 
ATOM      6  O   UNL     1      16.689  -0.309  -0.342  1.00  0.00    -0.550 OA
ATOM      7  O   UNL     1      15.259  -0.415  -2.128  1.00  0.00    -0.550 OA
ENDBRANCH   4   5
ENDBRANCH   3   4
ENDBRANCH   2   3
ENDBRANCH   1   2
BRANCH   1   8
ATOM      8  C   UNL     1      12.266  -2.388   2.636  1.00  0.00     0.000 C 
BRANCH   8   9
ATOM      9  C   UNL     1      13.305  -1.632   3.481  1.00  0.00    -0.000 C 
BRANCH   9  10
ATOM     10  C   UNL     1      12.687  -0.433   4.233  1.00  0.00    -0.000 C 
BRANCH  10  11
ATOM     11  C   UNL     1      12.072   0.630   3.304  1.00  0.00    -0.000 C 
BRANCH  11  12
ATOM     12  C   UNL     1      10.564   0.860   3.499  1.00  0.00    -0.003 C 
ATOM     13  C   UNL     1       9.723   0.259   2.373  1.00  0.00     0.004 C 
ENDBRANCH  11  12
ENDBRANCH  10  11
ENDBRANCH   9  10
ENDBRANCH   8   9
ENDBRANCH   1   8
TORSDOF 9
ENDMDL
MODEL 6
REMARK VINA RESULT:    -4.056      2.148      4.560
REMARK INTER + INTRA:          -7.199
REMARK INTER:                  -5.993
REMARK INTRA:                  -1.206
REMARK UNBOUND:                -1.008
REMARK SMILES CCCCCCCCCCC(=O)[O-]
REMARK SMILES IDX 7 1 8 2 9 3 10 4 11 5 12 6 13 7 6 8 5 9 4 10 3 11 2 12 1 13
REMARK H PARENT
REMARK Flexibility Score: inf
ROOT
ATOM      1  C   UNL     1      12.604  -1.194   4.454  1.00  0.00     0.000 C 
ENDROOT
BRANCH   1   2
ATOM      2  C   UNL     1      12.602   0.275   3.995  1.00  0.00     0.000 C 
BRANCH   2   3
ATOM      3  C   UNL     1      11.713   0.508   2.764  1.00  0.00     0.006 C 
BRANCH   3   4
ATOM      4  C   UNL     1      10.220   0.361   3.080  1.00  0.00     0.053 C 
BRANCH   4   5
ATOM      5  C   UNL     1       9.622  -0.749   2.274  1.00  0.00     0.041 C 
ATOM      6  O   UNL     1      10.357  -1.486   1.567  1.00  0.00    -0.550 OA
ATOM      7  O   UNL     1       8.257  -1.000   2.342  1.00  0.00    -0.550 OA
ENDBRANCH   4   5
ENDBRANCH   3   4
ENDBRANCH   2   3
ENDBRANCH   1   2
BRANCH   1   8
ATOM      8  C   UNL     1      13.807  -1.980   3.910  1.00  0.00     0.000 C 
BRANCH   8   9
ATOM      9  C   UNL     1      13.415  -2.968   2.798  1.00  0.00    -0.000 C 
BRANCH   9  10
ATOM     10  C   UNL     1      13.954  -2.538   1.417  1.00  0.00    -0.000 C 
BRANCH  10  11
ATOM     11  C   UNL     1      15.037  -1.446   1.487  1.00  0.00    -0.000 C 
BRANCH  11  12
ATOM     12  C   UNL     1      14.847  -0.286   0.496  1.00  0.00    -0.003 C 
ATOM     13  C   UNL     1      13.592  -0.441  -0.364  1.00  0.00     0.004 C 
ENDBRANCH  11  12
ENDBRANCH  10  11
ENDBRANCH   9  10
ENDBRANCH   8   9
ENDBRANCH   1   8
TORSDOF 9
ENDMDL
MODEL 7
REMARK VINA RESULT:    -4.040      2.093      3.301
REMARK INTER + INTRA:          -7.174
REMARK INTER:                  -5.786
REMARK INTRA:                  -1.388
REMARK UNBOUND:                -1.008
REMARK SMILES CCCCCCCCCCC(=O)[O-]
REMARK SMILES IDX 7 1 8 2 9 3 10 4 11 5 12 6 13 7 6 8 5 9 4 10 3 11 2 12 1 13
REMARK H PARENT
REMARK Flexibility Score: inf
ROOT
ATOM      1  C   UNL     1      11.959   0.450   3.571  1.00  0.00     0.000 C 
ENDROOT
BRANCH   1   2
ATOM      2  C   UNL     1      12.532  -0.820   4.225  1.00  0.00     0.000 C 
BRANCH   2   3
ATOM      3  C   UNL     1      14.000  -1.070   3.845  1.00  0.00     0.006 C 
BRANCH   3   4
ATOM      4  C   UNL     1      14.502  -0.097   2.770  1.00  0.00     0.053 C 
BRANCH   4   5
ATOM      5  C   UNL     1      15.647  -0.698   2.016  1.00  0.00     0.041 C 
ATOM      6  O   UNL     1      16.772  -0.824   2.565  1.00  0.00    -0.550 OA
ATOM      7  O   UNL     1      15.457  -1.164   0.721  1.00  0.00    -0.550 OA
ENDBRANCH   4   5
ENDBRANCH   3   4
ENDBRANCH   2   3
ENDBRANCH   1   2
BRANCH   1   8
ATOM      8  C   UNL     1      10.459   0.329   3.264  1.00  0.00     0.000 C 
BRANCH   8   9
ATOM      9  C   UNL     1      10.168   0.256   1.755  1.00  0.00    -0.000 C 
BRANCH   9  10
ATOM     10  C   UNL     1      11.402   0.621   0.903  1.00  0.00    -0.000 C 
BRANCH  10  11
ATOM     11  C   UNL     1      11.970  -0.563   0.096  1.00  0.00    -0.000 C 
BRANCH  11  12
ATOM     12  C   UNL     1      11.374  -1.933   0.459  1.00  0.00    -0.003 C 
ATOM     13  C   UNL     1      12.408  -2.891   1.050  1.00  0.00     0.004 C 
ENDBRANCH  11  12
ENDBRANCH  10  11
ENDBRANCH   9  10
ENDBRANCH   8   9
ENDBRANCH   1   8
TORSDOF 9
ENDMDL
MODEL 8
REMARK VINA RESULT:    -4.028      2.083      3.344
REMARK INTER + INTRA:          -7.156
REMARK INTER:                  -6.037
REMARK INTRA:                  -1.119
REMARK UNBOUND:                -1.008
REMARK SMILES CCCCCCCCCCC(=O)[O-]
REMARK SMILES IDX 7 1 8 2 9 3 10 4 11 5 12 6 13 7 6 8 5 9 4 10 3 11 2 12 1 13
REMARK H PARENT
REMARK Flexibility Score: inf
ROOT
ATOM      1  C   UNL     1      13.367  -0.683  -0.604  1.00  0.00     0.000 C 
ENDROOT
BRANCH   1   2
ATOM      2  C   UNL     1      14.729  -0.517   0.094  1.00  0.00     0.000 C 
BRANCH   2   3
ATOM      3  C   UNL     1      14.593  -0.237   1.598  1.00  0.00     0.006 C 
BRANCH   3   4
ATOM      4  C   UNL     1      15.394  -1.225   2.455  1.00  0.00     0.053 C 
BRANCH   4   5
ATOM      5  C   UNL     1      14.834  -2.607   2.321  1.00  0.00     0.041 C 
ATOM      6  O   UNL     1      13.744  -2.906   2.874  1.00  0.00    -0.550 OA
ATOM      7  O   UNL     1      15.493  -3.550   1.542  1.00  0.00    -0.550 OA
ENDBRANCH   4   5
ENDBRANCH   3   4
ENDBRANCH   2   3
ENDBRANCH   1   2
BRANCH   1   8
ATOM      8  C   UNL     1      12.193  -0.246   0.286  1.00  0.00     0.000 C 
BRANCH   8   9
ATOM      9  C   UNL     1      11.313  -1.429   0.727  1.00  0.00    -0.000 C 
BRANCH   9  10
ATOM     10  C   UNL     1      10.810  -1.273   2.179  1.00  0.00    -0.000 C 
BRANCH  10  11
ATOM     11  C   UNL     1      10.387   0.165   2.537  1.00  0.00    -0.000 C 
BRANCH  11  12
ATOM     12  C   UNL     1      11.218   0.820   3.652  1.00  0.00    -0.003 C 
ATOM     13  C   UNL     1      12.178  -0.158   4.329  1.00  0.00     0.004 C 
ENDBRANCH  11  12
ENDBRANCH  10  11
ENDBRANCH   9  10
ENDBRANCH   8   9
ENDBRANCH   1   8
TORSDOF 9
ENDMDL
MODEL 9
REMARK VINA RESULT:    -4.007      1.989      4.323
REMARK INTER + INTRA:          -7.124
REMARK INTER:                  -6.073
REMARK INTRA:                  -1.051
REMARK UNBOUND:                -1.008
REMARK SMILES CCCCCCCCCCC(=O)[O-]
REMARK SMILES IDX 7 1 8 2 9 3 10 4 11 5 12 6 13 7 6 8 5 9 4 10 3 11 2 12 1 13
REMARK H PARENT
REMARK Flexibility Score: inf
ROOT
ATOM      1  C   UNL     1      13.705  -3.057   2.683  1.00  0.00     0.000 C 
ENDROOT
BRANCH   1   2
ATOM      2  C   UNL     1      13.655  -2.051   3.847  1.00  0.00     0.000 C 
BRANCH   2   3
ATOM      3  C   UNL     1      12.378  -1.197   3.837  1.00  0.00     0.006 C 
BRANCH   3   4
ATOM      4  C   UNL     1      11.564  -1.372   2.548  1.00  0.00     0.053 C 
BRANCH   4   5
ATOM      5  C   UNL     1      10.789  -0.128   2.247  1.00  0.00     0.041 C 
ATOM      6  O   UNL     1      10.192   0.486   3.170  1.00  0.00    -0.550 OA
ATOM      7  O   UNL     1      10.765   0.380   0.955  1.00  0.00    -0.550 OA
ENDBRANCH   4   5
ENDBRANCH   3   4
ENDBRANCH   2   3
ENDBRANCH   1   2
BRANCH   1   8
ATOM      8  C   UNL     1      14.964  -2.896   1.819  1.00  0.00     0.000 C 
BRANCH   8   9
ATOM      9  C   UNL     1      15.711  -1.580   2.098  1.00  0.00    -0.000 C 
BRANCH   9  10
ATOM     10  C   UNL     1      15.707  -0.634   0.878  1.00  0.00    -0.000 C 
BRANCH  10  11
ATOM     11  C   UNL     1      14.300  -0.156   0.471  1.00  0.00    -0.000 C 
BRANCH  11  12
ATOM     12  C   UNL     1      13.912  -0.466  -0.984  1.00  0.00    -0.003 C 
ATOM     13  C   UNL     1      15.112  -0.464  -1.931  1.00  0.00     0.004 C 
ENDBRANCH  11  12
ENDBRANCH  10  11
ENDBRANCH   9  10
ENDBRANCH   8   9
ENDBRANCH   1   8
TORSDOF 9
ENDMDL
