MODEL 1
REMARK VINA RESULT:    -4.124      0.000      0.000
REMARK INTER + INTRA:          -9.701
REMARK INTER:                  -7.498
REMARK INTRA:                  -2.202
REMARK UNBOUND:                -2.202
REMARK SMILES CCCCCCCCCCCCCCCC(=O)[O-]
REMARK SMILES IDX 9 1 10 2 11 3 12 4 13 5 14 6 15 7 16 8 17 9 18 10 8 11 7 12
REMARK SMILES IDX 6 13 5 14 4 15 3 16 2 17 1 18
REMARK H PARENT
REMARK Flexibility Score: inf
ROOT
ATOM      1  C   UNL     1     -44.326 -35.207  36.431  1.00  0.00     0.000 C 
ENDROOT
BRANCH   1   2
ATOM      2  C   UNL     1     -44.626 -36.648  36.895  1.00  0.00     0.000 C 
BRANCH   2   3
ATOM      3  C   UNL     1     -46.125 -36.881  37.154  1.00  0.00     0.000 C 
BRANCH   3   4
ATOM      4  C   UNL     1     -46.393 -37.573  38.501  1.00  0.00     0.000 C 
BRANCH   4   5
ATOM      5  C   UNL     1     -46.290 -36.606  39.693  1.00  0.00     0.000 C 
BRANCH   5   6
ATOM      6  C   UNL     1     -47.445 -35.585  39.723  1.00  0.00     0.006 C 
BRANCH   6   7
ATOM      7  C   UNL     1     -47.161 -34.363  40.612  1.00  0.00     0.053 C 
BRANCH   7   8
ATOM      8  C   UNL     1     -47.642 -33.087  39.995  1.00  0.00     0.041 C 
ATOM      9  O   UNL     1     -48.181 -33.097  38.857  1.00  0.00    -0.550 OA
ATOM     10  O   UNL     1     -47.473 -31.883  40.667  1.00  0.00    -0.550 OA
ENDBRANCH   7   8
ENDBRANCH   6   7
ENDBRANCH   5   6
ENDBRANCH   4   5
ENDBRANCH   3   4
ENDBRANCH   2   3
ENDBRANCH   1   2
BRANCH   1  11
ATOM     11  C   UNL     1     -45.244 -34.146  37.066  1.00  0.00     0.000 C 
BRANCH  11  12
ATOM     12  C   UNL     1     -44.549 -33.184  38.048  1.00  0.00    -0.000 C 
BRANCH  12  13
ATOM     13  C   UNL     1     -43.727 -33.866  39.159  1.00  0.00    -0.000 C 
BRANCH  13  14
ATOM     14  C   UNL     1     -42.472 -33.065  39.550  1.00  0.00    -0.000 C 
BRANCH  14  15
ATOM     15  C   UNL     1     -41.267 -33.381  38.648  1.00  0.00    -0.000 C 
BRANCH  15  16
ATOM     16  C   UNL     1     -41.053 -34.893  38.458  1.00  0.00    -0.000 C 
BRANCH  16  17
ATOM     17  C   UNL     1     -40.085 -35.210  37.308  1.00  0.00    -0.003 C 
ATOM     18  C   UNL     1     -40.779 -35.847  36.105  1.00  0.00     0.004 C 
ENDBRANCH  16  17
ENDBRANCH  15  16
ENDBRANCH  14  15
ENDBRANCH  13  14
ENDBRANCH  12  13
ENDBRANCH  11  12
ENDBRANCH   1  11
TORSDOF 14
ENDMDL
MODEL 2
REMARK VINA RESULT:    -3.993      1.553      4.958
REMARK INTER + INTRA:          -9.463
REMARK INTER:                  -7.586
REMARK INTRA:                  -1.877
REMARK UNBOUND:                -2.202
REMARK SMILES CCCCCCCCCCCCCCCC(=O)[O-]
REMARK SMILES IDX 9 1 10 2 11 3 12 4 13 5 14 6 15 7 16 8 17 9 18 10 8 11 7 12
REMARK SMILES IDX 6 13 5 14 4 15 3 16 2 17 1 18
REMARK H PARENT
REMARK Flexibility Score: inf
ROOT
ATOM      1  C   UNL     1     -40.499 -34.631  38.237  1.00  0.00     0.000 C 
ENDROOT
BRANCH   1   2
ATOM      2  C   UNL     1     -40.359 -33.096  38.151  1.00  0.00     0.000 C 
BRANCH   2   3
ATOM      3  C   UNL     1     -41.422 -32.362  38.987  1.00  0.00     0.000 C 
BRANCH   3   4
ATOM      4  C   UNL     1     -42.282 -33.321  39.827  1.00  0.00     0.000 C 
BRANCH   4   5
ATOM      5  C   UNL     1     -43.790 -33.062  39.660  1.00  0.00     0.000 C 
BRANCH   5   6
ATOM      6  C   UNL     1     -44.113 -32.285  38.368  1.00  0.00     0.006 C 
BRANCH   6   7
ATOM      7  C   UNL     1     -45.389 -32.773  37.661  1.00  0.00     0.053 C 
BRANCH   7   8
ATOM      8  C   UNL     1     -46.320 -31.650  37.330  1.00  0.00     0.041 C 
ATOM      9  O   UNL     1     -46.613 -31.402  36.131  1.00  0.00    -0.550 OA
ATOM     10  O   UNL     1     -46.845 -30.860  38.344  1.00  0.00    -0.550 OA
ENDBRANCH   7   8
ENDBRANCH   6   7
ENDBRANCH   5   6
ENDBRANCH   4   5
ENDBRANCH   3   4
ENDBRANCH   2   3
ENDBRANCH   1   2
BRANCH   1  11
ATOM     11  C   UNL     1     -40.311 -35.348  36.887  1.00  0.00     0.000 C 
BRANCH  11  12
ATOM     12  C   UNL     1     -41.616 -35.728  36.162  1.00  0.00    -0.000 C 
BRANCH  12  13
ATOM     13  C   UNL     1     -42.904 -35.511  36.980  1.00  0.00    -0.000 C 
BRANCH  13  14
ATOM     14  C   UNL     1     -44.175 -35.899  36.204  1.00  0.00    -0.000 C 
BRANCH  14  15
ATOM     15  C   UNL     1     -44.809 -37.200  36.726  1.00  0.00    -0.000 C 
BRANCH  15  16
ATOM     16  C   UNL     1     -46.263 -37.003  37.188  1.00  0.00    -0.000 C 
BRANCH  16  17
ATOM     17  C   UNL     1     -46.443 -37.268  38.691  1.00  0.00    -0.003 C 
ATOM     18  C   UNL     1     -45.692 -36.267  39.566  1.00  0.00     0.004 C 
ENDBRANCH  16  17
ENDBRANCH  15  16
ENDBRANCH  14  15
ENDBRANCH  13  14
ENDBRANCH  12  13
ENDBRANCH  11  12
ENDBRANCH   1  11
TORSDOF 14
ENDMDL
MODEL 3
REMARK VINA RESULT:    -3.878      1.700      5.113
REMARK INTER + INTRA:          -9.254
REMARK INTER:                  -7.468
REMARK INTRA:                  -1.786
REMARK UNBOUND:                -2.202
REMARK SMILES CCCCCCCCCCCCCCCC(=O)[O-]
REMARK SMILES IDX 9 1 10 2 11 3 12 4 13 5 14 6 15 7 16 8 17 9 18 10 8 11 7 12
REMARK SMILES IDX 6 13 5 14 4 15 3 16 2 17 1 18
REMARK H PARENT
REMARK Flexibility Score: inf
ROOT
ATOM      1  C   UNL     1     -40.303 -35.805  36.494  1.00  0.00     0.000 C 
ENDROOT
BRANCH   1   2
ATOM      2  C   UNL     1     -40.089 -34.655  37.502  1.00  0.00     0.000 C 
BRANCH   2   3
ATOM      3  C   UNL     1     -40.203 -35.126  38.962  1.00  0.00     0.000 C 
BRANCH   3   4
ATOM      4  C   UNL     1     -40.802 -34.054  39.886  1.00  0.00     0.000 C 
BRANCH   4   5
ATOM      5  C   UNL     1     -42.055 -33.391  39.287  1.00  0.00     0.000 C 
BRANCH   5   6
ATOM      6  C   UNL     1     -43.343 -34.180  39.599  1.00  0.00     0.006 C 
BRANCH   6   7
ATOM      7  C   UNL     1     -44.559 -33.283  39.882  1.00  0.00     0.053 C 
BRANCH   7   8
ATOM      8  C   UNL     1     -44.552 -32.038  39.052  1.00  0.00     0.041 C 
ATOM      9  O   UNL     1     -44.302 -30.923  39.582  1.00  0.00    -0.550 OA
ATOM     10  O   UNL     1     -44.845 -32.105  37.696  1.00  0.00    -0.550 OA
ENDBRANCH   7   8
ENDBRANCH   6   7
ENDBRANCH   5   6
ENDBRANCH   4   5
ENDBRANCH   3   4
ENDBRANCH   2   3
ENDBRANCH   1   2
BRANCH   1  11
ATOM     11  C   UNL     1     -41.635 -35.719  35.726  1.00  0.00     0.000 C 
BRANCH  11  12
ATOM     12  C   UNL     1     -42.895 -35.973  36.576  1.00  0.00    -0.000 C 
BRANCH  12  13
ATOM     13  C   UNL     1     -44.132 -35.148  36.173  1.00  0.00    -0.000 C 
BRANCH  13  14
ATOM     14  C   UNL     1     -45.430 -35.665  36.818  1.00  0.00    -0.000 C 
BRANCH  14  15
ATOM     15  C   UNL     1     -45.519 -37.201  36.812  1.00  0.00    -0.000 C 
BRANCH  15  16
ATOM     16  C   UNL     1     -46.113 -37.762  38.115  1.00  0.00    -0.000 C 
BRANCH  16  17
ATOM     17  C   UNL     1     -47.086 -36.782  38.788  1.00  0.00    -0.003 C 
ATOM     18  C   UNL     1     -46.649 -36.385  40.197  1.00  0.00     0.004 C 
ENDBRANCH  16  17
ENDBRANCH  15  16
ENDBRANCH  14  15
ENDBRANCH  13  14
ENDBRANCH  12  13
ENDBRANCH  11  12
ENDBRANCH   1  11
TORSDOF 14
ENDMDL
MODEL 4
REMARK VINA RESULT:    -3.861      2.920      5.677
REMARK INTER + INTRA:          -9.223
REMARK INTER:                  -7.719
REMARK INTRA:                  -1.503
REMARK UNBOUND:                -2.202
REMARK SMILES CCCCCCCCCCCCCCCC(=O)[O-]
REMARK SMILES IDX 9 1 10 2 11 3 12 4 13 5 14 6 15 7 16 8 17 9 18 10 8 11 7 12
REMARK SMILES IDX 6 13 5 14 4 15 3 16 2 17 1 18
REMARK H PARENT
REMARK Flexibility Score: inf
ROOT
ATOM      1  C   UNL     1     -46.008 -37.648  37.043  1.00  0.00     0.000 C 
ENDROOT
BRANCH   1   2
ATOM      2  C   UNL     1     -44.554 -37.362  36.609  1.00  0.00     0.000 C 
BRANCH   2   3
ATOM      3  C   UNL     1     -44.282 -35.859  36.419  1.00  0.00     0.000 C 
BRANCH   3   4
ATOM      4  C   UNL     1     -42.958 -35.411  37.058  1.00  0.00     0.000 C 
BRANCH   4   5
ATOM      5  C   UNL     1     -41.752 -35.611  36.122  1.00  0.00     0.000 C 
BRANCH   5   6
ATOM      6  C   UNL     1     -40.419 -35.695  36.892  1.00  0.00     0.006 C 
BRANCH   6   7
ATOM      7  C   UNL     1     -40.015 -34.374  37.567  1.00  0.00     0.053 C 
BRANCH   7   8
ATOM      8  C   UNL     1     -39.932 -34.499  39.056  1.00  0.00     0.041 C 
ATOM      9  O   UNL     1     -38.918 -35.017  39.594  1.00  0.00    -0.550 OA
ATOM     10  O   UNL     1     -40.986 -34.064  39.849  1.00  0.00    -0.550 OA
ENDBRANCH   7   8
ENDBRANCH   6   7
ENDBRANCH   5   6
ENDBRANCH   4   5
ENDBRANCH   3   4
ENDBRANCH   2   3
ENDBRANCH   1   2
BRANCH   1  11
ATOM     11  C   UNL     1     -46.221 -37.604  38.568  1.00  0.00     0.000 C 
BRANCH  11  12
ATOM     12  C   UNL     1     -47.151 -36.481  39.064  1.00  0.00    -0.000 C 
BRANCH  12  13
ATOM     13  C   UNL     1     -46.523 -35.074  39.085  1.00  0.00    -0.000 C 
BRANCH  13  14
ATOM     14  C   UNL     1     -47.576 -33.951  39.115  1.00  0.00    -0.000 C 
BRANCH  14  15
ATOM     15  C   UNL     1     -47.006 -32.599  38.655  1.00  0.00    -0.000 C 
BRANCH  15  16
ATOM     16  C   UNL     1     -45.772 -32.755  37.750  1.00  0.00    -0.000 C 
BRANCH  16  17
ATOM     17  C   UNL     1     -44.767 -31.605  37.922  1.00  0.00    -0.003 C 
ATOM     18  C   UNL     1     -43.503 -32.027  38.669  1.00  0.00     0.004 C 
ENDBRANCH  16  17
ENDBRANCH  15  16
ENDBRANCH  14  15
ENDBRANCH  13  14
ENDBRANCH  12  13
ENDBRANCH  11  12
ENDBRANCH   1  11
TORSDOF 14
ENDMDL
MODEL 5
REMARK VINA RESULT:    -3.847      1.612      2.683
REMARK INTER + INTRA:          -9.197
REMARK INTER:                  -7.928
REMARK INTRA:                  -1.269
REMARK UNBOUND:                -2.202
REMARK SMILES CCCCCCCCCCCCCCCC(=O)[O-]
REMARK SMILES IDX 9 1 10 2 11 3 12 4 13 5 14 6 15 7 16 8 17 9 18 10 8 11 7 12
REMARK SMILES IDX 6 13 5 14 4 15 3 16 2 17 1 18
REMARK H PARENT
REMARK Flexibility Score: inf
ROOT
ATOM      1  C   UNL     1     -45.595 -33.283  38.419  1.00  0.00     0.000 C 
ENDROOT
BRANCH   1   2
ATOM      2  C   UNL     1     -45.993 -34.177  37.224  1.00  0.00     0.000 C 
BRANCH   2   3
ATOM      3  C   UNL     1     -44.769 -34.756  36.492  1.00  0.00     0.000 C 
BRANCH   3   4
ATOM      4  C   UNL     1     -44.426 -36.183  36.948  1.00  0.00     0.000 C 
BRANCH   4   5
ATOM      5  C   UNL     1     -45.619 -37.147  36.822  1.00  0.00     0.000 C 
BRANCH   5   6
ATOM      6  C   UNL     1     -46.077 -37.696  38.189  1.00  0.00     0.006 C 
BRANCH   6   7
ATOM      7  C   UNL     1     -47.500 -37.264  38.579  1.00  0.00     0.053 C 
BRANCH   7   8
ATOM      8  C   UNL     1     -47.532 -36.521  39.877  1.00  0.00     0.041 C 
ATOM      9  O   UNL     1     -46.557 -36.588  40.671  1.00  0.00    -0.550 OA
ATOM     10  O   UNL     1     -48.651 -35.774  40.223  1.00  0.00    -0.550 OA
ENDBRANCH   7   8
ENDBRANCH   6   7
ENDBRANCH   5   6
ENDBRANCH   4   5
ENDBRANCH   3   4
ENDBRANCH   2   3
ENDBRANCH   1   2
BRANCH   1  11
ATOM     11  C   UNL     1     -44.567 -32.193  38.064  1.00  0.00     0.000 C 
BRANCH  11  12
ATOM     12  C   UNL     1     -43.262 -32.236  38.881  1.00  0.00    -0.000 C 
BRANCH  12  13
ATOM     13  C   UNL     1     -42.730 -33.649  39.189  1.00  0.00    -0.000 C 
BRANCH  13  14
ATOM     14  C   UNL     1     -41.218 -33.785  38.940  1.00  0.00    -0.000 C 
BRANCH  14  15
ATOM     15  C   UNL     1     -40.734 -35.242  39.035  1.00  0.00    -0.000 C 
BRANCH  15  16
ATOM     16  C   UNL     1     -39.337 -35.440  38.421  1.00  0.00    -0.000 C 
BRANCH  16  17
ATOM     17  C   UNL     1     -39.395 -35.766  36.920  1.00  0.00    -0.003 C 
ATOM     18  C   UNL     1     -40.815 -35.734  36.360  1.00  0.00     0.004 C 
ENDBRANCH  16  17
ENDBRANCH  15  16
ENDBRANCH  14  15
ENDBRANCH  13  14
ENDBRANCH  12  13
ENDBRANCH  11  12
ENDBRANCH   1  11
TORSDOF 14
ENDMDL
MODEL 6
REMARK VINA RESULT:    -3.786      2.008      3.535
REMARK INTER + INTRA:          -9.087
REMARK INTER:                  -7.375
REMARK INTRA:                  -1.712
REMARK UNBOUND:                -2.202
REMARK SMILES CCCCCCCCCCCCCCCC(=O)[O-]
REMARK SMILES IDX 9 1 10 2 11 3 12 4 13 5 14 6 15 7 16 8 17 9 18 10 8 11 7 12
REMARK SMILES IDX 6 13 5 14 4 15 3 16 2 17 1 18
REMARK H PARENT
REMARK Flexibility Score: inf
ROOT
ATOM      1  C   UNL     1     -44.593 -34.993  36.571  1.00  0.00     0.000 C 
ENDROOT
BRANCH   1   2
ATOM      2  C   UNL     1     -44.891 -33.717  37.388  1.00  0.00     0.000 C 
BRANCH   2   3
ATOM      3  C   UNL     1     -46.335 -33.222  37.198  1.00  0.00     0.000 C 
BRANCH   3   4
ATOM      4  C   UNL     1     -47.108 -33.124  38.524  1.00  0.00     0.000 C 
BRANCH   4   5
ATOM      5  C   UNL     1     -46.199 -33.309  39.752  1.00  0.00     0.000 C 
BRANCH   5   6
ATOM      6  C   UNL     1     -46.278 -34.735  40.332  1.00  0.00     0.006 C 
BRANCH   6   7
ATOM      7  C   UNL     1     -47.557 -35.490  39.934  1.00  0.00     0.053 C 
BRANCH   7   8
ATOM      8  C   UNL     1     -47.265 -36.715  39.125  1.00  0.00     0.041 C 
ATOM      9  O   UNL     1     -48.205 -37.369  38.602  1.00  0.00    -0.550 OA
ATOM     10  O   UNL     1     -45.955 -37.147  38.968  1.00  0.00    -0.550 OA
ENDBRANCH   7   8
ENDBRANCH   6   7
ENDBRANCH   5   6
ENDBRANCH   4   5
ENDBRANCH   3   4
ENDBRANCH   2   3
ENDBRANCH   1   2
BRANCH   1  11
ATOM     11  C   UNL     1     -43.238 -35.644  36.908  1.00  0.00     0.000 C 
BRANCH  11  12
ATOM     12  C   UNL     1     -42.196 -35.607  35.775  1.00  0.00    -0.000 C 
BRANCH  12  13
ATOM     13  C   UNL     1     -40.764 -35.994  36.190  1.00  0.00    -0.000 C 
BRANCH  13  14
ATOM     14  C   UNL     1     -40.076 -34.912  37.041  1.00  0.00    -0.000 C 
BRANCH  14  15
ATOM     15  C   UNL     1     -39.637 -35.437  38.419  1.00  0.00    -0.000 C 
BRANCH  15  16
ATOM     16  C   UNL     1     -40.469 -34.844  39.569  1.00  0.00    -0.000 C 
BRANCH  16  17
ATOM     17  C   UNL     1     -41.178 -33.541  39.170  1.00  0.00    -0.003 C 
ATOM     18  C   UNL     1     -42.363 -33.208  40.076  1.00  0.00     0.004 C 
ENDBRANCH  16  17
ENDBRANCH  15  16
ENDBRANCH  14  15
ENDBRANCH  13  14
ENDBRANCH  12  13
ENDBRANCH  11  12
ENDBRANCH   1  11
TORSDOF 14
ENDMDL
MODEL 7
REMARK VINA RESULT:    -3.766      3.172      3.566
REMARK INTER + INTRA:          -9.050
REMARK INTER:                  -7.855
REMARK INTRA:                  -1.195
REMARK UNBOUND:                -2.202
REMARK SMILES CCCCCCCCCCCCCCCC(=O)[O-]
REMARK SMILES IDX 9 1 10 2 11 3 12 4 13 5 14 6 15 7 16 8 17 9 18 10 8 11 7 12
REMARK SMILES IDX 6 13 5 14 4 15 3 16 2 17 1 18
REMARK H PARENT
REMARK Flexibility Score: inf
ROOT
ATOM      1  C   UNL     1     -44.141 -36.351  36.522  1.00  0.00     0.000 C 
ENDROOT
BRANCH   1   2
ATOM      2  C   UNL     1     -45.113 -37.498  36.874  1.00  0.00     0.000 C 
BRANCH   2   3
ATOM      3  C   UNL     1     -46.490 -36.982  37.328  1.00  0.00     0.000 C 
BRANCH   3   4
ATOM      4  C   UNL     1     -46.767 -37.261  38.815  1.00  0.00     0.000 C 
BRANCH   4   5
ATOM      5  C   UNL     1     -48.255 -37.523  39.100  1.00  0.00     0.000 C 
BRANCH   5   6
ATOM      6  C   UNL     1     -48.464 -38.533  40.247  1.00  0.00     0.006 C 
BRANCH   6   7
ATOM      7  C   UNL     1     -49.649 -38.185  41.163  1.00  0.00     0.053 C 
BRANCH   7   8
ATOM      8  C   UNL     1     -50.636 -39.305  41.266  1.00  0.00     0.041 C 
ATOM      9  O   UNL     1     -51.338 -39.626  40.271  1.00  0.00    -0.550 OA
ATOM     10  O   UNL     1     -50.798 -39.980  42.469  1.00  0.00    -0.550 OA
ENDBRANCH   7   8
ENDBRANCH   6   7
ENDBRANCH   5   6
ENDBRANCH   4   5
ENDBRANCH   3   4
ENDBRANCH   2   3
ENDBRANCH   1   2
BRANCH   1  11
ATOM     11  C   UNL     1     -44.793 -34.955  36.544  1.00  0.00     0.000 C 
BRANCH  11  12
ATOM     12  C   UNL     1     -44.242 -33.994  37.614  1.00  0.00    -0.000 C 
BRANCH  12  13
ATOM     13  C   UNL     1     -43.458 -34.668  38.756  1.00  0.00    -0.000 C 
BRANCH  13  14
ATOM     14  C   UNL     1     -42.434 -33.726  39.413  1.00  0.00    -0.000 C 
BRANCH  14  15
ATOM     15  C   UNL     1     -41.000 -34.278  39.347  1.00  0.00    -0.000 C 
BRANCH  15  16
ATOM     16  C   UNL     1     -40.377 -34.136  37.947  1.00  0.00    -0.000 C 
BRANCH  16  17
ATOM     17  C   UNL     1     -39.944 -35.487  37.357  1.00  0.00    -0.003 C 
ATOM     18  C   UNL     1     -40.756 -35.884  36.125  1.00  0.00     0.004 C 
ENDBRANCH  16  17
ENDBRANCH  15  16
ENDBRANCH  14  15
ENDBRANCH  13  14
ENDBRANCH  12  13
ENDBRANCH  11  12
ENDBRANCH   1  11
TORSDOF 14
ENDMDL
MODEL 8
REMARK VINA RESULT:    -3.754      7.131      9.839
REMARK INTER + INTRA:          -9.028
REMARK INTER:                  -6.531
REMARK INTRA:                  -2.498
REMARK UNBOUND:                -2.202
REMARK SMILES CCCCCCCCCCCCCCCC(=O)[O-]
REMARK SMILES IDX 9 1 10 2 11 3 12 4 13 5 14 6 15 7 16 8 17 9 18 10 8 11 7 12
REMARK SMILES IDX 6 13 5 14 4 15 3 16 2 17 1 18
REMARK H PARENT
REMARK Flexibility Score: inf
ROOT
ATOM      1  C   UNL     1     -38.524 -25.378  40.586  1.00  0.00     0.000 C 
ENDROOT
BRANCH   1   2
ATOM      2  C   UNL     1     -38.301 -26.571  39.632  1.00  0.00     0.000 C 
BRANCH   2   3
ATOM      3  C   UNL     1     -38.465 -27.927  40.340  1.00  0.00     0.000 C 
BRANCH   3   4
ATOM      4  C   UNL     1     -39.656 -27.950  41.310  1.00  0.00     0.000 C 
BRANCH   4   5
ATOM      5  C   UNL     1     -40.955 -28.433  40.641  1.00  0.00     0.000 C 
BRANCH   5   6
ATOM      6  C   UNL     1     -40.687 -29.259  39.367  1.00  0.00     0.006 C 
BRANCH   6   7
ATOM      7  C   UNL     1     -41.929 -29.436  38.478  1.00  0.00     0.053 C 
BRANCH   7   8
ATOM      8  C   UNL     1     -42.606 -30.751  38.704  1.00  0.00     0.041 C 
ATOM      9  O   UNL     1     -42.077 -31.618  39.447  1.00  0.00    -0.550 OA
ATOM     10  O   UNL     1     -43.813 -31.028  38.074  1.00  0.00    -0.550 OA
ENDBRANCH   7   8
ENDBRANCH   6   7
ENDBRANCH   5   6
ENDBRANCH   4   5
ENDBRANCH   3   4
ENDBRANCH   2   3
ENDBRANCH   1   2
BRANCH   1  11
ATOM     11  C   UNL     1     -39.216 -24.172  39.922  1.00  0.00     0.000 C 
BRANCH  11  12
ATOM     12  C   UNL     1     -40.340 -23.525  40.754  1.00  0.00    -0.000 C 
BRANCH  12  13
ATOM     13  C   UNL     1     -40.816 -24.352  41.964  1.00  0.00    -0.000 C 
BRANCH  13  14
ATOM     14  C   UNL     1     -42.129 -25.107  41.690  1.00  0.00    -0.000 C 
BRANCH  14  15
ATOM     15  C   UNL     1     -42.859 -24.585  40.441  1.00  0.00    -0.000 C 
BRANCH  15  16
ATOM     16  C   UNL     1     -42.943 -25.639  39.323  1.00  0.00    -0.000 C 
BRANCH  16  17
ATOM     17  C   UNL     1     -42.448 -25.104  37.971  1.00  0.00    -0.003 C 
ATOM     18  C   UNL     1     -41.248 -25.879  37.428  1.00  0.00     0.004 C 
ENDBRANCH  16  17
ENDBRANCH  15  16
ENDBRANCH  14  15
ENDBRANCH  13  14
ENDBRANCH  12  13
ENDBRANCH  11  12
ENDBRANCH   1  11
TORSDOF 14
ENDMDL
MODEL 9
REMARK VINA RESULT:    -3.717      6.262      8.750
REMARK INTER + INTRA:          -8.962
REMARK INTER:                  -6.659
REMARK INTRA:                  -2.303
REMARK UNBOUND:                -2.202
REMARK SMILES CCCCCCCCCCCCCCCC(=O)[O-]
REMARK SMILES IDX 9 1 10 2 11 3 12 4 13 5 14 6 15 7 16 8 17 9 18 10 8 11 7 12
REMARK SMILES IDX 6 13 5 14 4 15 3 16 2 17 1 18
REMARK H PARENT
REMARK Flexibility Score: inf
ROOT
ATOM      1  C   UNL     1     -39.206 -26.529  40.236  1.00  0.00     0.000 C 
ENDROOT
BRANCH   1   2
ATOM      2  C   UNL     1     -39.735 -27.703  41.087  1.00  0.00     0.000 C 
BRANCH   2   3
ATOM      3  C   UNL     1     -40.723 -28.592  40.312  1.00  0.00     0.000 C 
BRANCH   3   4
ATOM      4  C   UNL     1     -41.909 -29.052  41.176  1.00  0.00     0.000 C 
BRANCH   4   5
ATOM      5  C   UNL     1     -43.010 -29.740  40.350  1.00  0.00     0.000 C 
BRANCH   5   6
ATOM      6  C   UNL     1     -42.444 -30.798  39.381  1.00  0.00     0.006 C 
BRANCH   6   7
ATOM      7  C   UNL     1     -43.330 -32.047  39.250  1.00  0.00     0.053 C 
BRANCH   7   8
ATOM      8  C   UNL     1     -43.077 -33.040  40.341  1.00  0.00     0.041 C 
ATOM      9  O   UNL     1     -41.906 -33.236  40.760  1.00  0.00    -0.550 OA
ATOM     10  O   UNL     1     -44.132 -33.767  40.878  1.00  0.00    -0.550 OA
ENDBRANCH   7   8
ENDBRANCH   6   7
ENDBRANCH   5   6
ENDBRANCH   4   5
ENDBRANCH   3   4
ENDBRANCH   2   3
ENDBRANCH   1   2
BRANCH   1  11
ATOM     11  C   UNL     1     -39.210 -25.176  40.972  1.00  0.00     0.000 C 
BRANCH  11  12
ATOM     12  C   UNL     1     -40.377 -24.972  41.957  1.00  0.00    -0.000 C 
BRANCH  12  13
ATOM     13  C   UNL     1     -41.606 -24.251  41.372  1.00  0.00    -0.000 C 
BRANCH  13  14
ATOM     14  C   UNL     1     -42.878 -25.118  41.404  1.00  0.00    -0.000 C 
BRANCH  14  15
ATOM     15  C   UNL     1     -43.134 -25.835  40.068  1.00  0.00    -0.000 C 
BRANCH  15  16
ATOM     16  C   UNL     1     -42.429 -25.149  38.885  1.00  0.00    -0.000 C 
BRANCH  16  17
ATOM     17  C   UNL     1     -41.956 -26.151  37.821  1.00  0.00    -0.003 C 
ATOM     18  C   UNL     1     -42.925 -27.317  37.629  1.00  0.00     0.004 C 
ENDBRANCH  16  17
ENDBRANCH  15  16
ENDBRANCH  14  15
ENDBRANCH  13  14
ENDBRANCH  12  13
ENDBRANCH  11  12
ENDBRANCH   1  11
TORSDOF 14
ENDMDL
