MODEL 1
REMARK VINA RESULT:    -5.192      0.000      0.000
REMARK INTER + INTRA:          -7.821
REMARK INTER:                  -6.406
REMARK INTRA:                  -1.414
REMARK UNBOUND:                -1.414
REMARK SMILES CC(C)=CCC[C@H](C)c1ccc(C)cc1
REMARK SMILES IDX 6 1 7 2 8 3 9 4 13 5 12 6 11 7 14 8 10 9 15 10 5 11 4 12
REMARK SMILES IDX 2 13 1 14 3 15
REMARK H PARENT
REMARK Flexibility Score: inf
ROOT
ATOM      1  C   UNL     1      -7.323  12.615  16.144  1.00  0.00     0.012 C 
ENDROOT
BRANCH   1   2
ATOM      2  C   UNL     1      -6.014  13.332  15.744  1.00  0.00     0.016 C 
ATOM      3  C   UNL     1      -4.765  12.597  16.254  1.00  0.00     0.013 C 
BRANCH   2   4
ATOM      4  C   UNL     1      -6.024  14.767  16.242  1.00  0.00    -0.045 A 
ATOM      5  C   UNL     1      -6.080  18.828  17.712  1.00  0.00     0.044 C 
ATOM      6  C   UNL     1      -6.063  17.428  17.174  1.00  0.00    -0.051 A 
ATOM      7  C   UNL     1      -4.846  16.806  16.863  1.00  0.00     0.004 A 
ATOM      8  C   UNL     1      -7.257  16.706  17.043  1.00  0.00     0.004 A 
ATOM      9  C   UNL     1      -4.826  15.489  16.396  1.00  0.00     0.004 A 
ATOM     10  C   UNL     1      -7.240  15.389  16.576  1.00  0.00     0.004 A 
ENDBRANCH   2   4
ENDBRANCH   1   2
BRANCH   1  11
ATOM     11  C   UNL     1      -7.145  11.696  17.363  1.00  0.00     0.028 C 
BRANCH  11  12
ATOM     12  C   UNL     1      -8.003  12.163  18.512  1.00  0.00    -0.028 C 
ATOM     13  C   UNL     1      -7.548  12.901  19.551  1.00  0.00    -0.080 C 
ATOM     14  C   UNL     1      -8.488  13.289  20.663  1.00  0.00     0.039 C 
ATOM     15  C   UNL     1      -6.124  13.395  19.621  1.00  0.00     0.039 C 
ENDBRANCH  11  12
ENDBRANCH   1  11
TORSDOF 4
ENDMDL
MODEL 2
REMARK VINA RESULT:    -5.167      0.973      1.223
REMARK INTER + INTRA:          -7.789
REMARK INTER:                  -6.262
REMARK INTRA:                  -1.527
REMARK UNBOUND:                -1.414
REMARK SMILES CC(C)=CCC[C@H](C)c1ccc(C)cc1
REMARK SMILES IDX 6 1 7 2 8 3 9 4 13 5 12 6 11 7 14 8 10 9 15 10 5 11 4 12
REMARK SMILES IDX 2 13 1 14 3 15
REMARK H PARENT
REMARK Flexibility Score: inf
ROOT
ATOM      1  C   UNL     1      -7.738  11.853  17.298  1.00  0.00     0.012 C 
ENDROOT
BRANCH   1   2
ATOM      2  C   UNL     1      -6.480  12.234  16.487  1.00  0.00     0.016 C 
ATOM      3  C   UNL     1      -5.209  11.556  17.026  1.00  0.00     0.013 C 
BRANCH   2   4
ATOM      4  C   UNL     1      -6.303  13.742  16.461  1.00  0.00    -0.045 A 
ATOM      5  C   UNL     1      -5.834  18.036  16.441  1.00  0.00     0.044 C 
ATOM      6  C   UNL     1      -5.997  16.546  16.418  1.00  0.00    -0.051 A 
ATOM      7  C   UNL     1      -4.870  15.711  16.408  1.00  0.00     0.004 A 
ATOM      8  C   UNL     1      -7.276  15.973  16.477  1.00  0.00     0.004 A 
ATOM      9  C   UNL     1      -5.021  14.322  16.423  1.00  0.00     0.004 A 
ATOM     10  C   UNL     1      -7.429  14.584  16.493  1.00  0.00     0.004 A 
ENDBRANCH   2   4
ENDBRANCH   1   2
BRANCH   1  11
ATOM     11  C   UNL     1      -7.427  11.575  18.777  1.00  0.00     0.028 C 
BRANCH  11  12
ATOM     12  C   UNL     1      -8.035  12.636  19.659  1.00  0.00    -0.028 C 
ATOM     13  C   UNL     1      -7.330  13.623  20.260  1.00  0.00    -0.080 C 
ATOM     14  C   UNL     1      -8.037  14.615  21.146  1.00  0.00     0.039 C 
ATOM     15  C   UNL     1      -5.848  13.796  20.041  1.00  0.00     0.039 C 
ENDBRANCH  11  12
ENDBRANCH   1  11
TORSDOF 4
ENDMDL
MODEL 3
REMARK VINA RESULT:    -5.148      1.929      5.726
REMARK INTER + INTRA:          -7.766
REMARK INTER:                  -6.573
REMARK INTRA:                  -1.193
REMARK UNBOUND:                -1.414
REMARK SMILES CC(C)=CCC[C@H](C)c1ccc(C)cc1
REMARK SMILES IDX 6 1 7 2 8 3 9 4 13 5 12 6 11 7 14 8 10 9 15 10 5 11 4 12
REMARK SMILES IDX 2 13 1 14 3 15
REMARK H PARENT
REMARK Flexibility Score: inf
ROOT
ATOM      1  C   UNL     1      -6.059  13.766  15.451  1.00  0.00     0.012 C 
ENDROOT
BRANCH   1   2
ATOM      2  C   UNL     1      -7.193  13.777  16.501  1.00  0.00     0.016 C 
ATOM      3  C   UNL     1      -7.028  14.909  17.527  1.00  0.00     0.013 C 
BRANCH   2   4
ATOM      4  C   UNL     1      -7.275  12.434  17.204  1.00  0.00    -0.045 A 
ATOM      5  C   UNL     1      -7.562   8.630  19.233  1.00  0.00     0.044 C 
ATOM      6  C   UNL     1      -7.432   9.949  18.530  1.00  0.00    -0.051 A 
ATOM      7  C   UNL     1      -7.366  10.000  17.130  1.00  0.00     0.004 A 
ATOM      8  C   UNL     1      -7.446  11.144  19.262  1.00  0.00     0.004 A 
ATOM      9  C   UNL     1      -7.282  11.231  16.473  1.00  0.00     0.004 A 
ATOM     10  C   UNL     1      -7.362  12.376  18.606  1.00  0.00     0.004 A 
ENDBRANCH   2   4
ENDBRANCH   1   2
BRANCH   1  11
ATOM     11  C   UNL     1      -4.695  14.142  16.049  1.00  0.00     0.028 C 
BRANCH  11  12
ATOM     12  C   UNL     1      -3.586  13.375  15.374  1.00  0.00    -0.028 C 
ATOM     13  C   UNL     1      -3.077  12.208  15.834  1.00  0.00    -0.080 C 
ATOM     14  C   UNL     1      -1.947  11.540  15.094  1.00  0.00     0.039 C 
ATOM     15  C   UNL     1      -3.634  11.517  17.053  1.00  0.00     0.039 C 
ENDBRANCH  11  12
ENDBRANCH   1  11
TORSDOF 4
ENDMDL
MODEL 4
REMARK VINA RESULT:    -5.136      2.421      6.347
REMARK INTER + INTRA:          -7.752
REMARK INTER:                  -6.541
REMARK INTRA:                  -1.211
REMARK UNBOUND:                -1.414
REMARK SMILES CC(C)=CCC[C@H](C)c1ccc(C)cc1
REMARK SMILES IDX 6 1 7 2 8 3 9 4 13 5 12 6 11 7 14 8 10 9 15 10 5 11 4 12
REMARK SMILES IDX 2 13 1 14 3 15
REMARK H PARENT
REMARK Flexibility Score: inf
ROOT
ATOM      1  C   UNL     1      -7.715  12.615  16.200  1.00  0.00     0.012 C 
ENDROOT
BRANCH   1   2
ATOM      2  C   UNL     1      -7.844  11.929  17.579  1.00  0.00     0.016 C 
ATOM      3  C   UNL     1      -7.329  12.817  18.723  1.00  0.00     0.013 C 
BRANCH   2   4
ATOM      4  C   UNL     1      -7.116  10.596  17.576  1.00  0.00    -0.045 A 
ATOM      5  C   UNL     1      -5.035   6.811  17.628  1.00  0.00     0.044 C 
ATOM      6  C   UNL     1      -5.750   8.129  17.582  1.00  0.00    -0.051 A 
ATOM      7  C   UNL     1      -7.100   8.188  17.209  1.00  0.00     0.004 A 
ATOM      8  C   UNL     1      -5.094   9.303  17.977  1.00  0.00     0.004 A 
ATOM      9  C   UNL     1      -7.776   9.411  17.200  1.00  0.00     0.004 A 
ATOM     10  C   UNL     1      -5.768  10.528  17.969  1.00  0.00     0.004 A 
ENDBRANCH   2   4
ENDBRANCH   1   2
BRANCH   1  11
ATOM     11  C   UNL     1      -6.723  13.789  16.213  1.00  0.00     0.028 C 
BRANCH  11  12
ATOM     12  C   UNL     1      -5.461  13.429  15.469  1.00  0.00    -0.028 C 
ATOM     13  C   UNL     1      -4.225  13.433  16.019  1.00  0.00    -0.080 C 
ATOM     14  C   UNL     1      -3.027  13.085  15.174  1.00  0.00     0.039 C 
ATOM     15  C   UNL     1      -3.999  13.737  17.479  1.00  0.00     0.039 C 
ENDBRANCH  11  12
ENDBRANCH   1  11
TORSDOF 4
ENDMDL
MODEL 5
REMARK VINA RESULT:    -5.116      1.776      2.612
REMARK INTER + INTRA:          -7.726
REMARK INTER:                  -7.212
REMARK INTRA:                  -0.514
REMARK UNBOUND:                -1.414
REMARK SMILES CC(C)=CCC[C@H](C)c1ccc(C)cc1
REMARK SMILES IDX 6 1 7 2 8 3 9 4 13 5 12 6 11 7 14 8 10 9 15 10 5 11 4 12
REMARK SMILES IDX 2 13 1 14 3 15
REMARK H PARENT
REMARK Flexibility Score: inf
ROOT
ATOM      1  C   UNL     1      -7.367  12.851  16.455  1.00  0.00     0.012 C 
ENDROOT
BRANCH   1   2
ATOM      2  C   UNL     1      -6.521  13.992  15.848  1.00  0.00     0.016 C 
ATOM      3  C   UNL     1      -5.049  13.591  15.657  1.00  0.00     0.013 C 
BRANCH   2   4
ATOM      4  C   UNL     1      -6.620  15.239  16.709  1.00  0.00    -0.045 A 
ATOM      5  C   UNL     1      -6.858  18.766  19.192  1.00  0.00     0.044 C 
ATOM      6  C   UNL     1      -6.805  17.543  18.325  1.00  0.00    -0.051 A 
ATOM      7  C   UNL     1      -6.579  17.664  16.947  1.00  0.00     0.004 A 
ATOM      8  C   UNL     1      -6.912  16.267  18.896  1.00  0.00     0.004 A 
ATOM      9  C   UNL     1      -6.493  16.522  16.144  1.00  0.00     0.004 A 
ATOM     10  C   UNL     1      -6.826  15.125  18.095  1.00  0.00     0.004 A 
ENDBRANCH   2   4
ENDBRANCH   1   2
BRANCH   1  11
ATOM     11  C   UNL     1      -6.527  11.611  16.801  1.00  0.00     0.028 C 
BRANCH  11  12
ATOM     12  C   UNL     1      -7.417  10.446  17.154  1.00  0.00    -0.028 C 
ATOM     13  C   UNL     1      -6.966   9.251  17.600  1.00  0.00    -0.080 C 
ATOM     14  C   UNL     1      -7.944   8.143  17.895  1.00  0.00     0.039 C 
ATOM     15  C   UNL     1      -5.502   8.993  17.859  1.00  0.00     0.039 C 
ENDBRANCH  11  12
ENDBRANCH   1  11
TORSDOF 4
ENDMDL
MODEL 6
REMARK VINA RESULT:    -5.099      2.020      5.811
REMARK INTER + INTRA:          -7.706
REMARK INTER:                  -6.457
REMARK INTRA:                  -1.249
REMARK UNBOUND:                -1.414
REMARK SMILES CC(C)=CCC[C@H](C)c1ccc(C)cc1
REMARK SMILES IDX 6 1 7 2 8 3 9 4 13 5 12 6 11 7 14 8 10 9 15 10 5 11 4 12
REMARK SMILES IDX 2 13 1 14 3 15
REMARK H PARENT
REMARK Flexibility Score: inf
ROOT
ATOM      1  C   UNL     1      -6.196  13.804  15.698  1.00  0.00     0.012 C 
ENDROOT
BRANCH   1   2
ATOM      2  C   UNL     1      -7.251  13.706  16.822  1.00  0.00     0.016 C 
ATOM      3  C   UNL     1      -6.997  14.716  17.953  1.00  0.00     0.013 C 
BRANCH   2   4
ATOM      4  C   UNL     1      -7.304  12.293  17.376  1.00  0.00    -0.045 A 
ATOM      5  C   UNL     1      -7.401   8.261  18.924  1.00  0.00     0.044 C 
ATOM      6  C   UNL     1      -7.397   9.662  18.387  1.00  0.00    -0.051 A 
ATOM      7  C   UNL     1      -7.365  10.755  19.264  1.00  0.00     0.004 A 
ATOM      8  C   UNL     1      -7.355   9.889  17.004  1.00  0.00     0.004 A 
ATOM      9  C   UNL     1      -7.325  12.060  18.764  1.00  0.00     0.004 A 
ATOM     10  C   UNL     1      -7.315  11.192  16.502  1.00  0.00     0.004 A 
ENDBRANCH   2   4
ENDBRANCH   1   2
BRANCH   1  11
ATOM     11  C   UNL     1      -4.799  14.166  16.228  1.00  0.00     0.028 C 
BRANCH  11  12
ATOM     12  C   UNL     1      -3.732  13.403  15.485  1.00  0.00    -0.028 C 
ATOM     13  C   UNL     1      -3.187  12.241  15.916  1.00  0.00    -0.080 C 
ATOM     14  C   UNL     1      -2.103  11.577  15.107  1.00  0.00     0.039 C 
ATOM     15  C   UNL     1      -3.659  11.552  17.172  1.00  0.00     0.039 C 
ENDBRANCH  11  12
ENDBRANCH   1  11
TORSDOF 4
ENDMDL
MODEL 7
REMARK VINA RESULT:    -4.974      1.724      4.030
REMARK INTER + INTRA:          -7.551
REMARK INTER:                  -6.292
REMARK INTRA:                  -1.259
REMARK UNBOUND:                -1.414
REMARK SMILES CC(C)=CCC[C@H](C)c1ccc(C)cc1
REMARK SMILES IDX 6 1 7 2 8 3 9 4 13 5 12 6 11 7 14 8 10 9 15 10 5 11 4 12
REMARK SMILES IDX 2 13 1 14 3 15
REMARK H PARENT
REMARK Flexibility Score: inf
ROOT
ATOM      1  C   UNL     1      -5.437  13.379  15.575  1.00  0.00     0.012 C 
ENDROOT
BRANCH   1   2
ATOM      2  C   UNL     1      -6.630  13.421  16.555  1.00  0.00     0.016 C 
ATOM      3  C   UNL     1      -7.961  13.067  15.871  1.00  0.00     0.013 C 
BRANCH   2   4
ATOM      4  C   UNL     1      -6.723  14.784  17.218  1.00  0.00    -0.045 A 
ATOM      5  C   UNL     1      -7.040  18.671  19.076  1.00  0.00     0.044 C 
ATOM      6  C   UNL     1      -6.900  17.324  18.431  1.00  0.00    -0.051 A 
ATOM      7  C   UNL     1      -6.790  16.171  19.220  1.00  0.00     0.004 A 
ATOM      8  C   UNL     1      -6.948  17.201  17.035  1.00  0.00     0.004 A 
ATOM      9  C   UNL     1      -6.696  14.912  18.620  1.00  0.00     0.004 A 
ATOM     10  C   UNL     1      -6.854  15.943  16.433  1.00  0.00     0.004 A 
ENDBRANCH   2   4
ENDBRANCH   1   2
BRANCH   1  11
ATOM     11  C   UNL     1      -4.081  13.316  16.296  1.00  0.00     0.028 C 
BRANCH  11  12
ATOM     12  C   UNL     1      -3.045  14.124  15.555  1.00  0.00    -0.028 C 
ATOM     13  C   UNL     1      -2.703  15.395  15.867  1.00  0.00    -0.080 C 
ATOM     14  C   UNL     1      -1.673  16.119  15.039  1.00  0.00     0.039 C 
ATOM     15  C   UNL     1      -3.290  16.113  17.057  1.00  0.00     0.039 C 
ENDBRANCH  11  12
ENDBRANCH   1  11
TORSDOF 4
ENDMDL
MODEL 8
REMARK VINA RESULT:    -4.968      2.061      4.173
REMARK INTER + INTRA:          -7.544
REMARK INTER:                  -5.986
REMARK INTRA:                  -1.559
REMARK UNBOUND:                -1.414
REMARK SMILES CC(C)=CCC[C@H](C)c1ccc(C)cc1
REMARK SMILES IDX 6 1 7 2 8 3 9 4 13 5 12 6 11 7 14 8 10 9 15 10 5 11 4 12
REMARK SMILES IDX 2 13 1 14 3 15
REMARK H PARENT
REMARK Flexibility Score: inf
ROOT
ATOM      1  C   UNL     1      -6.266   9.785  19.111  1.00  0.00     0.012 C 
ENDROOT
BRANCH   1   2
ATOM      2  C   UNL     1      -7.443  10.153  18.181  1.00  0.00     0.016 C 
ATOM      3  C   UNL     1      -7.527   9.232  16.952  1.00  0.00     0.013 C 
BRANCH   2   4
ATOM      4  C   UNL     1      -7.341  11.605  17.747  1.00  0.00    -0.045 A 
ATOM      5  C   UNL     1      -6.994  15.737  16.539  1.00  0.00     0.044 C 
ATOM      6  C   UNL     1      -7.144  14.306  16.962  1.00  0.00    -0.051 A 
ATOM      7  C   UNL     1      -7.372  13.307  16.005  1.00  0.00     0.004 A 
ATOM      8  C   UNL     1      -6.989  13.947  18.308  1.00  0.00     0.004 A 
ATOM      9  C   UNL     1      -7.476  11.969  16.394  1.00  0.00     0.004 A 
ATOM     10  C   UNL     1      -7.092  12.609  18.699  1.00  0.00     0.004 A 
ENDBRANCH   2   4
ENDBRANCH   1   2
BRANCH   1  11
ATOM     11  C   UNL     1      -4.937   9.639  18.354  1.00  0.00     0.028 C 
BRANCH  11  12
ATOM     12  C   UNL     1      -3.934  10.658  18.834  1.00  0.00    -0.028 C 
ATOM     13  C   UNL     1      -3.402  11.628  18.055  1.00  0.00    -0.080 C 
ATOM     14  C   UNL     1      -2.384  12.577  18.632  1.00  0.00     0.039 C 
ATOM     15  C   UNL     1      -3.825  11.827  16.621  1.00  0.00     0.039 C 
ENDBRANCH  11  12
ENDBRANCH   1  11
TORSDOF 4
ENDMDL
MODEL 9
REMARK VINA RESULT:    -4.939      1.992      5.545
REMARK INTER + INTRA:          -7.509
REMARK INTER:                  -7.027
REMARK INTRA:                  -0.482
REMARK UNBOUND:                -1.414
REMARK SMILES CC(C)=CCC[C@H](C)c1ccc(C)cc1
REMARK SMILES IDX 6 1 7 2 8 3 9 4 13 5 12 6 11 7 14 8 10 9 15 10 5 11 4 12
REMARK SMILES IDX 2 13 1 14 3 15
REMARK H PARENT
REMARK Flexibility Score: inf
ROOT
ATOM      1  C   UNL     1      -6.379  14.047  15.708  1.00  0.00     0.012 C 
ENDROOT
BRANCH   1   2
ATOM      2  C   UNL     1      -5.279  13.268  16.463  1.00  0.00     0.016 C 
ATOM      3  C   UNL     1      -3.968  13.187  15.665  1.00  0.00     0.013 C 
BRANCH   2   4
ATOM      4  C   UNL     1      -5.768  11.875  16.819  1.00  0.00    -0.045 A 
ATOM      5  C   UNL     1      -7.143   7.923  17.892  1.00  0.00     0.044 C 
ATOM      6  C   UNL     1      -6.657   9.285  17.493  1.00  0.00    -0.051 A 
ATOM      7  C   UNL     1      -7.529  10.193  16.877  1.00  0.00     0.004 A 
ATOM      8  C   UNL     1      -5.348   9.685  17.795  1.00  0.00     0.004 A 
ATOM      9  C   UNL     1      -7.087  11.475  16.537  1.00  0.00     0.004 A 
ATOM     10  C   UNL     1      -4.904  10.966  17.456  1.00  0.00     0.004 A 
ENDBRANCH   2   4
ENDBRANCH   1   2
BRANCH   1  11
ATOM     11  C   UNL     1      -7.293  14.845  16.651  1.00  0.00     0.028 C 
BRANCH  11  12
ATOM     12  C   UNL     1      -7.008  16.322  16.547  1.00  0.00    -0.028 C 
ATOM     13  C   UNL     1      -6.786  17.131  17.608  1.00  0.00    -0.080 C 
ATOM     14  C   UNL     1      -6.540  18.602  17.391  1.00  0.00     0.039 C 
ATOM     15  C   UNL     1      -6.732  16.604  19.021  1.00  0.00     0.039 C 
ENDBRANCH  11  12
ENDBRANCH   1  11
TORSDOF 4
ENDMDL
