MODEL 1
REMARK VINA RESULT:    -3.751      0.000      0.000
REMARK INTER + INTRA:          -5.071
REMARK INTER:                  -4.847
REMARK INTRA:                  -0.224
REMARK UNBOUND:                -0.224
REMARK SMILES CCCCCCC(=O)[O-]
REMARK SMILES IDX 5 1 6 2 7 3 8 4 9 5 4 6 3 7 2 8 1 9
REMARK H PARENT
REMARK Flexibility Score: inf
ROOT
ATOM      1  C   UNL     1      37.624  23.940  70.027  1.00  0.00     0.006 C 
ENDROOT
BRANCH   1   2
ATOM      2  C   UNL     1      37.789  23.932  71.553  1.00  0.00     0.053 C 
BRANCH   2   3
ATOM      3  C   UNL     1      39.203  24.214  71.960  1.00  0.00     0.041 C 
ATOM      4  O   UNL     1      40.157  23.875  71.211  1.00  0.00    -0.550 OA
ATOM      5  O   UNL     1      39.464  24.885  73.148  1.00  0.00    -0.550 OA
ENDBRANCH   2   3
ENDBRANCH   1   2
BRANCH   1   6
ATOM      6  C   UNL     1      36.149  24.047  69.602  1.00  0.00     0.000 C 
BRANCH   6   7
ATOM      7  C   UNL     1      35.195  24.231  70.796  1.00  0.00    -0.000 C 
BRANCH   7   8
ATOM      8  C   UNL     1      34.098  25.290  70.588  1.00  0.00    -0.003 C 
ATOM      9  C   UNL     1      34.531  26.693  71.013  1.00  0.00     0.004 C 
ENDBRANCH   7   8
ENDBRANCH   6   7
ENDBRANCH   1   6
TORSDOF 5
ENDMDL
MODEL 2
REMARK VINA RESULT:    -3.731      3.159      4.728
REMARK INTER + INTRA:          -5.046
REMARK INTER:                  -4.859
REMARK INTRA:                  -0.187
REMARK UNBOUND:                -0.224
REMARK SMILES CCCCCCC(=O)[O-]
REMARK SMILES IDX 5 1 6 2 7 3 8 4 9 5 4 6 3 7 2 8 1 9
REMARK H PARENT
REMARK Flexibility Score: inf
ROOT
ATOM      1  C   UNL     1      35.279  24.802  69.320  1.00  0.00     0.006 C 
ENDROOT
BRANCH   1   2
ATOM      2  C   UNL     1      34.443  24.804  70.607  1.00  0.00     0.053 C 
BRANCH   2   3
ATOM      3  C   UNL     1      33.958  26.179  70.951  1.00  0.00     0.041 C 
ATOM      4  O   UNL     1      34.780  27.122  71.098  1.00  0.00    -0.550 OA
ATOM      5  O   UNL     1      32.597  26.428  71.072  1.00  0.00    -0.550 OA
ENDBRANCH   2   3
ENDBRANCH   1   2
BRANCH   1   6
ATOM      6  C   UNL     1      36.607  24.043  69.491  1.00  0.00     0.000 C 
BRANCH   6   7
ATOM      7  C   UNL     1      37.155  24.114  70.928  1.00  0.00    -0.000 C 
BRANCH   7   8
ATOM      8  C   UNL     1      38.688  24.195  71.032  1.00  0.00    -0.003 C 
ATOM      9  C   UNL     1      39.184  24.338  72.471  1.00  0.00     0.004 C 
ENDBRANCH   7   8
ENDBRANCH   6   7
ENDBRANCH   1   6
TORSDOF 5
ENDMDL
MODEL 3
REMARK VINA RESULT:    -3.696      3.041      4.647
REMARK INTER + INTRA:          -5.001
REMARK INTER:                  -4.848
REMARK INTRA:                  -0.153
REMARK UNBOUND:                -0.224
REMARK SMILES CCCCCCC(=O)[O-]
REMARK SMILES IDX 5 1 6 2 7 3 8 4 9 5 4 6 3 7 2 8 1 9
REMARK H PARENT
REMARK Flexibility Score: inf
ROOT
ATOM      1  C   UNL     1      36.316  24.257  69.501  1.00  0.00     0.006 C 
ENDROOT
BRANCH   1   2
ATOM      2  C   UNL     1      35.276  24.290  70.629  1.00  0.00     0.053 C 
BRANCH   2   3
ATOM      3  C   UNL     1      34.335  25.446  70.482  1.00  0.00     0.041 C 
ATOM      4  O   UNL     1      33.231  25.293  69.896  1.00  0.00    -0.550 OA
ATOM      5  O   UNL     1      34.660  26.683  71.025  1.00  0.00    -0.550 OA
ENDBRANCH   2   3
ENDBRANCH   1   2
BRANCH   1   6
ATOM      6  C   UNL     1      37.717  23.876  70.012  1.00  0.00     0.000 C 
BRANCH   6   7
ATOM      7  C   UNL     1      37.915  24.195  71.504  1.00  0.00    -0.000 C 
BRANCH   7   8
ATOM      8  C   UNL     1      39.383  24.266  71.960  1.00  0.00    -0.003 C 
ATOM      9  C   UNL     1      39.556  24.938  73.322  1.00  0.00     0.004 C 
ENDBRANCH   7   8
ENDBRANCH   6   7
ENDBRANCH   1   6
TORSDOF 5
ENDMDL
MODEL 4
REMARK VINA RESULT:    -3.645      3.820      5.224
REMARK INTER + INTRA:          -4.935
REMARK INTER:                  -4.780
REMARK INTRA:                  -0.155
REMARK UNBOUND:                -0.224
REMARK SMILES CCCCCCC(=O)[O-]
REMARK SMILES IDX 5 1 6 2 7 3 8 4 9 5 4 6 3 7 2 8 1 9
REMARK H PARENT
REMARK Flexibility Score: inf
ROOT
ATOM      1  C   UNL     1      35.002  25.555  69.590  1.00  0.00     0.006 C 
ENDROOT
BRANCH   1   2
ATOM      2  C   UNL     1      34.259  25.732  70.921  1.00  0.00     0.053 C 
BRANCH   2   3
ATOM      3  C   UNL     1      32.774  25.633  70.744  1.00  0.00     0.041 C 
ATOM      4  O   UNL     1      32.294  25.016  69.758  1.00  0.00    -0.550 OA
ATOM      5  O   UNL     1      31.922  26.191  71.689  1.00  0.00    -0.550 OA
ENDBRANCH   2   3
ENDBRANCH   1   2
BRANCH   1   6
ATOM      6  C   UNL     1      36.029  24.410  69.646  1.00  0.00     0.000 C 
BRANCH   6   7
ATOM      7  C   UNL     1      36.740  24.311  71.007  1.00  0.00    -0.000 C 
BRANCH   7   8
ATOM      8  C   UNL     1      38.215  23.875  70.935  1.00  0.00    -0.003 C 
ATOM      9  C   UNL     1      39.010  24.245  72.188  1.00  0.00     0.004 C 
ENDBRANCH   7   8
ENDBRANCH   6   7
ENDBRANCH   1   6
TORSDOF 5
ENDMDL
MODEL 5
REMARK VINA RESULT:    -3.632      3.881      5.541
REMARK INTER + INTRA:          -4.917
REMARK INTER:                  -4.808
REMARK INTRA:                  -0.109
REMARK UNBOUND:                -0.224
REMARK SMILES CCCCCCC(=O)[O-]
REMARK SMILES IDX 5 1 6 2 7 3 8 4 9 5 4 6 3 7 2 8 1 9
REMARK H PARENT
REMARK Flexibility Score: inf
ROOT
ATOM      1  C   UNL     1      34.847  25.345  70.158  1.00  0.00     0.006 C 
ENDROOT
BRANCH   1   2
ATOM      2  C   UNL     1      33.926  26.146  71.089  1.00  0.00     0.053 C 
BRANCH   2   3
ATOM      3  C   UNL     1      32.489  25.759  70.914  1.00  0.00     0.041 C 
ATOM      4  O   UNL     1      31.575  26.497  71.369  1.00  0.00    -0.550 OA
ATOM      5  O   UNL     1      32.159  24.603  70.218  1.00  0.00    -0.550 OA
ENDBRANCH   2   3
ENDBRANCH   1   2
BRANCH   1   6
ATOM      6  C   UNL     1      35.612  24.240  70.908  1.00  0.00     0.000 C 
BRANCH   6   7
ATOM      7  C   UNL     1      37.110  24.206  70.557  1.00  0.00    -0.000 C 
BRANCH   7   8
ATOM      8  C   UNL     1      38.042  23.877  71.736  1.00  0.00    -0.003 C 
ATOM      9  C   UNL     1      39.501  24.250  71.469  1.00  0.00     0.004 C 
ENDBRANCH   7   8
ENDBRANCH   6   7
ENDBRANCH   1   6
TORSDOF 5
ENDMDL
MODEL 6
REMARK VINA RESULT:    -3.601     18.978     20.029
REMARK INTER + INTRA:          -4.878
REMARK INTER:                  -4.529
REMARK INTRA:                  -0.349
REMARK UNBOUND:                -0.224
REMARK SMILES CCCCCCC(=O)[O-]
REMARK SMILES IDX 5 1 6 2 7 3 8 4 9 5 4 6 3 7 2 8 1 9
REMARK H PARENT
REMARK Flexibility Score: inf
ROOT
ATOM      1  C   UNL     1      38.723  39.914  60.967  1.00  0.00     0.006 C 
ENDROOT
BRANCH   1   2
ATOM      2  C   UNL     1      40.178  40.279  60.638  1.00  0.00     0.053 C 
BRANCH   2   3
ATOM      3  C   UNL     1      40.374  40.508  59.171  1.00  0.00     0.041 C 
ATOM      4  O   UNL     1      39.875  41.523  58.617  1.00  0.00    -0.550 OA
ATOM      5  O   UNL     1      41.139  39.622  58.424  1.00  0.00    -0.550 OA
ENDBRANCH   2   3
ENDBRANCH   1   2
BRANCH   1   6
ATOM      6  C   UNL     1      38.080  40.914  61.944  1.00  0.00     0.000 C 
BRANCH   6   7
ATOM      7  C   UNL     1      39.119  41.708  62.756  1.00  0.00    -0.000 C 
BRANCH   7   8
ATOM      8  C   UNL     1      39.076  43.232  62.546  1.00  0.00    -0.003 C 
ATOM      9  C   UNL     1      38.478  43.633  61.197  1.00  0.00     0.004 C 
ENDBRANCH   7   8
ENDBRANCH   6   7
ENDBRANCH   1   6
TORSDOF 5
ENDMDL
MODEL 7
REMARK VINA RESULT:    -3.477     18.916     19.964
REMARK INTER + INTRA:          -4.718
REMARK INTER:                  -4.314
REMARK INTRA:                  -0.404
REMARK UNBOUND:                -0.224
REMARK SMILES CCCCCCC(=O)[O-]
REMARK SMILES IDX 5 1 6 2 7 3 8 4 9 5 4 6 3 7 2 8 1 9
REMARK H PARENT
REMARK Flexibility Score: inf
ROOT
ATOM      1  C   UNL     1      40.145  42.588  60.093  1.00  0.00     0.006 C 
ENDROOT
BRANCH   1   2
ATOM      2  C   UNL     1      39.926  41.481  59.052  1.00  0.00     0.053 C 
BRANCH   2   3
ATOM      3  C   UNL     1      40.829  40.309  59.290  1.00  0.00     0.041 C 
ATOM      4  O   UNL     1      41.203  39.592  58.325  1.00  0.00    -0.550 OA
ATOM      5  O   UNL     1      41.286  40.031  60.572  1.00  0.00    -0.550 OA
ENDBRANCH   2   3
ENDBRANCH   1   2
BRANCH   1   6
ATOM      6  C   UNL     1      38.864  42.902  60.885  1.00  0.00     0.000 C 
BRANCH   6   7
ATOM      7  C   UNL     1      38.635  41.934  62.060  1.00  0.00    -0.000 C 
BRANCH   7   8
ATOM      8  C   UNL     1      37.484  40.933  61.856  1.00  0.00    -0.003 C 
ATOM      9  C   UNL     1      37.971  39.513  61.564  1.00  0.00     0.004 C 
ENDBRANCH   7   8
ENDBRANCH   6   7
ENDBRANCH   1   6
TORSDOF 5
ENDMDL
MODEL 8
REMARK VINA RESULT:    -3.421      2.066      2.950
REMARK INTER + INTRA:          -4.645
REMARK INTER:                  -4.508
REMARK INTRA:                  -0.137
REMARK UNBOUND:                -0.224
REMARK SMILES CCCCCCC(=O)[O-]
REMARK SMILES IDX 5 1 6 2 7 3 8 4 9 5 4 6 3 7 2 8 1 9
REMARK H PARENT
REMARK Flexibility Score: inf
ROOT
ATOM      1  C   UNL     1      35.108  25.415  70.872  1.00  0.00     0.006 C 
ENDROOT
BRANCH   1   2
ATOM      2  C   UNL     1      35.782  24.039  70.965  1.00  0.00     0.053 C 
BRANCH   2   3
ATOM      3  C   UNL     1      37.250  24.120  70.679  1.00  0.00     0.041 C 
ATOM      4  O   UNL     1      37.656  24.305  69.501  1.00  0.00    -0.550 OA
ATOM      5  O   UNL     1      38.168  24.027  71.717  1.00  0.00    -0.550 OA
ENDBRANCH   2   3
ENDBRANCH   1   2
BRANCH   1   6
ATOM      6  C   UNL     1      33.629  25.310  70.456  1.00  0.00     0.000 C 
BRANCH   6   7
ATOM      7  C   UNL     1      32.767  26.451  71.024  1.00  0.00    -0.000 C 
BRANCH   7   8
ATOM      8  C   UNL     1      31.314  26.062  71.350  1.00  0.00    -0.003 C 
ATOM      9  C   UNL     1      30.958  24.646  70.898  1.00  0.00     0.004 C 
ENDBRANCH   7   8
ENDBRANCH   6   7
ENDBRANCH   1   6
TORSDOF 5
ENDMDL
MODEL 9
REMARK VINA RESULT:    -3.308     19.400     20.480
REMARK INTER + INTRA:          -4.500
REMARK INTER:                  -4.306
REMARK INTRA:                  -0.194
REMARK UNBOUND:                -0.224
REMARK SMILES CCCCCCC(=O)[O-]
REMARK SMILES IDX 5 1 6 2 7 3 8 4 9 5 4 6 3 7 2 8 1 9
REMARK H PARENT
REMARK Flexibility Score: inf
ROOT
ATOM      1  C   UNL     1      38.168  41.191  62.029  1.00  0.00     0.006 C 
ENDROOT
BRANCH   1   2
ATOM      2  C   UNL     1      38.033  42.532  61.295  1.00  0.00     0.053 C 
BRANCH   2   3
ATOM      3  C   UNL     1      38.984  43.557  61.832  1.00  0.00     0.041 C 
ATOM      4  O   UNL     1      38.880  43.955  63.022  1.00  0.00    -0.550 OA
ATOM      5  O   UNL     1      40.008  44.045  61.030  1.00  0.00    -0.550 OA
ENDBRANCH   2   3
ENDBRANCH   1   2
BRANCH   1   6
ATOM      6  C   UNL     1      38.679  40.072  61.104  1.00  0.00     0.000 C 
BRANCH   6   7
ATOM      7  C   UNL     1      40.110  40.322  60.597  1.00  0.00    -0.000 C 
BRANCH   7   8
ATOM      8  C   UNL     1      40.231  40.528  59.077  1.00  0.00    -0.003 C 
ATOM      9  C   UNL     1      41.364  39.714  58.451  1.00  0.00     0.004 C 
ENDBRANCH   7   8
ENDBRANCH   6   7
ENDBRANCH   1   6
TORSDOF 5
ENDMDL
