MODEL 1
REMARK VINA RESULT:    -3.933      0.000      0.000
REMARK INTER + INTRA:          -4.856
REMARK INTER:                  -4.738
REMARK INTRA:                  -0.118
REMARK UNBOUND:                -0.118
REMARK SMILES CC[C@H](C)[C@H]([NH3+])C(=O)[O-]
REMARK SMILES IDX 3 1 4 2 5 3 6 4 7 8 8 9 9 10 2 11 1 12
REMARK H PARENT 6 5 6 6 6 7
REMARK Flexibility Score: inf
ROOT
ATOM      1  C   UNL     1      23.598  -2.438   0.245  1.00  0.00     0.050 C 
ATOM      2  C   UNL     1      24.947  -2.980   0.753  1.00  0.00     0.014 C 
ENDROOT
BRANCH   1   3
ATOM      3  C   UNL     1      22.905  -3.430  -0.742  1.00  0.00     0.230 C 
BRANCH   3   4
ATOM      4  N   UNL     1      22.972  -2.997  -2.145  1.00  0.00    -0.350 N 
ATOM      5  H   UNL     1      23.595  -2.165  -2.256  1.00  0.00     0.345 HD
ATOM      6  H   UNL     1      23.311  -3.776  -2.753  1.00  0.00     0.345 HD
ATOM      7  H   UNL     1      22.013  -2.734  -2.471  1.00  0.00     0.345 HD
ENDBRANCH   3   4
BRANCH   3   8
ATOM      8  C   UNL     1      21.476  -3.691  -0.330  1.00  0.00     0.099 C 
ATOM      9  O   UNL     1      21.070  -4.875  -0.191  1.00  0.00    -0.544 OA
ATOM     10  O   UNL     1      20.609  -2.638  -0.059  1.00  0.00    -0.544 OA
ENDBRANCH   3   8
ENDBRANCH   1   3
BRANCH   1  11
ATOM     11  C   UNL     1      23.680  -0.966  -0.255  1.00  0.00     0.006 C 
ATOM     12  C   UNL     1      22.945   0.069   0.606  1.00  0.00     0.004 C 
ENDBRANCH   1  11
TORSDOF 4
ENDMDL
MODEL 2
REMARK VINA RESULT:    -3.800      1.339      2.002
REMARK INTER + INTRA:          -4.696
REMARK INTER:                  -4.645
REMARK INTRA:                  -0.051
REMARK UNBOUND:                -0.118
REMARK SMILES CC[C@H](C)[C@H]([NH3+])C(=O)[O-]
REMARK SMILES IDX 3 1 4 2 5 3 6 4 7 8 8 9 9 10 2 11 1 12
REMARK H PARENT 6 5 6 6 6 7
REMARK Flexibility Score: inf
ROOT
ATOM      1  C   UNL     1      23.348  -2.969   0.724  1.00  0.00     0.050 C 
ATOM      2  C   UNL     1      22.801  -3.446   2.082  1.00  0.00     0.014 C 
ENDROOT
BRANCH   1   3
ATOM      3  C   UNL     1      22.744  -3.780  -0.466  1.00  0.00     0.230 C 
BRANCH   3   4
ATOM      4  N   UNL     1      23.049  -3.199  -1.781  1.00  0.00    -0.350 N 
ATOM      5  H   UNL     1      23.954  -2.678  -1.765  1.00  0.00     0.345 HD
ATOM      6  H   UNL     1      23.083  -3.945  -2.511  1.00  0.00     0.345 HD
ATOM      7  H   UNL     1      22.290  -2.530  -2.046  1.00  0.00     0.345 HD
ENDBRANCH   3   4
BRANCH   3   8
ATOM      8  C   UNL     1      21.254  -3.963  -0.293  1.00  0.00     0.099 C 
ATOM      9  O   UNL     1      20.482  -2.976  -0.426  1.00  0.00    -0.544 OA
ATOM     10  O   UNL     1      20.716  -5.217  -0.031  1.00  0.00    -0.544 OA
ENDBRANCH   3   8
ENDBRANCH   1   3
BRANCH   1  11
ATOM     11  C   UNL     1      24.898  -2.833   0.703  1.00  0.00     0.006 C 
ATOM     12  C   UNL     1      25.499  -1.917   1.778  1.00  0.00     0.004 C 
ENDBRANCH   1  11
TORSDOF 4
ENDMDL
MODEL 3
REMARK VINA RESULT:    -3.746      2.332      3.627
REMARK INTER + INTRA:          -4.631
REMARK INTER:                  -4.581
REMARK INTRA:                  -0.050
REMARK UNBOUND:                -0.118
REMARK SMILES CC[C@H](C)[C@H]([NH3+])C(=O)[O-]
REMARK SMILES IDX 3 1 4 2 5 3 6 4 7 8 8 9 9 10 2 11 1 12
REMARK H PARENT 6 5 6 6 6 7
REMARK Flexibility Score: inf
ROOT
ATOM      1  C   UNL     1      22.344  -4.137   0.516  1.00  0.00     0.050 C 
ATOM      2  C   UNL     1      22.271  -3.753   2.005  1.00  0.00     0.014 C 
ENDROOT
BRANCH   1   3
ATOM      3  C   UNL     1      22.816  -2.943  -0.373  1.00  0.00     0.230 C 
BRANCH   3   4
ATOM      4  N   UNL     1      23.040  -3.315  -1.776  1.00  0.00    -0.350 N 
ATOM      5  H   UNL     1      24.050  -3.237  -2.033  1.00  0.00     0.345 HD
ATOM      6  H   UNL     1      22.704  -4.287  -1.955  1.00  0.00     0.345 HD
ATOM      7  H   UNL     1      22.494  -2.672  -2.395  1.00  0.00     0.345 HD
ENDBRANCH   3   4
BRANCH   3   8
ATOM      8  C   UNL     1      24.046  -2.289   0.211  1.00  0.00     0.099 C 
ATOM      9  O   UNL     1      24.042  -1.053   0.456  1.00  0.00    -0.544 OA
ATOM     10  O   UNL     1      25.172  -3.041   0.524  1.00  0.00    -0.544 OA
ENDBRANCH   3   8
ENDBRANCH   1   3
BRANCH   1  11
ATOM     11  C   UNL     1      21.065  -4.865   0.010  1.00  0.00     0.006 C 
ATOM     12  C   UNL     1      19.750  -4.095   0.184  1.00  0.00     0.004 C 
ENDBRANCH   1  11
TORSDOF 4
ENDMDL
MODEL 4
REMARK VINA RESULT:    -3.440      2.250      3.038
REMARK INTER + INTRA:          -4.261
REMARK INTER:                  -4.176
REMARK INTRA:                  -0.085
REMARK UNBOUND:                -0.118
REMARK SMILES CC[C@H](C)[C@H]([NH3+])C(=O)[O-]
REMARK SMILES IDX 3 1 4 2 5 3 6 4 7 8 8 9 9 10 2 11 1 12
REMARK H PARENT 6 5 6 6 6 7
REMARK Flexibility Score: inf
ROOT
ATOM      1  C   UNL     1      21.372  -3.733   0.018  1.00  0.00     0.050 C 
ATOM      2  C   UNL     1      21.790  -5.067   0.663  1.00  0.00     0.014 C 
ENDROOT
BRANCH   1   3
ATOM      3  C   UNL     1      22.607  -2.874  -0.400  1.00  0.00     0.230 C 
BRANCH   3   4
ATOM      4  N   UNL     1      23.099  -3.180  -1.751  1.00  0.00    -0.350 N 
ATOM      5  H   UNL     1      24.017  -3.677  -1.717  1.00  0.00     0.345 HD
ATOM      6  H   UNL     1      22.402  -3.758  -2.271  1.00  0.00     0.345 HD
ATOM      7  H   UNL     1      23.229  -2.287  -2.281  1.00  0.00     0.345 HD
ENDBRANCH   3   4
BRANCH   3   8
ATOM      8  C   UNL     1      23.718  -2.997   0.615  1.00  0.00     0.099 C 
ATOM      9  O   UNL     1      24.831  -3.477   0.272  1.00  0.00    -0.544 OA
ATOM     10  O   UNL     1      23.545  -2.547   1.920  1.00  0.00    -0.544 OA
ENDBRANCH   3   8
ENDBRANCH   1   3
BRANCH   1  11
ATOM     11  C   UNL     1      20.291  -2.970   0.839  1.00  0.00     0.006 C 
ATOM     12  C   UNL     1      20.285  -1.445   0.673  1.00  0.00     0.004 C 
ENDBRANCH   1  11
TORSDOF 4
ENDMDL
MODEL 5
REMARK VINA RESULT:    -3.390      2.246      2.468
REMARK INTER + INTRA:          -4.201
REMARK INTER:                  -4.034
REMARK INTRA:                  -0.167
REMARK UNBOUND:                -0.118
REMARK SMILES CC[C@H](C)[C@H]([NH3+])C(=O)[O-]
REMARK SMILES IDX 3 1 4 2 5 3 6 4 7 8 8 9 9 10 2 11 1 12
REMARK H PARENT 6 5 6 6 6 7
REMARK Flexibility Score: inf
ROOT
ATOM      1  C   UNL     1      23.767  -1.775   2.224  1.00  0.00     0.050 C 
ATOM      2  C   UNL     1      23.875  -2.294   3.669  1.00  0.00     0.014 C 
ENDROOT
BRANCH   1   3
ATOM      3  C   UNL     1      24.170  -2.865   1.180  1.00  0.00     0.230 C 
BRANCH   3   4
ATOM      4  N   UNL     1      25.518  -2.671   0.627  1.00  0.00    -0.350 N 
ATOM      5  H   UNL     1      26.209  -2.450   1.379  1.00  0.00     0.345 HD
ATOM      6  H   UNL     1      25.824  -3.521   0.104  1.00  0.00     0.345 HD
ATOM      7  H   UNL     1      25.501  -1.872  -0.048  1.00  0.00     0.345 HD
ENDBRANCH   3   4
BRANCH   3   8
ATOM      8  C   UNL     1      23.146  -2.958   0.075  1.00  0.00     0.099 C 
ATOM      9  O   UNL     1      23.429  -3.562  -0.993  1.00  0.00    -0.544 OA
ATOM     10  O   UNL     1      21.873  -2.422   0.236  1.00  0.00    -0.544 OA
ENDBRANCH   3   8
ENDBRANCH   1   3
BRANCH   1  11
ATOM     11  C   UNL     1      24.448  -0.390   2.020  1.00  0.00     0.006 C 
ATOM     12  C   UNL     1      23.630   0.642   1.232  1.00  0.00     0.004 C 
ENDBRANCH   1  11
TORSDOF 4
ENDMDL
MODEL 6
REMARK VINA RESULT:    -3.348     14.340     15.615
REMARK INTER + INTRA:          -4.150
REMARK INTER:                  -4.162
REMARK INTRA:                   0.012
REMARK UNBOUND:                -0.118
REMARK SMILES CC[C@H](C)[C@H]([NH3+])C(=O)[O-]
REMARK SMILES IDX 3 1 4 2 5 3 6 4 7 8 8 9 9 10 2 11 1 12
REMARK H PARENT 6 5 6 6 6 7
REMARK Flexibility Score: inf
ROOT
ATOM      1  C   UNL     1      34.215  -3.949  11.305  1.00  0.00     0.050 C 
ATOM      2  C   UNL     1      33.870  -2.581  11.921  1.00  0.00     0.014 C 
ENDROOT
BRANCH   1   3
ATOM      3  C   UNL     1      33.393  -4.229  10.007  1.00  0.00     0.230 C 
BRANCH   3   4
ATOM      4  N   UNL     1      33.489  -3.150   9.014  1.00  0.00    -0.350 N 
ATOM      5  H   UNL     1      32.917  -2.323   9.297  1.00  0.00     0.345 HD
ATOM      6  H   UNL     1      34.484  -2.864   8.880  1.00  0.00     0.345 HD
ATOM      7  H   UNL     1      33.132  -3.496   8.093  1.00  0.00     0.345 HD
ENDBRANCH   3   4
BRANCH   3   8
ATOM      8  C   UNL     1      31.950  -4.528  10.337  1.00  0.00     0.099 C 
ATOM      9  O   UNL     1      31.124  -3.584  10.449  1.00  0.00    -0.544 OA
ATOM     10  O   UNL     1      31.508  -5.839  10.476  1.00  0.00    -0.544 OA
ENDBRANCH   3   8
ENDBRANCH   1   3
BRANCH   1  11
ATOM     11  C   UNL     1      34.209  -5.107  12.346  1.00  0.00     0.006 C 
ATOM     12  C   UNL     1      35.278  -6.189  12.143  1.00  0.00     0.004 C 
ENDBRANCH   1  11
TORSDOF 4
ENDMDL
MODEL 7
REMARK VINA RESULT:    -3.344     13.866     14.991
REMARK INTER + INTRA:          -4.146
REMARK INTER:                  -4.042
REMARK INTRA:                  -0.105
REMARK UNBOUND:                -0.118
REMARK SMILES CC[C@H](C)[C@H]([NH3+])C(=O)[O-]
REMARK SMILES IDX 3 1 4 2 5 3 6 4 7 8 8 9 9 10 2 11 1 12
REMARK H PARENT 6 5 6 6 6 7
REMARK Flexibility Score: inf
ROOT
ATOM      1  C   UNL     1      32.085  -3.739  10.575  1.00  0.00     0.050 C 
ATOM      2  C   UNL     1      30.604  -4.149  10.661  1.00  0.00     0.014 C 
ENDROOT
BRANCH   1   3
ATOM      3  C   UNL     1      32.977  -4.888  10.007  1.00  0.00     0.230 C 
BRANCH   3   4
ATOM      4  N   UNL     1      33.028  -4.914   8.539  1.00  0.00    -0.350 N 
ATOM      5  H   UNL     1      33.852  -4.383   8.178  1.00  0.00     0.345 HD
ATOM      6  H   UNL     1      33.061  -5.898   8.191  1.00  0.00     0.345 HD
ATOM      7  H   UNL     1      32.160  -4.472   8.156  1.00  0.00     0.345 HD
ENDBRANCH   3   4
BRANCH   3   8
ATOM      8  C   UNL     1      32.542  -6.228  10.552  1.00  0.00     0.099 C 
ATOM      9  O   UNL     1      32.010  -7.074   9.785  1.00  0.00    -0.544 OA
ATOM     10  O   UNL     1      32.759  -6.560  11.884  1.00  0.00    -0.544 OA
ENDBRANCH   3   8
ENDBRANCH   1   3
BRANCH   1  11
ATOM     11  C   UNL     1      32.615  -3.085  11.885  1.00  0.00     0.006 C 
ATOM     12  C   UNL     1      34.139  -2.948  11.989  1.00  0.00     0.004 C 
ENDBRANCH   1  11
TORSDOF 4
ENDMDL
MODEL 8
REMARK VINA RESULT:    -3.341      3.077      4.541
REMARK INTER + INTRA:          -4.142
REMARK INTER:                  -4.069
REMARK INTRA:                  -0.073
REMARK UNBOUND:                -0.118
REMARK SMILES CC[C@H](C)[C@H]([NH3+])C(=O)[O-]
REMARK SMILES IDX 3 1 4 2 5 3 6 4 7 8 8 9 9 10 2 11 1 12
REMARK H PARENT 6 5 6 6 6 7
REMARK Flexibility Score: inf
ROOT
ATOM      1  C   UNL     1      20.918  -4.983   1.934  1.00  0.00     0.050 C 
ATOM      2  C   UNL     1      19.989  -4.589   3.097  1.00  0.00     0.014 C 
ENDROOT
BRANCH   1   3
ATOM      3  C   UNL     1      20.415  -4.418   0.567  1.00  0.00     0.230 C 
BRANCH   3   4
ATOM      4  N   UNL     1      20.055  -5.465  -0.399  1.00  0.00    -0.350 N 
ATOM      5  H   UNL     1      19.182  -5.219  -0.918  1.00  0.00     0.345 HD
ATOM      6  H   UNL     1      20.836  -5.624  -1.073  1.00  0.00     0.345 HD
ATOM      7  H   UNL     1      19.889  -6.363   0.112  1.00  0.00     0.345 HD
ENDBRANCH   3   4
BRANCH   3   8
ATOM      8  C   UNL     1      21.425  -3.465  -0.027  1.00  0.00     0.099 C 
ATOM      9  O   UNL     1      22.067  -3.796  -1.059  1.00  0.00    -0.544 OA
ATOM     10  O   UNL     1      21.627  -2.206   0.526  1.00  0.00    -0.544 OA
ENDBRANCH   3   8
ENDBRANCH   1   3
BRANCH   1  11
ATOM     11  C   UNL     1      21.276  -6.498   1.924  1.00  0.00     0.006 C 
ATOM     12  C   UNL     1      21.032  -7.247   3.240  1.00  0.00     0.004 C 
ENDBRANCH   1  11
TORSDOF 4
ENDMDL
MODEL 9
REMARK VINA RESULT:    -3.315     15.604     16.207
REMARK INTER + INTRA:          -4.111
REMARK INTER:                  -4.036
REMARK INTRA:                  -0.075
REMARK UNBOUND:                -0.118
REMARK SMILES CC[C@H](C)[C@H]([NH3+])C(=O)[O-]
REMARK SMILES IDX 3 1 4 2 5 3 6 4 7 8 8 9 9 10 2 11 1 12
REMARK H PARENT 6 5 6 6 6 7
REMARK Flexibility Score: inf
ROOT
ATOM      1  C   UNL     1      32.206  -3.969  12.879  1.00  0.00     0.050 C 
ATOM      2  C   UNL     1      32.253  -4.301  14.382  1.00  0.00     0.014 C 
ENDROOT
BRANCH   1   3
ATOM      3  C   UNL     1      33.595  -4.170  12.193  1.00  0.00     0.230 C 
BRANCH   3   4
ATOM      4  N   UNL     1      34.640  -3.283  12.722  1.00  0.00    -0.350 N 
ATOM      5  H   UNL     1      34.788  -2.457  12.100  1.00  0.00     0.345 HD
ATOM      6  H   UNL     1      34.394  -2.961  13.685  1.00  0.00     0.345 HD
ATOM      7  H   UNL     1      35.541  -3.811  12.786  1.00  0.00     0.345 HD
ENDBRANCH   3   4
BRANCH   3   8
ATOM      8  C   UNL     1      33.481  -4.029  10.694  1.00  0.00     0.099 C 
ATOM      9  O   UNL     1      33.974  -3.022  10.120  1.00  0.00    -0.544 OA
ATOM     10  O   UNL     1      32.875  -5.020   9.929  1.00  0.00    -0.544 OA
ENDBRANCH   3   8
ENDBRANCH   1   3
BRANCH   1  11
ATOM     11  C   UNL     1      31.518  -2.605  12.577  1.00  0.00     0.006 C 
ATOM     12  C   UNL     1      30.217  -2.333  13.342  1.00  0.00     0.004 C 
ENDBRANCH   1  11
TORSDOF 4
ENDMDL
