MODEL 1
REMARK VINA RESULT:    -7.240      0.000      0.000
REMARK INTER + INTRA:          -8.686
REMARK INTER:                  -8.510
REMARK INTRA:                  -0.177
REMARK UNBOUND:                -0.177
REMARK SMILES O=c1c(O)c(-c2ccc(O)cc2)oc2cc(O)cc(O)c12
REMARK SMILES IDX 5 1 3 2 2 3 1 4 21 5 19 6 18 7 16 8 15 9 14 10 13 11 6 12
REMARK SMILES IDX 7 13 8 14 9 15 12 16 11 17 10 18 4 20 20 22 17 24
REMARK H PARENT 10 19 4 21 20 23 17 25
REMARK Flexibility Score: inf
ROOT
ATOM      1  C   UNL     1      -1.282  40.067  32.435  1.00  0.00     0.180 A 
ATOM      2  C   UNL     1      -1.415  38.893  33.203  1.00  0.00     0.208 A 
ATOM      3  C   UNL     1      -0.389  38.548  34.096  1.00  0.00     0.238 A 
ATOM      4  O   UNL     1      -0.491  37.493  34.781  1.00  0.00    -0.285 OA
ATOM      5  C   UNL     1       0.738  39.386  34.222  1.00  0.00     0.111 A 
ATOM      6  C   UNL     1       1.813  39.111  35.101  1.00  0.00     0.134 A 
ATOM      7  C   UNL     1       2.895  40.001  35.176  1.00  0.00     0.093 A 
ATOM      8  C   UNL     1       2.922  41.158  34.389  1.00  0.00     0.123 A 
ATOM      9  C   UNL     1       1.864  41.433  33.520  1.00  0.00     0.094 A 
ATOM     10  C   UNL     1       0.777  40.558  33.430  1.00  0.00     0.146 A 
ATOM     11  O   UNL     1      -0.212  40.842  32.592  1.00  0.00    -0.452 OA
ENDROOT
BRANCH   1  12
ATOM     12  C   UNL     1      -2.312  40.489  31.459  1.00  0.00     0.021 A 
ATOM     13  C   UNL     1      -3.002  41.695  31.660  1.00  0.00     0.016 A 
ATOM     14  C   UNL     1      -3.963  42.125  30.739  1.00  0.00     0.047 A 
ATOM     15  C   UNL     1      -4.234  41.362  29.599  1.00  0.00     0.115 A 
ATOM     16  C   UNL     1      -2.575  39.736  30.299  1.00  0.00     0.016 A 
ATOM     17  C   UNL     1      -3.536  40.168  29.380  1.00  0.00     0.047 A 
BRANCH  15  18
ATOM     18  O   UNL     1      -5.194  41.801  28.690  1.00  0.00    -0.508 OA
ATOM     19  H   UNL     1      -5.162  41.529  27.714  1.00  0.00     0.293 HD
ENDBRANCH  15  18
ENDBRANCH   1  12
BRANCH   2  20
ATOM     20  O   UNL     1      -2.564  38.106  33.095  1.00  0.00    -0.502 OA
ATOM     21  H   UNL     1      -2.757  37.536  32.280  1.00  0.00     0.293 HD
ENDBRANCH   2  20
BRANCH   6  22
ATOM     22  O   UNL     1       1.815  37.966  35.899  1.00  0.00    -0.507 OA
ATOM     23  H   UNL     1       2.610  37.719  36.476  1.00  0.00     0.293 HD
ENDBRANCH   6  22
BRANCH   8  24
ATOM     24  O   UNL     1       3.996  42.043  34.464  1.00  0.00    -0.508 OA
ATOM     25  H   UNL     1       4.908  41.743  34.787  1.00  0.00     0.293 HD
ENDBRANCH   8  24
TORSDOF 5
ENDMDL
MODEL 2
REMARK VINA RESULT:    -5.930     12.377     14.961
REMARK INTER + INTRA:          -7.147
REMARK INTER:                  -6.935
REMARK INTRA:                  -0.212
REMARK UNBOUND:                -0.177
REMARK SMILES O=c1c(O)c(-c2ccc(O)cc2)oc2cc(O)cc(O)c12
REMARK SMILES IDX 5 1 3 2 2 3 1 4 21 5 19 6 18 7 16 8 15 9 14 10 13 11 6 12
REMARK SMILES IDX 7 13 8 14 9 15 12 16 11 17 10 18 4 20 20 22 17 24
REMARK H PARENT 10 19 4 21 20 23 17 25
REMARK Flexibility Score: inf
ROOT
ATOM      1  C   UNL     1      -1.213  26.231  36.941  1.00  0.00     0.180 A 
ATOM      2  C   UNL     1      -0.439  25.221  36.336  1.00  0.00     0.208 A 
ATOM      3  C   UNL     1       0.205  25.497  35.121  1.00  0.00     0.238 A 
ATOM      4  O   UNL     1       0.893  24.597  34.564  1.00  0.00    -0.285 OA
ATOM      5  C   UNL     1       0.084  26.777  34.542  1.00  0.00     0.111 A 
ATOM      6  C   UNL     1       0.705  27.137  33.321  1.00  0.00     0.134 A 
ATOM      7  C   UNL     1       0.544  28.435  32.816  1.00  0.00     0.093 A 
ATOM      8  C   UNL     1      -0.226  29.378  33.506  1.00  0.00     0.123 A 
ATOM      9  C   UNL     1      -0.841  29.028  34.709  1.00  0.00     0.094 A 
ATOM     10  C   UNL     1      -0.693  27.738  35.229  1.00  0.00     0.146 A 
ATOM     11  O   UNL     1      -1.293  27.431  36.373  1.00  0.00    -0.452 OA
ENDROOT
BRANCH   1  12
ATOM     12  C   UNL     1      -1.939  26.010  38.212  1.00  0.00     0.021 A 
ATOM     13  C   UNL     1      -1.534  26.701  39.367  1.00  0.00     0.016 A 
ATOM     14  C   UNL     1      -2.218  26.525  40.574  1.00  0.00     0.047 A 
ATOM     15  C   UNL     1      -3.324  25.671  40.638  1.00  0.00     0.115 A 
ATOM     16  C   UNL     1      -3.064  25.169  38.279  1.00  0.00     0.016 A 
ATOM     17  C   UNL     1      -3.747  24.996  39.487  1.00  0.00     0.047 A 
BRANCH  15  18
ATOM     18  O   UNL     1      -3.996  25.506  41.847  1.00  0.00    -0.508 OA
ATOM     19  H   UNL     1      -3.970  24.627  42.350  1.00  0.00     0.293 HD
ENDBRANCH  15  18
ENDBRANCH   1  12
BRANCH   2  20
ATOM     20  O   UNL     1      -0.294  23.977  36.955  1.00  0.00    -0.502 OA
ATOM     21  H   UNL     1      -0.912  23.662  37.693  1.00  0.00     0.293 HD
ENDBRANCH   2  20
BRANCH   6  22
ATOM     22  O   UNL     1       1.479  26.219  32.611  1.00  0.00    -0.507 OA
ATOM     23  H   UNL     1       1.093  25.671  31.851  1.00  0.00     0.293 HD
ENDBRANCH   6  22
BRANCH   8  24
ATOM     24  O   UNL     1      -0.386  30.669  33.004  1.00  0.00    -0.508 OA
ATOM     25  H   UNL     1       0.349  31.361  33.080  1.00  0.00     0.293 HD
ENDBRANCH   8  24
TORSDOF 5
ENDMDL
MODEL 3
REMARK VINA RESULT:    -5.733     12.328     15.016
REMARK INTER + INTRA:          -6.915
REMARK INTER:                  -6.671
REMARK INTRA:                  -0.244
REMARK UNBOUND:                -0.177
REMARK SMILES O=c1c(O)c(-c2ccc(O)cc2)oc2cc(O)cc(O)c12
REMARK SMILES IDX 5 1 3 2 2 3 1 4 21 5 19 6 18 7 16 8 15 9 14 10 13 11 6 12
REMARK SMILES IDX 7 13 8 14 9 15 12 16 11 17 10 18 4 20 20 22 17 24
REMARK H PARENT 10 19 4 21 20 23 17 25
REMARK Flexibility Score: inf
ROOT
ATOM      1  C   UNL     1      -1.237  26.790  36.677  1.00  0.00     0.180 A 
ATOM      2  C   UNL     1      -1.430  28.014  36.007  1.00  0.00     0.208 A 
ATOM      3  C   UNL     1      -0.783  28.225  34.780  1.00  0.00     0.238 A 
ATOM      4  O   UNL     1      -0.939  29.322  34.176  1.00  0.00    -0.285 OA
ATOM      5  C   UNL     1       0.027  27.208  34.234  1.00  0.00     0.111 A 
ATOM      6  C   UNL     1       0.711  27.339  33.002  1.00  0.00     0.134 A 
ATOM      7  C   UNL     1       1.490  26.276  32.521  1.00  0.00     0.093 A 
ATOM      8  C   UNL     1       1.598  25.086  33.250  1.00  0.00     0.123 A 
ATOM      9  C   UNL     1       0.926  24.952  34.466  1.00  0.00     0.094 A 
ATOM     10  C   UNL     1       0.146  26.001  34.963  1.00  0.00     0.146 A 
ATOM     11  O   UNL     1      -0.478  25.847  36.125  1.00  0.00    -0.452 OA
ENDROOT
BRANCH   1  12
ATOM     12  C   UNL     1      -1.870  26.500  37.983  1.00  0.00     0.021 A 
ATOM     13  C   UNL     1      -2.924  25.574  38.049  1.00  0.00     0.016 A 
ATOM     14  C   UNL     1      -3.523  25.268  39.276  1.00  0.00     0.047 A 
ATOM     15  C   UNL     1      -3.064  25.869  40.452  1.00  0.00     0.115 A 
ATOM     16  C   UNL     1      -1.400  27.086  39.172  1.00  0.00     0.016 A 
ATOM     17  C   UNL     1      -2.000  26.778  40.397  1.00  0.00     0.047 A 
BRANCH  15  18
ATOM     18  O   UNL     1      -3.670  25.555  41.666  1.00  0.00    -0.508 OA
ATOM     19  H   UNL     1      -4.676  25.473  41.750  1.00  0.00     0.293 HD
ENDBRANCH  15  18
ENDBRANCH   1  12
BRANCH   2  20
ATOM     20  O   UNL     1      -2.276  28.987  36.545  1.00  0.00    -0.502 OA
ATOM     21  H   UNL     1      -3.211  28.774  36.869  1.00  0.00     0.293 HD
ENDBRANCH   2  20
BRANCH   6  22
ATOM     22  O   UNL     1       0.622  28.513  32.252  1.00  0.00    -0.507 OA
ATOM     23  H   UNL     1       0.987  28.573  31.310  1.00  0.00     0.293 HD
ENDBRANCH   6  22
BRANCH   8  24
ATOM     24  O   UNL     1       2.371  24.029  32.772  1.00  0.00    -0.508 OA
ATOM     25  H   UNL     1       2.665  23.984  31.804  1.00  0.00     0.293 HD
ENDBRANCH   8  24
TORSDOF 5
ENDMDL
MODEL 4
REMARK VINA RESULT:    -5.624     12.414     14.676
REMARK INTER + INTRA:          -6.787
REMARK INTER:                  -6.502
REMARK INTRA:                  -0.284
REMARK UNBOUND:                -0.177
REMARK SMILES O=c1c(O)c(-c2ccc(O)cc2)oc2cc(O)cc(O)c12
REMARK SMILES IDX 5 1 3 2 2 3 1 4 21 5 19 6 18 7 16 8 15 9 14 10 13 11 6 12
REMARK SMILES IDX 7 13 8 14 9 15 12 16 11 17 10 18 4 20 20 22 17 24
REMARK H PARENT 10 19 4 21 20 23 17 25
REMARK Flexibility Score: inf
ROOT
ATOM      1  C   UNL     1      -1.388  26.782  35.438  1.00  0.00     0.180 A 
ATOM      2  C   UNL     1      -2.758  26.501  35.266  1.00  0.00     0.208 A 
ATOM      3  C   UNL     1      -3.469  25.920  36.327  1.00  0.00     0.238 A 
ATOM      4  O   UNL     1      -4.694  25.653  36.181  1.00  0.00    -0.285 OA
ATOM      5  C   UNL     1      -2.810  25.650  37.544  1.00  0.00     0.111 A 
ATOM      6  C   UNL     1      -3.455  25.070  38.662  1.00  0.00     0.134 A 
ATOM      7  C   UNL     1      -2.731  24.842  39.842  1.00  0.00     0.093 A 
ATOM      8  C   UNL     1      -1.376  25.182  39.923  1.00  0.00     0.123 A 
ATOM      9  C   UNL     1      -0.735  25.753  38.822  1.00  0.00     0.094 A 
ATOM     10  C   UNL     1      -1.439  25.987  37.637  1.00  0.00     0.146 A 
ATOM     11  O   UNL     1      -0.803  26.528  36.604  1.00  0.00    -0.452 OA
ENDROOT
BRANCH   1  12
ATOM     12  C   UNL     1      -0.566  27.376  34.359  1.00  0.00     0.021 A 
ATOM     13  C   UNL     1      -0.521  28.772  34.214  1.00  0.00     0.016 A 
ATOM     14  C   UNL     1       0.266  29.356  33.217  1.00  0.00     0.047 A 
ATOM     15  C   UNL     1       1.030  28.554  32.364  1.00  0.00     0.115 A 
ATOM     16  C   UNL     1       0.221  26.575  33.511  1.00  0.00     0.016 A 
ATOM     17  C   UNL     1       1.008  27.162  32.515  1.00  0.00     0.047 A 
BRANCH  15  18
ATOM     18  O   UNL     1       1.810  29.149  31.374  1.00  0.00    -0.508 OA
ATOM     19  H   UNL     1       2.796  28.936  31.279  1.00  0.00     0.293 HD
ENDBRANCH  15  18
ENDBRANCH   1  12
BRANCH   2  20
ATOM     20  O   UNL     1      -3.399  26.823  34.067  1.00  0.00    -0.502 OA
ATOM     21  H   UNL     1      -3.072  27.562  33.458  1.00  0.00     0.293 HD
ENDBRANCH   2  20
BRANCH   6  22
ATOM     22  O   UNL     1      -4.805  24.721  38.612  1.00  0.00    -0.507 OA
ATOM     23  H   UNL     1      -5.508  25.234  39.131  1.00  0.00     0.293 HD
ENDBRANCH   6  22
BRANCH   8  24
ATOM     24  O   UNL     1      -0.656  24.956  41.095  1.00  0.00    -0.508 OA
ATOM     25  H   UNL     1       0.295  25.287  41.205  1.00  0.00     0.293 HD
ENDBRANCH   8  24
TORSDOF 5
ENDMDL
MODEL 5
REMARK VINA RESULT:    -5.610     12.192     14.347
REMARK INTER + INTRA:          -6.771
REMARK INTER:                  -6.490
REMARK INTRA:                  -0.282
REMARK UNBOUND:                -0.177
REMARK SMILES O=c1c(O)c(-c2ccc(O)cc2)oc2cc(O)cc(O)c12
REMARK SMILES IDX 5 1 3 2 2 3 1 4 21 5 19 6 18 7 16 8 15 9 14 10 13 11 6 12
REMARK SMILES IDX 7 13 8 14 9 15 12 16 11 17 10 18 4 20 20 22 17 24
REMARK H PARENT 10 19 4 21 20 23 17 25
REMARK Flexibility Score: inf
ROOT
ATOM      1  C   UNL     1       1.513  27.129  31.027  1.00  0.00     0.180 A 
ATOM      2  C   UNL     1       1.691  28.387  31.635  1.00  0.00     0.208 A 
ATOM      3  C   UNL     1       0.898  28.723  32.742  1.00  0.00     0.238 A 
ATOM      4  O   UNL     1       1.040  29.851  33.289  1.00  0.00    -0.285 OA
ATOM      5  C   UNL     1      -0.042  27.795  33.234  1.00  0.00     0.111 A 
ATOM      6  C   UNL     1      -0.878  28.054  34.347  1.00  0.00     0.134 A 
ATOM      7  C   UNL     1      -1.782  27.073  34.782  1.00  0.00     0.093 A 
ATOM      8  C   UNL     1      -1.866  25.841  34.126  1.00  0.00     0.123 A 
ATOM      9  C   UNL     1      -1.045  25.580  33.027  1.00  0.00     0.094 A 
ATOM     10  C   UNL     1      -0.138  26.545  32.578  1.00  0.00     0.146 A 
ATOM     11  O   UNL     1       0.628  26.272  31.528  1.00  0.00    -0.452 OA
ENDROOT
BRANCH   1  12
ATOM     12  C   UNL     1       2.298  26.709  29.844  1.00  0.00     0.021 A 
ATOM     13  C   UNL     1       3.377  25.824  30.010  1.00  0.00     0.016 A 
ATOM     14  C   UNL     1       4.119  25.396  28.905  1.00  0.00     0.047 A 
ATOM     15  C   UNL     1       3.783  25.833  27.620  1.00  0.00     0.115 A 
ATOM     16  C   UNL     1       1.953  27.129  28.547  1.00  0.00     0.016 A 
ATOM     17  C   UNL     1       2.697  26.699  27.443  1.00  0.00     0.047 A 
BRANCH  15  18
ATOM     18  O   UNL     1       4.531  25.400  26.527  1.00  0.00    -0.508 OA
ATOM     19  H   UNL     1       4.327  25.717  25.587  1.00  0.00     0.293 HD
ENDBRANCH  15  18
ENDBRANCH   1  12
BRANCH   2  20
ATOM     20  O   UNL     1       2.664  29.270  31.159  1.00  0.00    -0.502 OA
ATOM     21  H   UNL     1       2.429  30.109  30.642  1.00  0.00     0.293 HD
ENDBRANCH   2  20
BRANCH   6  22
ATOM     22  O   UNL     1      -0.817  29.274  35.023  1.00  0.00    -0.507 OA
ATOM     23  H   UNL     1      -1.652  29.799  35.251  1.00  0.00     0.293 HD
ENDBRANCH   6  22
BRANCH   8  24
ATOM     24  O   UNL     1      -2.763  24.865  34.558  1.00  0.00    -0.508 OA
ATOM     25  H   UNL     1      -2.445  23.964  34.894  1.00  0.00     0.293 HD
ENDBRANCH   8  24
TORSDOF 5
ENDMDL
MODEL 6
REMARK VINA RESULT:    -5.444     13.202     14.946
REMARK INTER + INTRA:          -6.576
REMARK INTER:                  -6.281
REMARK INTRA:                  -0.295
REMARK UNBOUND:                -0.177
REMARK SMILES O=c1c(O)c(-c2ccc(O)cc2)oc2cc(O)cc(O)c12
REMARK SMILES IDX 5 1 3 2 2 3 1 4 21 5 19 6 18 7 16 8 15 9 14 10 13 11 6 12
REMARK SMILES IDX 7 13 8 14 9 15 12 16 11 17 10 18 4 20 20 22 17 24
REMARK H PARENT 10 19 4 21 20 23 17 25
REMARK Flexibility Score: inf
ROOT
ATOM      1  C   UNL     1       2.096  26.783  30.846  1.00  0.00     0.180 A 
ATOM      2  C   UNL     1       1.639  26.595  29.527  1.00  0.00     0.208 A 
ATOM      3  C   UNL     1       2.500  26.004  28.589  1.00  0.00     0.238 A 
ATOM      4  O   UNL     1       2.106  25.841  27.402  1.00  0.00    -0.285 OA
ATOM      5  C   UNL     1       3.789  25.593  28.987  1.00  0.00     0.111 A 
ATOM      6  C   UNL     1       4.715  24.986  28.105  1.00  0.00     0.134 A 
ATOM      7  C   UNL     1       5.976  24.596  28.581  1.00  0.00     0.093 A 
ATOM      8  C   UNL     1       6.327  24.802  29.919  1.00  0.00     0.123 A 
ATOM      9  C   UNL     1       5.417  25.401  30.793  1.00  0.00     0.094 A 
ATOM     10  C   UNL     1       4.156  25.798  30.338  1.00  0.00     0.146 A 
ATOM     11  O   UNL     1       3.313  26.369  31.189  1.00  0.00    -0.452 OA
ENDROOT
BRANCH   1  12
ATOM     12  C   UNL     1       1.255  27.416  31.887  1.00  0.00     0.021 A 
ATOM     13  C   UNL     1       0.423  26.614  32.685  1.00  0.00     0.016 A 
ATOM     14  C   UNL     1      -0.364  27.187  33.689  1.00  0.00     0.047 A 
ATOM     15  C   UNL     1      -0.316  28.566  33.918  1.00  0.00     0.115 A 
ATOM     16  C   UNL     1       1.313  28.799  32.136  1.00  0.00     0.016 A 
ATOM     17  C   UNL     1       0.526  29.370  33.141  1.00  0.00     0.047 A 
BRANCH  15  18
ATOM     18  O   UNL     1      -1.105  29.124  34.922  1.00  0.00    -0.508 OA
ATOM     19  H   UNL     1      -2.097  28.926  34.986  1.00  0.00     0.293 HD
ENDBRANCH  15  18
ENDBRANCH   1  12
BRANCH   2  20
ATOM     20  O   UNL     1       0.340  26.966  29.170  1.00  0.00    -0.502 OA
ATOM     21  H   UNL     1      -0.422  26.301  29.128  1.00  0.00     0.293 HD
ENDBRANCH   2  20
BRANCH   6  22
ATOM     22  O   UNL     1       4.394  24.767  26.765  1.00  0.00    -0.507 OA
ATOM     23  H   UNL     1       3.738  24.048  26.484  1.00  0.00     0.293 HD
ENDBRANCH   6  22
BRANCH   8  24
ATOM     24  O   UNL     1       7.579  24.414  30.393  1.00  0.00    -0.508 OA
ATOM     25  H   UNL     1       7.683  23.656  31.056  1.00  0.00     0.293 HD
ENDBRANCH   8  24
TORSDOF 5
ENDMDL
MODEL 7
REMARK VINA RESULT:    -5.428      1.859      2.607
REMARK INTER + INTRA:          -6.556
REMARK INTER:                  -7.101
REMARK INTRA:                   0.544
REMARK UNBOUND:                -0.177
REMARK SMILES O=c1c(O)c(-c2ccc(O)cc2)oc2cc(O)cc(O)c12
REMARK SMILES IDX 5 1 3 2 2 3 1 4 21 5 19 6 18 7 16 8 15 9 14 10 13 11 6 12
REMARK SMILES IDX 7 13 8 14 9 15 12 16 11 17 10 18 4 20 20 22 17 24
REMARK H PARENT 10 19 4 21 20 23 17 25
REMARK Flexibility Score: inf
ROOT
ATOM      1  C   UNL     1      -1.701  40.089  31.730  1.00  0.00     0.180 A 
ATOM      2  C   UNL     1      -1.607  40.752  32.969  1.00  0.00     0.208 A 
ATOM      3  C   UNL     1      -0.668  40.302  33.909  1.00  0.00     0.238 A 
ATOM      4  O   UNL     1      -0.582  40.881  35.027  1.00  0.00    -0.285 OA
ATOM      5  C   UNL     1       0.171  39.215  33.592  1.00  0.00     0.111 A 
ATOM      6  C   UNL     1       1.145  38.702  34.482  1.00  0.00     0.134 A 
ATOM      7  C   UNL     1       1.949  37.622  34.087  1.00  0.00     0.093 A 
ATOM      8  C   UNL     1       1.797  37.047  32.820  1.00  0.00     0.123 A 
ATOM      9  C   UNL     1       0.837  37.548  31.939  1.00  0.00     0.094 A 
ATOM     10  C   UNL     1       0.025  38.623  32.315  1.00  0.00     0.146 A 
ATOM     11  O   UNL     1      -0.883  39.077  31.459  1.00  0.00    -0.452 OA
ENDROOT
BRANCH   1  12
ATOM     12  C   UNL     1      -2.679  40.493  30.694  1.00  0.00     0.021 A 
ATOM     13  C   UNL     1      -3.362  41.713  30.827  1.00  0.00     0.016 A 
ATOM     14  C   UNL     1      -4.274  42.125  29.850  1.00  0.00     0.047 A 
ATOM     15  C   UNL     1      -4.501  41.332  28.721  1.00  0.00     0.115 A 
ATOM     16  C   UNL     1      -2.897  39.709  29.546  1.00  0.00     0.016 A 
ATOM     17  C   UNL     1      -3.808  40.124  28.570  1.00  0.00     0.047 A 
BRANCH  15  18
ATOM     18  O   UNL     1      -5.412  41.754  27.755  1.00  0.00    -0.508 OA
ATOM     19  H   UNL     1      -5.833  42.675  27.793  1.00  0.00     0.293 HD
ENDBRANCH  15  18
ENDBRANCH   1  12
BRANCH   2  20
ATOM     20  O   UNL     1      -2.416  41.859  33.241  1.00  0.00    -0.502 OA
ATOM     21  H   UNL     1      -2.242  42.771  32.838  1.00  0.00     0.293 HD
ENDBRANCH   2  20
BRANCH   6  22
ATOM     22  O   UNL     1       1.321  39.255  35.751  1.00  0.00    -0.507 OA
ATOM     23  H   UNL     1       0.660  39.916  36.141  1.00  0.00     0.293 HD
ENDBRANCH   6  22
BRANCH   8  24
ATOM     24  O   UNL     1       2.596  35.975  32.427  1.00  0.00    -0.508 OA
ATOM     25  H   UNL     1       3.589  36.087  32.262  1.00  0.00     0.293 HD
ENDBRANCH   8  24
TORSDOF 5
ENDMDL
MODEL 8
REMARK VINA RESULT:    -5.367     12.739     15.247
REMARK INTER + INTRA:          -6.485
REMARK INTER:                  -6.208
REMARK INTRA:                  -0.277
REMARK UNBOUND:                -0.177
REMARK SMILES O=c1c(O)c(-c2ccc(O)cc2)oc2cc(O)cc(O)c12
REMARK SMILES IDX 5 1 3 2 2 3 1 4 21 5 19 6 18 7 16 8 15 9 14 10 13 11 6 12
REMARK SMILES IDX 7 13 8 14 9 15 12 16 11 17 10 18 4 20 20 22 17 24
REMARK H PARENT 10 19 4 21 20 23 17 25
REMARK Flexibility Score: inf
ROOT
ATOM      1  C   UNL     1      -1.543  26.577  36.048  1.00  0.00     0.180 A 
ATOM      2  C   UNL     1      -0.973  26.375  37.320  1.00  0.00     0.208 A 
ATOM      3  C   UNL     1      -1.756  25.794  38.329  1.00  0.00     0.238 A 
ATOM      4  O   UNL     1      -1.260  25.619  39.476  1.00  0.00    -0.285 OA
ATOM      5  C   UNL     1      -3.081  25.406  38.047  1.00  0.00     0.111 A 
ATOM      6  C   UNL     1      -3.935  24.811  39.007  1.00  0.00     0.134 A 
ATOM      7  C   UNL     1      -5.240  24.444  38.645  1.00  0.00     0.093 A 
ATOM      8  C   UNL     1      -5.706  24.662  37.344  1.00  0.00     0.123 A 
ATOM      9  C   UNL     1      -4.868  25.249  36.394  1.00  0.00     0.094 A 
ATOM     10  C   UNL     1      -3.565  25.623  36.736  1.00  0.00     0.146 A 
ATOM     11  O   UNL     1      -2.792  26.185  35.813  1.00  0.00    -0.452 OA
ENDROOT
BRANCH   1  12
ATOM     12  C   UNL     1      -0.788  27.201  34.938  1.00  0.00     0.021 A 
ATOM     13  C   UNL     1      -0.903  28.583  34.715  1.00  0.00     0.016 A 
ATOM     14  C   UNL     1      -0.183  29.198  33.686  1.00  0.00     0.047 A 
ATOM     15  C   UNL     1       0.674  28.443  32.879  1.00  0.00     0.115 A 
ATOM     16  C   UNL     1       0.091  26.451  34.135  1.00  0.00     0.016 A 
ATOM     17  C   UNL     1       0.810  27.069  33.107  1.00  0.00     0.047 A 
BRANCH  15  18
ATOM     18  O   UNL     1       1.385  29.069  31.857  1.00  0.00    -0.508 OA
ATOM     19  H   UNL     1       1.853  29.955  32.005  1.00  0.00     0.293 HD
ENDBRANCH  15  18
ENDBRANCH   1  12
BRANCH   2  20
ATOM     20  O   UNL     1       0.359  26.723  37.560  1.00  0.00    -0.502 OA
ATOM     21  H   UNL     1       1.062  26.713  36.832  1.00  0.00     0.293 HD
ENDBRANCH   2  20
BRANCH   6  22
ATOM     22  O   UNL     1      -3.499  24.580  40.312  1.00  0.00    -0.507 OA
ATOM     23  H   UNL     1      -3.124  25.324  40.889  1.00  0.00     0.293 HD
ENDBRANCH   6  22
BRANCH   8  24
ATOM     24  O   UNL     1      -7.002  24.296  36.983  1.00  0.00    -0.508 OA
ATOM     25  H   UNL     1      -7.189  23.440  36.476  1.00  0.00     0.293 HD
ENDBRANCH   8  24
TORSDOF 5
ENDMDL
MODEL 9
REMARK VINA RESULT:    -5.276     12.201     14.795
REMARK INTER + INTRA:          -6.378
REMARK INTER:                  -6.113
REMARK INTRA:                  -0.265
REMARK UNBOUND:                -0.177
REMARK SMILES O=c1c(O)c(-c2ccc(O)cc2)oc2cc(O)cc(O)c12
REMARK SMILES IDX 5 1 3 2 2 3 1 4 21 5 19 6 18 7 16 8 15 9 14 10 13 11 6 12
REMARK SMILES IDX 7 13 8 14 9 15 12 16 11 17 10 18 4 20 20 22 17 24
REMARK H PARENT 10 19 4 21 20 23 17 25
REMARK Flexibility Score: inf
ROOT
ATOM      1  C   UNL     1      -1.814  26.964  34.883  1.00  0.00     0.180 A 
ATOM      2  C   UNL     1      -1.558  26.353  36.126  1.00  0.00     0.208 A 
ATOM      3  C   UNL     1      -2.624  25.768  36.826  1.00  0.00     0.238 A 
ATOM      4  O   UNL     1      -2.409  25.227  37.946  1.00  0.00    -0.285 OA
ATOM      5  C   UNL     1      -3.918  25.785  36.267  1.00  0.00     0.111 A 
ATOM      6  C   UNL     1      -5.046  25.215  36.907  1.00  0.00     0.134 A 
ATOM      7  C   UNL     1      -6.300  25.264  36.280  1.00  0.00     0.093 A 
ATOM      8  C   UNL     1      -6.447  25.873  35.028  1.00  0.00     0.123 A 
ATOM      9  C   UNL     1      -5.339  26.437  34.395  1.00  0.00     0.094 A 
ATOM     10  C   UNL     1      -4.080  26.399  35.003  1.00  0.00     0.146 A 
ATOM     11  O   UNL     1      -3.044  26.948  34.380  1.00  0.00    -0.452 OA
ENDROOT
BRANCH   1  12
ATOM     12  C   UNL     1      -0.746  27.619  34.094  1.00  0.00     0.021 A 
ATOM     13  C   UNL     1       0.098  26.835  33.289  1.00  0.00     0.016 A 
ATOM     14  C   UNL     1       1.099  27.433  32.518  1.00  0.00     0.047 A 
ATOM     15  C   UNL     1       1.259  28.822  32.529  1.00  0.00     0.115 A 
ATOM     16  C   UNL     1      -0.592  29.017  34.085  1.00  0.00     0.016 A 
ATOM     17  C   UNL     1       0.409  29.613  33.312  1.00  0.00     0.047 A 
BRANCH  15  18
ATOM     18  O   UNL     1       2.261  29.405  31.756  1.00  0.00    -0.508 OA
ATOM     19  H   UNL     1       2.734  28.887  31.025  1.00  0.00     0.293 HD
ENDBRANCH  15  18
ENDBRANCH   1  12
BRANCH   2  20
ATOM     20  O   UNL     1      -0.257  26.306  36.635  1.00  0.00    -0.502 OA
ATOM     21  H   UNL     1       0.249  27.139  36.908  1.00  0.00     0.293 HD
ENDBRANCH   2  20
BRANCH   6  22
ATOM     22  O   UNL     1      -4.930  24.601  38.154  1.00  0.00    -0.507 OA
ATOM     23  H   UNL     1      -5.596  24.773  38.898  1.00  0.00     0.293 HD
ENDBRANCH   6  22
BRANCH   8  24
ATOM     24  O   UNL     1      -7.693  25.922  34.405  1.00  0.00    -0.508 OA
ATOM     25  H   UNL     1      -8.229  25.081  34.227  1.00  0.00     0.293 HD
ENDBRANCH   8  24
TORSDOF 5
ENDMDL
