MODEL 1
REMARK VINA RESULT:    -3.627      0.000      0.000
REMARK INTER + INTRA:          -5.512
REMARK INTER:                  -5.536
REMARK INTRA:                   0.024
REMARK UNBOUND:                 0.024
REMARK SMILES CC1=CCC[C@@H](C)C(=O)C[C@@H](C(C)C)C(=O)C1
REMARK SMILES IDX 8 1 9 2 6 3 7 4 5 5 4 6 3 7 2 8 1 9 10 11 11 12 15 13 16 14
REMARK SMILES IDX 17 15 12 17 13 18 14 19
REMARK H PARENT
REMARK Flexibility Score: 70.00
ROOT
ATOM      1  C   UNL     1      46.994  23.192  21.162  1.00  0.00     0.136 C 
ATOM      2  O   UNL     1      45.850  22.862  20.877  1.00  0.00    -0.299 OA
ENDROOT
BRANCH   1   3
ATOM      3  C   UNL     1      48.146  22.329  20.661  1.00  0.00     0.053 C 
ATOM      4  C   UNL     1      47.988  20.826  20.950  1.00  0.00     0.016 C 
BRANCH   3   5
ATOM      5  C   UNL     1      49.527  22.847  21.139  1.00  0.00     0.015 C 
BRANCH   5   6
ATOM      6  C   UNL     1      50.222  23.855  20.200  1.00  0.00     0.028 C 
BRANCH   6   7
ATOM      7  C   UNL     1      51.070  24.857  20.951  1.00  0.00    -0.028 C 
ATOM      8  C   UNL     1      50.737  26.130  21.277  1.00  0.00    -0.070 CG0
ATOM      9  C   UNL     1      51.717  26.907  22.122  1.00  0.00     0.039 C 
ATOM     10  G   UNL     1      49.437  26.810  20.874  1.00  0.00     0.000 G0
ENDBRANCH   6   7
ENDBRANCH   5   6
ENDBRANCH   3   5
ENDBRANCH   1   3
BRANCH   1  11
ATOM     11  C   UNL     1      47.168  24.322  22.156  1.00  0.00     0.087 C 
BRANCH  11  12
ATOM     12  C   UNL     1      47.084  25.771  21.574  1.00  0.00     0.066 C 
BRANCH  12  13
ATOM     13  C   UNL     1      48.327  26.599  21.891  1.00  0.00     0.140 C 
ATOM     14  O   UNL     1      48.435  27.077  23.011  1.00  0.00    -0.299 OA
BRANCH  13  15
ATOM     15  C   UNL     1      49.437  26.830  20.881  1.00  0.00     0.106 CG0
ATOM     16  G   UNL     1      50.724  26.118  21.265  1.00  0.00     0.000 G0
ENDBRANCH  13  15
ENDBRANCH  12  13
BRANCH  12  17
ATOM     17  C   UNL     1      45.744  26.532  21.867  1.00  0.00    -0.006 C 
ATOM     18  C   UNL     1      45.691  27.874  21.109  1.00  0.00     0.008 C 
ATOM     19  C   UNL     1      44.501  25.706  21.474  1.00  0.00     0.008 C 
ENDBRANCH  12  17
ENDBRANCH  11  12
ENDBRANCH   1  11
TORSDOF 1
ENDMDL
MODEL 2
REMARK VINA RESULT:    -3.470      6.913      9.425
REMARK INTER + INTRA:          -5.273
REMARK INTER:                  -4.837
REMARK INTRA:                  -0.435
REMARK UNBOUND:                 0.024
REMARK SMILES CC1=CCC[C@@H](C)C(=O)C[C@@H](C(C)C)C(=O)C1
REMARK SMILES IDX 8 1 9 2 6 3 7 4 5 5 4 6 3 7 2 8 1 9 10 11 11 12 15 13 16 14
REMARK SMILES IDX 17 15 12 17 13 18 14 19
REMARK H PARENT
REMARK Flexibility Score: 70.00
ROOT
ATOM      1  C   UNL     1      38.510  24.148  22.632  1.00  0.00     0.136 C 
ATOM      2  O   UNL     1      37.498  24.821  22.493  1.00  0.00    -0.299 OA
ENDROOT
BRANCH   1   3
ATOM      3  C   UNL     1      38.390  22.781  23.295  1.00  0.00     0.053 C 
ATOM      4  C   UNL     1      37.475  21.791  22.552  1.00  0.00     0.016 C 
BRANCH   3   5
ATOM      5  C   UNL     1      38.004  22.881  24.793  1.00  0.00     0.015 C 
BRANCH   5   6
ATOM      6  C   UNL     1      39.178  22.792  25.790  1.00  0.00     0.028 C 
BRANCH   6   7
ATOM      7  C   UNL     1      39.420  24.094  26.519  1.00  0.00    -0.028 C 
ATOM      8  C   UNL     1      40.511  24.894  26.428  1.00  0.00    -0.070 CG0
ATOM      9  C   UNL     1      40.476  26.202  27.180  1.00  0.00     0.039 C 
ATOM     10  G   UNL     1      41.745  24.574  25.598  1.00  0.00     0.000 G0
ENDBRANCH   6   7
ENDBRANCH   5   6
ENDBRANCH   3   5
ENDBRANCH   1   3
BRANCH   1  11
ATOM     11  C   UNL     1      39.836  24.807  22.312  1.00  0.00     0.087 C 
BRANCH  11  12
ATOM     12  C   UNL     1      41.094  24.203  23.016  1.00  0.00     0.066 C 
BRANCH  12  13
ATOM     13  C   UNL     1      41.609  25.089  24.149  1.00  0.00     0.140 C 
ATOM     14  O   UNL     1      41.903  26.247  23.890  1.00  0.00    -0.299 OA
BRANCH  13  15
ATOM     15  C   UNL     1      41.749  24.594  25.577  1.00  0.00     0.106 CG0
ATOM     16  G   UNL     1      40.518  24.899  26.416  1.00  0.00     0.000 G0
ENDBRANCH  13  15
ENDBRANCH  12  13
BRANCH  12  17
ATOM     17  C   UNL     1      42.229  23.712  22.051  1.00  0.00    -0.006 C 
ATOM     18  C   UNL     1      41.930  22.297  21.516  1.00  0.00     0.008 C 
ATOM     19  C   UNL     1      42.423  24.654  20.845  1.00  0.00     0.008 C 
ENDBRANCH  12  17
ENDBRANCH  11  12
ENDBRANCH   1  11
TORSDOF 1
ENDMDL
MODEL 3
REMARK VINA RESULT:    -3.267      6.376      8.168
REMARK INTER + INTRA:          -4.962
REMARK INTER:                  -4.713
REMARK INTRA:                  -0.249
REMARK UNBOUND:                 0.024
REMARK SMILES CC1=CCC[C@@H](C)C(=O)C[C@@H](C(C)C)C(=O)C1
REMARK SMILES IDX 8 1 9 2 6 3 7 4 5 5 4 6 3 7 2 8 1 9 10 11 11 12 15 13 16 14
REMARK SMILES IDX 17 15 12 17 13 18 14 19
REMARK H PARENT
REMARK Flexibility Score: 70.00
ROOT
ATOM      1  C   UNL     1      41.420  22.496  22.560  1.00  0.00     0.136 C 
ATOM      2  O   UNL     1      41.267  21.285  22.654  1.00  0.00    -0.299 OA
ENDROOT
BRANCH   1   3
ATOM      3  C   UNL     1      42.350  23.029  21.477  1.00  0.00     0.053 C 
ATOM      4  C   UNL     1      43.398  22.016  20.983  1.00  0.00     0.016 C 
BRANCH   3   5
ATOM      5  C   UNL     1      43.015  24.372  21.875  1.00  0.00     0.015 C 
BRANCH   5   6
ATOM      6  C   UNL     1      42.518  25.614  21.107  1.00  0.00     0.028 C 
BRANCH   6   7
ATOM      7  C   UNL     1      42.452  26.847  21.980  1.00  0.00    -0.028 C 
ATOM      8  C   UNL     1      41.369  27.327  22.639  1.00  0.00    -0.070 CG0
ATOM      9  C   UNL     1      41.578  28.523  23.535  1.00  0.00     0.039 C 
ATOM     10  G   UNL     1      39.976  26.722  22.559  1.00  0.00     0.000 G0
ENDBRANCH   6   7
ENDBRANCH   5   6
ENDBRANCH   3   5
ENDBRANCH   1   3
BRANCH   1  11
ATOM     11  C   UNL     1      40.827  23.362  23.652  1.00  0.00     0.087 C 
BRANCH  11  12
ATOM     12  C   UNL     1      39.558  24.188  23.264  1.00  0.00     0.066 C 
BRANCH  12  13
ATOM     13  C   UNL     1      39.702  25.670  23.605  1.00  0.00     0.140 C 
ATOM     14  O   UNL     1      39.618  26.006  24.778  1.00  0.00    -0.299 OA
BRANCH  13  15
ATOM     15  C   UNL     1      39.965  26.732  22.552  1.00  0.00     0.106 CG0
ATOM     16  G   UNL     1      41.368  27.308  22.652  1.00  0.00     0.000 G0
ENDBRANCH  13  15
ENDBRANCH  12  13
BRANCH  12  17
ATOM     17  C   UNL     1      38.192  23.577  23.733  1.00  0.00    -0.006 C 
ATOM     18  C   UNL     1      37.375  23.056  22.533  1.00  0.00     0.008 C 
ATOM     19  C   UNL     1      38.380  22.414  24.730  1.00  0.00     0.008 C 
ENDBRANCH  12  17
ENDBRANCH  11  12
ENDBRANCH   1  11
TORSDOF 1
ENDMDL
MODEL 4
REMARK VINA RESULT:    -3.197      1.973      4.907
REMARK INTER + INTRA:          -4.856
REMARK INTER:                  -4.476
REMARK INTRA:                  -0.380
REMARK UNBOUND:                 0.024
REMARK SMILES CC1=CCC[C@@H](C)C(=O)C[C@@H](C(C)C)C(=O)C1
REMARK SMILES IDX 8 1 9 2 6 3 7 4 5 5 4 6 3 7 2 8 1 9 10 11 11 12 15 13 16 14
REMARK SMILES IDX 17 15 12 17 13 18 14 19
REMARK H PARENT
REMARK Flexibility Score: 70.00
ROOT
ATOM      1  C   UNL     1      50.120  26.386  20.825  1.00  0.00     0.136 C 
ATOM      2  O   UNL     1      51.182  26.868  21.196  1.00  0.00    -0.299 OA
ENDROOT
BRANCH   1   3
ATOM      3  C   UNL     1      49.611  26.733  19.431  1.00  0.00     0.053 C 
ATOM      4  C   UNL     1      50.590  26.392  18.293  1.00  0.00     0.016 C 
BRANCH   3   5
ATOM      5  C   UNL     1      49.121  28.199  19.326  1.00  0.00     0.015 C 
BRANCH   5   6
ATOM      6  C   UNL     1      48.377  28.744  20.562  1.00  0.00     0.028 C 
BRANCH   6   7
ATOM      7  C   UNL     1      46.878  28.578  20.456  1.00  0.00    -0.028 C 
ATOM      8  C   UNL     1      46.088  27.770  21.205  1.00  0.00    -0.070 CG0
ATOM      9  C   UNL     1      44.598  27.855  20.978  1.00  0.00     0.039 C 
ATOM     10  G   UNL     1      46.600  26.814  22.271  1.00  0.00     0.000 G0
ENDBRANCH   6   7
ENDBRANCH   5   6
ENDBRANCH   3   5
ENDBRANCH   1   3
BRANCH   1  11
ATOM     11  C   UNL     1      49.295  25.640  21.854  1.00  0.00     0.087 C 
BRANCH  11  12
ATOM     12  C   UNL     1      48.076  24.830  21.303  1.00  0.00     0.066 C 
BRANCH  12  13
ATOM     13  C   UNL     1      46.739  25.396  21.778  1.00  0.00     0.140 C 
ATOM     14  O   UNL     1      45.761  24.662  21.764  1.00  0.00    -0.299 OA
BRANCH  13  15
ATOM     15  C   UNL     1      46.585  26.820  22.283  1.00  0.00     0.106 CG0
ATOM     16  G   UNL     1      46.061  27.759  21.208  1.00  0.00     0.000 G0
ENDBRANCH  13  15
ENDBRANCH  12  13
BRANCH  12  17
ATOM     17  C   UNL     1      48.179  23.273  21.466  1.00  0.00    -0.006 C 
ATOM     18  C   UNL     1      48.053  22.563  20.103  1.00  0.00     0.008 C 
ATOM     19  C   UNL     1      49.509  22.837  22.116  1.00  0.00     0.008 C 
ENDBRANCH  12  17
ENDBRANCH  11  12
ENDBRANCH   1  11
TORSDOF 1
ENDMDL
MODEL 5
REMARK VINA RESULT:    -3.173      2.738      5.857
REMARK INTER + INTRA:          -4.820
REMARK INTER:                  -4.871
REMARK INTRA:                   0.051
REMARK UNBOUND:                 0.024
REMARK SMILES CC1=CCC[C@@H](C)C(=O)C[C@@H](C(C)C)C(=O)C1
REMARK SMILES IDX 8 1 9 2 6 3 7 4 5 5 4 6 3 7 2 8 1 9 10 11 11 12 15 13 16 14
REMARK SMILES IDX 17 15 12 17 13 18 14 19
REMARK H PARENT
REMARK Flexibility Score: 70.00
ROOT
ATOM      1  C   UNL     1      48.070  25.681  21.671  1.00  0.00     0.136 C 
ATOM      2  O   UNL     1      49.176  25.363  21.255  1.00  0.00    -0.299 OA
ENDROOT
BRANCH   1   3
ATOM      3  C   UNL     1      47.740  27.163  21.803  1.00  0.00     0.053 C 
ATOM      4  C   UNL     1      47.784  27.699  23.245  1.00  0.00     0.016 C 
BRANCH   3   5
ATOM      5  C   UNL     1      46.406  27.537  21.108  1.00  0.00     0.015 C 
BRANCH   5   6
ATOM      6  C   UNL     1      45.225  27.840  22.053  1.00  0.00     0.028 C 
BRANCH   6   7
ATOM      7  C   UNL     1      43.920  27.264  21.553  1.00  0.00    -0.028 C 
ATOM      8  C   UNL     1      43.455  26.004  21.741  1.00  0.00    -0.070 CG0
ATOM      9  C   UNL     1      42.069  25.693  21.229  1.00  0.00     0.039 C 
ATOM     10  G   UNL     1      44.222  24.902  22.456  1.00  0.00     0.000 G0
ENDBRANCH   6   7
ENDBRANCH   5   6
ENDBRANCH   3   5
ENDBRANCH   1   3
BRANCH   1  11
ATOM     11  C   UNL     1      47.184  24.577  22.210  1.00  0.00     0.087 C 
BRANCH  11  12
ATOM     12  C   UNL     1      46.306  23.823  21.159  1.00  0.00     0.066 C 
BRANCH  12  13
ATOM     13  C   UNL     1      44.819  23.861  21.507  1.00  0.00     0.140 C 
ATOM     14  O   UNL     1      44.085  23.020  21.009  1.00  0.00    -0.299 OA
BRANCH  13  15
ATOM     15  C   UNL     1      44.227  24.884  22.461  1.00  0.00     0.106 CG0
ATOM     16  G   UNL     1      43.479  25.987  21.730  1.00  0.00     0.000 G0
ENDBRANCH  13  15
ENDBRANCH  12  13
BRANCH  12  17
ATOM     17  C   UNL     1      46.811  22.390  20.769  1.00  0.00    -0.006 C 
ATOM     18  C   UNL     1      46.581  22.109  19.270  1.00  0.00     0.008 C 
ATOM     19  C   UNL     1      48.311  22.194  21.073  1.00  0.00     0.008 C 
ENDBRANCH  12  17
ENDBRANCH  11  12
ENDBRANCH   1  11
TORSDOF 1
ENDMDL
MODEL 6
REMARK VINA RESULT:    -3.120      1.982      4.068
REMARK INTER + INTRA:          -4.738
REMARK INTER:                  -4.613
REMARK INTRA:                  -0.125
REMARK UNBOUND:                 0.024
REMARK SMILES CC1=CCC[C@@H](C)C(=O)C[C@@H](C(C)C)C(=O)C1
REMARK SMILES IDX 8 1 9 2 6 3 7 4 5 5 4 6 3 7 2 8 1 9 10 11 11 12 15 13 16 14
REMARK SMILES IDX 17 15 12 17 13 18 14 19
REMARK H PARENT
REMARK Flexibility Score: 70.00
ROOT
ATOM      1  C   UNL     1      50.712  24.391  20.929  1.00  0.00     0.136 C 
ATOM      2  O   UNL     1      50.732  24.435  19.706  1.00  0.00    -0.299 OA
ENDROOT
BRANCH   1   3
ATOM      3  C   UNL     1      49.762  23.409  21.606  1.00  0.00     0.053 C 
ATOM      4  C   UNL     1      49.291  22.254  20.703  1.00  0.00     0.016 C 
BRANCH   3   5
ATOM      5  C   UNL     1      48.558  24.117  22.279  1.00  0.00     0.015 C 
BRANCH   5   6
ATOM      6  C   UNL     1      47.515  24.719  21.316  1.00  0.00     0.028 C 
BRANCH   6   7
ATOM      7  C   UNL     1      47.116  26.126  21.700  1.00  0.00    -0.028 C 
ATOM      8  C   UNL     1      47.681  27.283  21.274  1.00  0.00    -0.070 CG0
ATOM      9  C   UNL     1      47.038  28.573  21.721  1.00  0.00     0.039 C 
ATOM     10  G   UNL     1      48.893  27.362  20.359  1.00  0.00     0.000 G0
ENDBRANCH   6   7
ENDBRANCH   5   6
ENDBRANCH   3   5
ENDBRANCH   1   3
BRANCH   1  11
ATOM     11  C   UNL     1      51.489  25.453  21.679  1.00  0.00     0.087 C 
BRANCH  11  12
ATOM     12  C   UNL     1      50.658  26.661  22.221  1.00  0.00     0.066 C 
BRANCH  12  13
ATOM     13  C   UNL     1      50.192  27.594  21.105  1.00  0.00     0.140 C 
ATOM     14  O   UNL     1      50.909  28.537  20.800  1.00  0.00    -0.299 OA
BRANCH  13  15
ATOM     15  C   UNL     1      48.891  27.384  20.351  1.00  0.00     0.106 CG0
ATOM     16  G   UNL     1      47.694  27.280  21.283  1.00  0.00     0.000 G0
ENDBRANCH  13  15
ENDBRANCH  12  13
BRANCH  12  17
ATOM     17  C   UNL     1      51.297  27.422  23.435  1.00  0.00    -0.006 C 
ATOM     18  C   UNL     1      50.213  28.091  24.304  1.00  0.00     0.008 C 
ATOM     19  C   UNL     1      52.134  26.491  24.337  1.00  0.00     0.008 C 
ENDBRANCH  12  17
ENDBRANCH  11  12
ENDBRANCH   1  11
TORSDOF 1
ENDMDL
MODEL 7
REMARK VINA RESULT:    -3.113      3.133      5.144
REMARK INTER + INTRA:          -4.728
REMARK INTER:                  -4.571
REMARK INTRA:                  -0.157
REMARK UNBOUND:                 0.024
REMARK SMILES CC1=CCC[C@@H](C)C(=O)C[C@@H](C(C)C)C(=O)C1
REMARK SMILES IDX 8 1 9 2 6 3 7 4 5 5 4 6 3 7 2 8 1 9 10 11 11 12 15 13 16 14
REMARK SMILES IDX 17 15 12 17 13 18 14 19
REMARK H PARENT
REMARK Flexibility Score: 70.00
ROOT
ATOM      1  C   UNL     1      50.253  27.834  17.257  1.00  0.00     0.136 C 
ATOM      2  O   UNL     1      49.883  28.647  16.420  1.00  0.00    -0.299 OA
ENDROOT
BRANCH   1   3
ATOM      3  C   UNL     1      51.174  26.703  16.815  1.00  0.00     0.053 C 
ATOM      4  C   UNL     1      51.728  26.854  15.387  1.00  0.00     0.016 C 
BRANCH   3   5
ATOM      5  C   UNL     1      50.538  25.305  17.023  1.00  0.00     0.015 C 
BRANCH   5   6
ATOM      6  C   UNL     1      51.388  24.299  17.828  1.00  0.00     0.028 C 
BRANCH   6   7
ATOM      7  C   UNL     1      50.573  23.539  18.849  1.00  0.00    -0.028 C 
ATOM      8  C   UNL     1      50.339  23.893  20.137  1.00  0.00    -0.070 CG0
ATOM      9  C   UNL     1      49.405  23.017  20.936  1.00  0.00     0.039 C 
ATOM     10  G   UNL     1      50.928  25.121  20.813  1.00  0.00     0.000 G0
ENDBRANCH   6   7
ENDBRANCH   5   6
ENDBRANCH   3   5
ENDBRANCH   1   3
BRANCH   1  11
ATOM     11  C   UNL     1      49.609  27.901  18.626  1.00  0.00     0.087 C 
BRANCH  11  12
ATOM     12  C   UNL     1      50.541  27.587  19.842  1.00  0.00     0.066 C 
BRANCH  12  13
ATOM     13  C   UNL     1      50.070  26.372  20.639  1.00  0.00     0.140 C 
ATOM     14  O   UNL     1      48.948  26.397  21.124  1.00  0.00    -0.299 OA
BRANCH  13  15
ATOM     15  C   UNL     1      50.928  25.135  20.831  1.00  0.00     0.106 CG0
ATOM     16  G   UNL     1      50.336  23.911  20.151  1.00  0.00     0.000 G0
ENDBRANCH  13  15
ENDBRANCH  12  13
BRANCH  12  17
ATOM     17  C   UNL     1      50.898  28.818  20.746  1.00  0.00    -0.006 C 
ATOM     18  C   UNL     1      52.022  29.663  20.115  1.00  0.00     0.008 C 
ATOM     19  C   UNL     1      49.683  29.736  20.994  1.00  0.00     0.008 C 
ENDBRANCH  12  17
ENDBRANCH  11  12
ENDBRANCH   1  11
TORSDOF 1
ENDMDL
MODEL 8
REMARK VINA RESULT:    -3.030      2.517      4.721
REMARK INTER + INTRA:          -4.601
REMARK INTER:                  -4.647
REMARK INTRA:                   0.046
REMARK UNBOUND:                 0.024
REMARK SMILES CC1=CCC[C@@H](C)C(=O)C[C@@H](C(C)C)C(=O)C1
REMARK SMILES IDX 8 1 9 2 6 3 7 4 5 5 4 6 3 7 2 8 1 9 10 11 11 12 15 13 16 14
REMARK SMILES IDX 17 15 12 17 13 18 14 19
REMARK H PARENT
REMARK Flexibility Score: 70.00
ROOT
ATOM      1  C   UNL     1      50.586  25.754  18.418  1.00  0.00     0.136 C 
ATOM      2  O   UNL     1      50.297  24.947  17.545  1.00  0.00    -0.299 OA
ENDROOT
BRANCH   1   3
ATOM      3  C   UNL     1      50.656  27.231  18.050  1.00  0.00     0.053 C 
ATOM      4  C   UNL     1      51.177  27.509  16.629  1.00  0.00     0.016 C 
BRANCH   3   5
ATOM      5  C   UNL     1      51.428  28.069  19.102  1.00  0.00     0.015 C 
BRANCH   5   6
ATOM      6  C   UNL     1      50.577  29.064  19.916  1.00  0.00     0.028 C 
BRANCH   6   7
ATOM      7  C   UNL     1      49.166  28.569  20.144  1.00  0.00    -0.028 C 
ATOM      8  C   UNL     1      48.708  27.865  21.208  1.00  0.00    -0.070 CG0
ATOM      9  C   UNL     1      47.228  27.571  21.258  1.00  0.00     0.039 C 
ATOM     10  G   UNL     1      49.576  27.382  22.360  1.00  0.00     0.000 G0
ENDBRANCH   6   7
ENDBRANCH   5   6
ENDBRANCH   3   5
ENDBRANCH   1   3
BRANCH   1  11
ATOM     11  C   UNL     1      51.044  25.203  19.753  1.00  0.00     0.087 C 
BRANCH  11  12
ATOM     12  C   UNL     1      49.980  25.198  20.898  1.00  0.00     0.066 C 
BRANCH  12  13
ATOM     13  C   UNL     1      50.358  26.131  22.048  1.00  0.00     0.140 C 
ATOM     14  O   UNL     1      51.348  25.861  22.712  1.00  0.00    -0.299 OA
BRANCH  13  15
ATOM     15  C   UNL     1      49.567  27.384  22.379  1.00  0.00     0.106 CG0
ATOM     16  G   UNL     1      48.719  27.856  21.209  1.00  0.00     0.000 G0
ENDBRANCH  13  15
ENDBRANCH  12  13
BRANCH  12  17
ATOM     17  C   UNL     1      49.525  23.777  21.382  1.00  0.00    -0.006 C 
ATOM     18  C   UNL     1      48.001  23.733  21.617  1.00  0.00     0.008 C 
ATOM     19  C   UNL     1      49.890  22.669  20.373  1.00  0.00     0.008 C 
ENDBRANCH  12  17
ENDBRANCH  11  12
ENDBRANCH   1  11
TORSDOF 1
ENDMDL
MODEL 9
REMARK VINA RESULT:    -2.997      7.888      9.772
REMARK INTER + INTRA:          -4.550
REMARK INTER:                  -4.149
REMARK INTRA:                  -0.401
REMARK UNBOUND:                 0.024
REMARK SMILES CC1=CCC[C@@H](C)C(=O)C[C@@H](C(C)C)C(=O)C1
REMARK SMILES IDX 8 1 9 2 6 3 7 4 5 5 4 6 3 7 2 8 1 9 10 11 11 12 15 13 16 14
REMARK SMILES IDX 17 15 12 17 13 18 14 19
REMARK H PARENT
REMARK Flexibility Score: 70.00
ROOT
ATOM      1  C   UNL     1      41.053  24.598  22.425  1.00  0.00     0.136 C 
ATOM      2  O   UNL     1      41.773  24.130  21.553  1.00  0.00    -0.299 OA
ENDROOT
BRANCH   1   3
ATOM      3  C   UNL     1      40.966  26.114  22.561  1.00  0.00     0.053 C 
ATOM      4  C   UNL     1      41.372  26.890  21.295  1.00  0.00     0.016 C 
BRANCH   3   5
ATOM      5  C   UNL     1      41.723  26.642  23.806  1.00  0.00     0.015 C 
BRANCH   5   6
ATOM      6  C   UNL     1      40.840  27.007  25.017  1.00  0.00     0.028 C 
BRANCH   6   7
ATOM      7  C   UNL     1      41.220  26.241  26.264  1.00  0.00    -0.028 C 
ATOM      8  C   UNL     1      40.468  25.324  26.923  1.00  0.00    -0.070 CG0
ATOM      9  C   UNL     1      41.109  24.615  28.091  1.00  0.00     0.039 C 
ATOM     10  G   UNL     1      39.045  24.945  26.544  1.00  0.00     0.000 G0
ENDBRANCH   6   7
ENDBRANCH   5   6
ENDBRANCH   3   5
ENDBRANCH   1   3
BRANCH   1  11
ATOM     11  C   UNL     1      40.456  23.634  23.429  1.00  0.00     0.087 C 
BRANCH  11  12
ATOM     12  C   UNL     1      39.065  24.031  24.022  1.00  0.00     0.066 C 
BRANCH  12  13
ATOM     13  C   UNL     1      38.987  23.800  25.530  1.00  0.00     0.140 C 
ATOM     14  O   UNL     1      38.903  22.650  25.937  1.00  0.00    -0.299 OA
BRANCH  13  15
ATOM     15  C   UNL     1      39.033  24.936  26.537  1.00  0.00     0.106 CG0
ATOM     16  G   UNL     1      40.456  25.307  26.923  1.00  0.00     0.000 G0
ENDBRANCH  13  15
ENDBRANCH  12  13
BRANCH  12  17
ATOM     17  C   UNL     1      37.822  23.469  23.247  1.00  0.00    -0.006 C 
ATOM     18  C   UNL     1      37.376  24.439  22.135  1.00  0.00     0.008 C 
ATOM     19  C   UNL     1      38.103  22.094  22.606  1.00  0.00     0.008 C 
ENDBRANCH  12  17
ENDBRANCH  11  12
ENDBRANCH   1  11
TORSDOF 1
ENDMDL
