MODEL 1
REMARK VINA RESULT:    -4.344      0.000      0.000
REMARK INTER + INTRA:          -8.595
REMARK INTER:                  -7.900
REMARK INTRA:                  -0.695
REMARK UNBOUND:                -0.695
REMARK SMILES CCCCCCCCCCCCCCCC(=O)[O-]
REMARK SMILES IDX 9 1 10 2 11 3 12 4 13 5 14 6 15 7 16 8 17 9 18 10 8 11 7 12
REMARK SMILES IDX 6 13 5 14 4 15 3 16 2 17 1 18
REMARK H PARENT
REMARK Flexibility Score: inf
ROOT
ATOM      1  C   UNL     1      21.542 -20.304 -18.689  1.00  0.00     0.000 C 
ENDROOT
BRANCH   1   2
ATOM      2  C   UNL     1      21.485 -19.739 -17.260  1.00  0.00     0.000 C 
BRANCH   2   3
ATOM      3  C   UNL     1      22.424 -18.539 -17.058  1.00  0.00     0.000 C 
BRANCH   3   4
ATOM      4  C   UNL     1      21.687 -17.190 -17.127  1.00  0.00     0.000 C 
BRANCH   4   5
ATOM      5  C   UNL     1      20.235 -17.285 -16.634  1.00  0.00     0.000 C 
BRANCH   5   6
ATOM      6  C   UNL     1      19.678 -15.932 -16.166  1.00  0.00     0.006 C 
BRANCH   6   7
ATOM      7  C   UNL     1      18.404 -16.122 -15.335  1.00  0.00     0.053 C 
BRANCH   7   8
ATOM      8  C   UNL     1      17.346 -15.160 -15.773  1.00  0.00     0.041 C 
ATOM      9  O   UNL     1      16.639 -15.411 -16.785  1.00  0.00    -0.550 OA
ATOM     10  O   UNL     1      17.105 -14.008 -15.035  1.00  0.00    -0.550 OA
ENDBRANCH   7   8
ENDBRANCH   6   7
ENDBRANCH   5   6
ENDBRANCH   4   5
ENDBRANCH   3   4
ENDBRANCH   2   3
ENDBRANCH   1   2
BRANCH   1  11
ATOM     11  C   UNL     1      20.298 -21.136 -19.041  1.00  0.00     0.000 C 
BRANCH  11  12
ATOM     12  C   UNL     1      20.638 -22.395 -19.853  1.00  0.00    -0.000 C 
BRANCH  12  13
ATOM     13  C   UNL     1      19.539 -23.456 -19.705  1.00  0.00    -0.000 C 
BRANCH  13  14
ATOM     14  C   UNL     1      18.295 -22.870 -19.022  1.00  0.00    -0.000 C 
BRANCH  14  15
ATOM     15  C   UNL     1      17.379 -23.956 -18.435  1.00  0.00    -0.000 C 
BRANCH  15  16
ATOM     16  C   UNL     1      16.094 -24.151 -19.258  1.00  0.00    -0.000 C 
BRANCH  16  17
ATOM     17  C   UNL     1      14.826 -23.805 -18.462  1.00  0.00    -0.003 C 
ATOM     18  C   UNL     1      15.117 -23.478 -16.998  1.00  0.00     0.004 C 
ENDBRANCH  16  17
ENDBRANCH  15  16
ENDBRANCH  14  15
ENDBRANCH  13  14
ENDBRANCH  12  13
ENDBRANCH  11  12
ENDBRANCH   1  11
TORSDOF 14
ENDMDL
MODEL 2
REMARK VINA RESULT:    -4.250      2.494      4.862
REMARK INTER + INTRA:          -8.424
REMARK INTER:                  -6.885
REMARK INTRA:                  -1.538
REMARK UNBOUND:                -0.695
REMARK SMILES CCCCCCCCCCCCCCCC(=O)[O-]
REMARK SMILES IDX 9 1 10 2 11 3 12 4 13 5 14 6 15 7 16 8 17 9 18 10 8 11 7 12
REMARK SMILES IDX 6 13 5 14 4 15 3 16 2 17 1 18
REMARK H PARENT
REMARK Flexibility Score: inf
ROOT
ATOM      1  C   UNL     1      18.258 -24.097 -19.748  1.00  0.00     0.000 C 
ENDROOT
BRANCH   1   2
ATOM      2  C   UNL     1      18.757 -22.746 -19.208  1.00  0.00     0.000 C 
BRANCH   2   3
ATOM      3  C   UNL     1      18.787 -21.650 -20.286  1.00  0.00     0.000 C 
BRANCH   3   4
ATOM      4  C   UNL     1      20.168 -20.984 -20.417  1.00  0.00     0.000 C 
BRANCH   4   5
ATOM      5  C   UNL     1      21.127 -21.387 -19.286  1.00  0.00     0.000 C 
BRANCH   5   6
ATOM      6  C   UNL     1      21.791 -20.177 -18.613  1.00  0.00     0.006 C 
BRANCH   6   7
ATOM      7  C   UNL     1      20.781 -19.044 -18.402  1.00  0.00     0.053 C 
BRANCH   7   8
ATOM      8  C   UNL     1      21.224 -18.148 -17.289  1.00  0.00     0.041 C 
ATOM      9  O   UNL     1      20.401 -17.378 -16.728  1.00  0.00    -0.550 OA
ATOM     10  O   UNL     1      22.538 -18.197 -16.838  1.00  0.00    -0.550 OA
ENDBRANCH   7   8
ENDBRANCH   6   7
ENDBRANCH   5   6
ENDBRANCH   4   5
ENDBRANCH   3   4
ENDBRANCH   2   3
ENDBRANCH   1   2
BRANCH   1  11
ATOM     11  C   UNL     1      16.953 -24.551 -19.073  1.00  0.00     0.000 C 
BRANCH  11  12
ATOM     12  C   UNL     1      16.587 -23.690 -17.854  1.00  0.00    -0.000 C 
BRANCH  12  13
ATOM     13  C   UNL     1      15.065 -23.619 -17.671  1.00  0.00    -0.000 C 
BRANCH  13  14
ATOM     14  C   UNL     1      14.338 -24.364 -18.800  1.00  0.00    -0.000 C 
BRANCH  14  15
ATOM     15  C   UNL     1      13.555 -23.416 -19.722  1.00  0.00    -0.000 C 
BRANCH  15  16
ATOM     16  C   UNL     1      14.001 -21.951 -19.578  1.00  0.00    -0.000 C 
BRANCH  16  17
ATOM     17  C   UNL     1      15.015 -21.535 -20.654  1.00  0.00    -0.003 C 
ATOM     18  C   UNL     1      15.491 -20.092 -20.494  1.00  0.00     0.004 C 
ENDBRANCH  16  17
ENDBRANCH  15  16
ENDBRANCH  14  15
ENDBRANCH  13  14
ENDBRANCH  12  13
ENDBRANCH  11  12
ENDBRANCH   1  11
TORSDOF 14
ENDMDL
MODEL 3
REMARK VINA RESULT:    -4.172      2.920      7.147
REMARK INTER + INTRA:          -8.280
REMARK INTER:                  -7.469
REMARK INTRA:                  -0.811
REMARK UNBOUND:                -0.695
REMARK SMILES CCCCCCCCCCCCCCCC(=O)[O-]
REMARK SMILES IDX 9 1 10 2 11 3 12 4 13 5 14 6 15 7 16 8 17 9 18 10 8 11 7 12
REMARK SMILES IDX 6 13 5 14 4 15 3 16 2 17 1 18
REMARK H PARENT
REMARK Flexibility Score: inf
ROOT
ATOM      1  C   UNL     1      21.401 -20.257 -17.552  1.00  0.00     0.000 C 
ENDROOT
BRANCH   1   2
ATOM      2  C   UNL     1      20.732 -21.329 -18.431  1.00  0.00     0.000 C 
BRANCH   2   3
ATOM      3  C   UNL     1      20.171 -20.755 -19.741  1.00  0.00     0.000 C 
BRANCH   3   4
ATOM      4  C   UNL     1      19.099 -21.661 -20.375  1.00  0.00     0.000 C 
BRANCH   4   5
ATOM      5  C   UNL     1      18.701 -22.831 -19.461  1.00  0.00     0.000 C 
BRANCH   5   6
ATOM      6  C   UNL     1      17.195 -23.130 -19.503  1.00  0.00     0.006 C 
BRANCH   6   7
ATOM      7  C   UNL     1      16.696 -23.619 -18.139  1.00  0.00     0.053 C 
BRANCH   7   8
ATOM      8  C   UNL     1      15.395 -22.966 -17.793  1.00  0.00     0.041 C 
ATOM      9  O   UNL     1      14.809 -22.233 -18.633  1.00  0.00    -0.550 OA
ATOM     10  O   UNL     1      14.804 -23.205 -16.558  1.00  0.00    -0.550 OA
ENDBRANCH   7   8
ENDBRANCH   6   7
ENDBRANCH   5   6
ENDBRANCH   4   5
ENDBRANCH   3   4
ENDBRANCH   2   3
ENDBRANCH   1   2
BRANCH   1  11
ATOM     11  C   UNL     1      21.046 -18.829 -17.998  1.00  0.00     0.000 C 
BRANCH  11  12
ATOM     12  C   UNL     1      22.116 -17.802 -17.599  1.00  0.00    -0.000 C 
BRANCH  12  13
ATOM     13  C   UNL     1      21.483 -16.599 -16.887  1.00  0.00    -0.000 C 
BRANCH  13  14
ATOM     14  C   UNL     1      20.032 -16.899 -16.482  1.00  0.00    -0.000 C 
BRANCH  14  15
ATOM     15  C   UNL     1      19.342 -15.692 -15.827  1.00  0.00    -0.000 C 
BRANCH  15  16
ATOM     16  C   UNL     1      17.855 -15.952 -15.530  1.00  0.00    -0.000 C 
BRANCH  16  17
ATOM     17  C   UNL     1      16.963 -14.757 -15.898  1.00  0.00    -0.003 C 
ATOM     18  C   UNL     1      16.089 -15.025 -17.123  1.00  0.00     0.004 C 
ENDBRANCH  16  17
ENDBRANCH  15  16
ENDBRANCH  14  15
ENDBRANCH  13  14
ENDBRANCH  12  13
ENDBRANCH  11  12
ENDBRANCH   1  11
TORSDOF 14
ENDMDL
MODEL 4
REMARK VINA RESULT:    -4.115      3.185      7.455
REMARK INTER + INTRA:          -8.177
REMARK INTER:                  -6.911
REMARK INTRA:                  -1.266
REMARK UNBOUND:                -0.695
REMARK SMILES CCCCCCCCCCCCCCCC(=O)[O-]
REMARK SMILES IDX 9 1 10 2 11 3 12 4 13 5 14 6 15 7 16 8 17 9 18 10 8 11 7 12
REMARK SMILES IDX 6 13 5 14 4 15 3 16 2 17 1 18
REMARK H PARENT
REMARK Flexibility Score: inf
ROOT
ATOM      1  C   UNL     1      18.205 -23.021 -20.213  1.00  0.00     0.000 C 
ENDROOT
BRANCH   1   2
ATOM      2  C   UNL     1      17.590 -24.079 -19.281  1.00  0.00     0.000 C 
BRANCH   2   3
ATOM      3  C   UNL     1      16.935 -23.463 -18.034  1.00  0.00     0.000 C 
BRANCH   3   4
ATOM      4  C   UNL     1      15.481 -23.927 -17.838  1.00  0.00     0.000 C 
BRANCH   4   5
ATOM      5  C   UNL     1      14.829 -24.396 -19.148  1.00  0.00     0.000 C 
BRANCH   5   6
ATOM      6  C   UNL     1      13.605 -23.554 -19.536  1.00  0.00     0.006 C 
BRANCH   6   7
ATOM      7  C   UNL     1      13.930 -22.621 -20.706  1.00  0.00     0.053 C 
BRANCH   7   8
ATOM      8  C   UNL     1      14.230 -21.242 -20.209  1.00  0.00     0.041 C 
ATOM      9  O   UNL     1      15.418 -20.896 -19.977  1.00  0.00    -0.550 OA
ATOM     10  O   UNL     1      13.201 -20.322 -20.048  1.00  0.00    -0.550 OA
ENDBRANCH   7   8
ENDBRANCH   6   7
ENDBRANCH   5   6
ENDBRANCH   4   5
ENDBRANCH   3   4
ENDBRANCH   2   3
ENDBRANCH   1   2
BRANCH   1  11
ATOM     11  C   UNL     1      19.370 -22.264 -19.552  1.00  0.00     0.000 C 
BRANCH  11  12
ATOM     12  C   UNL     1      19.657 -20.914 -20.227  1.00  0.00    -0.000 C 
BRANCH  12  13
ATOM     13  C   UNL     1      20.389 -19.967 -19.268  1.00  0.00    -0.000 C 
BRANCH  13  14
ATOM     14  C   UNL     1      21.156 -20.753 -18.195  1.00  0.00    -0.000 C 
BRANCH  14  15
ATOM     15  C   UNL     1      21.601 -19.867 -17.020  1.00  0.00    -0.000 C 
BRANCH  15  16
ATOM     16  C   UNL     1      21.078 -18.426 -17.138  1.00  0.00    -0.000 C 
BRANCH  16  17
ATOM     17  C   UNL     1      22.211 -17.393 -17.235  1.00  0.00    -0.003 C 
ATOM     18  C   UNL     1      23.592 -18.006 -17.007  1.00  0.00     0.004 C 
ENDBRANCH  16  17
ENDBRANCH  15  16
ENDBRANCH  14  15
ENDBRANCH  13  14
ENDBRANCH  12  13
ENDBRANCH  11  12
ENDBRANCH   1  11
TORSDOF 14
ENDMDL
MODEL 5
REMARK VINA RESULT:    -4.093      2.865      4.184
REMARK INTER + INTRA:          -8.138
REMARK INTER:                  -6.801
REMARK INTRA:                  -1.337
REMARK UNBOUND:                -0.695
REMARK SMILES CCCCCCCCCCCCCCCC(=O)[O-]
REMARK SMILES IDX 9 1 10 2 11 3 12 4 13 5 14 6 15 7 16 8 17 9 18 10 8 11 7 12
REMARK SMILES IDX 6 13 5 14 4 15 3 16 2 17 1 18
REMARK H PARENT
REMARK Flexibility Score: inf
ROOT
ATOM      1  C   UNL     1      18.766 -22.438 -19.419  1.00  0.00     0.000 C 
ENDROOT
BRANCH   1   2
ATOM      2  C   UNL     1      20.292 -22.412 -19.227  1.00  0.00     0.000 C 
BRANCH   2   3
ATOM      3  C   UNL     1      20.934 -21.115 -19.748  1.00  0.00     0.000 C 
BRANCH   3   4
ATOM      4  C   UNL     1      20.797 -19.946 -18.757  1.00  0.00     0.000 C 
BRANCH   4   5
ATOM      5  C   UNL     1      21.461 -20.240 -17.403  1.00  0.00     0.000 C 
BRANCH   5   6
ATOM      6  C   UNL     1      22.203 -19.023 -16.830  1.00  0.00     0.006 C 
BRANCH   6   7
ATOM      7  C   UNL     1      21.562 -17.716 -17.309  1.00  0.00     0.053 C 
BRANCH   7   8
ATOM      8  C   UNL     1      22.611 -16.675 -17.546  1.00  0.00     0.041 C 
ATOM      9  O   UNL     1      23.121 -16.056 -16.575  1.00  0.00    -0.550 OA
ATOM     10  O   UNL     1      23.061 -16.424 -18.836  1.00  0.00    -0.550 OA
ENDBRANCH   7   8
ENDBRANCH   6   7
ENDBRANCH   5   6
ENDBRANCH   4   5
ENDBRANCH   3   4
ENDBRANCH   2   3
ENDBRANCH   1   2
BRANCH   1  11
ATOM     11  C   UNL     1      18.282 -23.735 -20.088  1.00  0.00     0.000 C 
BRANCH  11  12
ATOM     12  C   UNL     1      17.213 -24.464 -19.259  1.00  0.00    -0.000 C 
BRANCH  12  13
ATOM     13  C   UNL     1      16.960 -23.739 -17.931  1.00  0.00    -0.000 C 
BRANCH  13  14
ATOM     14  C   UNL     1      15.482 -23.831 -17.525  1.00  0.00    -0.000 C 
BRANCH  14  15
ATOM     15  C   UNL     1      14.652 -22.650 -18.051  1.00  0.00    -0.000 C 
BRANCH  15  16
ATOM     16  C   UNL     1      13.921 -22.981 -19.363  1.00  0.00    -0.000 C 
BRANCH  16  17
ATOM     17  C   UNL     1      14.510 -22.237 -20.571  1.00  0.00    -0.003 C 
ATOM     18  C   UNL     1      15.367 -21.038 -20.167  1.00  0.00     0.004 C 
ENDBRANCH  16  17
ENDBRANCH  15  16
ENDBRANCH  14  15
ENDBRANCH  13  14
ENDBRANCH  12  13
ENDBRANCH  11  12
ENDBRANCH   1  11
TORSDOF 14
ENDMDL
MODEL 6
REMARK VINA RESULT:    -4.067     13.304     14.635
REMARK INTER + INTRA:          -8.090
REMARK INTER:                  -7.280
REMARK INTRA:                  -0.809
REMARK UNBOUND:                -0.695
REMARK SMILES CCCCCCCCCCCCCCCC(=O)[O-]
REMARK SMILES IDX 9 1 10 2 11 3 12 4 13 5 14 6 15 7 16 8 17 9 18 10 8 11 7 12
REMARK SMILES IDX 6 13 5 14 4 15 3 16 2 17 1 18
REMARK H PARENT
REMARK Flexibility Score: inf
ROOT
ATOM      1  C   UNL     1       5.677 -20.400 -13.907  1.00  0.00     0.000 C 
ENDROOT
BRANCH   1   2
ATOM      2  C   UNL     1       6.119 -20.301 -15.377  1.00  0.00     0.000 C 
BRANCH   2   3
ATOM      3  C   UNL     1       5.679 -18.986 -16.041  1.00  0.00     0.000 C 
BRANCH   3   4
ATOM      4  C   UNL     1       6.421 -17.760 -15.479  1.00  0.00     0.000 C 
BRANCH   4   5
ATOM      5  C   UNL     1       6.070 -16.464 -16.228  1.00  0.00     0.000 C 
BRANCH   5   6
ATOM      6  C   UNL     1       5.301 -16.724 -17.533  1.00  0.00     0.006 C 
BRANCH   6   7
ATOM      7  C   UNL     1       5.839 -15.848 -18.669  1.00  0.00     0.053 C 
BRANCH   7   8
ATOM      8  C   UNL     1       6.041 -16.662 -19.907  1.00  0.00     0.041 C 
ATOM      9  O   UNL     1       5.652 -17.858 -19.951  1.00  0.00    -0.550 OA
ATOM     10  O   UNL     1       6.615 -16.084 -21.033  1.00  0.00    -0.550 OA
ENDBRANCH   7   8
ENDBRANCH   6   7
ENDBRANCH   5   6
ENDBRANCH   4   5
ENDBRANCH   3   4
ENDBRANCH   2   3
ENDBRANCH   1   2
BRANCH   1  11
ATOM     11  C   UNL     1       6.057 -21.748 -13.271  1.00  0.00     0.000 C 
BRANCH  11  12
ATOM     12  C   UNL     1       5.066 -22.189 -12.184  1.00  0.00    -0.000 C 
BRANCH  12  13
ATOM     13  C   UNL     1       5.071 -23.715 -12.025  1.00  0.00    -0.000 C 
BRANCH  13  14
ATOM     14  C   UNL     1       6.062 -24.153 -10.936  1.00  0.00    -0.000 C 
BRANCH  14  15
ATOM     15  C   UNL     1       5.364 -24.811  -9.735  1.00  0.00    -0.000 C 
BRANCH  15  16
ATOM     16  C   UNL     1       5.591 -24.037  -8.425  1.00  0.00    -0.000 C 
BRANCH  16  17
ATOM     17  C   UNL     1       6.337 -22.712  -8.645  1.00  0.00    -0.003 C 
ATOM     18  C   UNL     1       5.407 -21.500  -8.630  1.00  0.00     0.004 C 
ENDBRANCH  16  17
ENDBRANCH  15  16
ENDBRANCH  14  15
ENDBRANCH  13  14
ENDBRANCH  12  13
ENDBRANCH  11  12
ENDBRANCH   1  11
TORSDOF 14
ENDMDL
MODEL 7
REMARK VINA RESULT:    -4.047      3.989      7.061
REMARK INTER + INTRA:          -8.054
REMARK INTER:                  -6.313
REMARK INTRA:                  -1.741
REMARK UNBOUND:                -0.695
REMARK SMILES CCCCCCCCCCCCCCCC(=O)[O-]
REMARK SMILES IDX 9 1 10 2 11 3 12 4 13 5 14 6 15 7 16 8 17 9 18 10 8 11 7 12
REMARK SMILES IDX 6 13 5 14 4 15 3 16 2 17 1 18
REMARK H PARENT
REMARK Flexibility Score: inf
ROOT
ATOM      1  C   UNL     1      24.849 -16.544 -15.776  1.00  0.00     0.000 C 
ENDROOT
BRANCH   1   2
ATOM      2  C   UNL     1      25.037 -18.029 -16.134  1.00  0.00     0.000 C 
BRANCH   2   3
ATOM      3  C   UNL     1      24.895 -18.299 -17.640  1.00  0.00     0.000 C 
BRANCH   3   4
ATOM      4  C   UNL     1      23.673 -19.174 -17.973  1.00  0.00     0.000 C 
BRANCH   4   5
ATOM      5  C   UNL     1      22.807 -19.472 -16.739  1.00  0.00     0.000 C 
BRANCH   5   6
ATOM      6  C   UNL     1      21.371 -19.877 -17.106  1.00  0.00     0.006 C 
BRANCH   6   7
ATOM      7  C   UNL     1      21.024 -19.432 -18.531  1.00  0.00     0.053 C 
BRANCH   7   8
ATOM      8  C   UNL     1      20.371 -20.548 -19.283  1.00  0.00     0.041 C 
ATOM      9  O   UNL     1      19.734 -20.311 -20.343  1.00  0.00    -0.550 OA
ATOM     10  O   UNL     1      20.507 -21.858 -18.841  1.00  0.00    -0.550 OA
ENDBRANCH   7   8
ENDBRANCH   6   7
ENDBRANCH   5   6
ENDBRANCH   4   5
ENDBRANCH   3   4
ENDBRANCH   2   3
ENDBRANCH   1   2
BRANCH   1  11
ATOM     11  C   UNL     1      24.545 -15.678 -17.011  1.00  0.00     0.000 C 
BRANCH  11  12
ATOM     12  C   UNL     1      23.179 -14.982 -16.924  1.00  0.00    -0.000 C 
BRANCH  12  13
ATOM     13  C   UNL     1      22.037 -15.993 -17.093  1.00  0.00    -0.000 C 
BRANCH  13  14
ATOM     14  C   UNL     1      20.793 -15.558 -16.305  1.00  0.00    -0.000 C 
BRANCH  14  15
ATOM     15  C   UNL     1      19.875 -16.739 -15.954  1.00  0.00    -0.000 C 
BRANCH  15  16
ATOM     16  C   UNL     1      18.519 -16.284 -15.388  1.00  0.00    -0.000 C 
BRANCH  16  17
ATOM     17  C   UNL     1      18.017 -14.985 -16.035  1.00  0.00    -0.003 C 
ATOM     18  C   UNL     1      16.888 -14.327 -15.243  1.00  0.00     0.004 C 
ENDBRANCH  16  17
ENDBRANCH  15  16
ENDBRANCH  14  15
ENDBRANCH  13  14
ENDBRANCH  12  13
ENDBRANCH  11  12
ENDBRANCH   1  11
TORSDOF 14
ENDMDL
MODEL 8
REMARK VINA RESULT:    -4.030     13.520     14.543
REMARK INTER + INTRA:          -8.023
REMARK INTER:                  -7.341
REMARK INTRA:                  -0.681
REMARK UNBOUND:                -0.695
REMARK SMILES CCCCCCCCCCCCCCCC(=O)[O-]
REMARK SMILES IDX 9 1 10 2 11 3 12 4 13 5 14 6 15 7 16 8 17 9 18 10 8 11 7 12
REMARK SMILES IDX 6 13 5 14 4 15 3 16 2 17 1 18
REMARK H PARENT
REMARK Flexibility Score: inf
ROOT
ATOM      1  C   UNL     1       5.979 -18.821 -15.248  1.00  0.00     0.000 C 
ENDROOT
BRANCH   1   2
ATOM      2  C   UNL     1       4.875 -19.077 -16.289  1.00  0.00     0.000 C 
BRANCH   2   3
ATOM      3  C   UNL     1       4.883 -18.046 -17.428  1.00  0.00     0.000 C 
BRANCH   3   4
ATOM      4  C   UNL     1       5.637 -16.756 -17.056  1.00  0.00     0.000 C 
BRANCH   4   5
ATOM      5  C   UNL     1       5.520 -15.671 -18.138  1.00  0.00     0.000 C 
BRANCH   5   6
ATOM      6  C   UNL     1       5.426 -16.256 -19.556  1.00  0.00     0.006 C 
BRANCH   6   7
ATOM      7  C   UNL     1       6.677 -15.917 -20.372  1.00  0.00     0.053 C 
BRANCH   7   8
ATOM      8  C   UNL     1       6.631 -14.494 -20.833  1.00  0.00     0.041 C 
ATOM      9  O   UNL     1       7.699 -13.856 -21.029  1.00  0.00    -0.550 OA
ATOM     10  O   UNL     1       5.409 -13.886 -21.094  1.00  0.00    -0.550 OA
ENDBRANCH   7   8
ENDBRANCH   6   7
ENDBRANCH   5   6
ENDBRANCH   4   5
ENDBRANCH   3   4
ENDBRANCH   2   3
ENDBRANCH   1   2
BRANCH   1  11
ATOM     11  C   UNL     1       5.651 -19.445 -13.881  1.00  0.00     0.000 C 
BRANCH  11  12
ATOM     12  C   UNL     1       5.457 -20.967 -13.958  1.00  0.00    -0.000 C 
BRANCH  12  13
ATOM     13  C   UNL     1       5.031 -21.534 -12.597  1.00  0.00    -0.000 C 
BRANCH  13  14
ATOM     14  C   UNL     1       5.887 -22.750 -12.214  1.00  0.00    -0.000 C 
BRANCH  14  15
ATOM     15  C   UNL     1       5.210 -23.638 -11.158  1.00  0.00    -0.000 C 
BRANCH  15  16
ATOM     16  C   UNL     1       6.116 -23.908  -9.945  1.00  0.00    -0.000 C 
BRANCH  16  17
ATOM     17  C   UNL     1       5.669 -23.141  -8.692  1.00  0.00    -0.003 C 
ATOM     18  C   UNL     1       6.473 -21.862  -8.462  1.00  0.00     0.004 C 
ENDBRANCH  16  17
ENDBRANCH  15  16
ENDBRANCH  14  15
ENDBRANCH  13  14
ENDBRANCH  12  13
ENDBRANCH  11  12
ENDBRANCH   1  11
TORSDOF 14
ENDMDL
MODEL 9
REMARK VINA RESULT:    -4.029     12.286     14.287
REMARK INTER + INTRA:          -8.021
REMARK INTER:                  -7.155
REMARK INTRA:                  -0.866
REMARK UNBOUND:                -0.695
REMARK SMILES CCCCCCCCCCCCCCCC(=O)[O-]
REMARK SMILES IDX 9 1 10 2 11 3 12 4 13 5 14 6 15 7 16 8 17 9 18 10 8 11 7 12
REMARK SMILES IDX 6 13 5 14 4 15 3 16 2 17 1 18
REMARK H PARENT
REMARK Flexibility Score: inf
ROOT
ATOM      1  C   UNL     1       7.467 -20.623 -15.659  1.00  0.00     0.000 C 
ENDROOT
BRANCH   1   2
ATOM      2  C   UNL     1       7.216 -21.348 -16.993  1.00  0.00     0.000 C 
BRANCH   2   3
ATOM      3  C   UNL     1       5.918 -20.894 -17.679  1.00  0.00     0.000 C 
BRANCH   3   4
ATOM      4  C   UNL     1       5.999 -20.974 -19.214  1.00  0.00     0.000 C 
BRANCH   4   5
ATOM      5  C   UNL     1       4.981 -20.055 -19.907  1.00  0.00     0.000 C 
BRANCH   5   6
ATOM      6  C   UNL     1       5.594 -18.716 -20.344  1.00  0.00     0.006 C 
BRANCH   6   7
ATOM      7  C   UNL     1       5.221 -17.598 -19.366  1.00  0.00     0.053 C 
BRANCH   7   8
ATOM      8  C   UNL     1       5.990 -16.352 -19.677  1.00  0.00     0.041 C 
ATOM      9  O   UNL     1       5.986 -15.387 -18.869  1.00  0.00    -0.550 OA
ATOM     10  O   UNL     1       6.752 -16.277 -20.836  1.00  0.00    -0.550 OA
ENDBRANCH   7   8
ENDBRANCH   6   7
ENDBRANCH   5   6
ENDBRANCH   4   5
ENDBRANCH   3   4
ENDBRANCH   2   3
ENDBRANCH   1   2
BRANCH   1  11
ATOM     11  C   UNL     1       6.430 -19.521 -15.387  1.00  0.00     0.000 C 
BRANCH  11  12
ATOM     12  C   UNL     1       5.615 -19.778 -14.111  1.00  0.00    -0.000 C 
BRANCH  12  13
ATOM     13  C   UNL     1       6.028 -21.101 -13.453  1.00  0.00    -0.000 C 
BRANCH  13  14
ATOM     14  C   UNL     1       5.073 -21.471 -12.309  1.00  0.00    -0.000 C 
BRANCH  14  15
ATOM     15  C   UNL     1       5.281 -22.909 -11.810  1.00  0.00    -0.000 C 
BRANCH  15  16
ATOM     16  C   UNL     1       5.010 -23.055 -10.303  1.00  0.00    -0.000 C 
BRANCH  16  17
ATOM     17  C   UNL     1       5.630 -21.916  -9.479  1.00  0.00    -0.003 C 
ATOM     18  C   UNL     1       6.383 -22.417  -8.247  1.00  0.00     0.004 C 
ENDBRANCH  16  17
ENDBRANCH  15  16
ENDBRANCH  14  15
ENDBRANCH  13  14
ENDBRANCH  12  13
ENDBRANCH  11  12
ENDBRANCH   1  11
TORSDOF 14
ENDMDL
