MODEL 1
REMARK VINA RESULT:    -3.243      0.000      0.000
REMARK INTER + INTRA:          -4.376
REMARK INTER:                  -4.569
REMARK INTRA:                   0.193
REMARK UNBOUND:                 0.193
REMARK SMILES CC1=CCC(=C(C)C)C(=O)CC(C)=CCC1
REMARK SMILES IDX 12 1 14 2 13 3 15 4 16 5 2 6 1 7 3 8 11 10 9 11 10 12 5 13
REMARK SMILES IDX 6 14 7 15 8 16 4 17
REMARK H PARENT
REMARK Flexibility Score: 60.00
ROOT
ATOM      1  C   UNL     1      18.047  52.882  35.427  1.00  0.00    -0.070 C 
ATOM      2  C   UNL     1      16.917  53.081  36.141  1.00  0.00    -0.027 C 
ATOM      3  C   UNL     1      19.297  53.601  35.868  1.00  0.00     0.039 C 
ENDROOT
BRANCH   2   4
ATOM      4  C   UNL     1      15.595  52.381  35.915  1.00  0.00     0.032 C 
BRANCH   4   5
ATOM      5  C   UNL     1      14.824  52.840  34.660  1.00  0.00     0.034 C 
BRANCH   5   6
ATOM      6  C   UNL     1      14.377  51.687  33.780  1.00  0.00    -0.077 C 
ATOM      7  C   UNL     1      13.412  50.689  34.368  1.00  0.00     0.039 C 
ATOM      8  C   UNL     1      14.732  51.535  32.480  1.00  0.00    -0.023 CG0
ATOM      9  G   UNL     1      15.697  52.398  31.690  1.00  0.00     0.000 G0
ENDBRANCH   5   6
ENDBRANCH   4   5
ENDBRANCH   2   4
BRANCH   1  10
ATOM     10  C   UNL     1      18.139  51.907  34.269  1.00  0.00     0.111 C 
BRANCH  10  11
ATOM     11  C   UNL     1      17.939  52.597  32.945  1.00  0.00     0.163 C 
ATOM     12  O   UNL     1      18.497  53.712  32.766  1.00  0.00    -0.294 OA
BRANCH  11  13
ATOM     13  C   UNL     1      17.161  51.980  31.829  1.00  0.00    -0.002 C 
ATOM     14  C   UNL     1      17.715  51.008  31.045  1.00  0.00    -0.069 C 
ATOM     15  C   UNL     1      16.906  50.254  30.012  1.00  0.00     0.039 C 
ATOM     16  C   UNL     1      19.176  50.632  31.175  1.00  0.00     0.039 C 
BRANCH  13  17
ATOM     17  C   UNL     1      15.712  52.412  31.670  1.00  0.00     0.066 CG0
ATOM     18  G   UNL     1      14.762  51.553  32.482  1.00  0.00     0.000 G0
ENDBRANCH  13  17
ENDBRANCH  11  13
ENDBRANCH  10  11
ENDBRANCH   1  10
TORSDOF 0
ENDMDL
MODEL 2
REMARK VINA RESULT:    -3.218     12.580     14.459
REMARK INTER + INTRA:          -4.342
REMARK INTER:                  -4.533
REMARK INTRA:                   0.191
REMARK UNBOUND:                 0.193
REMARK SMILES CC1=CCC(=C(C)C)C(=O)CC(C)=CCC1
REMARK SMILES IDX 12 1 14 2 13 3 15 4 16 5 2 6 1 7 3 8 11 10 9 11 10 12 5 13
REMARK SMILES IDX 6 14 7 15 8 16 4 17
REMARK H PARENT
REMARK Flexibility Score: 60.00
ROOT
ATOM      1  C   UNL     1      14.116  62.525  21.641  1.00  0.00    -0.070 C 
ATOM      2  C   UNL     1      15.402  62.802  21.334  1.00  0.00    -0.027 C 
ATOM      3  C   UNL     1      13.036  63.228  20.858  1.00  0.00     0.039 C 
ENDROOT
BRANCH   2   4
ATOM      4  C   UNL     1      16.618  62.131  21.936  1.00  0.00     0.032 C 
BRANCH   4   5
ATOM      5  C   UNL     1      17.089  60.861  21.199  1.00  0.00     0.034 C 
BRANCH   5   6
ATOM      6  C   UNL     1      17.244  59.661  22.116  1.00  0.00    -0.077 C 
ATOM      7  C   UNL     1      18.471  59.599  22.989  1.00  0.00     0.039 C 
ATOM      8  C   UNL     1      16.320  58.678  22.250  1.00  0.00    -0.023 CG0
ATOM      9  G   UNL     1      15.029  58.523  21.469  1.00  0.00     0.000 G0
ENDBRANCH   5   6
ENDBRANCH   4   5
ENDBRANCH   2   4
BRANCH   1  10
ATOM     10  C   UNL     1      13.711  61.480  22.663  1.00  0.00     0.111 C 
BRANCH  10  11
ATOM     11  C   UNL     1      13.197  60.228  22.002  1.00  0.00     0.163 C 
ATOM     12  O   UNL     1      12.264  60.340  21.162  1.00  0.00    -0.294 OA
BRANCH  11  13
ATOM     13  C   UNL     1      13.791  58.883  22.261  1.00  0.00    -0.002 C 
ATOM     14  C   UNL     1      13.186  58.003  23.113  1.00  0.00    -0.069 C 
ATOM     15  C   UNL     1      13.674  56.580  23.276  1.00  0.00     0.039 C 
ATOM     16  C   UNL     1      11.986  58.411  23.940  1.00  0.00     0.039 C 
BRANCH  13  17
ATOM     17  C   UNL     1      15.034  58.509  21.469  1.00  0.00     0.066 CG0
ATOM     18  G   UNL     1      16.306  58.688  22.274  1.00  0.00     0.000 G0
ENDBRANCH  13  17
ENDBRANCH  11  13
ENDBRANCH  10  11
ENDBRANCH   1  10
TORSDOF 0
ENDMDL
MODEL 3
REMARK VINA RESULT:    -3.198     13.399     15.053
REMARK INTER + INTRA:          -4.314
REMARK INTER:                  -4.607
REMARK INTRA:                   0.293
REMARK UNBOUND:                 0.193
REMARK SMILES CC1=CCC(=C(C)C)C(=O)CC(C)=CCC1
REMARK SMILES IDX 12 1 14 2 13 3 15 4 16 5 2 6 1 7 3 8 11 10 9 11 10 12 5 13
REMARK SMILES IDX 6 14 7 15 8 16 4 17
REMARK H PARENT
REMARK Flexibility Score: 60.00
ROOT
ATOM      1  C   UNL     1      15.465  62.055  20.888  1.00  0.00    -0.070 C 
ATOM      2  C   UNL     1      14.148  61.900  20.632  1.00  0.00    -0.027 C 
ATOM      3  C   UNL     1      16.449  61.376  19.968  1.00  0.00     0.039 C 
ENDROOT
BRANCH   2   4
ATOM      4  C   UNL     1      13.018  62.576  21.377  1.00  0.00     0.032 C 
BRANCH   4   5
ATOM      5  C   UNL     1      12.790  62.062  22.814  1.00  0.00     0.034 C 
BRANCH   5   6
ATOM      6  C   UNL     1      12.869  63.158  23.860  1.00  0.00    -0.077 C 
ATOM      7  C   UNL     1      11.874  64.287  23.769  1.00  0.00     0.039 C 
ATOM      8  C   UNL     1      13.729  63.155  24.909  1.00  0.00    -0.023 CG0
ATOM      9  G   UNL     1      14.821  62.141  25.191  1.00  0.00     0.000 G0
ENDBRANCH   5   6
ENDBRANCH   4   5
ENDBRANCH   2   4
BRANCH   1  10
ATOM     10  C   UNL     1      15.999  62.949  21.990  1.00  0.00     0.111 C 
BRANCH  10  11
ATOM     11  C   UNL     1      16.461  62.149  23.179  1.00  0.00     0.163 C 
ATOM     12  O   UNL     1      17.154  61.118  22.968  1.00  0.00    -0.294 OA
BRANCH  11  13
ATOM     13  C   UNL     1      16.182  62.568  24.585  1.00  0.00    -0.002 C 
ATOM     14  C   UNL     1      17.058  63.367  25.264  1.00  0.00    -0.069 C 
ATOM     15  C   UNL     1      16.732  63.936  26.628  1.00  0.00     0.039 C 
ATOM     16  C   UNL     1      18.407  63.726  24.680  1.00  0.00     0.039 C 
BRANCH  13  17
ATOM     17  C   UNL     1      14.849  62.147  25.183  1.00  0.00     0.066 CG0
ATOM     18  G   UNL     1      13.752  63.160  24.918  1.00  0.00     0.000 G0
ENDBRANCH  13  17
ENDBRANCH  11  13
ENDBRANCH  10  11
ENDBRANCH   1  10
TORSDOF 0
ENDMDL
MODEL 4
REMARK VINA RESULT:    -3.188      2.551      4.856
REMARK INTER + INTRA:          -4.299
REMARK INTER:                  -4.452
REMARK INTRA:                   0.152
REMARK UNBOUND:                 0.193
REMARK SMILES CC1=CCC(=C(C)C)C(=O)CC(C)=CCC1
REMARK SMILES IDX 12 1 14 2 13 3 15 4 16 5 2 6 1 7 3 8 11 10 9 11 10 12 5 13
REMARK SMILES IDX 6 14 7 15 8 16 4 17
REMARK H PARENT
REMARK Flexibility Score: 60.00
ROOT
ATOM      1  C   UNL     1      15.442  52.811  35.459  1.00  0.00    -0.070 C 
ATOM      2  C   UNL     1      15.317  52.023  34.369  1.00  0.00    -0.027 C 
ATOM      3  C   UNL     1      15.116  52.213  36.804  1.00  0.00     0.039 C 
ENDROOT
BRANCH   2   4
ATOM      4  C   UNL     1      15.687  52.409  32.953  1.00  0.00     0.032 C 
BRANCH   4   5
ATOM      5  C   UNL     1      17.154  52.129  32.567  1.00  0.00     0.034 C 
BRANCH   5   6
ATOM      6  C   UNL     1      17.776  53.239  31.740  1.00  0.00    -0.077 C 
ATOM      7  C   UNL     1      17.358  53.357  30.296  1.00  0.00     0.039 C 
ATOM      8  C   UNL     1      18.630  54.171  32.231  1.00  0.00    -0.023 CG0
ATOM      9  G   UNL     1      19.199  54.240  33.634  1.00  0.00     0.000 G0
ENDBRANCH   5   6
ENDBRANCH   4   5
ENDBRANCH   2   4
BRANCH   1  10
ATOM     10  C   UNL     1      15.978  54.228  35.405  1.00  0.00     0.111 C 
BRANCH  10  11
ATOM     11  C   UNL     1      17.479  54.258  35.529  1.00  0.00     0.163 C 
ATOM     12  O   UNL     1      18.015  53.546  36.420  1.00  0.00    -0.294 OA
BRANCH  11  13
ATOM     13  C   UNL     1      18.345  55.047  34.603  1.00  0.00    -0.002 C 
ATOM     14  C   UNL     1      18.399  56.410  34.687  1.00  0.00    -0.069 C 
ATOM     15  C   UNL     1      19.381  57.225  33.874  1.00  0.00     0.039 C 
ATOM     16  C   UNL     1      17.475  57.177  35.608  1.00  0.00     0.039 C 
BRANCH  13  17
ATOM     17  C   UNL     1      19.224  54.266  33.639  1.00  0.00     0.066 CG0
ATOM     18  G   UNL     1      18.619  54.178  32.251  1.00  0.00     0.000 G0
ENDBRANCH  13  17
ENDBRANCH  11  13
ENDBRANCH  10  11
ENDBRANCH   1  10
TORSDOF 0
ENDMDL
MODEL 5
REMARK VINA RESULT:    -3.122     13.015     15.027
REMARK INTER + INTRA:          -4.207
REMARK INTER:                  -4.503
REMARK INTRA:                   0.296
REMARK UNBOUND:                 0.193
REMARK SMILES CC1=CCC(=C(C)C)C(=O)CC(C)=CCC1
REMARK SMILES IDX 12 1 14 2 13 3 15 4 16 5 2 6 1 7 3 8 11 10 9 11 10 12 5 13
REMARK SMILES IDX 6 14 7 15 8 16 4 17
REMARK H PARENT
REMARK Flexibility Score: 60.00
ROOT
ATOM      1  C   UNL     1      14.041  62.024  20.591  1.00  0.00    -0.070 C 
ATOM      2  C   UNL     1      15.052  61.288  20.079  1.00  0.00    -0.027 C 
ATOM      3  C   UNL     1      12.657  61.806  20.035  1.00  0.00     0.039 C 
ENDROOT
BRANCH   2   4
ATOM      4  C   UNL     1      16.484  61.292  20.569  1.00  0.00     0.032 C 
BRANCH   4   5
ATOM      5  C   UNL     1      16.886  60.062  21.408  1.00  0.00     0.034 C 
BRANCH   5   6
ATOM      6  C   UNL     1      17.531  60.427  22.732  1.00  0.00    -0.077 C 
ATOM      7  C   UNL     1      19.034  60.551  22.769  1.00  0.00     0.039 C 
ATOM      8  C   UNL     1      16.844  60.715  23.865  1.00  0.00    -0.023 CG0
ATOM      9  G   UNL     1      15.343  60.640  24.067  1.00  0.00     0.000 G0
ENDBRANCH   5   6
ENDBRANCH   4   5
ENDBRANCH   2   4
BRANCH   1  10
ATOM     10  C   UNL     1      14.215  62.982  21.753  1.00  0.00     0.111 C 
BRANCH  10  11
ATOM     11  C   UNL     1      13.737  62.379  23.047  1.00  0.00     0.163 C 
ATOM     12  O   UNL     1      12.504  62.144  23.173  1.00  0.00    -0.294 OA
BRANCH  11  13
ATOM     13  C   UNL     1      14.670  61.997  24.148  1.00  0.00    -0.002 C 
ATOM     14  C   UNL     1      14.846  62.812  25.231  1.00  0.00    -0.069 C 
ATOM     15  C   UNL     1      15.660  62.385  26.433  1.00  0.00     0.039 C 
ATOM     16  C   UNL     1      14.227  64.193  25.282  1.00  0.00     0.039 C 
BRANCH  13  17
ATOM     17  C   UNL     1      15.334  60.632  24.054  1.00  0.00     0.066 CG0
ATOM     18  G   UNL     1      16.834  60.734  23.856  1.00  0.00     0.000 G0
ENDBRANCH  13  17
ENDBRANCH  11  13
ENDBRANCH  10  11
ENDBRANCH   1  10
TORSDOF 0
ENDMDL
MODEL 6
REMARK VINA RESULT:    -3.079      2.147      3.813
REMARK INTER + INTRA:          -4.145
REMARK INTER:                  -4.363
REMARK INTRA:                   0.218
REMARK UNBOUND:                 0.193
REMARK SMILES CC1=CCC(=C(C)C)C(=O)CC(C)=CCC1
REMARK SMILES IDX 12 1 14 2 13 3 15 4 16 5 2 6 1 7 3 8 11 10 9 11 10 12 5 13
REMARK SMILES IDX 6 14 7 15 8 16 4 17
REMARK H PARENT
REMARK Flexibility Score: 60.00
ROOT
ATOM      1  C   UNL     1      16.652  52.761  36.062  1.00  0.00    -0.070 C 
ATOM      2  C   UNL     1      17.850  53.277  36.414  1.00  0.00    -0.027 C 
ATOM      3  C   UNL     1      15.510  52.899  37.036  1.00  0.00     0.039 C 
ENDROOT
BRANCH   2   4
ATOM      4  C   UNL     1      19.084  53.323  35.538  1.00  0.00     0.032 C 
BRANCH   4   5
ATOM      5  C   UNL     1      19.070  54.424  34.458  1.00  0.00     0.034 C 
BRANCH   5   6
ATOM      6  C   UNL     1      19.554  53.938  33.104  1.00  0.00    -0.077 C 
ATOM      7  C   UNL     1      20.981  53.466  32.997  1.00  0.00     0.039 C 
ATOM      8  C   UNL     1      18.769  53.837  32.002  1.00  0.00    -0.023 CG0
ATOM      9  G   UNL     1      17.320  54.266  31.870  1.00  0.00     0.000 G0
ENDBRANCH   5   6
ENDBRANCH   4   5
ENDBRANCH   2   4
BRANCH   1  10
ATOM     10  C   UNL     1      16.380  52.140  34.706  1.00  0.00     0.111 C 
BRANCH  10  11
ATOM     11  C   UNL     1      15.889  53.161  33.715  1.00  0.00     0.163 C 
ATOM     12  O   UNL     1      15.117  54.068  34.130  1.00  0.00    -0.294 OA
BRANCH  11  13
ATOM     13  C   UNL     1      16.329  53.172  32.288  1.00  0.00    -0.002 C 
ATOM     14  C   UNL     1      15.803  52.290  31.387  1.00  0.00    -0.069 C 
ATOM     15  C   UNL     1      16.109  52.377  29.908  1.00  0.00     0.039 C 
ATOM     16  C   UNL     1      14.877  51.176  31.828  1.00  0.00     0.039 C 
BRANCH  13  17
ATOM     17  C   UNL     1      17.308  54.258  31.871  1.00  0.00     0.066 CG0
ATOM     18  G   UNL     1      18.752  53.817  32.010  1.00  0.00     0.000 G0
ENDBRANCH  13  17
ENDBRANCH  11  13
ENDBRANCH  10  11
ENDBRANCH   1  10
TORSDOF 0
ENDMDL
MODEL 7
REMARK VINA RESULT:    -3.026     13.767     15.630
REMARK INTER + INTRA:          -4.072
REMARK INTER:                  -4.684
REMARK INTRA:                   0.612
REMARK UNBOUND:                 0.193
REMARK SMILES CC1=CCC(=C(C)C)C(=O)CC(C)=CCC1
REMARK SMILES IDX 12 1 14 2 13 3 15 4 16 5 2 6 1 7 3 8 11 10 9 11 10 12 5 13
REMARK SMILES IDX 6 14 7 15 8 16 4 17
REMARK H PARENT
REMARK Flexibility Score: 60.00
ROOT
ATOM      1  C   UNL     1      13.293  62.113  21.158  1.00  0.00    -0.070 C 
ATOM      2  C   UNL     1      14.603  61.838  20.976  1.00  0.00    -0.027 C 
ATOM      3  C   UNL     1      12.284  61.125  20.629  1.00  0.00     0.039 C 
ENDROOT
BRANCH   2   4
ATOM      4  C   UNL     1      15.759  62.652  21.516  1.00  0.00     0.032 C 
BRANCH   4   5
ATOM      5  C   UNL     1      16.725  61.876  22.434  1.00  0.00     0.034 C 
BRANCH   5   6
ATOM      6  C   UNL     1      16.989  62.578  23.754  1.00  0.00    -0.077 C 
ATOM      7  C   UNL     1      18.355  63.179  23.967  1.00  0.00     0.039 C 
ATOM      8  C   UNL     1      16.058  62.760  24.723  1.00  0.00    -0.023 CG0
ATOM      9  G   UNL     1      14.637  62.232  24.735  1.00  0.00     0.000 G0
ENDBRANCH   5   6
ENDBRANCH   4   5
ENDBRANCH   2   4
BRANCH   1  10
ATOM     10  C   UNL     1      12.794  63.310  21.944  1.00  0.00     0.111 C 
BRANCH  10  11
ATOM     11  C   UNL     1      12.581  62.971  23.395  1.00  0.00     0.163 C 
ATOM     12  O   UNL     1      11.529  62.353  23.713  1.00  0.00    -0.294 OA
BRANCH  11  13
ATOM     13  C   UNL     1      13.591  63.284  24.449  1.00  0.00    -0.002 C 
ATOM     14  C   UNL     1      13.518  64.445  25.166  1.00  0.00    -0.069 C 
ATOM     15  C   UNL     1      14.428  64.720  26.343  1.00  0.00     0.039 C 
ATOM     16  C   UNL     1      12.511  65.521  24.817  1.00  0.00     0.039 C 
BRANCH  13  17
ATOM     17  C   UNL     1      14.636  62.221  24.748  1.00  0.00     0.066 CG0
ATOM     18  G   UNL     1      16.047  62.778  24.731  1.00  0.00     0.000 G0
ENDBRANCH  13  17
ENDBRANCH  11  13
ENDBRANCH  10  11
ENDBRANCH   1  10
TORSDOF 0
ENDMDL
MODEL 8
REMARK VINA RESULT:    -2.992     12.436     14.017
REMARK INTER + INTRA:          -4.023
REMARK INTER:                  -4.322
REMARK INTRA:                   0.299
REMARK UNBOUND:                 0.193
REMARK SMILES CC1=CCC(=C(C)C)C(=O)CC(C)=CCC1
REMARK SMILES IDX 12 1 14 2 13 3 15 4 16 5 2 6 1 7 3 8 11 10 9 11 10 12 5 13
REMARK SMILES IDX 6 14 7 15 8 16 4 17
REMARK H PARENT
REMARK Flexibility Score: 60.00
ROOT
ATOM      1  C   UNL     1      15.492  62.120  21.266  1.00  0.00    -0.070 C 
ATOM      2  C   UNL     1      14.206  62.248  20.870  1.00  0.00    -0.027 C 
ATOM      3  C   UNL     1      16.449  61.417  20.337  1.00  0.00     0.039 C 
ENDROOT
BRANCH   2   4
ATOM      4  C   UNL     1      13.124  63.000  21.615  1.00  0.00     0.032 C 
BRANCH   4   5
ATOM      5  C   UNL     1      13.021  62.668  23.118  1.00  0.00     0.034 C 
BRANCH   5   6
ATOM      6  C   UNL     1      12.704  61.208  23.386  1.00  0.00    -0.077 C 
ATOM      7  C   UNL     1      11.442  60.643  22.785  1.00  0.00     0.039 C 
ATOM      8  C   UNL     1      13.513  60.363  24.073  1.00  0.00    -0.023 CG0
ATOM      9  G   UNL     1      14.810  60.711  24.776  1.00  0.00     0.000 G0
ENDBRANCH   5   6
ENDBRANCH   4   5
ENDBRANCH   2   4
BRANCH   1  10
ATOM     10  C   UNL     1      16.033  62.726  22.546  1.00  0.00     0.111 C 
BRANCH  10  11
ATOM     11  C   UNL     1      16.732  61.697  23.395  1.00  0.00     0.163 C 
ATOM     12  O   UNL     1      17.932  61.908  23.717  1.00  0.00    -0.294 OA
BRANCH  11  13
ATOM     13  C   UNL     1      16.039  60.480  23.913  1.00  0.00    -0.002 C 
ATOM     14  C   UNL     1      16.540  59.232  23.669  1.00  0.00    -0.069 C 
ATOM     15  C   UNL     1      15.953  57.993  24.309  1.00  0.00     0.039 C 
ATOM     16  C   UNL     1      17.719  59.028  22.741  1.00  0.00     0.039 C 
BRANCH  13  17
ATOM     17  C   UNL     1      14.818  60.697  24.793  1.00  0.00     0.066 CG0
ATOM     18  G   UNL     1      13.526  60.342  24.084  1.00  0.00     0.000 G0
ENDBRANCH  13  17
ENDBRANCH  11  13
ENDBRANCH  10  11
ENDBRANCH   1  10
TORSDOF 0
ENDMDL
MODEL 9
REMARK VINA RESULT:    -2.886      3.434      5.481
REMARK INTER + INTRA:          -3.875
REMARK INTER:                  -4.258
REMARK INTRA:                   0.383
REMARK UNBOUND:                 0.193
REMARK SMILES CC1=CCC(=C(C)C)C(=O)CC(C)=CCC1
REMARK SMILES IDX 12 1 14 2 13 3 15 4 16 5 2 6 1 7 3 8 11 10 9 11 10 12 5 13
REMARK SMILES IDX 6 14 7 15 8 16 4 17
REMARK H PARENT
REMARK Flexibility Score: 60.00
ROOT
ATOM      1  C   UNL     1      16.149  52.908  35.824  1.00  0.00    -0.070 C 
ATOM      2  C   UNL     1      17.315  52.226  35.816  1.00  0.00    -0.027 C 
ATOM      3  C   UNL     1      15.334  52.897  37.093  1.00  0.00     0.039 C 
ENDROOT
BRANCH   2   4
ATOM      4  C   UNL     1      18.313  52.197  34.678  1.00  0.00     0.032 C 
BRANCH   4   5
ATOM      5  C   UNL     1      19.438  53.248  34.776  1.00  0.00     0.034 C 
BRANCH   5   6
ATOM      6  C   UNL     1      19.450  54.220  33.610  1.00  0.00    -0.077 C 
ATOM      7  C   UNL     1      20.158  53.793  32.349  1.00  0.00     0.039 C 
ATOM      8  C   UNL     1      18.809  55.415  33.604  1.00  0.00    -0.023 CG0
ATOM      9  G   UNL     1      18.056  56.054  34.754  1.00  0.00     0.000 G0
ENDBRANCH   5   6
ENDBRANCH   4   5
ENDBRANCH   2   4
BRANCH   1  10
ATOM     10  C   UNL     1      15.670  53.753  34.660  1.00  0.00     0.111 C 
BRANCH  10  11
ATOM     11  C   UNL     1      15.622  55.215  35.018  1.00  0.00     0.163 C 
ATOM     12  O   UNL     1      14.793  55.585  35.893  1.00  0.00    -0.294 OA
BRANCH  11  13
ATOM     13  C   UNL     1      16.555  56.217  34.424  1.00  0.00    -0.002 C 
ATOM     14  C   UNL     1      16.079  57.268  33.692  1.00  0.00    -0.069 C 
ATOM     15  C   UNL     1      16.981  58.384  33.211  1.00  0.00     0.039 C 
ATOM     16  C   UNL     1      14.614  57.370  33.326  1.00  0.00     0.039 C 
BRANCH  13  17
ATOM     17  C   UNL     1      18.034  56.068  34.748  1.00  0.00     0.066 CG0
ATOM     18  G   UNL     1      18.809  55.422  33.617  1.00  0.00     0.000 G0
ENDBRANCH  13  17
ENDBRANCH  11  13
ENDBRANCH  10  11
ENDBRANCH   1  10
TORSDOF 0
ENDMDL
